### 
### Created by X-TOOL on Wed Jan  1 15:39:37 2020
### 

@<TRIPOS>MOLECULE
6f7t_ligand
  223   222     1     0     0
SMALL
GAST_HUCK


@<TRIPOS>ATOM
      1 N         -18.2940   -2.3380  -83.5990 N.4       1 GLU         0.2380
      2 CA        -18.1050   -1.8450  -82.2280 C.3       1 GLU         0.0665
      3 C         -18.5020   -2.8840  -81.1650 C.2       1 GLU         0.2268
      4 O         -17.7220   -3.1550  -80.2490 O.2       1 GLU        -0.3907
      5 CB        -18.8580   -0.5200  -82.0020 C.3       1 GLU         0.0194
      6 CG        -17.9450    0.6490  -81.6760 C.3       1 GLU         0.0075
      7 CD        -18.6890    1.9220  -81.3130 C.2       1 GLU         0.0351
      8 OE1       -19.5830    1.8280  -80.4390 O.co2     1 GLU        -0.5690
      9 OE2       -18.3960    3.0000  -81.8940 O.co2     1 GLU        -0.5690
     10 N         -19.7190   -3.4520  -81.2960 N.am      1 ARG        -0.2610
     11 CA        -20.2820   -4.4870  -80.4140 C.3       1 ARG         0.1312
     12 C         -19.5240   -5.8390  -80.5220 C.2       1 ARG         0.2039
     13 O         -19.0880   -6.2420  -81.6160 O.2       1 ARG        -0.3944
     14 CB        -21.7980   -4.7080  -80.6790 C.3       1 ARG        -0.0092
     15 CG        -22.0820   -5.4150  -82.0070 C.3       1 ARG        -0.0156
     16 CD        -23.4940   -5.8800  -82.1650 C.3       1 ARG         0.0627
     17 NE        -23.5670   -6.8920  -83.2200 N.pl3     1 ARG        -0.2723
     18 CZ        -23.6780   -6.6450  -84.5290 C.cat     1 ARG         0.2882
     19 NH1       -23.7450   -7.6420  -85.3940 N.pl3     1 ARG        -0.2849
     20 NH2       -23.7230   -5.3970  -84.9770 N.pl3     1 ARG        -0.2849
     21 N         -19.4000   -6.5370  -79.3730 N.am      1 ARG        -0.2637
     22 CA        -18.7690   -7.8480  -79.2280 C.3       1 ARG         0.1311
     23 C         -18.9340   -8.3370  -77.7870 C.2       1 ARG         0.2040
     24 O         -19.5100   -7.6400  -76.9300 O.2       1 ARG        -0.3944
     25 CB        -17.2610   -7.8210  -79.6250 C.3       1 ARG        -0.0092
     26 CG        -16.5030   -6.5800  -79.1440 C.3       1 ARG        -0.0156
     27 CD        -14.9850   -6.7050  -79.1360 C.3       1 ARG         0.0627
     28 NE        -14.4670   -6.8930  -77.7690 N.pl3     1 ARG        -0.2723
     29 CZ        -14.3940   -5.9520  -76.8200 C.cat     1 ARG         0.2882
     30 NH1       -14.8040   -4.7090  -77.0690 N.pl3     1 ARG        -0.2849
     31 NH2       -13.8920   -6.2390  -75.6270 N.pl3     1 ARG        -0.2849
     32 N         -18.4170   -9.5400  -77.5300 N.am      1 ASN        -0.2616
     33 CA        -18.3950  -10.0470  -76.1950 C.3       1 ASN         0.1476
     34 C         -17.1950   -9.3640  -75.5230 C.2       1 ASN         0.2063
     35 O         -16.0860   -9.4310  -76.0420 O.2       1 ASN        -0.3942
     36 CB        -18.2450  -11.5620  -76.1730 C.3       1 ASN         0.0773
     37 CG        -18.6620  -12.1490  -74.8550 C.2       1 ASN         0.1780
     38 OD1       -18.6250  -11.4950  -73.7940 O.2       1 ASN        -0.3970
     39 ND2       -19.0970  -13.3820  -74.8900 N.am      1 ASN        -0.3007
     40 N         -17.4290   -8.6710  -74.4000 N.am      1 GLU        -0.2635
     41 CA        -16.3990   -7.9750  -73.6200 C.3       1 GLU         0.1325
     42 C         -15.2670   -8.9600  -73.2090 C.2       1 GLU         0.2040
     43 O         -14.1150   -8.5530  -73.0090 O.2       1 GLU        -0.3944
     44 CB        -17.0690   -7.4050  -72.3780 C.3       1 GLU        -0.0008
     45 CG        -16.3000   -6.3140  -71.6930 C.3       1 GLU         0.0044
     46 CD        -17.0060   -5.6770  -70.5100 C.2       1 GLU         0.0350
     47 OE1       -17.9490   -6.2810  -69.9390 O.co2     1 GLU        -0.5690
     48 OE2       -16.5760   -4.5640  -70.1330 O.co2     1 GLU        -0.5690
     49 N         -15.6200  -10.2610  -73.1040 N.am      1 LEU        -0.2637
     50 CA        -14.7310  -11.3370  -72.7190 C.3       1 LEU         0.1312
     51 C         -13.7930  -11.7170  -73.8270 C.2       1 LEU         0.2039
     52 O         -12.7820  -12.3720  -73.5700 O.2       1 LEU        -0.3944
     53 CB        -15.5330  -12.5610  -72.2630 C.3       1 LEU        -0.0101
     54 CG        -16.2970  -12.4380  -70.9370 C.3       1 LEU        -0.0425
     55 CD1       -16.9670  -13.7500  -70.5860 C.3       1 LEU        -0.0625
     56 CD2       -15.3790  -12.0560  -69.8160 C.3       1 LEU        -0.0625
     57 N         -14.1310  -11.3210  -75.0700 N.am      1 GLN        -0.2636
     58 CA        -13.3250  -11.5750  -76.2500 C.3       1 GLN         0.1330
     59 C         -12.1180  -10.6190  -76.3390 C.2       1 GLN         0.2040
     60 O         -12.2660   -9.3920  -76.4770 O.2       1 GLN        -0.3944
     61 CB        -14.1880  -11.5280  -77.5030 C.3       1 GLN         0.0045
     62 CG        -13.4780  -12.0190  -78.7510 C.3       1 GLN         0.0412
     63 CD        -14.4530  -12.5120  -79.7610 C.2       1 GLN         0.1737
     64 OE1       -15.6520  -12.2120  -79.6850 O.2       1 GLN        -0.3973
     65 NE2       -13.9510  -13.2720  -80.7360 N.am      1 GLN        -0.3009
     66 N         -10.9180  -11.2230  -76.2370 N.am      1 LYS        -0.2637
     67 CA         -9.6140  -10.5540  -76.2720 C.3       1 LYS         0.1310
     68 C          -8.9200  -10.9420  -77.5640 C.2       1 LYS         0.2039
     69 O          -8.7810  -12.1380  -77.8290 O.2       1 LYS        -0.3944
     70 CB         -8.7610  -10.9500  -75.0360 C.3       1 LYS        -0.0122
     71 CG         -9.4920  -10.8410  -73.6850 C.3       1 LYS        -0.0440
     72 CD         -9.5150   -9.4280  -73.1120 C.3       1 LYS        -0.0124
     73 CE        -10.7380   -9.1650  -72.2490 C.3       1 LYS        -0.0354
     74 NZ        -10.3850   -9.0620  -70.8060 N.4       1 LYS         0.2185
     75 N          -8.5090   -9.9410  -78.3800 N.am      1 GLN        -0.2636
     76 CA         -7.8790  -10.1470  -79.7000 C.3       1 GLN         0.1330
     77 C          -6.6060  -11.0370  -79.6780 C.2       1 GLN         0.2040
     78 O          -6.3780  -11.8080  -80.6170 O.2       1 GLN        -0.3944
     79 CB         -7.6070   -8.8090  -80.4150 C.3       1 GLN         0.0045
     80 CG         -6.7700   -7.8010  -79.6180 C.3       1 GLN         0.0412
     81 CD         -6.3540   -6.6510  -80.4870 C.2       1 GLN         0.1737
     82 OE1        -5.7780   -6.8260  -81.5660 O.2       1 GLN        -0.3973
     83 NE2        -6.6380   -5.4430  -80.0370 N.am      1 GLN        -0.3009
     84 N          -5.8240  -10.9550  -78.5980 N.am      1 GLU        -0.2636
     85 CA         -4.5970  -11.7200  -78.3760 C.3       1 GLU         0.1325
     86 C          -4.8550  -13.2310  -78.1800 C.2       1 GLU         0.2041
     87 O          -3.9020  -14.0150  -78.1980 O.2       1 GLU        -0.3944
     88 CB         -3.8320  -11.1320  -77.1640 C.3       1 GLU        -0.0008
     89 CG         -4.6460  -11.0020  -75.8740 C.3       1 GLU         0.0044
     90 CD         -5.2900   -9.6580  -75.5720 C.2       1 GLU         0.0350
     91 OE1        -5.7630   -8.9930  -76.5220 O.co2     1 GLU        -0.5690
     92 OE2        -5.3410   -9.2740  -74.3800 O.co2     1 GLU        -0.5690
     93 N          -6.1310  -13.6270  -77.9580 N.am      1 ASN        -0.2616
     94 CA         -6.5480  -15.0130  -77.6850 C.3       1 ASN         0.1475
     95 C          -7.1930  -15.6860  -78.8970 C.2       1 ASN         0.2057
     96 O          -8.3540  -16.0970  -78.8310 O.2       1 ASN        -0.3942
     97 CB         -7.4960  -15.0500  -76.4730 C.3       1 ASN         0.0773
     98 CG         -6.8660  -14.7220  -75.1510 C.2       1 ASN         0.1780
     99 OD1        -5.8380  -14.0430  -75.0520 O.2       1 ASN        -0.3970
    100 ND2        -7.4870  -15.2010  -74.0950 N.am      1 ASN        -0.3007
    101 N          -6.4340  -15.8030  -80.0010 N.am      1 ARG        -0.2693
    102 CA         -6.8990  -16.3920  -81.2710 C.3       1 ARG         0.0945
    103 C          -6.0380  -17.5760  -81.6880 C.2       1 ARG         0.0601
    104 O          -4.8290  -17.5490  -81.4840 O.co2     1 ARG        -0.5666
    105 CB         -6.9300  -15.3420  -82.3970 C.3       1 ARG        -0.0148
    106 CG         -7.9470  -14.2350  -82.1860 C.3       1 ARG        -0.0162
    107 CD         -8.0790  -13.3840  -83.4200 C.3       1 ARG         0.0627
    108 NE         -8.8690  -12.1940  -83.1420 N.pl3     1 ARG        -0.2723
    109 CZ         -9.2230  -11.3010  -84.0570 C.cat     1 ARG         0.2882
    110 NH1        -8.8650  -11.4620  -85.3270 N.pl3     1 ARG        -0.2849
    111 NH2        -9.9430  -10.2420  -83.7140 N.pl3     1 ARG        -0.2849
    112 OXT        -6.5600  -18.5470  -82.2250 O.co2     1 ARG        -0.5666
    113 H1        -18.0205   -1.6223  -84.2541 H         1 GLU         0.2015
    114 H2        -19.2643   -2.5709  -83.7416 H         1 GLU         0.2015
    115 H3        -17.7268   -3.1589  -83.7421 H         1 GLU         0.2015
    116 H4        -17.0314   -1.6420  -82.1012 H         1 GLU         0.1099
    117 H5        -19.5599   -0.6568  -81.1662 H         1 GLU         0.0363
    118 H6        -19.4194   -0.2784  -82.9166 H         1 GLU         0.0363
    119 H7        -17.3153    0.8534  -82.5545 H         1 GLU         0.0434
    120 H8        -17.3074    0.3651  -80.8258 H         1 GLU         0.0434
    121 H9        -20.2876   -3.1429  -82.0584 H         1 ARG         0.1884
    122 H10       -20.1724   -4.1273  -79.3803 H         1 ARG         0.0800
    123 H11       -22.2972   -3.7279  -80.6912 H         1 ARG         0.0313
    124 H12       -22.2100   -5.3193  -79.8626 H         1 ARG         0.0313
    125 H13       -21.4204   -6.2908  -82.0798 H         1 ARG         0.0301
    126 H14       -21.8558   -4.7156  -82.8253 H         1 ARG         0.0301
    127 H15       -24.1321   -5.0253  -82.4339 H         1 ARG         0.0689
    128 H16       -23.8437   -6.3148  -81.2170 H         1 ARG         0.0689
    129 H17       -23.5296   -7.8793  -82.9287 H         1 ARG         0.2642
    130 H18       -23.8305   -7.4450  -86.4014 H         1 ARG         0.2615
    131 H19       -23.7118   -8.6160  -85.0608 H         1 ARG         0.2615
    132 H20       -23.6718   -4.6099  -84.3146 H         1 ARG         0.2615
    133 H21       -23.8091   -5.2152  -85.9872 H         1 ARG         0.2615
    134 H22       -19.7740   -6.1190  -78.5451 H         1 ARG         0.1883
    135 H23       -19.2840   -8.5528  -79.8973 H         1 ARG         0.0800
    136 H24       -17.1931   -7.8620  -80.7221 H         1 ARG         0.0313
    137 H25       -16.7757   -8.7092  -79.1942 H         1 ARG         0.0313
    138 H26       -16.8308   -6.3585  -78.1176 H         1 ARG         0.0301
    139 H27       -16.7711   -5.7415  -79.8036 H         1 ARG         0.0301
    140 H28       -14.5484   -5.7892  -79.5611 H         1 ARG         0.0689
    141 H29       -14.6940   -7.5695  -79.7508 H         1 ARG         0.0689
    142 H30       -14.1305   -7.8345  -77.5214 H         1 ARG         0.2642
    143 H31       -14.7448   -3.9901  -76.3337 H         1 ARG         0.2615
    144 H32       -15.1802   -4.4669  -77.9968 H         1 ARG         0.2615
    145 H33       -13.5709   -7.1955  -75.4199 H         1 ARG         0.2615
    146 H34       -13.8230   -5.5055  -74.9072 H         1 ARG         0.2615
    147 H35       -18.0427  -10.0899  -78.2767 H         1 ASN         0.1885
    148 H36       -19.3249   -9.7748  -75.6743 H         1 ASN         0.0826
    149 H37       -17.1912  -11.8174  -76.3581 H         1 ASN         0.0551
    150 H38       -18.8717  -11.9926  -76.9678 H         1 ASN         0.0551
    151 H39       -19.3906  -13.8327  -74.0470 H         1 ASN         0.1814
    152 H40       -19.1360  -13.8740  -75.7597 H         1 ASN         0.1814
    153 H41       -18.3720   -8.6249  -74.0703 H         1 GLU         0.1883
    154 H42       -15.9689   -7.1588  -74.2190 H         1 GLU         0.0801
    155 H43       -17.2125   -8.2255  -71.6595 H         1 GLU         0.0330
    156 H44       -18.0484   -7.0001  -72.6728 H         1 GLU         0.0330
    157 H45       -16.0940   -5.5259  -72.4322 H         1 GLU         0.0433
    158 H46       -15.3504   -6.7386  -71.3354 H         1 GLU         0.0433
    159 H47       -16.5696  -10.4987  -73.3083 H         1 LEU         0.1883
    160 H48       -14.1264  -10.9865  -71.8695 H         1 LEU         0.0800
    161 H49       -14.8296  -13.4009  -72.1642 H         1 LEU         0.0315
    162 H50       -16.2676  -12.7885  -73.0495 H         1 LEU         0.0315
    163 H51       -17.0669  -11.6602  -71.0481 H         1 LEU         0.0298
    164 H52       -17.5084  -13.6422  -69.6345 H         1 LEU         0.0232
    165 H53       -16.2042  -14.5363  -70.4867 H         1 LEU         0.0232
    166 H54       -17.6751  -14.0245  -71.3817 H         1 LEU         0.0232
    167 H55       -14.8838  -11.1035  -70.0560 H         1 LEU         0.0232
    168 H56       -14.6195  -12.8401  -69.6806 H         1 LEU         0.0232
    169 H57       -15.9597  -11.9438  -68.8885 H         1 LEU         0.0232
    170 H58       -14.9896  -10.8217  -75.1865 H         1 GLN         0.1883
    171 H59       -12.9246  -12.5959  -76.1635 H         1 GLN         0.0801
    172 H60       -14.5027  -10.4872  -77.6692 H         1 GLN         0.0337
    173 H61       -15.0749  -12.1573  -77.3377 H         1 GLN         0.0337
    174 H62       -12.7972  -12.8389  -78.4784 H         1 GLN         0.0504
    175 H63       -12.8990  -11.1904  -79.1848 H         1 GLN         0.0504
    176 H64       -14.5531  -13.6355  -81.4469 H         1 GLN         0.1814
    177 H65       -12.9727  -13.4781  -80.7559 H         1 GLN         0.1814
    178 H66       -10.9167  -12.2170  -76.1276 H         1 LYS         0.1883
    179 H67        -9.7660   -9.4646  -76.2584 H         1 LYS         0.0800
    180 H68        -7.8805  -10.2915  -75.0027 H         1 LYS         0.0312
    181 H69        -8.4346  -11.9925  -75.1653 H         1 LYS         0.0312
    182 H70        -8.9876  -11.5001  -72.9631 H         1 LYS         0.0269
    183 H71       -10.5304  -11.1761  -73.8241 H         1 LYS         0.0269
    184 H72        -9.5115   -8.7101  -73.9454 H         1 LYS         0.0317
    185 H73        -8.6136   -9.2822  -72.4987 H         1 LYS         0.0317
    186 H74       -11.4523   -9.9907  -72.3827 H         1 LYS         0.0813
    187 H75       -11.2039   -8.2216  -72.5697 H         1 LYS         0.0813
    188 H76       -11.2192   -8.8879  -70.2676 H         1 LYS         0.1994
    189 H77        -9.7346   -8.3036  -70.6725 H         1 LYS         0.1994
    190 H78        -9.9623   -9.9248  -70.5011 H         1 LYS         0.1994
    191 H79        -8.6411   -9.0003  -78.0676 H         1 GLN         0.1883
    192 H80        -8.6191  -10.6868  -80.3090 H         1 GLN         0.0801
    193 H81        -8.5764   -8.3416  -80.6427 H         1 GLN         0.0337
    194 H82        -7.0753   -9.0264  -81.3531 H         1 GLN         0.0337
    195 H83        -5.8717   -8.3040  -79.2307 H         1 GLN         0.0504
    196 H84        -7.3682   -7.4200  -78.7772 H         1 GLN         0.0504
    197 H85        -6.3851   -4.6375  -80.5730 H         1 GLN         0.1814
    198 H86        -7.1061   -5.3333  -79.1601 H         1 GLN         0.1814
    199 H87        -6.1010  -10.3163  -77.8802 H         1 GLU         0.1883
    200 H88        -3.9648  -11.6057  -79.2689 H         1 GLU         0.0801
    201 H89        -3.4745  -10.1296  -77.4421 H         1 GLU         0.0330
    202 H90        -2.9707  -11.7842  -76.9574 H         1 GLU         0.0330
    203 H91        -3.9730  -11.2384  -75.0366 H         1 GLU         0.0433
    204 H92        -5.4522  -11.7490  -75.9186 H         1 GLU         0.0433
    205 H93        -6.8435  -12.9257  -77.9812 H         1 ASN         0.1885
    206 H94        -5.6458  -15.5878  -77.4289 H         1 ASN         0.0826
    207 H95        -7.9197  -16.0628  -76.4047 H         1 ASN         0.0551
    208 H96        -8.3042  -14.3257  -76.6524 H         1 ASN         0.0551
    209 H97        -7.1261  -15.0235  -73.1794 H         1 ASN         0.1814
    210 H98        -8.3200  -15.7426  -74.2077 H         1 ASN         0.1814
    211 H99        -5.4925  -15.4687  -79.9582 H         1 ARG         0.1875
    212 H100       -7.9254  -16.7559  -81.1157 H         1 ARG         0.0726
    213 H101       -7.1685  -15.8546  -83.3406 H         1 ARG         0.0307
    214 H102       -5.9322  -14.8847  -82.4702 H         1 ARG         0.0307
    215 H103       -7.6225  -13.6032  -81.3460 H         1 ARG         0.0301
    216 H104       -8.9238  -14.6833  -81.9517 H         1 ARG         0.0301
    217 H105       -8.5724  -13.9684  -84.2106 H         1 ARG         0.0689
    218 H106       -7.0772  -13.0813  -83.7588 H         1 ARG         0.0689
    219 H107       -9.1733  -12.0345  -82.1710 H         1 ARG         0.2642
    220 H108       -9.1429  -10.7652  -86.0327 H         1 ARG         0.2615
    221 H109       -8.3097  -12.2836  -85.6053 H         1 ARG         0.2615
    222 H110      -10.2259  -10.1074  -82.7328 H         1 ARG         0.2615
    223 H111      -10.2195   -9.5538  -84.4287 H         1 ARG         0.2615
@<TRIPOS>BOND
     1    1    2 1  
     2    2    3 1  
     3    2    5 1  
     4    3    4 2  
     5    3   10 am 
     6    5    6 1  
     7    6    7 1  
     8    7    8 ar 
     9    7    9 ar 
    10   10   11 1  
    11   11   12 1  
    12   11   14 1  
    13   12   13 2  
    14   12   21 am 
    15   14   15 1  
    16   15   16 1  
    17   16   17 1  
    18   17   18 ar 
    19   18   19 ar 
    20   18   20 ar 
    21   21   22 1  
    22   22   23 1  
    23   22   25 1  
    24   23   24 2  
    25   23   32 am 
    26   25   26 1  
    27   26   27 1  
    28   27   28 1  
    29   28   29 ar 
    30   29   30 ar 
    31   29   31 ar 
    32   32   33 1  
    33   33   34 1  
    34   33   36 1  
    35   34   35 2  
    36   34   40 am 
    37   36   37 1  
    38   37   38 2  
    39   37   39 am 
    40   40   41 1  
    41   41   42 1  
    42   41   44 1  
    43   42   43 2  
    44   42   49 am 
    45   44   45 1  
    46   45   46 1  
    47   46   47 ar 
    48   46   48 ar 
    49   49   50 1  
    50   50   51 1  
    51   50   53 1  
    52   51   52 2  
    53   51   57 am 
    54   53   54 1  
    55   54   55 1  
    56   54   56 1  
    57   57   58 1  
    58   58   59 1  
    59   58   61 1  
    60   59   60 2  
    61   59   66 am 
    62   61   62 1  
    63   62   63 1  
    64   63   64 2  
    65   63   65 am 
    66   66   67 1  
    67   67   68 1  
    68   67   70 1  
    69   68   69 2  
    70   68   75 am 
    71   70   71 1  
    72   71   72 1  
    73   72   73 1  
    74   73   74 1  
    75   75   76 1  
    76   76   77 1  
    77   76   79 1  
    78   77   78 2  
    79   77   84 am 
    80   79   80 1  
    81   80   81 1  
    82   81   82 2  
    83   81   83 am 
    84   84   85 1  
    85   85   86 1  
    86   85   88 1  
    87   86   87 2  
    88   86   93 am 
    89   88   89 1  
    90   89   90 1  
    91   90   91 ar 
    92   90   92 ar 
    93   93   94 1  
    94   94   95 1  
    95   94   97 1  
    96   95   96 2  
    97   95  101 am 
    98   97   98 1  
    99   98   99 2  
   100   98  100 am 
   101  101  102 1  
   102  102  103 1  
   103  102  105 1  
   104  103  104 ar 
   105  103  112 ar 
   106  105  106 1  
   107  106  107 1  
   108  107  108 1  
   109  108  109 ar 
   110  109  110 ar 
   111  109  111 ar 
   112    1  113 1  
   113    1  114 1  
   114    1  115 1  
   115    2  116 1  
   116    5  117 1  
   117    5  118 1  
   118    6  119 1  
   119    6  120 1  
   120   10  121 1  
   121   11  122 1  
   122   14  123 1  
   123   14  124 1  
   124   15  125 1  
   125   15  126 1  
   126   16  127 1  
   127   16  128 1  
   128   17  129 1  
   129   19  130 1  
   130   19  131 1  
   131   20  132 1  
   132   20  133 1  
   133   21  134 1  
   134   22  135 1  
   135   25  136 1  
   136   25  137 1  
   137   26  138 1  
   138   26  139 1  
   139   27  140 1  
   140   27  141 1  
   141   28  142 1  
   142   30  143 1  
   143   30  144 1  
   144   31  145 1  
   145   31  146 1  
   146   32  147 1  
   147   33  148 1  
   148   36  149 1  
   149   36  150 1  
   150   39  151 1  
   151   39  152 1  
   152   40  153 1  
   153   41  154 1  
   154   44  155 1  
   155   44  156 1  
   156   45  157 1  
   157   45  158 1  
   158   49  159 1  
   159   50  160 1  
   160   53  161 1  
   161   53  162 1  
   162   54  163 1  
   163   55  164 1  
   164   55  165 1  
   165   55  166 1  
   166   56  167 1  
   167   56  168 1  
   168   56  169 1  
   169   57  170 1  
   170   58  171 1  
   171   61  172 1  
   172   61  173 1  
   173   62  174 1  
   174   62  175 1  
   175   65  176 1  
   176   65  177 1  
   177   66  178 1  
   178   67  179 1  
   179   70  180 1  
   180   70  181 1  
   181   71  182 1  
   182   71  183 1  
   183   72  184 1  
   184   72  185 1  
   185   73  186 1  
   186   73  187 1  
   187   74  188 1  
   188   74  189 1  
   189   74  190 1  
   190   75  191 1  
   191   76  192 1  
   192   79  193 1  
   193   79  194 1  
   194   80  195 1  
   195   80  196 1  
   196   83  197 1  
   197   83  198 1  
   198   84  199 1  
   199   85  200 1  
   200   88  201 1  
   201   88  202 1  
   202   89  203 1  
   203   89  204 1  
   204   93  205 1  
   205   94  206 1  
   206   97  207 1  
   207   97  208 1  
   208  100  209 1  
   209  100  210 1  
   210  101  211 1  
   211  102  212 1  
   212  105  213 1  
   213  105  214 1  
   214  106  215 1  
   215  106  216 1  
   216  107  217 1  
   217  107  218 1  
   218  108  219 1  
   219  110  220 1  
   220  110  221 1  
   221  111  222 1  
   222  111  223 1  
@<TRIPOS>SUBSTRUCTURE
     1 GLU         1

