6f7t_ligand
  -I-interpret- 

224223  0  0  0  0  0  0  0  0999 V2000
  -18.2940   -2.3380  -83.5990 N   0  3  0  0  0
  -18.1050   -1.8450  -82.2280 C   0  0  0  0  0
  -18.5020   -2.8840  -81.1650 C   0  0  0  0  0
  -17.7220   -3.1550  -80.2490 O   0  0  0  0  0
  -18.8580   -0.5200  -82.0020 C   0  0  0  0  0
  -17.9450    0.6490  -81.6760 C   0  0  0  0  0
  -18.6890    1.9220  -81.3130 C   0  0  0  0  0
  -19.5830    1.8280  -80.4390 O   0  0  0  0  0
  -18.3960    3.0000  -81.8940 O   0  0  0  0  0
  -19.7190   -3.4520  -81.2960 N   0  0  0  0  0
  -20.2820   -4.4870  -80.4140 C   0  0  0  0  0
  -19.5240   -5.8390  -80.5220 C   0  0  0  0  0
  -19.0880   -6.2420  -81.6160 O   0  0  0  0  0
  -21.7980   -4.7080  -80.6790 C   0  0  0  0  0
  -22.0820   -5.4150  -82.0070 C   0  0  0  0  0
  -23.4940   -5.8800  -82.1650 C   0  0  0  0  0
  -23.5670   -6.8920  -83.2200 N   0  0  0  0  0
  -23.6780   -6.6450  -84.5290 C   0  0  0  0  0
  -23.7450   -7.6420  -85.3940 N   0  0  0  0  0
  -23.7230   -5.3970  -84.9770 N   0  0  0  0  0
  -19.4000   -6.5370  -79.3730 N   0  0  0  0  0
  -18.7690   -7.8480  -79.2280 C   0  0  0  0  0
  -18.9340   -8.3370  -77.7870 C   0  0  0  0  0
  -19.5100   -7.6400  -76.9300 O   0  0  0  0  0
  -17.2610   -7.8210  -79.6250 C   0  0  0  0  0
  -16.5030   -6.5800  -79.1440 C   0  0  0  0  0
  -14.9850   -6.7050  -79.1360 C   0  0  0  0  0
  -14.4670   -6.8930  -77.7690 N   0  0  0  0  0
  -14.3940   -5.9520  -76.8200 C   0  0  0  0  0
  -14.8040   -4.7090  -77.0690 N   0  0  0  0  0
  -13.8920   -6.2390  -75.6270 N   0  0  0  0  0
  -18.4170   -9.5400  -77.5300 N   0  0  0  0  0
  -18.3950  -10.0470  -76.1950 C   0  0  0  0  0
  -17.1950   -9.3640  -75.5230 C   0  0  0  0  0
  -16.0860   -9.4310  -76.0420 O   0  0  0  0  0
  -18.2450  -11.5620  -76.1730 C   0  0  0  0  0
  -18.6620  -12.1490  -74.8550 C   0  0  0  0  0
  -18.6250  -11.4950  -73.7940 O   0  0  0  0  0
  -19.0970  -13.3820  -74.8900 N   0  0  0  0  0
  -17.4290   -8.6710  -74.4000 N   0  0  0  0  0
  -16.3990   -7.9750  -73.6200 C   0  0  0  0  0
  -15.2670   -8.9600  -73.2090 C   0  0  0  0  0
  -14.1150   -8.5530  -73.0090 O   0  0  0  0  0
  -17.0690   -7.4050  -72.3780 C   0  0  0  0  0
  -16.3000   -6.3140  -71.6930 C   0  0  0  0  0
  -17.0060   -5.6770  -70.5100 C   0  0  0  0  0
  -17.9490   -6.2810  -69.9390 O   0  0  0  0  0
  -16.5760   -4.5640  -70.1330 O   0  0  0  0  0
  -15.6200  -10.2610  -73.1040 N   0  0  0  0  0
  -14.7310  -11.3370  -72.7190 C   0  0  0  0  0
  -13.7930  -11.7170  -73.8270 C   0  0  0  0  0
  -12.7820  -12.3720  -73.5700 O   0  0  0  0  0
  -15.5330  -12.5610  -72.2630 C   0  0  0  0  0
  -16.2970  -12.4380  -70.9370 C   0  0  0  0  0
  -16.9670  -13.7500  -70.5860 C   0  0  0  0  0
  -15.3790  -12.0560  -69.8160 C   0  0  0  0  0
  -14.1310  -11.3210  -75.0700 N   0  0  0  0  0
  -13.3250  -11.5750  -76.2500 C   0  0  0  0  0
  -12.1180  -10.6190  -76.3390 C   0  0  0  0  0
  -12.2660   -9.3920  -76.4770 O   0  0  0  0  0
  -14.1880  -11.5280  -77.5030 C   0  0  0  0  0
  -13.4780  -12.0190  -78.7510 C   0  0  0  0  0
  -14.4530  -12.5120  -79.7610 C   0  0  0  0  0
  -15.6520  -12.2120  -79.6850 O   0  0  0  0  0
  -13.9510  -13.2720  -80.7360 N   0  0  0  0  0
  -10.9180  -11.2230  -76.2370 N   0  0  0  0  0
   -9.6140  -10.5540  -76.2720 C   0  0  0  0  0
   -8.9200  -10.9420  -77.5640 C   0  0  0  0  0
   -8.7810  -12.1380  -77.8290 O   0  0  0  0  0
   -8.7610  -10.9500  -75.0360 C   0  0  0  0  0
   -9.4920  -10.8410  -73.6850 C   0  0  0  0  0
   -9.5150   -9.4280  -73.1120 C   0  0  0  0  0
  -10.7380   -9.1650  -72.2490 C   0  0  0  0  0
  -10.3850   -9.0620  -70.8060 N   0  3  0  0  0
   -8.5090   -9.9410  -78.3800 N   0  0  0  0  0
   -7.8790  -10.1470  -79.7000 C   0  0  0  0  0
   -6.6060  -11.0370  -79.6780 C   0  0  0  0  0
   -6.3780  -11.8080  -80.6170 O   0  0  0  0  0
   -7.6070   -8.8090  -80.4150 C   0  0  0  0  0
   -6.7700   -7.8010  -79.6180 C   0  0  0  0  0
   -6.3540   -6.6510  -80.4870 C   0  0  0  0  0
   -5.7780   -6.8260  -81.5660 O   0  0  0  0  0
   -6.6380   -5.4430  -80.0370 N   0  0  0  0  0
   -5.8240  -10.9550  -78.5980 N   0  0  0  0  0
   -4.5970  -11.7200  -78.3760 C   0  0  0  0  0
   -4.8550  -13.2310  -78.1800 C   0  0  0  0  0
   -3.9020  -14.0150  -78.1980 O   0  0  0  0  0
   -3.8320  -11.1320  -77.1640 C   0  0  0  0  0
   -4.6460  -11.0020  -75.8740 C   0  0  0  0  0
   -5.2900   -9.6580  -75.5720 C   0  0  0  0  0
   -5.7630   -8.9930  -76.5220 O   0  0  0  0  0
   -5.3410   -9.2740  -74.3800 O   0  0  0  0  0
   -6.1310  -13.6270  -77.9580 N   0  0  0  0  0
   -6.5480  -15.0130  -77.6850 C   0  0  0  0  0
   -7.1930  -15.6860  -78.8970 C   0  0  0  0  0
   -8.3540  -16.0970  -78.8310 O   0  0  0  0  0
   -7.4960  -15.0500  -76.4730 C   0  0  0  0  0
   -6.8660  -14.7220  -75.1510 C   0  0  0  0  0
   -5.8380  -14.0430  -75.0520 O   0  0  0  0  0
   -7.4870  -15.2010  -74.0950 N   0  0  0  0  0
   -6.4340  -15.8030  -80.0010 N   0  0  0  0  0
   -6.8990  -16.3920  -81.2710 C   0  0  0  0  0
   -6.0380  -17.5760  -81.6880 C   0  0  0  0  0
   -4.8290  -17.5490  -81.4840 O   0  0  0  0  0
   -6.9300  -15.3420  -82.3970 C   0  0  0  0  0
   -7.9470  -14.2350  -82.1860 C   0  0  0  0  0
   -8.0790  -13.3840  -83.4200 C   0  0  0  0  0
   -8.8690  -12.1940  -83.1420 N   0  0  0  0  0
   -9.2230  -11.3010  -84.0570 C   0  0  0  0  0
   -8.8650  -11.4620  -85.3270 N   0  0  0  0  0
   -9.9430  -10.2420  -83.7140 N   0  0  0  0  0
   -6.5600  -18.5470  -82.2250 O   0  0  0  0  0
  -17.7849   -3.2139  -83.7173 H   0  0  0  0  0
  -19.2874   -2.4952  -83.7686 H   0  0  0  0  0
  -17.9404   -1.6460  -84.2597 H   0  0  0  0  0
  -17.0370   -1.6609  -82.1114 H   0  0  0  0  0
  -19.5233   -0.6629  -81.1505 H   0  0  0  0  0
  -19.3807   -0.2787  -82.9276 H   0  0  0  0  0
  -17.3544    0.8597  -82.5676 H   0  0  0  0  0
  -17.3463    0.3635  -80.8110 H   0  0  0  0  0
  -17.6870    2.8415  -82.5216 H   0  0  0  0  0
  -20.2990   -3.1368  -82.0736 H   0  0  0  0  0
  -20.1553   -4.1129  -79.3981 H   0  0  0  0  0
  -22.2725   -3.7275  -80.7190 H   0  0  0  0  0
  -22.1842   -5.3401  -79.8794 H   0  0  0  0  0
  -21.4465   -6.2999  -82.0422 H   0  0  0  0  0
  -21.8902   -4.6944  -82.8020 H   0  0  0  0  0
  -24.1248   -5.0327  -82.4338 H   0  0  0  0  0
  -23.8384   -6.3128  -81.2257 H   0  0  0  0  0
  -23.5300   -7.8697  -82.9316 H   0  0  0  0  0
  -23.7121   -8.6066  -85.0640 H   0  0  0  0  0
  -23.8083   -5.2170  -85.9774 H   0  0  0  0  0
  -23.6723   -4.6175  -84.3211 H   0  0  0  0  0
  -19.7815   -6.1106  -78.5286 H   0  0  0  0  0
  -19.2653   -8.5381  -79.9103 H   0  0  0  0  0
  -17.2166   -7.8211  -80.7141 H   0  0  0  0  0
  -16.7909   -8.6852  -79.1557 H   0  0  0  0  0
  -16.8071   -6.4101  -78.1111 H   0  0  0  0  0
  -16.7458   -5.7773  -79.8403 H   0  0  0  0  0
  -14.5604   -5.7875  -79.5435 H   0  0  0  0  0
  -14.7064   -7.5729  -79.7337 H   0  0  0  0  0
  -14.1337   -7.8253  -77.5238 H   0  0  0  0  0
  -14.7295   -3.9930  -76.3464 H   0  0  0  0  0
  -15.1924   -4.4734  -77.9823 H   0  0  0  0  0
  -13.5583   -7.1820  -75.4275 H   0  0  0  0  0
  -18.0352  -10.1009  -78.2916 H   0  0  0  0  0
  -19.3287   -9.8361  -75.6737 H   0  0  0  0  0
  -17.1947  -11.8031  -76.3367 H   0  0  0  0  0
  -18.8853  -11.9794  -76.9501 H   0  0  0  0  0
  -19.4180  -13.8341  -74.0338 H   0  0  0  0  0
  -19.1152  -13.8915  -75.7735 H   0  0  0  0  0
  -18.3908   -8.6240  -74.0637 H   0  0  0  0  0
  -15.9495   -7.1801  -74.2152 H   0  0  0  0  0
  -17.1610   -8.2236  -71.6641 H   0  0  0  0  0
  -18.0155   -6.9709  -72.7000 H   0  0  0  0  0
  -16.1477   -5.5257  -72.4303 H   0  0  0  0  0
  -15.3866   -6.7671  -71.3076 H   0  0  0  0  0
  -18.1149   -7.1120  -70.3901 H   0  0  0  0  0
  -16.5886  -10.5034  -73.3124 H   0  0  0  0  0
  -14.1280  -10.9736  -71.8869 H   0  0  0  0  0
  -14.8031  -13.3567  -72.1136 H   0  0  0  0  0
  -16.2908  -12.7231  -73.0295 H   0  0  0  0  0
  -17.0487  -11.6596  -71.0678 H   0  0  0  0  0
  -17.6683  -14.0209  -71.3752 H   0  0  0  0  0
  -16.2101  -14.5282  -70.4879 H   0  0  0  0  0
  -17.5031  -13.6419  -69.6431 H   0  0  0  0  0
  -14.6076  -12.8179  -69.7041 H   0  0  0  0  0
  -14.9137  -11.0962  -70.0402 H   0  0  0  0  0
  -15.9503  -11.9770  -68.8911 H   0  0  0  0  0
  -15.0067  -10.8117  -75.1888 H   0  0  0  0  0
  -12.9115  -12.5801  -76.1674 H   0  0  0  0  0
  -14.4613  -10.4864  -77.6718 H   0  0  0  0  0
  -15.0427  -12.1833  -77.3350 H   0  0  0  0  0
  -12.8150  -12.8393  -78.4759 H   0  0  0  0  0
  -12.9168  -11.1903  -79.1826 H   0  0  0  0  0
  -14.5637  -13.6357  -81.4659 H   0  0  0  0  0
  -12.9545  -13.4893  -80.7515 H   0  0  0  0  0
  -10.9167  -12.2369  -76.1254 H   0  0  0  0  0
   -9.7451   -9.4725  -76.2363 H   0  0  0  0  0
   -7.9197  -10.2580  -74.9973 H   0  0  0  0  0
   -8.4862  -11.9971  -75.1635 H   0  0  0  0  0
   -8.9585  -11.4721  -72.9742 H   0  0  0  0  0
  -10.5265  -11.1428  -73.8491 H   0  0  0  0  0
   -9.5382   -8.7283  -73.9475 H   0  0  0  0  0
   -8.6311   -9.3063  -72.4859 H   0  0  0  0  0
  -11.4306   -9.9974  -72.3736 H   0  0  0  0  0
  -11.1809   -8.2194  -72.5616 H   0  0  0  0  0
  -11.2298   -8.8859  -70.2623 H   0  0  0  0  0
   -9.9574   -9.9355  -70.4986 H   0  0  0  0  0
   -9.7269   -8.2943  -70.6722 H   0  0  0  0  0
   -8.6437   -8.9815  -78.0614 H   0  0  0  0  0
   -8.6155  -10.7092  -80.2741 H   0  0  0  0  0
   -8.5773   -8.3433  -80.5871 H   0  0  0  0  0
   -7.0392   -9.0449  -81.3150 H   0  0  0  0  0
   -5.8765   -8.3019  -79.2455 H   0  0  0  0  0
   -7.3709   -7.4191  -78.7926 H   0  0  0  0  0
   -6.3810   -4.6215  -80.5842 H   0  0  0  0  0
   -7.1144   -5.3311  -79.1421 H   0  0  0  0  0
   -6.1065  -10.3035  -77.8658 H   0  0  0  0  0
   -3.9887  -11.6306  -79.2761 H   0  0  0  0  0
   -3.5315  -10.1227  -77.4455 H   0  0  0  0  0
   -3.0146  -11.8201  -76.9483 H   0  0  0  0  0
   -3.9361  -11.1720  -75.0646 H   0  0  0  0  0
   -5.4739  -11.7028  -75.9814 H   0  0  0  0  0
   -4.9228   -9.9286  -73.8159 H   0  0  0  0  0
   -6.8578  -12.9117  -77.9816 H   0  0  0  0  0
   -5.6468  -15.5824  -77.4574 H   0  0  0  0  0
   -7.8632  -16.0735  -76.3968 H   0  0  0  0  0
   -8.2578  -14.2910  -76.6510 H   0  0  0  0  0
   -7.1219  -15.0153  -73.1608 H   0  0  0  0  0
   -8.3336  -15.7581  -74.2103 H   0  0  0  0  0
   -5.4737  -15.4621  -79.9573 H   0  0  0  0  0
   -7.9144  -16.7498  -81.1009 H   0  0  0  0  0
   -4.5957  -16.7203  -81.0593 H   0  0  0  0  0
   -7.2055  -15.8618  -83.3146 H   0  0  0  0  0
   -5.9461  -14.8738  -82.4279 H   0  0  0  0  0
   -7.6139  -13.6059  -81.3606 H   0  0  0  0  0
   -8.9148  -14.6857  -81.9661 H   0  0  0  0  0
   -8.5773  -13.9643  -84.1966 H   0  0  0  0  0
   -7.0846  -13.0787  -83.7455 H   0  0  0  0  0
   -9.1704  -12.0361  -82.1804 H   0  0  0  0  0
   -9.1443  -10.7744  -86.0267 H   0  0  0  0  0
   -8.3110  -12.2732  -85.6018 H   0  0  0  0  0
  -10.2271  -10.1112  -82.7431 H   0  0  0  0  0
  1  2  1  0  0  0
  2  3  1  0  0  0
  2  5  1  0  0  0
  3  4  2  0  0  0
  3 10  1  0  0  0
  5  6  1  0  0  0
  6  7  1  0  0  0
  7  8  2  0  0  0
  7  9  1  0  0  0
 10 11  1  0  0  0
 11 12  1  0  0  0
 11 14  1  0  0  0
 12 13  2  0  0  0
 12 21  1  0  0  0
 14 15  1  0  0  0
 15 16  1  0  0  0
 16 17  1  0  0  0
 17 18  1  0  0  0
 18 19  2  0  0  0
 18 20  1  0  0  0
 21 22  1  0  0  0
 22 23  1  0  0  0
 22 25  1  0  0  0
 23 24  2  0  0  0
 23 32  1  0  0  0
 25 26  1  0  0  0
 26 27  1  0  0  0
 27 28  1  0  0  0
 28 29  1  0  0  0
 29 30  1  0  0  0
 29 31  2  0  0  0
 32 33  1  0  0  0
 33 34  1  0  0  0
 33 36  1  0  0  0
 34 35  2  0  0  0
 34 40  1  0  0  0
 36 37  1  0  0  0
 37 38  2  0  0  0
 37 39  1  0  0  0
 40 41  1  0  0  0
 41 42  1  0  0  0
 41 44  1  0  0  0
 42 43  2  0  0  0
 42 49  1  0  0  0
 44 45  1  0  0  0
 45 46  1  0  0  0
 46 47  1  0  0  0
 46 48  2  0  0  0
 49 50  1  0  0  0
 50 51  1  0  0  0
 50 53  1  0  0  0
 51 52  2  0  0  0
 51 57  1  0  0  0
 53 54  1  0  0  0
 54 55  1  0  0  0
 54 56  1  0  0  0
 57 58  1  0  0  0
 58 59  1  0  0  0
 58 61  1  0  0  0
 59 60  2  0  0  0
 59 66  1  0  0  0
 61 62  1  0  0  0
 62 63  1  0  0  0
 63 64  2  0  0  0
 63 65  1  0  0  0
 66 67  1  0  0  0
 67 68  1  0  0  0
 67 70  1  0  0  0
 68 69  2  0  0  0
 68 75  1  0  0  0
 70 71  1  0  0  0
 71 72  1  0  0  0
 72 73  1  0  0  0
 73 74  1  0  0  0
 75 76  1  0  0  0
 76 77  1  0  0  0
 76 79  1  0  0  0
 77 78  2  0  0  0
 77 84  1  0  0  0
 79 80  1  0  0  0
 80 81  1  0  0  0
 81 82  2  0  0  0
 81 83  1  0  0  0
 84 85  1  0  0  0
 85 86  1  0  0  0
 85 88  1  0  0  0
 86 87  2  0  0  0
 86 93  1  0  0  0
 88 89  1  0  0  0
 89 90  1  0  0  0
 90 91  2  0  0  0
 90 92  1  0  0  0
 93 94  1  0  0  0
 94 95  1  0  0  0
 94 97  1  0  0  0
 95 96  2  0  0  0
 95101  1  0  0  0
 97 98  1  0  0  0
 98 99  2  0  0  0
 98100  1  0  0  0
101102  1  0  0  0
102103  1  0  0  0
102105  1  0  0  0
103104  1  0  0  0
103112  2  0  0  0
105106  1  0  0  0
106107  1  0  0  0
107108  1  0  0  0
108109  1  0  0  0
109110  1  0  0  0
109111  2  0  0  0
  1113  1  0  0  0
  1114  1  0  0  0
  1115  1  0  0  0
  2116  1  0  0  0
  5117  1  0  0  0
  5118  1  0  0  0
  6119  1  0  0  0
  6120  1  0  0  0
  9121  1  0  0  0
 10122  1  0  0  0
 11123  1  0  0  0
 14124  1  0  0  0
 14125  1  0  0  0
 15126  1  0  0  0
 15127  1  0  0  0
 16128  1  0  0  0
 16129  1  0  0  0
 17130  1  0  0  0
 19131  1  0  0  0
 20132  1  0  0  0
 20133  1  0  0  0
 21134  1  0  0  0
 22135  1  0  0  0
 25136  1  0  0  0
 25137  1  0  0  0
 26138  1  0  0  0
 26139  1  0  0  0
 27140  1  0  0  0
 27141  1  0  0  0
 28142  1  0  0  0
 30143  1  0  0  0
 30144  1  0  0  0
 31145  1  0  0  0
 32146  1  0  0  0
 33147  1  0  0  0
 36148  1  0  0  0
 36149  1  0  0  0
 39150  1  0  0  0
 39151  1  0  0  0
 40152  1  0  0  0
 41153  1  0  0  0
 44154  1  0  0  0
 44155  1  0  0  0
 45156  1  0  0  0
 45157  1  0  0  0
 47158  1  0  0  0
 49159  1  0  0  0
 50160  1  0  0  0
 53161  1  0  0  0
 53162  1  0  0  0
 54163  1  0  0  0
 55164  1  0  0  0
 55165  1  0  0  0
 55166  1  0  0  0
 56167  1  0  0  0
 56168  1  0  0  0
 56169  1  0  0  0
 57170  1  0  0  0
 58171  1  0  0  0
 61172  1  0  0  0
 61173  1  0  0  0
 62174  1  0  0  0
 62175  1  0  0  0
 65176  1  0  0  0
 65177  1  0  0  0
 66178  1  0  0  0
 67179  1  0  0  0
 70180  1  0  0  0
 70181  1  0  0  0
 71182  1  0  0  0
 71183  1  0  0  0
 72184  1  0  0  0
 72185  1  0  0  0
 73186  1  0  0  0
 73187  1  0  0  0
 74188  1  0  0  0
 74189  1  0  0  0
 74190  1  0  0  0
 75191  1  0  0  0
 76192  1  0  0  0
 79193  1  0  0  0
 79194  1  0  0  0
 80195  1  0  0  0
 80196  1  0  0  0
 83197  1  0  0  0
 83198  1  0  0  0
 84199  1  0  0  0
 85200  1  0  0  0
 88201  1  0  0  0
 88202  1  0  0  0
 89203  1  0  0  0
 89204  1  0  0  0
 92205  1  0  0  0
 93206  1  0  0  0
 94207  1  0  0  0
 97208  1  0  0  0
 97209  1  0  0  0
100210  1  0  0  0
100211  1  0  0  0
101212  1  0  0  0
102213  1  0  0  0
104214  1  0  0  0
105215  1  0  0  0
105216  1  0  0  0
106217  1  0  0  0
106218  1  0  0  0
107219  1  0  0  0
107220  1  0  0  0
108221  1  0  0  0
110222  1  0  0  0
110223  1  0  0  0
111224  1  0  0  0
M  END
$$$$
