3qpo_ligand
  -I-interpret- 

 61 65  0  0  0  0  0  0  0  0999 V2000
   13.1690   16.4320   42.1420 C   0  0  0  0  0
   12.4320   17.3330   41.3490 C   0  0  0  0  0
   11.9290   18.4820   41.9120 C   0  0  0  0  0
   13.3120   16.6670   43.5110 C   0  0  0  0  0
   12.7880   17.8270   44.0910 C   0  0  0  0  0
   12.0820   18.7650   43.2950 C   0  0  0  0  0
   11.5600   19.9440   43.9330 C   0  0  0  0  0
   11.7470   20.0680   45.2400 N   0  0  0  0  0
   12.4120   19.1520   45.9350 C   0  0  0  0  0
   12.9200   18.0700   45.3980 N   0  0  0  0  0
   13.6280   15.2960   41.4970 O   0  0  0  0  0
   12.3290   17.0530   39.9930 O   0  0  0  0  0
   14.8030   14.7260   42.0350 C   0  0  0  0  0
   10.8840   20.9220   43.2030 N   0  0  0  0  0
   10.1170   21.9150   43.9790 C   0  0  0  0  0
    9.3490   22.9130   43.0750 C   0  0  0  0  0
   10.0930   23.3570   41.7820 C   0  0  0  0  0
   11.0560   22.2560   41.2570 C   0  0  0  0  0
   11.8680   21.6710   42.4040 C   0  0  0  0  0
   11.9380   22.7210   40.1130 C   0  0  0  0  0
   11.9250   21.9650   38.9460 C   0  0  0  0  0
   12.6800   22.3590   37.8800 C   0  0  0  0  0
   13.4520   23.5150   37.9570 C   0  0  0  0  0
   13.4720   24.2740   39.0980 C   0  0  0  0  0
   12.7050   23.8780   40.1860 C   0  0  0  0  0
   11.0080   17.0670   39.4450 C   0  0  0  0  0
   11.1970   17.9070   38.2010 C   0  0  0  0  0
   10.0260   18.0390   37.2730 C   0  0  0  0  0
    9.3800   16.9720   36.8700 N   0  0  0  0  0
    8.3490   17.0350   36.0360 C   0  0  0  0  0
    7.8830   18.2390   35.5140 C   0  0  0  0  0
    8.5740   19.3990   35.9240 C   0  0  0  0  0
    9.6570   19.2870   36.8000 C   0  0  0  0  0
   11.3988   19.1945   41.2801 H   0  0  0  0  0
   13.8360   15.9409   44.1325 H   0  0  0  0  0
   12.5417   19.3082   47.0059 H   0  0  0  0  0
   15.6123   15.4548   41.9902 H   0  0  0  0  0
   14.6254   14.4417   43.0722 H   0  0  0  0  0
   15.0749   13.8432   41.4564 H   0  0  0  0  0
   10.8218   22.4847   44.5847 H   0  0  0  0  0
    9.3856   21.3773   44.5823 H   0  0  0  0  0
    9.1951   23.8139   43.6689 H   0  0  0  0  0
    8.4419   22.4029   42.7510 H   0  0  0  0  0
   10.6834   24.2429   42.0157 H   0  0  0  0  0
    9.3482   23.5542   41.0110 H   0  0  0  0  0
   10.4357   21.4658   40.8341 H   0  0  0  0  0
   12.6783   21.0340   42.0494 H   0  0  0  0  0
   12.3676   22.4437   42.9883 H   0  0  0  0  0
   11.3156   21.0635   38.8832 H   0  0  0  0  0
   12.6787   21.7667   36.9650 H   0  0  0  0  0
   14.0489   23.8207   37.0977 H   0  0  0  0  0
   14.0815   25.1761   39.1508 H   0  0  0  0  0
   12.7045   24.4750   41.0980 H   0  0  0  0  0
   10.2596   17.4677   40.1287 H   0  0  0  0  0
   10.6135   16.0718   39.2399 H   0  0  0  0  0
   11.9750   17.4072   37.6239 H   0  0  0  0  0
   11.4062   18.9160   38.5562 H   0  0  0  0  0
    7.8487   16.1100   35.7492 H   0  0  0  0  0
    7.0355   18.2827   34.8299 H   0  0  0  0  0
    8.2643   20.3783   35.5590 H   0  0  0  0  0
   10.2074   20.1757   37.1088 H   0  0  0  0  0
  1  2  4  0  0  0
  1  4  4  0  0  0
  1 11  1  0  0  0
  2  3  4  0  0  0
  2 12  1  0  0  0
  3  6  4  0  0  0
  4  5  4  0  0  0
  5  6  4  0  0  0
  5 10  4  0  0  0
  6  7  4  0  0  0
  7  8  4  0  0  0
  7 14  1  0  0  0
  8  9  4  0  0  0
  9 10  4  0  0  0
 11 13  1  0  0  0
 12 26  1  0  0  0
 14 15  1  0  0  0
 14 19  1  0  0  0
 15 16  1  0  0  0
 16 17  1  0  0  0
 17 18  1  0  0  0
 18 19  1  0  0  0
 18 20  1  0  0  0
 20 21  4  0  0  0
 20 25  4  0  0  0
 21 22  4  0  0  0
 22 23  4  0  0  0
 23 24  4  0  0  0
 24 25  4  0  0  0
 26 27  1  0  0  0
 27 28  1  0  0  0
 28 29  4  0  0  0
 28 33  4  0  0  0
 29 30  4  0  0  0
 30 31  4  0  0  0
 31 32  4  0  0  0
 32 33  4  0  0  0
  3 34  1  0  0  0
  4 35  1  0  0  0
  9 36  1  0  0  0
 13 37  1  0  0  0
 13 38  1  0  0  0
 13 39  1  0  0  0
 15 40  1  0  0  0
 15 41  1  0  0  0
 16 42  1  0  0  0
 16 43  1  0  0  0
 17 44  1  0  0  0
 17 45  1  0  0  0
 18 46  1  0  0  0
 19 47  1  0  0  0
 19 48  1  0  0  0
 21 49  1  0  0  0
 22 50  1  0  0  0
 23 51  1  0  0  0
 24 52  1  0  0  0
 25 53  1  0  0  0
 26 54  1  0  0  0
 26 55  1  0  0  0
 27 56  1  0  0  0
 27 57  1  0  0  0
 30 58  1  0  0  0
 31 59  1  0  0  0
 32 60  1  0  0  0
 33 61  1  0  0  0
M  END
$$$$
