2xp8_ligand
  -I-interpret- 

 36 38  0  0  0  0  0  0  0  0999 V2000
  -33.1440   24.9960   23.1160 C   0  0  0  0  0
  -31.9500   24.2850   23.0090 C   0  0  0  0  0
  -33.6230   29.4830   27.0160 C   0  0  0  0  0
  -31.3410   23.8650   24.1770 C   0  0  0  0  0
  -31.9190   24.1530   25.4230 C   0  0  0  0  0
  -33.1210   24.8430   25.5330 C   0  0  0  0  0
  -33.7420   25.2360   24.3620 C   0  0  0  0  0
  -34.9020   25.9880   24.3820 C   0  0  0  0  0
  -35.1350   26.8230   25.3730 N   0  0  0  0  0
  -35.8550   26.1000   23.4250 N   0  0  0  0  0
  -36.7160   27.0090   23.8630 C   0  0  0  0  0
  -37.9460   27.4710   23.0900 C   0  0  0  0  0
  -37.9820   27.2570   21.8750 O   0  0  0  0  0
  -38.8350   28.1450   23.6230 O   0  0  0  0  0
  -36.2630   27.4620   25.0970 C   0  0  0  0  0
  -36.8310   28.5090   26.0890 C   0  0  0  0  0
  -37.9410   28.3750   26.6220 O   0  0  0  0  0
  -36.0260   29.5510   26.4140 N   0  0  0  0  0
  -34.6370   29.6870   25.8620 C   0  0  0  0  0
  -36.3960   30.5150   27.4700 C   0  0  0  0  0
  -35.3690   30.2900   28.6160 C   0  0  0  0  0
  -34.3680   29.2220   28.2780 O   0  0  0  0  0
  -33.6231   25.3734   22.2126 H   0  0  0  0  0
  -31.5104   24.0671   22.0357 H   0  0  0  0  0
  -33.0114   30.3781   27.1295 H   0  0  0  0  0
  -32.9758   28.6355   26.7901 H   0  0  0  0  0
  -30.4060   23.3067   24.1298 H   0  0  0  0  0
  -31.4111   23.8264   26.3304 H   0  0  0  0  0
  -33.5576   25.0659   26.5065 H   0  0  0  0  0
  -38.6600   28.2165   24.5642 H   0  0  0  0  0
  -34.4714   28.9392   25.0865 H   0  0  0  0  0
  -34.5070   30.6771   25.4250 H   0  0  0  0  0
  -37.4185   30.3583   27.8135 H   0  0  0  0  0
  -36.3663   31.5408   27.1027 H   0  0  0  0  0
  -35.9156   29.9740   29.5045 H   0  0  0  0  0
  -34.8289   31.2232   28.7759 H   0  0  0  0  0
  1  2  4  0  0  0
  7  1  4  0  0  0
  2  4  4  0  0  0
 19  3  1  0  0  0
  3 22  1  0  0  0
  5  4  4  0  0  0
  6  5  4  0  0  0
  7  6  4  0  0  0
  8  7  1  0  0  0
  9  8  4  0  0  0
 10  8  4  0  0  0
 15  9  4  0  0  0
 11 10  4  0  0  0
 11 12  1  0  0  0
 15 11  4  0  0  0
 12 13  2  0  0  0
 12 14  1  0  0  0
 16 15  1  0  0  0
 16 17  2  0  0  0
 18 16  1  0  0  0
 18 19  1  0  0  0
 18 20  1  0  0  0
 20 21  1  0  0  0
 21 22  1  0  0  0
  1 23  1  0  0  0
  2 24  1  0  0  0
  3 25  1  0  0  0
  3 26  1  0  0  0
  4 27  1  0  0  0
  5 28  1  0  0  0
  6 29  1  0  0  0
 14 30  1  0  0  0
 19 31  1  0  0  0
 19 32  1  0  0  0
 20 33  1  0  0  0
 20 34  1  0  0  0
 21 35  1  0  0  0
 21 36  1  0  0  0
M  END
$$$$
