5ukk_ligand
  -I-interpret- 

 61 65  0  0  0  0  0  0  0  0999 V2000
  109.3020   35.5250   73.8560 O   0  0  0  0  0
  110.4600   35.8460   74.1170 C   0  0  0  0  0
  111.1150   36.8300   73.5000 N   0  0  0  0  0
  110.4850   37.7120   72.5460 C   0  0  0  0  0
  110.4330   37.0950   71.1720 C   0  0  0  0  0
  109.4430   37.5180   70.3360 N   0  0  0  0  0
  109.3160   37.0400   69.0910 C   0  0  0  0  0
  110.2260   36.0970   68.6300 C   0  0  0  0  0
  111.2580   35.6470   69.4540 C   0  0  0  0  0
  111.3710   36.1450   70.7450 C   0  0  0  0  0
  111.1520   35.1810   75.2650 C   0  0  0  0  0
  111.1890   33.8100   75.3900 C   0  0  0  0  0
  110.6160   33.0420   74.4490 F   0  0  0  0  0
  111.7300   35.9880   76.2390 C   0  0  0  0  0
  112.3730   35.4460   77.3530 C   0  0  0  0  0
  112.4140   34.0550   77.4720 C   0  0  0  0  0
  111.8210   33.2430   76.4980 C   0  0  0  0  0
  113.0120   36.3190   78.3860 C   0  0  0  0  0
  114.3440   36.9280   77.9210 C   0  0  0  0  0
  114.9330   37.7230   79.0670 C   0  0  0  0  0
  114.0160   38.8330   79.3510 N   0  3  0  0  0
  112.7120   38.3680   79.8380 C   0  0  0  0  0
  112.0690   37.4500   78.8210 C   0  0  0  0  0
  115.4110   35.9520   77.4400 C   0  0  0  0  0
  115.6910   35.0100   78.4500 O   0  0  0  0  0
  116.8380   34.2660   78.5840 C   0  0  0  0  0
  117.8610   34.2140   77.6340 C   0  0  0  0  0
  118.9570   33.4120   77.9180 C   0  0  0  0  0
  120.0670   33.2020   77.1670 O   0  0  0  0  0
  120.9620   32.3380   77.8830 C   0  0  0  0  0
  120.2240   31.9780   79.0590 O   0  0  0  0  0
  119.0570   32.6780   79.0540 C   0  0  0  0  0
  118.0610   32.7110   80.0090 C   0  0  0  0  0
  116.9450   33.5120   79.7600 C   0  0  0  0  0
  112.1037   36.9655   73.7110 H   0  0  0  0  0
  111.0678   38.6314   72.4893 H   0  0  0  0  0
  109.4643   37.9047   72.8763 H   0  0  0  0  0
  108.5079   37.3870   68.4471 H   0  0  0  0  0
  110.1330   35.7057   67.6169 H   0  0  0  0  0
  111.9711   34.9091   69.0865 H   0  0  0  0  0
  112.1671   35.8066   71.4082 H   0  0  0  0  0
  111.6796   37.0713   76.1297 H   0  0  0  0  0
  112.9107   33.5990   78.3284 H   0  0  0  0  0
  111.8530   32.1588   76.6057 H   0  0  0  0  0
  113.2200   35.6642   79.2322 H   0  0  0  0  0
  114.0833   37.5278   77.0490 H   0  0  0  0  0
  115.9195   38.1022   78.8005 H   0  0  0  0  0
  115.0516   37.0917   79.9476 H   0  0  0  0  0
  113.8645   39.3479   78.4837 H   0  0  0  0  0
  114.4365   39.4128   80.0773 H   0  0  0  0  0
  112.0643   39.2297   79.9995 H   0  0  0  0  0
  112.8543   37.8221   80.7707 H   0  0  0  0  0
  111.1874   37.0006   79.2781 H   0  0  0  0  0
  111.8181   38.0411   77.9402 H   0  0  0  0  0
  116.3204   36.5033   77.2009 H   0  0  0  0  0
  115.0482   35.4313   76.5538 H   0  0  0  0  0
  117.8005   34.7816   76.7054 H   0  0  0  0  0
  121.9077   32.8253   78.1200 H   0  0  0  0  0
  121.2568   31.4681   77.2960 H   0  0  0  0  0
  118.1431   32.1304   80.9279 H   0  0  0  0  0
  116.1411   33.5516   80.4950 H   0  0  0  0  0
  1  2  2  0  0  0
  2  3  1  0  0  0
  2 11  1  0  0  0
  3  4  1  0  0  0
  4  5  1  0  0  0
  5  6  4  0  0  0
  5 10  4  0  0  0
  6  7  4  0  0  0
  7  8  4  0  0  0
  8  9  4  0  0  0
  9 10  4  0  0  0
 11 12  4  0  0  0
 11 14  4  0  0  0
 12 13  1  0  0  0
 12 17  4  0  0  0
 14 15  4  0  0  0
 15 16  4  0  0  0
 15 18  1  0  0  0
 16 17  4  0  0  0
 18 19  1  0  0  0
 18 23  1  0  0  0
 19 20  1  0  0  0
 19 24  1  0  0  0
 20 21  1  0  0  0
 21 22  1  0  0  0
 22 23  1  0  0  0
 24 25  1  0  0  0
 25 26  1  0  0  0
 26 27  4  0  0  0
 26 34  4  0  0  0
 27 28  4  0  0  0
 28 29  1  0  0  0
 28 32  4  0  0  0
 29 30  1  0  0  0
 30 31  1  0  0  0
 31 32  1  0  0  0
 32 33  4  0  0  0
 33 34  4  0  0  0
  3 35  1  0  0  0
  4 36  1  0  0  0
  4 37  1  0  0  0
  7 38  1  0  0  0
  8 39  1  0  0  0
  9 40  1  0  0  0
 10 41  1  0  0  0
 14 42  1  0  0  0
 16 43  1  0  0  0
 17 44  1  0  0  0
 18 45  1  0  0  0
 19 46  1  0  0  0
 20 47  1  0  0  0
 20 48  1  0  0  0
 21 49  1  0  0  0
 21 50  1  0  0  0
 22 51  1  0  0  0
 22 52  1  0  0  0
 23 53  1  0  0  0
 23 54  1  0  0  0
 24 55  1  0  0  0
 24 56  1  0  0  0
 27 57  1  0  0  0
 30 58  1  0  0  0
 30 59  1  0  0  0
 33 60  1  0  0  0
 34 61  1  0  0  0
M  END
$$$$
