4yqh_ligand
  -I-interpret- 

 38 41  0  0  0  0  0  0  0  0999 V2000
  -20.9900  -19.1270   41.6410 C   0  0  0  0  0
  -20.5780  -20.1830   42.4550 C   0  0  0  0  0
  -20.8220  -20.1270   43.8270 C   0  0  0  0  0
  -21.4770  -19.0230   44.3810 C   0  0  0  0  0
  -21.8790  -17.9610   43.5610 C   0  0  0  0  0
  -21.6420  -18.0130   42.1820 C   0  0  0  0  0
  -21.8470  -16.8520   40.0400 N   0  0  0  0  0
  -22.0290  -16.9490   41.3570 C   0  0  0  0  0
  -22.6210  -15.8240   41.7510 C   0  0  0  0  0
  -22.3430  -15.6790   39.6310 C   0  0  0  0  0
  -22.8180  -15.0430   40.6930 N   0  0  0  0  0
  -22.3540  -15.1460   38.2000 C   0  0  0  0  0
  -20.9230  -15.0580   37.6650 C   0  0  0  0  0
  -20.9050  -14.3740   36.3020 C   0  0  0  0  0
  -20.3580  -13.1020   36.1570 C   0  0  0  0  0
  -20.8760  -13.1480   33.9020 C   0  0  0  0  0
  -20.8640  -12.5310   32.6560 C   0  0  0  0  0
  -21.4090  -13.1900   31.5520 C   0  0  0  0  0
  -21.9560  -14.4670   31.6960 C   0  0  0  0  0
  -21.9720  -15.0920   32.9480 C   0  0  0  0  0
  -21.4230  -14.4260   34.0430 C   0  0  0  0  0
  -20.3510  -12.5230   34.9670 N   0  0  0  0  0
  -21.4160  -15.0130   35.2380 N   0  0  0  0  0
  -20.8013  -19.1704   40.5683 H   0  0  0  0  0
  -20.0697  -21.0445   42.0220 H   0  0  0  0  0
  -20.5009  -20.9468   44.4696 H   0  0  0  0  0
  -21.6750  -18.9887   45.4523 H   0  0  0  0  0
  -22.3763  -17.0942   43.9963 H   0  0  0  0  0
  -22.8997  -15.5817   42.7765 H   0  0  0  0  0
  -22.8029  -14.1528   38.1901 H   0  0  0  0  0
  -22.9323  -15.8215   37.5696 H   0  0  0  0  0
  -20.5205  -16.0657   37.5615 H   0  0  0  0  0
  -20.3191  -14.4765   38.3616 H   0  0  0  0  0
  -19.9374  -12.5853   37.0197 H   0  0  0  0  0
  -20.4311  -11.5372   32.5414 H   0  0  0  0  0
  -21.4075  -12.7064   30.5752 H   0  0  0  0  0
  -22.3725  -14.9794   30.8288 H   0  0  0  0  0
  -22.4071  -16.0845   33.0654 H   0  0  0  0  0
  1  2  4  0  0  0
  6  1  4  0  0  0
  2  3  4  0  0  0
  4  3  4  0  0  0
  5  4  4  0  0  0
  6  5  4  0  0  0
  8  6  1  0  0  0
  7  8  4  0  0  0
 10  7  4  0  0  0
  9  8  4  0  0  0
 11  9  4  0  0  0
 10 11  4  0  0  0
 12 10  1  0  0  0
 13 12  1  0  0  0
 14 13  1  0  0  0
 15 14  4  0  0  0
 14 23  4  0  0  0
 22 15  4  0  0  0
 16 17  4  0  0  0
 16 21  4  0  0  0
 16 22  4  0  0  0
 17 18  4  0  0  0
 18 19  4  0  0  0
 19 20  4  0  0  0
 20 21  4  0  0  0
 21 23  4  0  0  0
  1 24  1  0  0  0
  2 25  1  0  0  0
  3 26  1  0  0  0
  4 27  1  0  0  0
  5 28  1  0  0  0
  9 29  1  0  0  0
 12 30  1  0  0  0
 12 31  1  0  0  0
 13 32  1  0  0  0
 13 33  1  0  0  0
 15 34  1  0  0  0
 17 35  1  0  0  0
 18 36  1  0  0  0
 19 37  1  0  0  0
 20 38  1  0  0  0
M  END
$$$$
