3fdm_ligand
  -I-interpret- 

256260  0  0  0  0  0  0  0  0999 V2000
    2.8380    8.2060   14.4060 N   0  3  0  0  0
    2.7170    9.5440   14.9850 C   0  0  0  0  0
    2.4620    9.2630   16.4490 C   0  0  0  0  0
    3.8250    9.2230   17.0480 N   0  3  0  0  0
    4.8380    9.6000   16.0230 C   0  0  0  0  0
    4.0370   10.2980   14.9470 C   0  0  0  0  0
    3.9090   11.7840   15.3580 C   0  0  0  0  0
    2.8230   12.2520   15.7620 O   0  0  0  0  0
    5.0220   12.5210   15.2550 N   0  0  0  0  0
    5.0600   13.9340   15.6690 C   0  0  0  0  0
    4.2290   14.8060   14.6880 C   0  0  0  0  0
    3.8780   15.9590   14.9780 O   0  0  0  0  0
    6.5190   14.4260   15.8410 C   0  0  0  0  0
    3.9480   14.2010   13.5350 N   0  0  0  0  0
    3.0650   15.1140   12.7850 C   0  0  0  0  0
    3.7200   15.7250   11.5270 C   0  0  0  0  0
    2.5410   16.1430   10.6480 C   0  0  0  0  0
    1.3960   15.1920   10.9600 C   0  0  0  0  0
    1.8290   14.4420   12.2080 C   0  0  0  0  0
    0.6520   14.4180   13.1480 C   0  0  0  0  0
    0.2390   15.4550   13.6670 O   0  0  0  0  0
    0.0890   13.2250   13.3410 N   0  0  0  0  0
   -1.1300   13.1090   14.1250 C   0  0  0  0  0
   -0.9620   13.7850   15.5020 C   0  0  0  0  0
   -1.9320   14.1910   16.0940 O   0  0  0  0  0
   -1.6290   11.6480   14.1840 C   0  0  0  0  0
   -2.1860   11.0970   12.8210 C   0  0  0  0  0
   -2.8830   12.1650   11.8830 C   0  0  0  0  0
   -4.1890   12.5930   12.4070 N   0  0  0  0  0
   -4.9950   13.5020   11.8460 C   0  0  0  0  0
   -6.1730   13.7990   12.4030 N   0  0  0  0  0
   -4.6510   14.0990   10.7000 N   0  0  0  0  0
    0.2880   13.8400   15.9820 N   0  0  0  0  0
    0.2420   14.4580   17.3460 C   0  0  0  0  0
    0.6250   13.4460   18.4360 C   0  0  0  0  0
    1.2700   14.2410   19.5830 C   0  0  0  0  0
    1.6600   15.6300   19.0500 C   0  0  0  0  0
    1.2440   15.6280   17.5760 C   0  0  0  0  0
    0.8940   17.0240   17.0200 C   0  0  0  0  0
    0.0100   17.6950   17.5130 O   0  0  0  0  0
    1.6230   17.4390   15.9820 N   0  0  0  0  0
    1.4870   18.7820   15.3710 C   0  0  0  0  0
    0.0630   18.9540   14.9100 C   0  0  0  0  0
   -0.5570   20.0240   15.1090 O   0  0  0  0  0
    2.4210   18.9220   14.1610 C   0  0  0  0  0
    2.2710   20.2280   13.3440 C   0  0  0  0  0
    2.9080   21.4200   14.1150 C   0  0  0  0  0
    2.9070   20.0990   11.9570 C   0  0  0  0  0
   -0.4060   17.9120   14.2210 N   0  0  0  0  0
   -1.7550   18.0960   13.6910 C   0  0  0  0  0
   -1.7520   17.6900   12.2090 C   0  0  0  0  0
   -3.0940   17.0700   11.8910 C   0  0  0  0  0
   -3.7710   16.7620   13.2250 C   0  0  0  0  0
   -2.7620   17.1280   14.3140 C   0  0  0  0  0
   -3.4550   17.6060   15.5850 C   0  0  0  0  0
   -3.9380   18.7530   15.6450 O   0  0  0  0  0
   -3.4950   16.7380   16.5960 N   0  0  0  0  0
   -4.2950   17.0130   17.7920 C   0  0  0  0  0
   -3.7060   18.1400   18.6240 C   0  0  0  0  0
   -4.4460   18.8400   19.3310 O   0  0  0  0  0
   -4.6030   15.7490   18.6440 C   0  0  0  0  0
   -3.4070   14.9750   19.2320 C   0  0  0  0  0
   -3.8800   14.2330   20.4740 C   0  0  0  0  0
   -2.9770   13.0870   20.9190 C   0  0  0  0  0
   -3.7630   12.1400   21.7660 N   0  3  0  0  0
   -3.1040   22.0900   18.7840 O   0  0  0  0  0
   -2.3360   21.3770   18.1450 C   0  0  0  0  0
   -1.3160   20.5160   18.8790 C   0  0  0  0  0
   -1.9940   19.3180   19.5570 C   0  0  0  0  0
   -2.3840   18.2770   18.5730 N   0  0  0  0  0
   -0.9580   18.7470   20.5350 C   0  0  0  0  0
   -1.5460   17.6260   21.4050 C   0  0  0  0  0
   -0.4860   17.0340   22.3180 C   0  0  0  0  0
   -2.7320   18.0930   22.2270 C   0  0  0  0  0
   -2.3510   21.3550   16.8130 N   0  0  0  0  0
   -3.1990   22.3200   16.0610 C   0  0  0  0  0
   -4.6560   22.3430   16.5130 C   0  0  0  0  0
   -5.1880   23.3940   16.8450 O   0  0  0  0  0
   -5.3070   21.1760   16.5560 N   0  0  0  0  0
   -6.7150   21.0710   16.9540 C   0  0  0  0  0
   -6.9680   21.5940   18.3450 C   0  0  0  0  0
   -7.9380   22.3600   18.5640 O   0  0  0  0  0
   -7.2630   19.6170   16.7870 C   0  0  0  0  0
   -7.4060   19.2210   15.3300 C   0  0  0  0  0
   -7.4520   20.1430   14.4730 O   0  0  0  0  0
   -7.4430   18.0110   15.0150 O   0  0  0  0  0
   -6.1020   21.2290   19.2860 N   0  0  0  0  0
   -6.2630   21.7050   20.6470 C   0  0  0  0  0
   -6.1780   23.2320   20.7080 C   0  0  0  0  0
   -6.7360   23.8470   21.6070 O   0  0  0  0  0
   -5.2000   21.0770   21.5930 C   0  0  0  0  0
   -5.4850   23.8370   19.7420 N   0  0  0  0  0
   -5.2930   25.2930   19.7290 C   0  0  0  0  0
   -6.3090   26.0580   18.9260 C   0  0  0  0  0
   -6.2010   27.2840   18.8110 O   0  0  0  0  0
   -3.9050   25.6410   19.1910 C   0  0  0  0  0
   -3.4000   26.9640   19.6570 C   0  0  0  0  0
   -3.2290   27.2110   21.0240 C   0  0  0  0  0
   -3.0990   27.9840   18.7390 C   0  0  0  0  0
   -2.7540   28.4470   21.4740 C   0  0  0  0  0
   -2.6180   29.2270   19.1880 C   0  0  0  0  0
   -2.4520   29.4490   20.5470 C   0  0  0  0  0
   -7.2750   25.3520   18.3550 N   0  0  0  0  0
   -8.3300   25.9610   17.5600 C   0  0  0  0  0
   -9.3800   26.7250   18.3590 C   0  0  0  0  0
   -9.9970   26.1540   19.2270 O   0  0  0  0  0
   -9.0640   24.8610   16.7830 C   0  0  0  0  0
  -10.0710   25.4130   15.8530 C   0  0  0  0  0
   -9.8290   26.4360   15.2560 O   0  0  0  0  0
  -11.2170   24.7510   15.7190 N   0  0  0  0  0
   -9.6220   27.9970   18.0320 N   0  0  0  0  0
  -10.5610   28.8170   18.7910 C   0  0  0  0  0
  -11.7930   29.1360   17.9600 C   0  0  0  0  0
  -11.8230   28.7690   16.7720 O   0  0  0  0  0
   -9.8850   30.0980   19.2510 C   0  0  0  0  0
   -8.8290   29.8290   20.2680 C   0  0  0  0  0
   -8.0740   31.0620   20.6430 C   0  0  0  0  0
   -6.9460   30.6860   21.4910 N   0  0  0  0  0
   -5.9990   31.5210   21.9120 C   0  0  0  0  0
   -6.0330   32.8010   21.5240 N   0  0  0  0  0
   -5.0090   31.0700   22.7030 N   0  0  0  0  0
  -12.7570   29.7430   19.0460 N   0  0  0  0  0
    1.9345    7.7347   14.4503 H   0  0  0  0  0
    3.1351    8.2834   13.4333 H   0  0  0  0  0
    3.5284    7.6703   14.9321 H   0  0  0  0  0
    1.9625   10.1272   14.4571 H   0  0  0  0  0
    1.9144    8.3332   16.6030 H   0  0  0  0  0
    1.8283   10.0196   16.9117 H   0  0  0  0  0
    4.0188    8.2791   17.3824 H   0  0  0  0  0
    3.8710    9.8814   17.8257 H   0  0  0  0  0
    5.3752    8.7332   15.6381 H   0  0  0  0  0
    5.6194   10.2395   16.4335 H   0  0  0  0  0
    4.4592   10.2949   13.9421 H   0  0  0  0  0
    5.8676   12.0918   14.8792 H   0  0  0  0  0
    4.5940   14.0324   16.6494 H   0  0  0  0  0
    7.0162   13.8255   16.6028 H   0  0  0  0  0
    7.0491   14.3253   14.8939 H   0  0  0  0  0
    6.5146   15.4722   16.1469 H   0  0  0  0  0
    4.2787   13.2855   13.2303 H   0  0  0  0  0
    2.8311   15.8554   13.5490 H   0  0  0  0  0
    4.3757   15.0158   11.0218 H   0  0  0  0  0
    4.3672   16.5674   11.7710 H   0  0  0  0  0
    2.8089   16.0915    9.5927 H   0  0  0  0  0
    2.2532   17.1741   10.8530 H   0  0  0  0  0
    1.2005   14.5126   10.1304 H   0  0  0  0  0
    0.4601   15.7280   11.1177 H   0  0  0  0  0
    2.1135   13.4098   12.0039 H   0  0  0  0  0
    0.5149   12.3907   12.9373 H   0  0  0  0  0
   -1.9287   13.6563   13.6244 H   0  0  0  0  0
   -2.4500   11.6189   14.9004 H   0  0  0  0  0
   -0.7739   11.0284   14.4542 H   0  0  0  0  0
   -2.9505   10.3625   13.0741 H   0  0  0  0  0
   -1.3278   10.7142   12.2687 H   0  0  0  0  0
   -3.0418   11.7076   10.9064 H   0  0  0  0  0
   -2.2363   13.0405   11.8254 H   0  0  0  0  0
   -4.5080   12.1592   13.2733 H   0  0  0  0  0
   -6.4633   13.3316   13.2619 H   0  0  0  0  0
   -5.2840   14.7697   10.2643 H   0  0  0  0  0
   -3.7556   13.8837   10.2616 H   0  0  0  0  0
    1.1272   13.5164   15.5009 H   0  0  0  0  0
   -0.7863   14.8146   17.4051 H   0  0  0  0  0
    1.3195   12.7027   18.0445 H   0  0  0  0  0
   -0.2549   12.9075   18.7879 H   0  0  0  0  0
    2.1547   13.7191   19.9478 H   0  0  0  0  0
    0.5662   14.3422   20.4092 H   0  0  0  0  0
    2.7272   15.8192   19.1656 H   0  0  0  0  0
    1.1652   16.4266   19.6056 H   0  0  0  0  0
    2.0943   15.4079   16.9305 H   0  0  0  0  0
    2.3109   16.7971   15.5881 H   0  0  0  0  0
    1.7518   19.5399   16.1083 H   0  0  0  0  0
    2.1733   18.1045   13.4839 H   0  0  0  0  0
    3.4376   18.9192   14.5542 H   0  0  0  0  0
    1.2058   20.4152   13.2081 H   0  0  0  0  0
    2.4064   21.5395   15.0753 H   0  0  0  0  0
    3.9670   21.2206   14.2791 H   0  0  0  0  0
    2.7953   22.3320   13.5288 H   0  0  0  0  0
    3.9691   19.8790   12.0648 H   0  0  0  0  0
    2.4211   19.2913   11.4096 H   0  0  0  0  0
    2.7819   21.0351   11.4129 H   0  0  0  0  0
    0.1326   17.0579   14.0763 H   0  0  0  0  0
   -2.0256   19.1333   13.8881 H   0  0  0  0  0
   -0.9520   16.9752   12.0162 H   0  0  0  0  0
   -1.5825   18.5637   11.5798 H   0  0  0  0  0
   -2.9691   16.1608   11.3029 H   0  0  0  0  0
   -3.7031   17.7521   11.2978 H   0  0  0  0  0
   -4.0516   15.7106   13.2883 H   0  0  0  0  0
   -4.6929   17.3326   13.3374 H   0  0  0  0  0
   -2.2026   16.2607   14.6646 H   0  0  0  0  0
   -2.9614   15.8708   16.5360 H   0  0  0  0  0
   -5.2631   17.3537   17.4249 H   0  0  0  0  0
   -5.0971   15.0528   17.9663 H   0  0  0  0  0
   -5.1707   16.1066   19.5030 H   0  0  0  0  0
   -2.6063   15.6670   19.4928 H   0  0  0  0  0
   -3.0231   14.2669   18.4976 H   0  0  0  0  0
   -4.8486   13.7960   20.2312 H   0  0  0  0  0
   -3.8954   14.9575   21.2882 H   0  0  0  0  0
   -2.1407   13.4836   21.4946 H   0  0  0  0  0
   -2.5946   12.5624   20.0434 H   0  0  0  0  0
   -3.1608   11.3728   22.0646 H   0  0  0  0  0
   -4.1187   12.6332   22.5849 H   0  0  0  0  0
   -4.5442   11.7697   21.2247 H   0  0  0  0  0
   -0.8319   21.1230   19.6441 H   0  0  0  0  0
   -0.5886   20.1439   18.1575 H   0  0  0  0  0
   -2.9097   19.6316   20.0582 H   0  0  0  0  0
   -1.7500   17.7584   17.9651 H   0  0  0  0  0
   -0.6293   19.5521   21.1922 H   0  0  0  0  0
   -0.1338   18.3319   19.9550 H   0  0  0  0  0
   -1.9008   16.8560   20.7199 H   0  0  0  0  0
    0.3225   16.6217   21.7144 H   0  0  0  0  0
   -0.0930   17.8141   22.9700 H   0  0  0  0  0
   -0.9296   16.2429   22.9225 H   0  0  0  0  0
   -2.4192   18.9025   22.8865 H   0  0  0  0  0
   -3.5172   18.4489   21.5600 H   0  0  0  0  0
   -3.1090   17.2620   22.8232 H   0  0  0  0  0
   -1.7810   20.6764   16.3081 H   0  0  0  0  0
   -3.1884   22.0149   15.0146 H   0  0  0  0  0
   -2.7896   23.3153   16.2338 H   0  0  0  0  0
   -4.8049   20.3252   16.3021 H   0  0  0  0  0
   -7.2692   21.7138   16.2701 H   0  0  0  0  0
   -8.2494   19.5718   17.2486 H   0  0  0  0  0
   -6.5560   18.9327   17.2561 H   0  0  0  0  0
   -7.4110   20.9932   14.9168 H   0  0  0  0  0
   -5.3235   20.6135   19.0505 H   0  0  0  0  0
   -7.2522   21.3956   20.9846 H   0  0  0  0  0
   -5.3073   19.9923   21.5887 H   0  0  0  0  0
   -4.2024   21.3461   21.2459 H   0  0  0  0  0
   -5.3480   21.4540   22.6049 H   0  0  0  0  0
   -5.0786   23.2748   18.9942 H   0  0  0  0  0
   -5.4136   25.5956   20.7692 H   0  0  0  0  0
   -3.9762   25.6823   18.1041 H   0  0  0  0  0
   -3.2134   24.8805   19.5536 H   0  0  0  0  0
   -3.4689   26.4308   21.7464 H   0  0  0  0  0
   -3.2391   27.8109   17.6720 H   0  0  0  0  0
   -2.6201   28.6279   22.5405 H   0  0  0  0  0
   -2.3768   30.0121   18.4714 H   0  0  0  0  0
   -2.0827   30.4135   20.8955 H   0  0  0  0  0
   -7.2786   24.3395   18.4783 H   0  0  0  0  0
   -7.8267   26.6838   16.9178 H   0  0  0  0  0
   -9.5790   24.2235   17.5017 H   0  0  0  0  0
   -8.3279   24.3096   16.1981 H   0  0  0  0  0
  -11.9388   25.1030   15.0902 H   0  0  0  0  0
  -11.3739   23.8913   16.2451 H   0  0  0  0  0
   -9.1387   28.4055   17.2321 H   0  0  0  0  0
  -10.8796   28.2535   19.6680 H   0  0  0  0  0
  -10.6400   30.7422   19.7017 H   0  0  0  0  0
   -9.4174   30.5693   18.3865 H   0  0  0  0  0
   -8.1225   29.1172   19.8410 H   0  0  0  0  0
   -9.3143   29.4443   21.1650 H   0  0  0  0  0
   -8.7293   31.7455   21.1829 H   0  0  0  0  0
   -7.7097   31.5589   19.7439 H   0  0  0  0  0
   -6.8790   29.7108   21.7823 H   0  0  0  0  0
   -6.7798   33.1285   20.9113 H   0  0  0  0  0
   -4.2742   31.7059   23.0131 H   0  0  0  0  0
   -4.9930   30.0921   22.9927 H   0  0  0  0  0
  -13.7310   29.9360   18.8126 H   0  0  0  0  0
  -12.4077   29.9433   19.9832 H   0  0  0  0  0
  2  1  1  0  0  0
  2  3  1  0  0  0
  6  2  1  0  0  0
  4  3  1  0  0  0
  5  4  1  0  0  0
  6  5  1  0  0  0
  7  6  1  0  0  0
  7  8  2  0  0  0
  9  7  1  0  0  0
 10  9  1  0  0  0
 11 10  1  0  0  0
 10 13  1  0  0  0
 11 12  2  0  0  0
 14 11  1  0  0  0
 15 14  1  0  0  0
 15 16  1  0  0  0
 19 15  1  0  0  0
 17 16  1  0  0  0
 18 17  1  0  0  0
 19 18  1  0  0  0
 20 19  1  0  0  0
 20 21  2  0  0  0
 22 20  1  0  0  0
 23 22  1  0  0  0
 24 23  1  0  0  0
 23 26  1  0  0  0
 24 25  2  0  0  0
 33 24  1  0  0  0
 26 27  1  0  0  0
 27 28  1  0  0  0
 28 29  1  0  0  0
 29 30  1  0  0  0
 30 31  2  0  0  0
 30 32  1  0  0  0
 34 33  1  0  0  0
 34 35  1  0  0  0
 38 34  1  0  0  0
 36 35  1  0  0  0
 37 36  1  0  0  0
 38 37  1  0  0  0
 39 38  1  0  0  0
 39 40  2  0  0  0
 41 39  1  0  0  0
 42 41  1  0  0  0
 43 42  1  0  0  0
 42 45  1  0  0  0
 43 44  2  0  0  0
 49 43  1  0  0  0
 45 46  1  0  0  0
 46 47  1  0  0  0
 46 48  1  0  0  0
 50 49  1  0  0  0
 50 51  1  0  0  0
 54 50  1  0  0  0
 52 51  1  0  0  0
 53 52  1  0  0  0
 54 53  1  0  0  0
 55 54  1  0  0  0
 55 56  2  0  0  0
 57 55  1  0  0  0
 58 57  1  0  0  0
 59 58  1  0  0  0
 58 61  1  0  0  0
 59 60  2  0  0  0
 70 59  1  0  0  0
 61 62  1  0  0  0
 62 63  1  0  0  0
 63 64  1  0  0  0
 64 65  1  0  0  0
 67 66  2  0  0  0
 68 67  1  0  0  0
 67 75  1  0  0  0
 69 68  1  0  0  0
 69 70  1  0  0  0
 69 71  1  0  0  0
 71 72  1  0  0  0
 72 73  1  0  0  0
 72 74  1  0  0  0
 75 76  1  0  0  0
 76 77  1  0  0  0
 77 78  2  0  0  0
 77 79  1  0  0  0
 79 80  1  0  0  0
 80 81  1  0  0  0
 80 83  1  0  0  0
 81 82  2  0  0  0
 81 87  1  0  0  0
 83 84  1  0  0  0
 84 85  1  0  0  0
 84 86  2  0  0  0
 87 88  1  0  0  0
 88 89  1  0  0  0
 88 91  1  0  0  0
 89 90  2  0  0  0
 89 92  1  0  0  0
 92 93  1  0  0  0
 93 94  1  0  0  0
 93 96  1  0  0  0
 94 95  2  0  0  0
 94103  1  0  0  0
 96 97  1  0  0  0
 97 98  4  0  0  0
 97 99  4  0  0  0
 98100  4  0  0  0
 99101  4  0  0  0
100102  4  0  0  0
101102  4  0  0  0
103104  1  0  0  0
104105  1  0  0  0
104107  1  0  0  0
105106  2  0  0  0
105111  1  0  0  0
107108  1  0  0  0
108109  2  0  0  0
108110  1  0  0  0
111112  1  0  0  0
112113  1  0  0  0
112115  1  0  0  0
113114  2  0  0  0
113122  1  0  0  0
115116  1  0  0  0
116117  1  0  0  0
117118  1  0  0  0
118119  1  0  0  0
119120  2  0  0  0
119121  1  0  0  0
  1123  1  0  0  0
  1124  1  0  0  0
  1125  1  0  0  0
  2126  1  0  0  0
  3127  1  0  0  0
  3128  1  0  0  0
  4129  1  0  0  0
  4130  1  0  0  0
  5131  1  0  0  0
  5132  1  0  0  0
  6133  1  0  0  0
  9134  1  0  0  0
 10135  1  0  0  0
 13136  1  0  0  0
 13137  1  0  0  0
 13138  1  0  0  0
 14139  1  0  0  0
 15140  1  0  0  0
 16141  1  0  0  0
 16142  1  0  0  0
 17143  1  0  0  0
 17144  1  0  0  0
 18145  1  0  0  0
 18146  1  0  0  0
 19147  1  0  0  0
 22148  1  0  0  0
 23149  1  0  0  0
 26150  1  0  0  0
 26151  1  0  0  0
 27152  1  0  0  0
 27153  1  0  0  0
 28154  1  0  0  0
 28155  1  0  0  0
 29156  1  0  0  0
 31157  1  0  0  0
 32158  1  0  0  0
 32159  1  0  0  0
 33160  1  0  0  0
 34161  1  0  0  0
 35162  1  0  0  0
 35163  1  0  0  0
 36164  1  0  0  0
 36165  1  0  0  0
 37166  1  0  0  0
 37167  1  0  0  0
 38168  1  0  0  0
 41169  1  0  0  0
 42170  1  0  0  0
 45171  1  0  0  0
 45172  1  0  0  0
 46173  1  0  0  0
 47174  1  0  0  0
 47175  1  0  0  0
 47176  1  0  0  0
 48177  1  0  0  0
 48178  1  0  0  0
 48179  1  0  0  0
 49180  1  0  0  0
 50181  1  0  0  0
 51182  1  0  0  0
 51183  1  0  0  0
 52184  1  0  0  0
 52185  1  0  0  0
 53186  1  0  0  0
 53187  1  0  0  0
 54188  1  0  0  0
 57189  1  0  0  0
 58190  1  0  0  0
 61191  1  0  0  0
 61192  1  0  0  0
 62193  1  0  0  0
 62194  1  0  0  0
 63195  1  0  0  0
 63196  1  0  0  0
 64197  1  0  0  0
 64198  1  0  0  0
 65199  1  0  0  0
 65200  1  0  0  0
 65201  1  0  0  0
 68202  1  0  0  0
 68203  1  0  0  0
 69204  1  0  0  0
 70205  1  0  0  0
 71206  1  0  0  0
 71207  1  0  0  0
 72208  1  0  0  0
 73209  1  0  0  0
 73210  1  0  0  0
 73211  1  0  0  0
 74212  1  0  0  0
 74213  1  0  0  0
 74214  1  0  0  0
 75215  1  0  0  0
 76216  1  0  0  0
 76217  1  0  0  0
 79218  1  0  0  0
 80219  1  0  0  0
 83220  1  0  0  0
 83221  1  0  0  0
 85222  1  0  0  0
 87223  1  0  0  0
 88224  1  0  0  0
 91225  1  0  0  0
 91226  1  0  0  0
 91227  1  0  0  0
 92228  1  0  0  0
 93229  1  0  0  0
 96230  1  0  0  0
 96231  1  0  0  0
 98232  1  0  0  0
 99233  1  0  0  0
100234  1  0  0  0
101235  1  0  0  0
102236  1  0  0  0
103237  1  0  0  0
104238  1  0  0  0
107239  1  0  0  0
107240  1  0  0  0
110241  1  0  0  0
110242  1  0  0  0
111243  1  0  0  0
112244  1  0  0  0
115245  1  0  0  0
115246  1  0  0  0
116247  1  0  0  0
116248  1  0  0  0
117249  1  0  0  0
117250  1  0  0  0
118251  1  0  0  0
120252  1  0  0  0
121253  1  0  0  0
121254  1  0  0  0
122255  1  0  0  0
122256  1  0  0  0
M  END
$$$$
