### 
### Created by X-TOOL on Mon Sep 10 21:13:00 2018
### 

@<TRIPOS>MOLECULE
3fdm_ligand
  257   261     1     0     0
SMALL
GAST_HUCK


@<TRIPOS>ATOM
      1 N           2.8380    8.2060   14.4060 N.4       1 XPC         0.2265
      2 CB          2.7170    9.5440   14.9850 C.3       1 XPC         0.0412
      3 CG          2.4620    9.2630   16.4490 C.3       1 XPC         0.0131
      4 ND          3.8250    9.2230   17.0480 N.4       1 XPC         0.2331
      5 CE          4.8380    9.6000   16.0230 C.3       1 XPC        -0.0080
      6 CA          4.0370   10.2980   14.9470 C.3       1 XPC         0.1355
      7 C           3.9090   11.7840   15.3580 C.2       1 XPC         0.1922
      8 O           2.8230   12.2520   15.7620 O.2       1 XPC        -0.3962
      9 N           5.0220   12.5210   15.2550 N.am      1 ALA        -0.2653
     10 CA          5.0600   13.9340   15.6690 C.3       1 ALA         0.1280
     11 C           4.2290   14.8060   14.6880 C.2       1 ALA         0.2018
     12 O           3.8780   15.9590   14.9780 O.2       1 ALA        -0.3945
     13 CB          6.5190   14.4260   15.8410 C.3       1 ALA        -0.0244
     14 N           3.9480   14.2010   13.5350 N.am      1 XCP        -0.2795
     15 CB          3.0650   15.1140   12.7850 C.3       1 XCP         0.0615
     16 CG          3.7200   15.7250   11.5270 C.3       1 XCP        -0.0273
     17 CD          2.5410   16.1430   10.6480 C.3       1 XCP        -0.0484
     18 CE          1.3960   15.1920   10.9600 C.3       1 XCP        -0.0310
     19 CA          1.8290   14.4420   12.2080 C.3       1 XCP         0.0716
     20 C           0.6520   14.4180   13.1480 C.2       1 XCP         0.1835
     21 O           0.2390   15.4550   13.6670 O.2       1 XCP        -0.3965
     22 N           0.0890   13.2250   13.3410 N.am      1 ARG        -0.2653
     23 CA         -1.1300   13.1090   14.1250 C.3       1 ARG         0.1309
     24 C          -0.9620   13.7850   15.5020 C.2       1 ARG         0.2020
     25 O          -1.9320   14.1910   16.0940 O.2       1 ARG        -0.3945
     26 CB         -1.6290   11.6480   14.1840 C.3       1 ARG        -0.0092
     27 CG         -2.1860   11.0970   12.8210 C.3       1 ARG        -0.0156
     28 CD         -2.8830   12.1650   11.8830 C.3       1 ARG         0.0627
     29 NE         -4.1890   12.5930   12.4070 N.pl3     1 ARG        -0.2723
     30 CZ         -4.9950   13.5020   11.8460 C.cat     1 ARG         0.2882
     31 NH1        -6.1730   13.7990   12.4030 N.pl3     1 ARG        -0.2849
     32 NH2        -4.6510   14.0990   10.7000 N.pl3     1 ARG        -0.2849
     33 N           0.2880   13.8400   15.9820 N.am      1 XCP        -0.2795
     34 CB          0.2420   14.4580   17.3460 C.3       1 XCP         0.0615
     35 CG          0.6250   13.4460   18.4360 C.3       1 XCP        -0.0273
     36 CD          1.2700   14.2410   19.5830 C.3       1 XCP        -0.0484
     37 CE          1.6600   15.6300   19.0500 C.3       1 XCP        -0.0310
     38 CA          1.2440   15.6280   17.5760 C.3       1 XCP         0.0716
     39 C           0.8940   17.0240   17.0200 C.2       1 XCP         0.1835
     40 O           0.0100   17.6950   17.5130 O.2       1 XCP        -0.3965
     41 N           1.6230   17.4390   15.9820 N.am      1 LEU        -0.2653
     42 CA          1.4870   18.7820   15.3710 C.3       1 LEU         0.1310
     43 C           0.0630   18.9540   14.9100 C.2       1 LEU         0.2020
     44 O          -0.5570   20.0240   15.1090 O.2       1 LEU        -0.3945
     45 CB          2.4210   18.9220   14.1610 C.3       1 LEU        -0.0101
     46 CG          2.2710   20.2280   13.3440 C.3       1 LEU        -0.0425
     47 CD1         2.9080   21.4200   14.1150 C.3       1 LEU        -0.0625
     48 CD2         2.9070   20.0990   11.9570 C.3       1 LEU        -0.0625
     49 N          -0.4060   17.9120   14.2210 N.am      1 XCP        -0.2795
     50 CB         -1.7550   18.0960   13.6910 C.3       1 XCP         0.0615
     51 CG         -1.7520   17.6900   12.2090 C.3       1 XCP        -0.0273
     52 CD         -3.0940   17.0700   11.8910 C.3       1 XCP        -0.0484
     53 CE         -3.7710   16.7620   13.2250 C.3       1 XCP        -0.0310
     54 CA         -2.7620   17.1280   14.3140 C.3       1 XCP         0.0716
     55 C          -3.4550   17.6060   15.5850 C.2       1 XCP         0.1835
     56 O          -3.9380   18.7530   15.6450 O.2       1 XCP        -0.3965
     57 N          -3.4950   16.7380   16.5960 N.am      1 LYS        -0.2653
     58 CA         -4.2950   17.0130   17.7920 C.3       1 LYS         0.1308
     59 C          -3.7060   18.1400   18.6240 C.2       1 LYS         0.2020
     60 O          -4.4460   18.8400   19.3310 O.2       1 LYS        -0.3945
     61 CB         -4.6030   15.7490   18.6440 C.3       1 LYS        -0.0122
     62 CG         -3.4070   14.9750   19.2320 C.3       1 LYS        -0.0440
     63 CD         -3.8800   14.2330   20.4740 C.3       1 LYS        -0.0124
     64 CE         -2.9770   13.0870   20.9190 C.3       1 LYS        -0.0354
     65 NZ         -3.7630   12.1400   21.7660 N.4       1 LYS         0.2185
     66 O          -3.1040   22.0900   18.7840 O.2       1 B3L        -0.3969
     67 C          -2.3360   21.3770   18.1450 C.2       1 B3L         0.1802
     68 CA         -1.3160   20.5160   18.8790 C.3       1 B3L         0.0603
     69 CB         -1.9940   19.3180   19.5570 C.3       1 B3L         0.0590
     70 N          -2.3840   18.2770   18.5730 N.am      1 B3L        -0.2797
     71 CG         -0.9580   18.7470   20.5350 C.3       1 B3L        -0.0254
     72 CD         -1.5460   17.6260   21.4050 C.3       1 B3L        -0.0445
     73 CE2        -0.4860   17.0340   22.3180 C.3       1 B3L        -0.0626
     74 CE1        -2.7320   18.0930   22.2270 C.3       1 B3L        -0.0626
     75 N          -2.3510   21.3550   16.8130 N.am      1 GLY        -0.2682
     76 CA         -3.1990   22.3200   16.0610 C.3       1 GLY         0.1201
     77 C          -4.6560   22.3430   16.5130 C.2       1 GLY         0.2008
     78 O          -5.1880   23.3940   16.8450 O.2       1 GLY        -0.3947
     79 N          -5.3070   21.1760   16.5560 N.am      1 ASP        -0.2624
     80 CA         -6.7150   21.0710   16.9540 C.3       1 ASP         0.1423
     81 C          -6.9680   21.5940   18.3450 C.2       1 ASP         0.2056
     82 O          -7.9380   22.3600   18.5640 O.2       1 ASP        -0.3943
     83 CB         -7.2630   19.6170   16.7870 C.3       1 ASP         0.0406
     84 CG         -7.4060   19.2210   15.3300 C.2       1 ASP         0.0393
     85 OD1        -7.4520   20.1430   14.4730 O.co2     1 ASP        -0.5688
     86 OD2        -7.4430   18.0110   15.0150 O.co2     1 ASP        -0.5688
     87 N          -6.1020   21.2290   19.2860 N.am      1 ALA        -0.2639
     88 CA         -6.2630   21.7050   20.6470 C.3       1 ALA         0.1282
     89 C          -6.1780   23.2320   20.7080 C.2       1 ALA         0.2037
     90 O          -6.7360   23.8470   21.6070 O.2       1 ALA        -0.3944
     91 CB         -5.2000   21.0770   21.5930 C.3       1 ALA        -0.0244
     92 N          -5.4850   23.8370   19.7420 N.am      1 PHE        -0.2619
     93 CA         -5.2930   25.2930   19.7290 C.3       1 PHE         0.1404
     94 C          -6.3090   26.0580   18.9260 C.2       1 PHE         0.2061
     95 O          -6.2010   27.2840   18.8110 O.2       1 PHE        -0.3942
     96 CB         -3.9050   25.6410   19.1910 C.3       1 PHE         0.0214
     97 CG         -3.4000   26.9640   19.6570 C.ar      1 PHE        -0.0386
     98 CD1        -3.2290   27.2110   21.0240 C.ar      1 PHE        -0.0601
     99 CD2        -3.0990   27.9840   18.7390 C.ar      1 PHE        -0.0601
    100 CE1        -2.7540   28.4470   21.4740 C.ar      1 PHE        -0.0686
    101 CE2        -2.6180   29.2270   19.1880 C.ar      1 PHE        -0.0686
    102 CZ         -2.4520   29.4490   20.5470 C.ar      1 PHE        -0.0687
    103 N          -7.2750   25.3520   18.3550 N.am      1 ASN        -0.2615
    104 CA         -8.3300   25.9610   17.5600 C.3       1 ASN         0.1476
    105 C          -9.3800   26.7250   18.3590 C.2       1 ASN         0.2062
    106 O          -9.9970   26.1540   19.2270 O.2       1 ASN        -0.3942
    107 CB         -9.0640   24.8610   16.7830 C.3       1 ASN         0.0773
    108 CG        -10.0710   25.4130   15.8530 C.2       1 ASN         0.1780
    109 OD1        -9.8290   26.4360   15.2560 O.2       1 ASN        -0.3970
    110 ND2       -11.2170   24.7510   15.7190 N.am      1 ASN        -0.3007
    111 N          -9.6220   27.9970   18.0320 N.am      1 ARG        -0.2636
    112 CA        -10.5610   28.8170   18.7910 C.3       1 ARG         0.1308
    113 C         -11.7930   29.1360   17.9600 C.2       1 ARG         0.1992
    114 O         -11.8230   28.7690   16.7720 O.2       1 ARG        -0.3947
    115 CB         -9.8850   30.0980   19.2510 C.3       1 ARG        -0.0092
    116 CG         -8.8290   29.8290   20.2680 C.3       1 ARG        -0.0156
    117 CD         -8.0740   31.0620   20.6430 C.3       1 ARG         0.0627
    118 NE         -6.9460   30.6860   21.4910 N.pl3     1 ARG        -0.2723
    119 CZ         -5.9990   31.5210   21.9120 C.cat     1 ARG         0.2882
    120 NH1        -6.0330   32.8010   21.5240 N.pl3     1 ARG        -0.2849
    121 NH2        -5.0090   31.0700   22.7030 N.pl3     1 ARG        -0.2849
    122 N         -12.7570   29.7430   19.0460 N.am      1 NH2        -0.2990
    123 H1          1.9456    7.7392   14.4493 H         1 XPC         0.2001
    124 H2          3.5201    7.6756   14.9252 H         1 XPC         0.2001
    125 H3          3.1316    8.2812   13.4446 H         1 XPC         0.2001
    126 H4          1.9116   10.1228   14.5092 H         1 XPC         0.0934
    127 H5          1.9488    8.2988   16.5790 H         1 XPC         0.0872
    128 H6          1.8587   10.0635   16.9020 H         1 XPC         0.0872
    129 H7          4.0169    8.2912   17.3812 H         1 XPC         0.2017
    130 H8          3.8711    9.8715   17.8183 H         1 XPC         0.2017
    131 H9          5.3363    8.7060   15.6200 H         1 XPC         0.0845
    132 H10         5.5912   10.2784   16.4502 H         1 XPC         0.0845
    133 H11         4.5090   10.2193   13.9566 H         1 XPC         0.0651
    134 H12         5.8510   12.1002   14.8866 H         1 ALA         0.1883
    135 H13         4.5778   14.0051   16.6551 H         1 ALA         0.0797
    136 H14         6.5159   15.4818   16.1497 H         1 ALA         0.0277
    137 H15         7.0551   14.3249   14.8858 H         1 ALA         0.0277
    138 H16         7.0219   13.8207   16.6096 H         1 ALA         0.0277
    139 H17         4.2723   13.3034   13.2363 H         1 XCP         0.1856
    140 H18         2.7625   15.9176   13.4726 H         1 XCP         0.0584
    141 H19         4.3440   14.9796   11.0122 H         1 XCP         0.0289
    142 H20         4.3351   16.5972   11.7933 H         1 XCP         0.0289
    143 H21         2.8161   16.0675    9.5857 H         1 XCP         0.0268
    144 H22         2.2463   17.1775   10.8779 H         1 XCP         0.0268
    145 H23         1.2371   14.4929   10.1257 H         1 XCP         0.0293
    146 H24         0.4692   15.7534   11.1496 H         1 XCP         0.0293
    147 H25         2.0897   13.4062   11.9449 H         1 XCP         0.0561
    148 H26         0.5066   12.4071   12.9452 H         1 ARG         0.1883
    149 H27        -1.9077   13.6775   13.5941 H         1 ARG         0.0800
    150 H28        -2.4323   11.5887   14.9331 H         1 ARG         0.0313
    151 H29        -0.7891   11.0098   14.4956 H         1 ARG         0.0313
    152 H30        -2.9245   10.3144   13.0492 H         1 ARG         0.0301
    153 H31        -1.3450   10.6567   12.2653 H         1 ARG         0.0301
    154 H32        -3.0286   11.7211   10.8871 H         1 ARG         0.0689
    155 H33        -2.2284   13.0451   11.8000 H         1 ARG         0.0689
    156 H34        -4.5112   12.1550   13.2818 H         1 ARG         0.2642
    157 H35        -6.7877   14.4999   11.9650 H         1 ARG         0.2615
    158 H36        -6.4662   13.3270   13.2703 H         1 ARG         0.2615
    159 H37        -3.7468   13.8816   10.2573 H         1 ARG         0.2615
    160 H38        -5.2902   14.7763   10.2600 H         1 ARG         0.2615
    161 H39         1.1108   13.5228   15.5104 H         1 XCP         0.1856
    162 H40        -0.7829   14.8208   17.5133 H         1 XCP         0.0584
    163 H41         1.3407   12.7128   18.0358 H         1 XCP         0.0289
    164 H42        -0.2725   12.9227   18.7975 H         1 XCP         0.0289
    165 H43         2.1672   13.7150   19.9413 H         1 XCP         0.0268
    166 H44         0.5529   14.3482   20.4102 H         1 XCP         0.0268
    167 H45         2.7444   15.7884   19.1441 H         1 XCP         0.0293
    168 H46         1.1252   16.4181   19.6003 H         1 XCP         0.0293
    169 H47         2.1443   15.3410   17.0129 H         1 XCP         0.0561
    170 H48         2.2974   16.8097   15.5958 H         1 LEU         0.1883
    171 H49         1.7348   19.5522   16.1162 H         1 LEU         0.0800
    172 H50         2.2269   18.0764   13.4848 H         1 LEU         0.0315
    173 H51         3.4573   18.8692   14.5262 H         1 LEU         0.0315
    174 H52         1.1978   20.4305   13.2131 H         1 LEU         0.0298
    175 H53         2.7949   22.3411   13.5244 H         1 LEU         0.0232
    176 H54         3.9768   21.2200   14.2812 H         1 LEU         0.0232
    177 H55         2.4026   21.5417   15.0844 H         1 LEU         0.0232
    178 H56         2.4498   19.2541   11.4211 H         1 LEU         0.0232
    179 H57         3.9876   19.9237   12.0640 H         1 LEU         0.0232
    180 H58         2.7404   21.0264   11.3895 H         1 LEU         0.0232
    181 H59         0.1220   17.0747   14.0792 H         1 XCP         0.1856
    182 H60        -2.0740   19.1396   13.8289 H         1 XCP         0.0584
    183 H61        -0.9504   16.9599   12.0237 H         1 XCP         0.0289
    184 H62        -1.5924   18.5776   11.5792 H         1 XCP         0.0289
    185 H63        -2.9550   16.1432   11.3151 H         1 XCP         0.0268
    186 H64        -3.7074   17.7743   11.3099 H         1 XCP         0.0268
    187 H65        -4.0252   15.6935   13.2852 H         1 XCP         0.0293
    188 H66        -4.6854   17.3633   13.3357 H         1 XCP         0.0293
    189 H67        -2.2097   16.2168   14.5874 H         1 XCP         0.0561
    190 H68        -2.9719   15.8878   16.5372 H         1 LYS         0.1883
    191 H69        -5.2678   17.3753   17.4282 H         1 LYS         0.0800
    192 H70        -5.1647   15.0510   18.0058 H         1 LYS         0.0312
    193 H71        -5.2356   16.0661   19.4862 H         1 LYS         0.0312
    194 H72        -2.6056   15.6784   19.5020 H         1 LYS         0.0269
    195 H73        -3.0291   14.2556   18.4906 H         1 LYS         0.0269
    196 H74        -4.8785   13.8207   20.2665 H         1 LYS         0.0317
    197 H75        -3.9464   14.9564   21.3000 H         1 LYS         0.0317
    198 H76        -2.1342   13.4879   21.5012 H         1 LYS         0.0813
    199 H77        -2.5929   12.5571   20.0349 H         1 LYS         0.0813
    200 H78        -3.1688   11.3813   22.0617 H         1 LYS         0.1994
    201 H79        -4.5353   11.7734   21.2321 H         1 LYS         0.1994
    202 H80        -4.1151   12.6263   22.5757 H         1 LYS         0.1994
    203 H81        -0.8146   21.1262   19.6446 H         1 B3L         0.0525
    204 H82        -0.5713   20.1473   18.1583 H         1 B3L         0.0525
    205 H83        -2.8891   19.6529   20.1016 H         1 B3L         0.0581
    206 H84        -1.7625   17.7685   17.9770 H         1 B3L         0.1856
    207 H85        -0.6039   19.5565   21.1902 H         1 B3L         0.0291
    208 H86        -0.1113   18.3436   19.9602 H         1 B3L         0.0291
    209 H87        -1.8972   16.8316   20.7301 H         1 B3L         0.0296
    210 H88        -0.9325   16.2354   22.9286 H         1 B3L         0.0232
    211 H89        -0.0886   17.8203   22.9766 H         1 B3L         0.0232
    212 H90         0.3306   16.6175   21.7100 H         1 B3L         0.0232
    213 H91        -3.4951   18.5202   21.5598 H         1 B3L         0.0232
    214 H92        -2.4021   18.8587   22.9445 H         1 B3L         0.0232
    215 H93        -3.1590   17.2388   22.7728 H         1 B3L         0.0232
    216 H94        -1.7921   20.6897   16.3180 H         1 GLY         0.1880
    217 H95        -3.1710   22.0489   14.9953 H         1 GLY         0.0763
    218 H96        -2.7788   23.3278   16.1942 H         1 GLY         0.0763
    219 H97        -4.8147   20.3419   16.3071 H         1 ASP         0.1884
    220 H98        -7.2863   21.7104   16.2649 H         1 ASP         0.0819
    221 H99        -8.2494   19.5528   17.2697 H         1 ASP         0.0478
    222 H100       -6.5688   18.9186   17.2771 H         1 ASP         0.0478
    223 H101       -5.3387   20.6256   19.0551 H         1 ALA         0.1883
    224 H102       -7.2598   21.4004   20.9986 H         1 ALA         0.0797
    225 H103       -5.3484   21.4568   22.6146 H         1 ALA         0.0277
    226 H104       -4.1927   21.3479   21.2439 H         1 ALA         0.0277
    227 H105       -5.3072   19.9823   21.5896 H         1 ALA         0.0277
    228 H106       -5.0866   23.2858   19.0089 H         1 PHE         0.1885
    229 H107       -5.3617   25.6396   20.7707 H         1 PHE         0.0823
    230 H108       -3.9508   25.6535   18.0920 H         1 PHE         0.0474
    231 H109       -3.1994   24.8638   19.5198 H         1 PHE         0.0474
    232 H110       -3.4676   26.4351   21.7424 H         1 PHE         0.0557
    233 H111       -3.2384   27.8119   17.6779 H         1 PHE         0.0557
    234 H112       -2.6209   28.6269   22.5346 H         1 PHE         0.0599
    235 H113       -2.3782   30.0078   18.4753 H         1 PHE         0.0599
    236 H114       -2.0847   30.4082   20.8935 H         1 PHE         0.0559
    237 H115       -7.2785   24.3593   18.4759 H         1 ASN         0.1885
    238 H116       -7.8601   26.6595   16.8520 H         1 ASN         0.0826
    239 H117       -9.5698   24.1977   17.5001 H         1 ASN         0.0551
    240 H118       -8.3274   24.2831   16.2055 H         1 ASN         0.0551
    241 H119      -11.9228   25.0936   15.0989 H         1 ASN         0.1814
    242 H120      -11.3727   23.9107   16.2384 H         1 ASN         0.1814
    243 H121       -9.1482   28.3975   17.2477 H         1 ARG         0.1883
    244 H122      -10.8784   28.2511   19.6792 H         1 ARG         0.0800
    245 H123      -10.6428   30.7629   19.6911 H         1 ARG         0.0313
    246 H124       -9.4254   30.5907   18.3815 H         1 ARG         0.0313
    247 H125       -8.1222   29.0929   19.8575 H         1 ARG         0.0301
    248 H126       -9.3042   29.4173   21.1706 H         1 ARG         0.0301
    249 H127       -8.7361   31.7479   21.1918 H         1 ARG         0.0689
    250 H128       -7.7033   31.5588   19.7343 H         1 ARG         0.0689
    251 H129       -6.8783   29.7012   21.7852 H         1 ARG         0.2642
    252 H130       -5.3050   33.4556   21.8440 H         1 ARG         0.2615
    253 H131       -6.7871   33.1317   20.9053 H         1 ARG         0.2615
    254 H132       -4.9929   30.0826   22.9956 H         1 ARG         0.2615
    255 H133       -4.2670   31.7121   23.0162 H         1 ARG         0.2615
    256 H134      -13.6714   30.0531   18.7857 H         1 NH2         0.1815
    257 H135      -12.4551   29.8186   19.9964 H         1 NH2         0.1815
@<TRIPOS>BOND
     1    2    1 1  
     2    2    3 1  
     3    6    2 1  
     4    4    3 1  
     5    5    4 1  
     6    6    5 1  
     7    7    6 1  
     8    7    8 2  
     9    9    7 am 
    10   10    9 1  
    11   11   10 1  
    12   10   13 1  
    13   11   12 2  
    14   14   11 am 
    15   15   14 1  
    16   15   16 1  
    17   19   15 1  
    18   17   16 1  
    19   18   17 1  
    20   19   18 1  
    21   20   19 1  
    22   20   21 2  
    23   22   20 am 
    24   23   22 1  
    25   24   23 1  
    26   23   26 1  
    27   24   25 2  
    28   33   24 am 
    29   26   27 1  
    30   27   28 1  
    31   28   29 1  
    32   29   30 ar 
    33   30   31 ar 
    34   30   32 ar 
    35   34   33 1  
    36   34   35 1  
    37   38   34 1  
    38   36   35 1  
    39   37   36 1  
    40   38   37 1  
    41   39   38 1  
    42   39   40 2  
    43   41   39 am 
    44   42   41 1  
    45   43   42 1  
    46   42   45 1  
    47   43   44 2  
    48   49   43 am 
    49   45   46 1  
    50   46   47 1  
    51   46   48 1  
    52   50   49 1  
    53   50   51 1  
    54   54   50 1  
    55   52   51 1  
    56   53   52 1  
    57   54   53 1  
    58   55   54 1  
    59   55   56 2  
    60   57   55 am 
    61   58   57 1  
    62   59   58 1  
    63   58   61 1  
    64   59   60 2  
    65   70   59 am 
    66   61   62 1  
    67   62   63 1  
    68   63   64 1  
    69   64   65 1  
    70   67   66 2  
    71   68   67 1  
    72   67   75 am 
    73   69   68 1  
    74   69   70 1  
    75   69   71 1  
    76   71   72 1  
    77   72   73 1  
    78   72   74 1  
    79   75   76 1  
    80   76   77 1  
    81   77   78 2  
    82   77   79 am 
    83   79   80 1  
    84   80   81 1  
    85   80   83 1  
    86   81   82 2  
    87   81   87 am 
    88   83   84 1  
    89   84   85 ar 
    90   84   86 ar 
    91   87   88 1  
    92   88   89 1  
    93   88   91 1  
    94   89   90 2  
    95   89   92 am 
    96   92   93 1  
    97   93   94 1  
    98   93   96 1  
    99   94   95 2  
   100   94  103 am 
   101   96   97 1  
   102   97   98 ar 
   103   97   99 ar 
   104   98  100 ar 
   105   99  101 ar 
   106  100  102 ar 
   107  101  102 ar 
   108  103  104 1  
   109  104  105 1  
   110  104  107 1  
   111  105  106 2  
   112  105  111 am 
   113  107  108 1  
   114  108  109 2  
   115  108  110 am 
   116  111  112 1  
   117  112  113 1  
   118  112  115 1  
   119  113  114 2  
   120  113  122 am 
   121  115  116 1  
   122  116  117 1  
   123  117  118 1  
   124  118  119 ar 
   125  119  120 ar 
   126  119  121 ar 
   127    1  123 1  
   128    1  124 1  
   129    1  125 1  
   130    2  126 1  
   131    3  127 1  
   132    3  128 1  
   133    4  129 1  
   134    4  130 1  
   135    5  131 1  
   136    5  132 1  
   137    6  133 1  
   138    9  134 1  
   139   10  135 1  
   140   13  136 1  
   141   13  137 1  
   142   13  138 1  
   143   14  139 1  
   144   15  140 1  
   145   16  141 1  
   146   16  142 1  
   147   17  143 1  
   148   17  144 1  
   149   18  145 1  
   150   18  146 1  
   151   19  147 1  
   152   22  148 1  
   153   23  149 1  
   154   26  150 1  
   155   26  151 1  
   156   27  152 1  
   157   27  153 1  
   158   28  154 1  
   159   28  155 1  
   160   29  156 1  
   161   31  157 1  
   162   31  158 1  
   163   32  159 1  
   164   32  160 1  
   165   33  161 1  
   166   34  162 1  
   167   35  163 1  
   168   35  164 1  
   169   36  165 1  
   170   36  166 1  
   171   37  167 1  
   172   37  168 1  
   173   38  169 1  
   174   41  170 1  
   175   42  171 1  
   176   45  172 1  
   177   45  173 1  
   178   46  174 1  
   179   47  175 1  
   180   47  176 1  
   181   47  177 1  
   182   48  178 1  
   183   48  179 1  
   184   48  180 1  
   185   49  181 1  
   186   50  182 1  
   187   51  183 1  
   188   51  184 1  
   189   52  185 1  
   190   52  186 1  
   191   53  187 1  
   192   53  188 1  
   193   54  189 1  
   194   57  190 1  
   195   58  191 1  
   196   61  192 1  
   197   61  193 1  
   198   62  194 1  
   199   62  195 1  
   200   63  196 1  
   201   63  197 1  
   202   64  198 1  
   203   64  199 1  
   204   65  200 1  
   205   65  201 1  
   206   65  202 1  
   207   68  203 1  
   208   68  204 1  
   209   69  205 1  
   210   70  206 1  
   211   71  207 1  
   212   71  208 1  
   213   72  209 1  
   214   73  210 1  
   215   73  211 1  
   216   73  212 1  
   217   74  213 1  
   218   74  214 1  
   219   74  215 1  
   220   75  216 1  
   221   76  217 1  
   222   76  218 1  
   223   79  219 1  
   224   80  220 1  
   225   83  221 1  
   226   83  222 1  
   227   87  223 1  
   228   88  224 1  
   229   91  225 1  
   230   91  226 1  
   231   91  227 1  
   232   92  228 1  
   233   93  229 1  
   234   96  230 1  
   235   96  231 1  
   236   98  232 1  
   237   99  233 1  
   238  100  234 1  
   239  101  235 1  
   240  102  236 1  
   241  103  237 1  
   242  104  238 1  
   243  107  239 1  
   244  107  240 1  
   245  110  241 1  
   246  110  242 1  
   247  111  243 1  
   248  112  244 1  
   249  115  245 1  
   250  115  246 1  
   251  116  247 1  
   252  116  248 1  
   253  117  249 1  
   254  117  250 1  
   255  118  251 1  
   256  120  252 1  
   257  120  253 1  
   258  121  254 1  
   259  121  255 1  
   260  122  256 1  
   261  122  257 1  
@<TRIPOS>SUBSTRUCTURE
     1 XPC         1

