4z2j_ligand
  -I-interpret- 

112113  0  0  0  0  0  0  0  0999 V2000
  -26.4270    4.6660  -34.0630 C   0  0  0  0  0
  -25.1570    4.5720  -33.2540 C   0  0  0  0  0
  -24.6430    3.1260  -33.2220 C   0  0  0  0  0
  -25.7270    2.1280  -32.8410 C   0  0  0  0  0
  -25.2920    0.7050  -33.1740 C   0  0  0  0  0
  -26.1990    0.0610  -34.2130 C   0  0  0  0  0
  -26.3940    4.6960  -35.2800 O   0  0  0  0  0
  -27.7140    4.6860  -33.3680 O   0  0  0  0  0
  -23.6000    3.0950  -32.2700 O   0  0  0  0  0
  -22.3190    2.4610  -34.0400 O   0  0  0  0  0
  -19.5320   -4.6450  -30.6880 O   0  0  0  0  0
  -25.2550   -0.1440  -32.0120 O   0  0  0  0  0
  -20.6790   -7.1720  -31.1640 C   0  0  0  0  0
  -21.1890   -6.1310  -30.3030 N   0  0  0  0  0
  -20.5710   -4.9670  -30.1000 C   0  0  0  0  0
  -21.1840   -4.2110  -29.1730 N   0  0  0  0  0
  -20.8350   -2.9640  -28.8790 C   0  0  0  0  0
  -21.3830   -2.3710  -27.9080 N   0  0  0  0  0
  -19.9140   -2.3430  -29.5970 N   0  0  0  0  0
  -19.1930    1.6690  -31.5250 C   0  0  0  0  0
  -19.9350    2.4220  -32.6410 C   0  0  0  0  0
  -21.2240    2.8680  -32.1610 N   0  0  0  0  0
  -22.3230    2.8030  -32.8880 C   0  0  0  0  0
  -26.1710    2.3270  -31.3980 C   0  0  0  0  0
  -24.1040    5.5340  -33.7750 C   0  0  0  0  0
  -28.8320    5.0000  -34.2390 C   0  0  0  0  0
  -29.3160    6.4400  -34.0080 C   0  0  0  0  0
  -28.2290    7.4240  -34.3910 C   0  0  0  0  0
  -29.9370    3.9690  -34.0120 C   0  0  0  0  0
  -31.1690    4.4610  -34.5550 O   0  0  0  0  0
  -30.0740    3.7640  -32.5080 C   0  0  0  0  0
  -29.4980    2.7220  -34.7910 C   0  0  0  0  0
  -30.0440    1.3590  -34.3960 C   0  0  0  0  0
  -31.5700    1.2830  -34.3650 C   0  0  0  0  0
  -29.8300    2.9070  -36.1610 O   0  0  0  0  0
  -29.1280    2.0210  -37.0410 C   0  0  0  0  0
  -28.0090    2.7640  -37.7580 C   0  0  0  0  0
  -30.1530    1.4840  -38.0260 C   0  0  0  0  0
  -28.5050    0.9680  -36.2930 O   0  0  0  0  0
  -29.4170    0.3560  -35.3790 C   0  0  0  0  0
  -28.6200   -0.6950  -34.6390 C   0  0  0  0  0
  -29.6150   -1.5870  -33.9230 C   0  0  0  0  0
  -27.6110   -0.0620  -33.6540 C   0  0  0  0  0
  -26.2010    0.9050  -35.3700 O   0  0  0  0  0
  -25.6500   -1.3220  -34.5740 C   0  0  0  0  0
  -23.9430   -0.1440  -31.4270 C   0  0  0  0  0
  -23.1860   -1.3330  -31.8200 C   0  0  0  0  0
  -22.5710   -2.4250  -32.0930 C   0  0  0  0  0
  -19.3860    0.1480  -31.5810 C   0  0  0  0  0
  -18.6820   -0.4180  -30.3700 C   0  0  0  0  0
  -19.6150   -0.9620  -29.3190 C   0  0  0  0  0
  -25.3799    4.8661  -32.2284 H   0  0  0  0  0
  -24.3033    2.8352  -34.2161 H   0  0  0  0  0
  -26.6160    2.3129  -33.4440 H   0  0  0  0  0
  -24.2840    0.7988  -33.5781 H   0  0  0  0  0
  -20.5830   -6.7874  -32.1794 H   0  0  0  0  0
  -19.7027   -7.4949  -30.8025 H   0  0  0  0  0
  -21.3677   -8.0168  -31.1578 H   0  0  0  0  0
  -22.0734   -6.2956  -29.8222 H   0  0  0  0  0
  -22.0915   -2.8499  -27.3521 H   0  0  0  0  0
  -19.4204   -2.8373  -30.3402 H   0  0  0  0  0
  -19.5943    2.0156  -30.5727 H   0  0  0  0  0
  -18.1284    1.8691  -31.6462 H   0  0  0  0  0
  -20.0791    1.7546  -33.4907 H   0  0  0  0  0
  -19.3454    3.2871  -32.9445 H   0  0  0  0  0
  -21.2864    3.2503  -31.2174 H   0  0  0  0  0
  -27.0197    1.6762  -31.1873 H   0  0  0  0  0
  -25.3471    2.0801  -30.7284 H   0  0  0  0  0
  -26.4629    3.3666  -31.2491 H   0  0  0  0  0
  -23.2274    5.4962  -33.1283 H   0  0  0  0  0
  -23.8221    5.2481  -34.7883 H   0  0  0  0  0
  -24.5093    6.5458  -33.7810 H   0  0  0  0  0
  -28.5211    4.9464  -35.2823 H   0  0  0  0  0
  -29.5602    6.5700  -32.9537 H   0  0  0  0  0
  -30.1970    6.6237  -34.6230 H   0  0  0  0  0
  -27.3443    7.2417  -33.7810 H   0  0  0  0  0
  -27.9787    7.2952  -35.4440 H   0  0  0  0  0
  -28.5849    8.4404  -34.2225 H   0  0  0  0  0
  -31.8622    3.8125  -34.4117 H   0  0  0  0  0
  -29.1281    3.4032  -32.1041 H   0  0  0  0  0
  -30.3345    4.7112  -32.0357 H   0  0  0  0  0
  -30.8571    3.0315  -32.3123 H   0  0  0  0  0
  -28.4356    2.6659  -34.5538 H   0  0  0  0  0
  -29.7721    1.1308  -33.3654 H   0  0  0  0  0
  -31.9538    2.0043  -33.6436 H   0  0  0  0  0
  -31.9641    1.5125  -35.3550 H   0  0  0  0  0
  -31.8766    0.2782  -34.0744 H   0  0  0  0  0
  -28.4327    3.5823  -38.3402 H   0  0  0  0  0
  -27.3103    3.1632  -37.0228 H   0  0  0  0  0
  -27.4857    2.0765  -38.4226 H   0  0  0  0  0
  -30.9345    0.9534  -37.4821 H   0  0  0  0  0
  -30.5929    2.3138  -38.5792 H   0  0  0  0  0
  -29.6643    0.8010  -38.7208 H   0  0  0  0  0
  -30.2591   -0.0726  -35.9223 H   0  0  0  0  0
  -28.0212   -1.2775  -35.3392 H   0  0  0  0  0
  -30.2023   -0.9883  -33.2267 H   0  0  0  0  0
  -30.2774   -2.0503  -34.6542 H   0  0  0  0  0
  -29.0781   -2.3614  -33.3751 H   0  0  0  0  0
  -27.9617    0.9461  -33.4331 H   0  0  0  0  0
  -27.5589   -0.7117  -32.7804 H   0  0  0  0  0
  -25.3077    0.9761  -35.7144 H   0  0  0  0  0
  -25.6274   -1.9469  -33.6812 H   0  0  0  0  0
  -26.2925   -1.7819  -35.3248 H   0  0  0  0  0
  -24.6406   -1.2182  -34.9720 H   0  0  0  0  0
  -24.0468   -0.1415  -30.3420 H   0  0  0  0  0
  -23.4076    0.7392  -31.7754 H   0  0  0  0  0
  -18.9725   -0.2645  -32.5013 H   0  0  0  0  0
  -20.4446   -0.1118  -31.5742 H   0  0  0  0  0
  -18.1187    0.3957  -29.9131 H   0  0  0  0  0
  -18.0626   -1.2466  -30.7133 H   0  0  0  0  0
  -19.1386   -0.8869  -28.3415 H   0  0  0  0  0
  -20.5399   -0.3853  -29.3259 H   0  0  0  0  0
  2  1  1  0  0  0
  1  7  2  0  0  0
  1  8  1  0  0  0
  3  2  1  0  0  0
  2 25  1  0  0  0
  3  4  1  0  0  0
  9  3  1  0  0  0
  4  5  1  0  0  0
  4 24  1  0  0  0
  5  6  1  0  0  0
  5 12  1  0  0  0
  6 43  1  0  0  0
  6 44  1  0  0  0
  6 45  1  0  0  0
  8 26  1  0  0  0
 23  9  1  0  0  0
 23 10  2  0  0  0
 15 11  2  0  0  0
 12 46  1  0  0  0
 14 13  1  0  0  0
 15 14  1  0  0  0
 16 15  1  0  0  0
 17 16  4  0  0  0
 17 18  2  0  0  0
 19 17  1  0  0  0
 51 19  1  0  0  0
 20 21  1  0  0  0
 49 20  1  0  0  0
 21 22  1  0  0  0
 22 23  1  0  0  0
 26 27  1  0  0  0
 26 29  1  0  0  0
 27 28  1  0  0  0
 29 30  1  0  0  0
 29 31  1  0  0  0
 29 32  1  0  0  0
 32 33  1  0  0  0
 32 35  1  0  0  0
 33 34  1  0  0  0
 40 33  1  0  0  0
 35 36  1  0  0  0
 36 37  1  0  0  0
 36 38  1  0  0  0
 39 36  1  0  0  0
 40 39  1  0  0  0
 41 40  1  0  0  0
 41 42  1  0  0  0
 43 41  1  0  0  0
 46 47  1  0  0  0
 47 48  3  0  0  0
 50 49  1  0  0  0
 50 51  1  0  0  0
  2 52  1  0  0  0
  3 53  1  0  0  0
  4 54  1  0  0  0
  5 55  1  0  0  0
 13 56  1  0  0  0
 13 57  1  0  0  0
 13 58  1  0  0  0
 14 59  1  0  0  0
 18 60  1  0  0  0
 19 61  1  0  0  0
 20 62  1  0  0  0
 20 63  1  0  0  0
 21 64  1  0  0  0
 21 65  1  0  0  0
 22 66  1  0  0  0
 24 67  1  0  0  0
 24 68  1  0  0  0
 24 69  1  0  0  0
 25 70  1  0  0  0
 25 71  1  0  0  0
 25 72  1  0  0  0
 26 73  1  0  0  0
 27 74  1  0  0  0
 27 75  1  0  0  0
 28 76  1  0  0  0
 28 77  1  0  0  0
 28 78  1  0  0  0
 30 79  1  0  0  0
 31 80  1  0  0  0
 31 81  1  0  0  0
 31 82  1  0  0  0
 32 83  1  0  0  0
 33 84  1  0  0  0
 34 85  1  0  0  0
 34 86  1  0  0  0
 34 87  1  0  0  0
 37 88  1  0  0  0
 37 89  1  0  0  0
 37 90  1  0  0  0
 38 91  1  0  0  0
 38 92  1  0  0  0
 38 93  1  0  0  0
 40 94  1  0  0  0
 41 95  1  0  0  0
 42 96  1  0  0  0
 42 97  1  0  0  0
 42 98  1  0  0  0
 43 99  1  0  0  0
 43100  1  0  0  0
 44101  1  0  0  0
 45102  1  0  0  0
 45103  1  0  0  0
 45104  1  0  0  0
 46105  1  0  0  0
 46106  1  0  0  0
 49107  1  0  0  0
 49108  1  0  0  0
 50109  1  0  0  0
 50110  1  0  0  0
 51111  1  0  0  0
 51112  1  0  0  0
M  END
$$$$
