4ci1_ligand
  -I-interpret- 

 29 31  0  0  0  0  0  0  0  0999 V2000
   -1.9230    7.6950   11.5530 O   0  0  0  0  0
   -1.7150    8.1980   12.6490 C   0  0  0  0  0
   -1.2940    9.4800   12.7950 N   0  0  0  0  0
   -1.0710   10.0980   13.9790 C   0  0  0  0  0
   -0.6930   11.2480   14.0060 O   0  0  0  0  0
   -1.3060    9.3770   15.2840 C   0  0  0  0  0
   -1.1110    7.8540   15.0770 C   0  0  0  0  0
   -2.0010    7.3990   13.8990 C   0  0  0  0  0
   -1.8960    5.9660   13.6690 N   0  0  0  0  0
   -1.1600    1.4940   12.4720 C   0  0  0  0  0
   -0.5210    2.7510   12.3880 C   0  0  0  0  0
   -1.2270    3.8480   12.9070 C   0  0  0  0  0
   -2.5050    3.7040   13.4760 C   0  0  0  0  0
    0.1860    5.7930   12.6040 O   0  0  0  0  0
   -3.9930    5.3480   14.4010 O   0  0  0  0  0
   -3.1470    2.4540   13.5350 C   0  0  0  0  0
   -2.4540    1.3430   13.0130 C   0  0  0  0  0
   -2.9000    5.0910   13.9260 C   0  0  0  0  0
   -0.8680    5.3160   13.0430 C   0  0  0  0  0
   -1.1328   10.0209   11.9454 H   0  0  0  0  0
   -2.3227    9.5692   15.6266 H   0  0  0  0  0
   -0.5962    9.7356   16.0294 H   0  0  0  0  0
   -1.3917    7.3173   15.9832 H   0  0  0  0  0
   -0.0652    7.6403   14.8563 H   0  0  0  0  0
   -3.0365    7.5986   14.1746 H   0  0  0  0  0
   -0.6356    0.6111   12.1065 H   0  0  0  0  0
    0.4680    2.8633   11.9437 H   0  0  0  0  0
   -4.1419    2.3484   13.9676 H   0  0  0  0  0
   -2.9221    0.3587   13.0275 H   0  0  0  0  0
  2  1  2  0  0  0
  2  3  1  0  0  0
  8  2  1  0  0  0
  3  4  1  0  0  0
  4  5  2  0  0  0
  6  4  1  0  0  0
  7  6  1  0  0  0
  8  7  1  0  0  0
  9  8  1  0  0  0
  9 18  1  0  0  0
 19  9  1  0  0  0
 11 10  4  0  0  0
 10 17  4  0  0  0
 12 11  4  0  0  0
 12 13  4  0  0  0
 12 19  1  0  0  0
 13 16  4  0  0  0
 13 18  1  0  0  0
 19 14  2  0  0  0
 18 15  2  0  0  0
 16 17  4  0  0  0
  3 20  1  0  0  0
  6 21  1  0  0  0
  6 22  1  0  0  0
  7 23  1  0  0  0
  7 24  1  0  0  0
  8 25  1  0  0  0
 10 26  1  0  0  0
 11 27  1  0  0  0
 16 28  1  0  0  0
 17 29  1  0  0  0
M  END
$$$$
