6ooy_ligand
  -I-interpret- 

 38 40  0  0  0  0  0  0  0  0999 V2000
  -11.0590    1.8270  -19.9960 C   0  0  0  0  0
  -10.7980    2.8180  -19.1040 C   0  0  0  0  0
  -10.6050    4.1330  -19.5450 C   0  0  0  0  0
  -10.5980    4.4460  -20.9100 C   0  0  0  0  0
  -10.8100    3.4330  -21.8330 C   0  0  0  0  0
  -11.0260    2.1120  -21.3760 C   0  0  0  0  0
  -11.2550    0.3910  -19.5280 C   0  0  0  0  0
  -11.2840    0.9640  -22.3590 C   0  0  0  0  0
  -12.1760    0.2780  -18.3990 N   0  0  0  0  0
  -13.9510    0.3530  -17.1410 C   0  0  0  0  0
  -15.2910    0.6090  -16.9090 C   0  0  0  0  0
  -16.1010    1.0980  -17.9220 C   0  0  0  0  0
  -15.5730    1.3710  -19.1730 C   0  0  0  0  0
  -14.2400    1.1180  -19.4350 C   0  0  0  0  0
  -10.5830   -1.1210  -15.5130 O   0  0  0  0  0
  -10.5120   -0.6400  -16.8370 C   0  0  0  0  0
  -11.8800   -0.1700  -17.1790 C   0  0  0  0  0
  -13.4450    0.6160  -18.4100 C   0  0  0  0  0
  -12.9680   -0.1490  -16.3660 N   0  0  0  0  0
  -10.3540    5.2050  -18.5240 C   0  0  0  0  0
  -10.7386    2.5884  -18.0401 H   0  0  0  0  0
  -10.4285    5.4703  -21.2419 H   0  0  0  0  0
  -10.8102    3.6527  -22.9006 H   0  0  0  0  0
  -10.2855    0.0124  -19.2043 H   0  0  0  0  0
  -11.6779   -0.1738  -20.3588 H   0  0  0  0  0
  -10.5334    0.1871  -22.2134 H   0  0  0  0  0
  -12.2764    0.5503  -22.1801 H   0  0  0  0  0
  -11.2249    1.3413  -23.3799 H   0  0  0  0  0
  -15.7132    0.4245  -15.9212 H   0  0  0  0  0
  -17.1608    1.2689  -17.7328 H   0  0  0  0  0
  -16.2108    1.7866  -19.9531 H   0  0  0  0  0
  -13.8208    1.3076  -20.4231 H   0  0  0  0  0
   -9.7184   -1.4386  -15.2423 H   0  0  0  0  0
  -10.1810   -1.4204  -17.5222 H   0  0  0  0  0
   -9.7850    0.1674  -16.9242 H   0  0  0  0  0
  -11.2032    5.2624  -17.8430 H   0  0  0  0  0
   -9.4514    4.9654  -17.9619 H   0  0  0  0  0
  -10.2259    6.1627  -19.0285 H   0  0  0  0  0
  1  2  4  0  0  0
  1  6  4  0  0  0
  7  1  1  0  0  0
  2  3  4  0  0  0
  3  4  4  0  0  0
  3 20  1  0  0  0
  5  4  4  0  0  0
  6  5  4  0  0  0
  6  8  1  0  0  0
  9  7  1  0  0  0
 17  9  4  0  0  0
  9 18  4  0  0  0
 10 11  4  0  0  0
 18 10  4  0  0  0
 10 19  4  0  0  0
 11 12  4  0  0  0
 13 12  4  0  0  0
 14 13  4  0  0  0
 18 14  4  0  0  0
 16 15  1  0  0  0
 16 17  1  0  0  0
 17 19  4  0  0  0
  2 21  1  0  0  0
  4 22  1  0  0  0
  5 23  1  0  0  0
  7 24  1  0  0  0
  7 25  1  0  0  0
  8 26  1  0  0  0
  8 27  1  0  0  0
  8 28  1  0  0  0
 11 29  1  0  0  0
 12 30  1  0  0  0
 13 31  1  0  0  0
 14 32  1  0  0  0
 15 33  1  0  0  0
 16 34  1  0  0  0
 16 35  1  0  0  0
 20 36  1  0  0  0
 20 37  1  0  0  0
 20 38  1  0  0  0
M  END
$$$$
