5zt1_ligand
  -I-interpret- 

 47 49  0  0  0  0  0  0  0  0999 V2000
   58.8160   33.4590  183.4310 P   0  0  0  0  0
   60.6610   34.0470  183.2000 S   0  0  0  0  0
   58.7400   32.3910  184.5610 O   0  0  0  0  0
   58.3020   32.8310  182.1010 O   0  0  0  0  0
   56.3440   34.5200  183.5060 P   0  0  0  0  0
   56.0130   35.0840  182.1810 O   0  0  0  0  0
   56.0250   33.0250  183.5950 O   0  0  0  0  0
   57.8920   34.6550  183.8070 O   0  0  0  0  0
   53.9150   34.9460  184.6010 P   0  0  0  0  0
   53.2410   35.8080  183.6040 O   0  0  0  0  0
   53.7710   33.4480  184.3220 O   0  0  0  0  0
   55.4740   35.2170  184.6300 O   0  0  0  0  0
   53.3820   35.3290  186.0380 O   0  0  0  0  0
   53.8170   34.6420  187.2320 C   0  0  0  0  0
   52.8030   34.9270  188.3120 C   0  0  0  0  0
   52.4830   36.3280  188.2650 O   0  0  0  0  0
   51.4950   34.1570  188.1510 C   0  0  0  0  0
   51.4370   33.0840  189.0830 O   0  0  0  0  0
   50.3890   35.1910  188.4300 C   0  0  0  0  0
   49.7310   34.9260  189.6630 O   0  0  0  0  0
   51.1040   36.5470  188.4700 C   0  0  0  0  0
   50.6470   37.4990  187.4560 N   0  0  0  0  0
   51.4280   38.1050  186.5080 C   0  0  0  0  0
   50.7690   38.9190  185.7180 N   0  0  0  0  0
   49.4520   38.8410  186.1820 C   0  0  0  0  0
   48.2740   39.4650  185.7660 C   0  0  0  0  0
   48.2000   40.3230  184.7510 N   0  0  0  0  0
   47.1420   39.1660  186.4450 N   0  0  0  0  0
   47.2080   38.3020  187.4610 C   0  0  0  0  0
   48.2710   37.6550  187.9390 N   0  0  0  0  0
   49.3850   37.9650  187.2520 C   0  0  0  0  0
   57.8298   32.1059  184.6696 H   0  0  0  0  0
   57.3938   32.5417  182.2151 H   0  0  0  0  0
   56.2547   32.7014  184.4691 H   0  0  0  0  0
   54.2294   32.9512  185.0036 H   0  0  0  0  0
   54.8048   34.9900  187.5343 H   0  0  0  0  0
   53.8901   33.5697  187.0503 H   0  0  0  0  0
   53.2528   34.6167  189.2551 H   0  0  0  0  0
   51.3922   33.7135  187.1606 H   0  0  0  0  0
   50.6105   32.6087  188.9711 H   0  0  0  0  0
   49.6129   35.1627  187.6651 H   0  0  0  0  0
   49.0488   35.5856  189.8086 H   0  0  0  0  0
   50.8803   36.9851  189.4427 H   0  0  0  0  0
   52.4996   37.9271  186.4181 H   0  0  0  0  0
   49.0392   40.5614  184.2225 H   0  0  0  0  0
   47.3041   40.7420  184.5017 H   0  0  0  0  0
   46.2650   38.0982  187.9682 H   0  0  0  0  0
  1  2  2  0  0  0
  1  3  1  0  0  0
  1  4  1  0  0  0
  8  1  1  0  0  0
  5  6  2  0  0  0
  5  7  1  0  0  0
  5  8  1  0  0  0
 12  5  1  0  0  0
  9 10  2  0  0  0
  9 11  1  0  0  0
  9 12  1  0  0  0
  9 13  1  0  0  0
 13 14  1  0  0  0
 14 15  1  0  0  0
 15 16  1  0  0  0
 15 17  1  0  0  0
 16 21  1  0  0  0
 17 18  1  0  0  0
 17 19  1  0  0  0
 19 20  1  0  0  0
 19 21  1  0  0  0
 21 22  1  0  0  0
 22 23  4  0  0  0
 22 31  4  0  0  0
 23 24  4  0  0  0
 24 25  4  0  0  0
 25 26  4  0  0  0
 25 31  4  0  0  0
 26 27  1  0  0  0
 26 28  4  0  0  0
 28 29  4  0  0  0
 29 30  4  0  0  0
 30 31  4  0  0  0
  3 32  1  0  0  0
  4 33  1  0  0  0
  7 34  1  0  0  0
 11 35  1  0  0  0
 14 36  1  0  0  0
 14 37  1  0  0  0
 15 38  1  0  0  0
 17 39  1  0  0  0
 18 40  1  0  0  0
 19 41  1  0  0  0
 20 42  1  0  0  0
 21 43  1  0  0  0
 23 44  1  0  0  0
 27 45  1  0  0  0
 27 46  1  0  0  0
 29 47  1  0  0  0
M  END
$$$$
