### 
### Created by X-TOOL on Wed Jan  1 15:39:37 2020
### 

@<TRIPOS>MOLECULE
5zt1_ligand
   45    47     1     0     0
SMALL
GAST_HUCK


@<TRIPOS>ATOM
      1 PG         58.8160   33.4590  183.4310 P.3       1 AGS         0.3378
      2 S1G        60.6610   34.0470  183.2000 S.2       1 AGS        -0.4527
      3 O2G        58.7400   32.3910  184.5610 O.3       1 AGS        -0.2262
      4 O3G        58.3020   32.8310  182.1010 O.3       1 AGS        -0.2262
      5 PB         56.3440   34.5200  183.5060 P.3       1 AGS         0.3523
      6 O1B        56.0130   35.0840  182.1810 O.co2     1 AGS        -0.6053
      7 O2B        56.0250   33.0250  183.5950 O.co2     1 AGS        -0.6053
      8 O3B        57.8920   34.6550  183.8070 O.3       1 AGS        -0.0885
      9 PA         53.9150   34.9460  184.6010 P.3       1 AGS         0.2981
     10 O1A        53.2410   35.8080  183.6040 O.co2     1 AGS        -0.6127
     11 O2A        53.7710   33.4480  184.3220 O.co2     1 AGS        -0.6127
     12 O3A        55.4740   35.2170  184.6300 O.3       1 AGS        -0.1239
     13 O5'        53.3820   35.3290  186.0380 O.3       1 AGS        -0.2476
     14 C5'        53.8170   34.6420  187.2320 C.3       1 AGS         0.1128
     15 C4'        52.8030   34.9270  188.3120 C.3       1 AGS         0.1189
     16 O4'        52.4830   36.3280  188.2650 O.3       1 AGS        -0.3364
     17 C3'        51.4950   34.1570  188.1510 C.3       1 AGS         0.1149
     18 O3'        51.4370   33.0840  189.0830 O.3       1 AGS        -0.3864
     19 C2'        50.3890   35.1910  188.4300 C.3       1 AGS         0.1385
     20 O2'        49.7310   34.9260  189.6630 O.3       1 AGS        -0.3836
     21 C1'        51.1040   36.5470  188.4700 C.3       1 AGS         0.2010
     22 N9         50.6470   37.4990  187.4560 N.pl3     1 AGS        -0.1919
     23 C8         51.4280   38.1050  186.5080 C.2       1 AGS         0.1123
     24 N7         50.7690   38.9190  185.7180 N.2       1 AGS        -0.2958
     25 C5         49.4520   38.8410  186.1820 C.ar      1 AGS         0.1045
     26 C6         48.2740   39.4650  185.7660 C.ar      1 AGS         0.1298
     27 N6         48.2000   40.3230  184.7510 N.pl3     1 AGS        -0.3152
     28 N1         47.1420   39.1660  186.4450 N.ar      1 AGS        -0.2698
     29 C2         47.2080   38.3020  187.4610 C.ar      1 AGS         0.0533
     30 N3         48.2710   37.6550  187.9390 N.ar      1 AGS        -0.2714
     31 C4         49.3850   37.9650  187.2520 C.ar      1 AGS         0.1613
     32 H1         57.8393   32.1089  184.6685 H         1 AGS         0.2854
     33 H2         57.4032   32.5447  182.2139 H         1 AGS         0.2854
     34 H3         54.8067   35.0114  187.5388 H         1 AGS         0.0648
     35 H4         53.8717   33.5596  187.0440 H         1 AGS         0.0648
     36 H5         53.2459   34.6745  189.2867 H         1 AGS         0.0651
     37 H6         51.4019   33.7599  187.1294 H         1 AGS         0.0648
     38 H7         51.4874   33.4301  189.9662 H         1 AGS         0.2100
     39 H8         49.6464   35.1779  187.6186 H         1 AGS         0.0676
     40 H9         49.3364   34.0625  189.6308 H         1 AGS         0.2101
     41 H10        50.9441   36.9930  189.4627 H         1 AGS         0.0996
     42 H11        52.4986   37.9273  186.4182 H         1 AGS         0.1349
     43 H12        47.2953   40.7461  184.4993 H         1 AGS         0.1820
     44 H13        49.0474   40.5638  184.2173 H         1 AGS         0.1820
     45 H14        46.2702   38.0993  187.9654 H         1 AGS         0.0996
@<TRIPOS>BOND
     1    1    2 2  
     2    1    3 1  
     3    1    4 1  
     4    8    1 1  
     5    5    6 ar 
     6    5    7 ar 
     7    5    8 1  
     8   12    5 1  
     9    9   10 ar 
    10    9   11 ar 
    11    9   12 1  
    12    9   13 1  
    13   13   14 1  
    14   14   15 1  
    15   15   16 1  
    16   15   17 1  
    17   16   21 1  
    18   17   18 1  
    19   17   19 1  
    20   19   20 1  
    21   19   21 1  
    22   21   22 1  
    23   22   23 1  
    24   22   31 1  
    25   23   24 2  
    26   24   25 1  
    27   25   26 ar 
    28   25   31 ar 
    29   26   27 1  
    30   26   28 ar 
    31   28   29 ar 
    32   29   30 ar 
    33   30   31 ar 
    34    3   32 1  
    35    4   33 1  
    36   14   34 1  
    37   14   35 1  
    38   15   36 1  
    39   17   37 1  
    40   18   38 1  
    41   19   39 1  
    42   20   40 1  
    43   21   41 1  
    44   23   42 1  
    45   27   43 1  
    46   27   44 1  
    47   29   45 1  
@<TRIPOS>SUBSTRUCTURE
     1 AGS         1

