### 
### Created by X-TOOL on Mon Sep 10 21:13:16 2018
### 

@<TRIPOS>MOLECULE
4lnp_ligand
  150   156     1     0     0
SMALL
GAST_HUCK


@<TRIPOS>ATOM
      1 N           6.9520   -3.9550   -1.3440 N.4       1 VAL         0.2377
      2 CA          8.0480   -2.9470   -1.5310 C.3       1 VAL         0.0623
      3 C           8.6250   -2.3680   -0.2330 C.2       1 VAL         0.2289
      4 O           9.8520   -2.3100   -0.0980 O.2       1 VAL        -0.3905
      5 CB          7.6070   -1.7790   -2.4380 C.3       1 VAL        -0.0040
      6 N           7.7640   -1.9200    0.7150 N.am      1 PRO        -0.2471
      7 CA          8.3810   -1.4300    1.9460 C.3       1 PRO         0.1341
      8 C           8.8700   -2.5710    2.8170 C.2       1 PRO         0.2066
      9 O           8.4770   -3.7170    2.5980 O.2       1 PRO        -0.3942
     10 CB          7.2410   -0.6900    2.6430 C.3       1 PRO        -0.0104
     11 CG          6.0220   -1.4170    2.2000 C.3       1 PRO        -0.0281
     12 CD          6.2960   -1.7940    0.7670 C.3       1 PRO         0.0371
     13 N           9.7230   -2.2640    3.8050 N.am      1 PRO        -0.2498
     14 CA         10.2090   -3.3190    4.6870 C.3       1 PRO         0.1340
     15 C           9.0780   -3.9550    5.4820 C.2       1 PRO         0.2066
     16 O           8.0230   -3.3310    5.6560 O.2       1 PRO        -0.3942
     17 CB         11.1540   -2.5810    5.6420 C.3       1 PRO        -0.0104
     18 CG         11.5290   -1.3310    4.9290 C.3       1 PRO        -0.0281
     19 CD         10.3080   -0.9550    4.1450 C.3       1 PRO         0.0369
     20 N           9.2880   -5.1900    5.9700 N.am      1 PRO        -0.2498
     21 CA          8.3030   -5.7740    6.8720 C.3       1 PRO         0.1338
     22 C           7.9380   -4.8120    8.0130 C.2       1 PRO         0.2041
     23 O           8.7910   -4.2390    8.6700 O.2       1 PRO        -0.3944
     24 CB          9.0040   -7.0350    7.3930 C.3       1 PRO        -0.0104
     25 CG          9.9710   -7.3970    6.3210 C.3       1 PRO        -0.0281
     26 CD         10.4370   -6.0890    5.7510 C.3       1 PRO         0.0369
     27 N           6.6510   -4.6060    8.1960 N.am      1 ARG        -0.2637
     28 CA          6.1660   -3.6790    9.2090 C.3       1 ARG         0.1313
     29 C           6.3770   -4.2510   10.6080 C.2       1 ARG         0.2064
     30 O           5.9700   -5.3760   10.8770 O.2       1 ARG        -0.3942
     31 CB          4.6790   -3.4090    8.9770 C.3       1 ARG        -0.0092
     32 CG          4.1150   -2.2470    9.7520 C.3       1 ARG        -0.0156
     33 CD          2.6210   -2.1200    9.5130 C.3       1 ARG         0.0627
     34 NE          2.0600   -1.0800   10.3530 N.pl3     1 ARG        -0.2723
     35 CZ          1.7840    0.1670    9.9790 C.cat     1 ARG         0.2882
     36 NH1         1.9950    0.5960    8.7340 N.pl3     1 ARG        -0.2849
     37 NH2         1.2790    1.0050   10.8710 N.pl3     1 ARG        -0.2849
     38 N           7.0260   -3.4810   11.4960 N.am      1 PRO        -0.2498
     39 CA          7.1140   -3.9900   12.8680 C.3       1 PRO         0.1340
     40 C           5.7770   -3.8730   13.6130 C.2       1 PRO         0.2066
     41 O           4.9720   -2.9790   13.2970 O.2       1 PRO        -0.3942
     42 CB          8.1390   -3.0730   13.5250 C.3       1 PRO        -0.0104
     43 CG          8.0220   -1.7940   12.7820 C.3       1 PRO        -0.0281
     44 CD          7.6510   -2.1530   11.3660 C.3       1 PRO         0.0369
     45 N           5.5360   -4.7650   14.5910 N.am      1 PRO        -0.2498
     46 CA          4.3230   -4.6230   15.3950 C.3       1 PRO         0.1340
     47 C           4.4800   -3.4420   16.3430 C.2       1 PRO         0.2066
     48 O           5.6020   -3.0430   16.6320 O.2       1 PRO        -0.3942
     49 CB          4.2810   -5.9270   16.1850 C.3       1 PRO        -0.0104
     50 CG          5.7230   -6.2420   16.3980 C.3       1 PRO        -0.0281
     51 CD          6.4220   -5.8170   15.1350 C.3       1 PRO         0.0369
     52 N           3.3760   -2.8920   16.8470 N.am      1 PRO        -0.2498
     53 CA          3.4530   -1.7870   17.7990 C.3       1 PRO         0.1340
     54 C           4.2700   -2.1570   19.0420 C.2       1 PRO         0.2066
     55 O           4.3770   -3.3470   19.3770 O.2       1 PRO        -0.3942
     56 CB          1.9870   -1.5440   18.1740 C.3       1 PRO        -0.0104
     57 CG          1.2160   -2.0470   17.0110 C.3       1 PRO        -0.0281
     58 CD          1.9870   -3.2160   16.4770 C.3       1 PRO         0.0369
     59 N           4.8530   -1.1520   19.7240 N.am      1 PRO        -0.2498
     60 CA          5.5930   -1.4450   20.9580 C.3       1 PRO         0.1337
     61 C           4.7750   -2.2240   21.9940 C.2       1 PRO         0.2036
     62 O           3.5430   -2.0700   22.0680 O.2       1 PRO        -0.3944
     63 CB          5.9400   -0.0580   21.4960 C.3       1 PRO        -0.0104
     64 CG          5.9060    0.8430   20.3210 C.3       1 PRO        -0.0281
     65 CD          4.8650    0.2830   19.3960 C.3       1 PRO         0.0369
     66 N           5.4640   -3.0690   22.7620 N.am      1 GLU        -0.2669
     67 CA          4.8390   -3.8840   23.8040 C.3       1 GLU         0.1241
     68 C           4.2130   -3.0170   24.8920 C.2       1 GLU         0.2150
     69 O           3.1670   -3.3610   25.4410 O.co2     1 GLU        -0.4120
     70 CB          5.8660   -4.8340   24.4330 C.3       1 GLU        -0.0040
     71 CG          6.4790   -5.8250   23.4490 C.3       1 GLU         0.0039
     72 CD          5.4690   -6.8310   22.9360 C.2       1 GLU         0.0350
     73 OE1         4.8300   -7.5090   23.7670 O.co2     1 GLU        -0.5690
     74 OE2         5.3190   -6.9440   21.7040 O.co2     1 GLU        -0.5690
     75 H           6.6360   -4.2787   -2.2448 H         1 VAL         0.2015
     76 H           6.1830   -3.5279   -0.8518 H         1 VAL         0.2015
     77 H           7.3008   -4.7355   -0.8100 H         1 VAL         0.2015
     78 H           8.8686   -3.4728   -2.0410 H         1 VAL         0.1095
     79 H           8.4376   -1.0662   -2.5478 H         1 VAL         0.0310
     80 H           6.7437   -1.2691   -1.9855 H         1 VAL         0.0310
     81 H           7.3254   -2.1690   -3.4272 H         1 VAL         0.0310
     82 H           9.2178   -0.7519    1.7226 H         1 PRO         0.0802
     83 H           7.2059    0.3628    2.3263 H         1 PRO         0.0313
     84 H           7.3517   -0.7406    3.7362 H         1 PRO         0.0313
     85 H           5.1375   -0.7665    2.2668 H         1 PRO         0.0287
     86 H           5.8631   -2.3162    2.8133 H         1 PRO         0.0287
     87 H           5.8109   -2.7479    0.5125 H         1 PRO         0.0524
     88 H           5.9448   -1.0094    0.0807 H         1 PRO         0.0524
     89 H          10.7418   -4.0933    4.1155 H         1 PRO         0.0802
     90 H          12.0465   -3.1898    5.8489 H         1 PRO         0.0313
     91 H          10.6423   -2.3474    6.5873 H         1 PRO         0.0313
     92 H          12.3812   -1.5093    4.2567 H         1 PRO         0.0287
     93 H          11.7877   -0.5385    5.6466 H         1 PRO         0.0287
     94 H           9.6143   -0.3572    4.7544 H         1 PRO         0.0524
     95 H          10.5768   -0.3934    3.2381 H         1 PRO         0.0524
     96 H           7.3873   -6.0403    6.3238 H         1 PRO         0.0802
     97 H           8.2777   -7.8459    7.5508 H         1 PRO         0.0313
     98 H           9.5302   -6.8253    8.3359 H         1 PRO         0.0313
     99 H           9.4782   -8.0017    5.5454 H         1 PRO         0.0287
    100 H          10.8188   -7.9586    6.7402 H         1 PRO         0.0287
    101 H          11.3287   -5.7241    6.2817 H         1 PRO         0.0524
    102 H          10.6623   -6.1853    4.6786 H         1 PRO         0.0524
    103 H           5.9915   -5.0970    7.6268 H         1 ARG         0.1883
    104 H           6.7216   -2.7335    9.1239 H         1 ARG         0.0800
    105 H           4.1196   -4.3125    9.2612 H         1 ARG         0.0313
    106 H           4.5316   -3.2083    7.9056 H         1 ARG         0.0313
    107 H           4.6128   -1.3210    9.4285 H         1 ARG         0.0301
    108 H           4.2972   -2.4057   10.8251 H         1 ARG         0.0301
    109 H           2.1338   -3.0777    9.7484 H         1 ARG         0.0689
    110 H           2.4432   -1.8679    8.4571 H         1 ARG         0.0689
    111 H           1.8559   -1.3298   11.3312 H         1 ARG         0.2642
    112 H           1.7697    1.5682    8.4792 H         1 ARG         0.2615
    113 H           2.3832   -0.0449    8.0273 H         1 ARG         0.2615
    114 H           1.1102    0.6890   11.8367 H         1 ARG         0.2615
    115 H           1.0550    1.9729   10.5993 H         1 ARG         0.2615
    116 H           7.4510   -5.0371   12.8749 H         1 PRO         0.0802
    117 H           9.1526   -3.4888   13.4264 H         1 PRO         0.0313
    118 H           7.9045   -2.9271   14.5897 H         1 PRO         0.0313
    119 H           8.9813   -1.2560   12.7985 H         1 PRO         0.0287
    120 H           7.2403   -1.1638   13.2313 H         1 PRO         0.0287
    121 H           6.9404   -1.4238   10.9496 H         1 PRO         0.0524
    122 H           8.5446   -2.2007   10.7263 H         1 PRO         0.0524
    123 H           3.4278   -4.4971   14.7683 H         1 PRO         0.0802
    124 H           3.7845   -6.7216   15.6088 H         1 PRO         0.0313
    125 H           3.7611   -5.7904   17.1447 H         1 PRO         0.0313
    126 H           5.8593   -7.3202   16.5678 H         1 PRO         0.0287
    127 H           6.1148   -5.6826   17.2603 H         1 PRO         0.0287
    128 H           7.4220   -5.4148   15.3547 H         1 PRO         0.0524
    129 H           6.5115   -6.6586   14.4323 H         1 PRO         0.0524
    130 H           3.8926   -0.8961   17.3267 H         1 PRO         0.0802
    131 H           1.7986   -0.4716   18.3305 H         1 PRO         0.0313
    132 H           1.7219   -2.0997   19.0855 H         1 PRO         0.0313
    133 H           1.1286   -1.2642   16.2432 H         1 PRO         0.0287
    134 H           0.2113   -2.3644   17.3271 H         1 PRO         0.0287
    135 H           1.6604   -4.1542   16.9492 H         1 PRO         0.0524
    136 H           1.8770   -3.2971   15.3855 H         1 PRO         0.0524
    137 H           6.5052   -2.0143   20.7261 H         1 PRO         0.0802
    138 H           6.9424   -0.0612   21.9489 H         1 PRO         0.0313
    139 H           5.2001    0.2597   22.2454 H         1 PRO         0.0313
    140 H           6.8876    0.8604   19.8249 H         1 PRO         0.0287
    141 H           5.6331    1.8628   20.6299 H         1 PRO         0.0287
    142 H           3.8823    0.7387   19.5875 H         1 PRO         0.0524
    143 H           5.1453    0.4441   18.3446 H         1 PRO         0.0524
    144 H           6.4506   -3.1490   22.6195 H         1 GLU         0.1876
    145 H           4.0439   -4.4854   23.3390 H         1 GLU         0.0752
    146 O1          4.7717   -1.9398   25.2312 O.co2     1 GLU        -0.4120
    147 H           5.3672   -5.4031   25.2313 H         1 GLU         0.0324
    148 H           6.6770   -4.2295   24.8653 H         1 GLU         0.0324
    149 H           7.2919   -6.3672   23.9542 H         1 GLU         0.0432
    150 H           6.8869   -5.2666   22.5935 H         1 GLU         0.0432
@<TRIPOS>BOND
     1    1    2 1  
     2    2    3 1  
     3    2    5 1  
     4    3    4 2  
     5    3    6 am 
     6    6    7 1  
     7    6   12 1  
     8    7    8 1  
     9    7   10 1  
    10    8    9 2  
    11    8   13 am 
    12   10   11 1  
    13   11   12 1  
    14   13   14 1  
    15   13   19 1  
    16   14   15 1  
    17   14   17 1  
    18   15   16 2  
    19   15   20 am 
    20   17   18 1  
    21   18   19 1  
    22   20   21 1  
    23   20   26 1  
    24   21   22 1  
    25   21   24 1  
    26   22   23 2  
    27   22   27 am 
    28   24   25 1  
    29   25   26 1  
    30   27   28 1  
    31   28   29 1  
    32   28   31 1  
    33   29   30 2  
    34   29   38 am 
    35   31   32 1  
    36   32   33 1  
    37   33   34 1  
    38   34   35 ar 
    39   35   36 ar 
    40   35   37 ar 
    41   38   39 1  
    42   38   44 1  
    43   39   40 1  
    44   39   42 1  
    45   40   41 2  
    46   40   45 am 
    47   42   43 1  
    48   43   44 1  
    49   45   46 1  
    50   45   51 1  
    51   46   47 1  
    52   46   49 1  
    53   47   48 2  
    54   47   52 am 
    55   49   50 1  
    56   50   51 1  
    57   52   53 1  
    58   52   58 1  
    59   53   54 1  
    60   53   56 1  
    61   54   55 2  
    62   54   59 am 
    63   56   57 1  
    64   57   58 1  
    65   59   60 1  
    66   59   65 1  
    67   60   61 1  
    68   60   63 1  
    69   61   62 2  
    70   61   66 am 
    71   63   64 1  
    72   64   65 1  
    73   66   67 1  
    74   67   68 1  
    75   67   70 1  
    76   68   69 ar 
    77   70   71 1  
    78   71   72 1  
    79   72   73 ar 
    80   72   74 ar 
    81    1   75 1  
    82    1   76 1  
    83    1   77 1  
    84    2   78 1  
    85    5   79 1  
    86    5   80 1  
    87    5   81 1  
    88    7   82 1  
    89   10   83 1  
    90   10   84 1  
    91   11   85 1  
    92   11   86 1  
    93   12   87 1  
    94   12   88 1  
    95   14   89 1  
    96   17   90 1  
    97   17   91 1  
    98   18   92 1  
    99   18   93 1  
   100   19   94 1  
   101   19   95 1  
   102   21   96 1  
   103   24   97 1  
   104   24   98 1  
   105   25   99 1  
   106   25  100 1  
   107   26  101 1  
   108   26  102 1  
   109   27  103 1  
   110   28  104 1  
   111   31  105 1  
   112   31  106 1  
   113   32  107 1  
   114   32  108 1  
   115   33  109 1  
   116   33  110 1  
   117   34  111 1  
   118   36  112 1  
   119   36  113 1  
   120   37  114 1  
   121   37  115 1  
   122   39  116 1  
   123   42  117 1  
   124   42  118 1  
   125   43  119 1  
   126   43  120 1  
   127   44  121 1  
   128   44  122 1  
   129   46  123 1  
   130   49  124 1  
   131   49  125 1  
   132   50  126 1  
   133   50  127 1  
   134   51  128 1  
   135   51  129 1  
   136   53  130 1  
   137   56  131 1  
   138   56  132 1  
   139   57  133 1  
   140   57  134 1  
   141   58  135 1  
   142   58  136 1  
   143   60  137 1  
   144   63  138 1  
   145   63  139 1  
   146   64  140 1  
   147   64  141 1  
   148   65  142 1  
   149   65  143 1  
   150   66  144 1  
   151   67  145 1  
   152   68  146 ar 
   153   70  147 1  
   154   70  148 1  
   155   71  149 1  
   156   71  150 1  
@<TRIPOS>SUBSTRUCTURE
     1 VAL         1

