4lnp_ligand
  -I-interpret- 

151157  0  0  0  0  0  0  0  0999 V2000
    6.9520   -3.9550   -1.3440 N   0  3  0  0  0
    8.0480   -2.9470   -1.5310 C   0  0  0  0  0
    8.6250   -2.3680   -0.2330 C   0  0  0  0  0
    9.8520   -2.3100   -0.0980 O   0  0  0  0  0
    7.6070   -1.7790   -2.4380 C   0  0  0  0  0
    7.7640   -1.9200    0.7150 N   0  0  0  0  0
    8.3810   -1.4300    1.9460 C   0  0  0  0  0
    8.8700   -2.5710    2.8170 C   0  0  0  0  0
    8.4770   -3.7170    2.5980 O   0  0  0  0  0
    7.2410   -0.6900    2.6430 C   0  0  0  0  0
    6.0220   -1.4170    2.2000 C   0  0  0  0  0
    6.2960   -1.7940    0.7670 C   0  0  0  0  0
    9.7230   -2.2640    3.8050 N   0  0  0  0  0
   10.2090   -3.3190    4.6870 C   0  0  0  0  0
    9.0780   -3.9550    5.4820 C   0  0  0  0  0
    8.0230   -3.3310    5.6560 O   0  0  0  0  0
   11.1540   -2.5810    5.6420 C   0  0  0  0  0
   11.5290   -1.3310    4.9290 C   0  0  0  0  0
   10.3080   -0.9550    4.1450 C   0  0  0  0  0
    9.2880   -5.1900    5.9700 N   0  0  0  0  0
    8.3030   -5.7740    6.8720 C   0  0  0  0  0
    7.9380   -4.8120    8.0130 C   0  0  0  0  0
    8.7910   -4.2390    8.6700 O   0  0  0  0  0
    9.0040   -7.0350    7.3930 C   0  0  0  0  0
    9.9710   -7.3970    6.3210 C   0  0  0  0  0
   10.4370   -6.0890    5.7510 C   0  0  0  0  0
    6.6510   -4.6060    8.1960 N   0  0  0  0  0
    6.1660   -3.6790    9.2090 C   0  0  0  0  0
    6.3770   -4.2510   10.6080 C   0  0  0  0  0
    5.9700   -5.3760   10.8770 O   0  0  0  0  0
    4.6790   -3.4090    8.9770 C   0  0  0  0  0
    4.1150   -2.2470    9.7520 C   0  0  0  0  0
    2.6210   -2.1200    9.5130 C   0  0  0  0  0
    2.0600   -1.0800   10.3530 N   0  0  0  0  0
    1.7840    0.1670    9.9790 C   0  0  0  0  0
    1.9950    0.5960    8.7340 N   0  0  0  0  0
    1.2790    1.0050   10.8710 N   0  0  0  0  0
    7.0260   -3.4810   11.4960 N   0  0  0  0  0
    7.1140   -3.9900   12.8680 C   0  0  0  0  0
    5.7770   -3.8730   13.6130 C   0  0  0  0  0
    4.9720   -2.9790   13.2970 O   0  0  0  0  0
    8.1390   -3.0730   13.5250 C   0  0  0  0  0
    8.0220   -1.7940   12.7820 C   0  0  0  0  0
    7.6510   -2.1530   11.3660 C   0  0  0  0  0
    5.5360   -4.7650   14.5910 N   0  0  0  0  0
    4.3230   -4.6230   15.3950 C   0  0  0  0  0
    4.4800   -3.4420   16.3430 C   0  0  0  0  0
    5.6020   -3.0430   16.6320 O   0  0  0  0  0
    4.2810   -5.9270   16.1850 C   0  0  0  0  0
    5.7230   -6.2420   16.3980 C   0  0  0  0  0
    6.4220   -5.8170   15.1350 C   0  0  0  0  0
    3.3760   -2.8920   16.8470 N   0  0  0  0  0
    3.4530   -1.7870   17.7990 C   0  0  0  0  0
    4.2700   -2.1570   19.0420 C   0  0  0  0  0
    4.3770   -3.3470   19.3770 O   0  0  0  0  0
    1.9870   -1.5440   18.1740 C   0  0  0  0  0
    1.2160   -2.0470   17.0110 C   0  0  0  0  0
    1.9870   -3.2160   16.4770 C   0  0  0  0  0
    4.8530   -1.1520   19.7240 N   0  0  0  0  0
    5.5930   -1.4450   20.9580 C   0  0  0  0  0
    4.7750   -2.2240   21.9940 C   0  0  0  0  0
    3.5430   -2.0700   22.0680 O   0  0  0  0  0
    5.9400   -0.0580   21.4960 C   0  0  0  0  0
    5.9060    0.8430   20.3210 C   0  0  0  0  0
    4.8650    0.2830   19.3960 C   0  0  0  0  0
    5.4640   -3.0690   22.7620 N   0  0  0  0  0
    4.8390   -3.8840   23.8040 C   0  0  0  0  0
    4.2130   -3.0170   24.8920 C   0  0  0  0  0
    3.1670   -3.3610   25.4410 O   0  0  0  0  0
    5.8660   -4.8340   24.4330 C   0  0  0  0  0
    6.4790   -5.8250   23.4490 C   0  0  0  0  0
    5.4690   -6.8310   22.9360 C   0  0  0  0  0
    4.8300   -7.5090   23.7670 O   0  0  0  0  0
    5.3190   -6.9440   21.7040 O   0  0  0  0  0
    4.7717   -1.9398   25.2312 O   0  0  0  0  0
    7.2833   -4.7077   -0.7405 H   0  0  0  0  0
    6.1454   -3.5026   -0.9137 H   0  0  0  0  0
    6.6850   -4.3374   -2.2511 H   0  0  0  0  0
    8.8427   -3.5216   -2.0067 H   0  0  0  0  0
    6.8479   -1.1887   -1.9247 H   0  0  0  0  0
    8.4682   -1.1497   -2.6624 H   0  0  0  0  0
    7.1944   -2.1765   -3.3653 H   0  0  0  0  0
    9.2543   -0.8074    1.7515 H   0  0  0  0  0
    7.2115    0.3676    2.3807 H   0  0  0  0  0
    7.3507   -0.6865    3.7275 H   0  0  0  0  0
    5.1271   -0.8018    2.2931 H   0  0  0  0  0
    5.8251   -2.2925    2.8187 H   0  0  0  0  0
    5.7885   -2.7131    0.4739 H   0  0  0  0  0
    5.9163   -1.0545    0.0620 H   0  0  0  0  0
   10.6821   -4.1283    4.1309 H   0  0  0  0  0
   12.0292   -3.1827    5.8870 H   0  0  0  0  0
   10.6759   -2.3707    6.5987 H   0  0  0  0  0
   12.3958   -1.4765    4.2843 H   0  0  0  0  0
   11.8250   -0.5427    5.6212 H   0  0  0  0  0
    9.6241   -0.3169    4.7047 H   0  0  0  0  0
   10.5368   -0.3513    3.2667 H   0  0  0  0  0
    7.3544   -5.9909    6.3808 H   0  0  0  0  0
    8.2976   -7.8405    7.5937 H   0  0  0  0  0
    9.5003   -6.8604    8.3476 H   0  0  0  0  0
    9.5093   -8.0252    5.5592 H   0  0  0  0  0
   10.8024   -7.9837    6.7116 H   0  0  0  0  0
   11.3482   -5.7265    6.2269 H   0  0  0  0  0
   10.7132   -6.1659    4.6994 H   0  0  0  0  0
    5.9783   -5.1068    7.6154 H   0  0  0  0  0
    6.7257   -2.7469    9.1315 H   0  0  0  0  0
    4.1422   -4.2982    9.3076 H   0  0  0  0  0
    4.5639   -3.1682    7.9202 H   0  0  0  0  0
    4.6047   -1.3310    9.4214 H   0  0  0  0  0
    4.2897   -2.4133   10.8150 H   0  0  0  0  0
    2.1414   -3.0684    9.7551 H   0  0  0  0  0
    2.4498   -1.8623    8.4678 H   0  0  0  0  0
    1.8578   -1.3273   11.3217 H   0  0  0  0  0
    1.7679    1.5575    8.4805 H   0  0  0  0  0
    2.3835   -0.0374    8.0353 H   0  0  0  0  0
    1.1079    0.6909   11.8262 H   0  0  0  0  0
    7.3805   -5.0467   12.8881 H   0  0  0  0  0
    9.1472   -3.4843   13.4748 H   0  0  0  0  0
    7.9498   -2.9455   14.5909 H   0  0  0  0  0
    8.9598   -1.2392   12.8107 H   0  0  0  0  0
    7.2665   -1.1496   13.2316 H   0  0  0  0  0
    6.9827   -1.4210   10.9124 H   0  0  0  0  0
    8.5133   -2.1622   10.6993 H   0  0  0  0  0
    3.4221   -4.4474   14.8071 H   0  0  0  0  0
    3.7502   -6.7206   15.6592 H   0  0  0  0  0
    3.7279   -5.8351   17.1197 H   0  0  0  0  0
    5.8733   -7.3028   16.5985 H   0  0  0  0  0
    6.1203   -5.7193   17.2681 H   0  0  0  0  0
    7.4351   -5.4585   15.3172 H   0  0  0  0  0
    6.5681   -6.6429   14.4388 H   0  0  0  0  0
    3.9492   -0.9124   17.3783 H   0  0  0  0  0
    1.7858   -0.4912   18.3722 H   0  0  0  0  0
    1.7121   -2.0543   19.0971 H   0  0  0  0  0
    1.0970   -1.2734   16.2524 H   0  0  0  0  0
    0.2076   -2.3400   17.3033 H   0  0  0  0  0
    1.6508   -4.1678   16.8882 H   0  0  0  0  0
    1.8564   -3.3541   15.4037 H   0  0  0  0  0
    6.4546   -2.0821   20.7584 H   0  0  0  0  0
    6.9181   -0.0497   21.9771 H   0  0  0  0  0
    5.2346    0.2603   22.2635 H   0  0  0  0  0
    6.8800    0.8917   19.8341 H   0  0  0  0  0
    5.6630    1.8641   20.6149 H   0  0  0  0  0
    3.8900    0.7513   19.5307 H   0  0  0  0  0
    5.0929    0.4706   18.3467 H   0  0  0  0  0
    6.4703   -3.1506   22.6167 H   0  0  0  0  0
    4.0487   -4.4667   23.3307 H   0  0  0  0  0
    5.3453   -5.4147   25.1944 H   0  0  0  0  0
    6.6784   -4.2201   24.8218 H   0  0  0  0  0
    7.2657   -6.3724   23.9683 H   0  0  0  0  0
    6.8571   -5.2621   22.5956 H   0  0  0  0  0
    5.1000   -7.2626   24.6547 H   0  0  0  0  0
    5.5703   -1.8177   24.7126 H   0  0  0  0  0
  1  2  1  0  0  0
  2  3  1  0  0  0
  2  5  1  0  0  0
  3  4  2  0  0  0
  3  6  1  0  0  0
  6  7  1  0  0  0
  6 12  1  0  0  0
  7  8  1  0  0  0
  7 10  1  0  0  0
  8  9  2  0  0  0
  8 13  1  0  0  0
 10 11  1  0  0  0
 11 12  1  0  0  0
 13 14  1  0  0  0
 13 19  1  0  0  0
 14 15  1  0  0  0
 14 17  1  0  0  0
 15 16  2  0  0  0
 15 20  1  0  0  0
 17 18  1  0  0  0
 18 19  1  0  0  0
 20 21  1  0  0  0
 20 26  1  0  0  0
 21 22  1  0  0  0
 21 24  1  0  0  0
 22 23  2  0  0  0
 22 27  1  0  0  0
 24 25  1  0  0  0
 25 26  1  0  0  0
 27 28  1  0  0  0
 28 29  1  0  0  0
 28 31  1  0  0  0
 29 30  2  0  0  0
 29 38  1  0  0  0
 31 32  1  0  0  0
 32 33  1  0  0  0
 33 34  1  0  0  0
 34 35  1  0  0  0
 35 36  1  0  0  0
 35 37  2  0  0  0
 38 39  1  0  0  0
 38 44  1  0  0  0
 39 40  1  0  0  0
 39 42  1  0  0  0
 40 41  2  0  0  0
 40 45  1  0  0  0
 42 43  1  0  0  0
 43 44  1  0  0  0
 45 46  1  0  0  0
 45 51  1  0  0  0
 46 47  1  0  0  0
 46 49  1  0  0  0
 47 48  2  0  0  0
 47 52  1  0  0  0
 49 50  1  0  0  0
 50 51  1  0  0  0
 52 53  1  0  0  0
 52 58  1  0  0  0
 53 54  1  0  0  0
 53 56  1  0  0  0
 54 55  2  0  0  0
 54 59  1  0  0  0
 56 57  1  0  0  0
 57 58  1  0  0  0
 59 60  1  0  0  0
 59 65  1  0  0  0
 60 61  1  0  0  0
 60 63  1  0  0  0
 61 62  2  0  0  0
 61 66  1  0  0  0
 63 64  1  0  0  0
 64 65  1  0  0  0
 66 67  1  0  0  0
 67 68  1  0  0  0
 67 70  1  0  0  0
 68 69  2  0  0  0
 70 71  1  0  0  0
 71 72  1  0  0  0
 72 73  1  0  0  0
 72 74  2  0  0  0
 68 75  1  0  0  0
  1 76  1  0  0  0
  1 77  1  0  0  0
  1 78  1  0  0  0
  2 79  1  0  0  0
  5 80  1  0  0  0
  5 81  1  0  0  0
  5 82  1  0  0  0
  7 83  1  0  0  0
 10 84  1  0  0  0
 10 85  1  0  0  0
 11 86  1  0  0  0
 11 87  1  0  0  0
 12 88  1  0  0  0
 12 89  1  0  0  0
 14 90  1  0  0  0
 17 91  1  0  0  0
 17 92  1  0  0  0
 18 93  1  0  0  0
 18 94  1  0  0  0
 19 95  1  0  0  0
 19 96  1  0  0  0
 21 97  1  0  0  0
 24 98  1  0  0  0
 24 99  1  0  0  0
 25100  1  0  0  0
 25101  1  0  0  0
 26102  1  0  0  0
 26103  1  0  0  0
 27104  1  0  0  0
 28105  1  0  0  0
 31106  1  0  0  0
 31107  1  0  0  0
 32108  1  0  0  0
 32109  1  0  0  0
 33110  1  0  0  0
 33111  1  0  0  0
 34112  1  0  0  0
 36113  1  0  0  0
 36114  1  0  0  0
 37115  1  0  0  0
 39116  1  0  0  0
 42117  1  0  0  0
 42118  1  0  0  0
 43119  1  0  0  0
 43120  1  0  0  0
 44121  1  0  0  0
 44122  1  0  0  0
 46123  1  0  0  0
 49124  1  0  0  0
 49125  1  0  0  0
 50126  1  0  0  0
 50127  1  0  0  0
 51128  1  0  0  0
 51129  1  0  0  0
 53130  1  0  0  0
 56131  1  0  0  0
 56132  1  0  0  0
 57133  1  0  0  0
 57134  1  0  0  0
 58135  1  0  0  0
 58136  1  0  0  0
 60137  1  0  0  0
 63138  1  0  0  0
 63139  1  0  0  0
 64140  1  0  0  0
 64141  1  0  0  0
 65142  1  0  0  0
 65143  1  0  0  0
 66144  1  0  0  0
 67145  1  0  0  0
 70146  1  0  0  0
 70147  1  0  0  0
 71148  1  0  0  0
 71149  1  0  0  0
 73150  1  0  0  0
 75151  1  0  0  0
M  END
$$$$
