4eh8_ligand
  -I-interpret- 

 30 31  0  0  0  0  0  0  0  0999 V2000
   -0.3890   -4.9550  -12.9420 C   0  0  0  0  0
   -1.2310   -5.2170  -14.0100 C   0  0  0  0  0
   -1.5250   -4.2320  -14.9540 C   0  0  0  0  0
   -0.9690   -2.9670  -14.8490 C   0  0  0  0  0
   -0.1150   -2.6930  -13.7970 C   0  0  0  0  0
    0.1670   -3.6810  -12.8540 C   0  0  0  0  0
    1.0120   -3.3950  -11.8050 C   0  0  0  0  0
    1.2740   -1.9980  -11.7820 O   0  0  0  0  0
    2.6080   -1.8580  -11.6800 C   0  0  0  0  0
    3.3320   -2.9530  -11.2350 C   0  0  0  0  0
    3.2260   -0.6620  -12.0170 C   0  0  0  0  0
    4.5940   -0.5730  -11.8870 C   0  0  0  0  0
    5.3260   -1.6590  -11.4280 C   0  0  0  0  0
    4.6920   -2.8520  -11.1030 C   0  0  0  0  0
    5.3680   -3.9630  -10.6800 C   0  0  0  0  0
    4.9960   -5.0640  -11.5330 O   0  0  0  0  0
   -0.1691   -5.7191  -12.1964 H   0  0  0  0  0
   -1.6712   -6.2086  -14.1150 H   0  0  0  0  0
   -2.1977   -4.4596  -15.7809 H   0  0  0  0  0
   -1.2019   -2.1984  -15.5860 H   0  0  0  0  0
    0.3375   -1.7057  -13.7047 H   0  0  0  0  0
    1.9475   -3.9402  -11.9303 H   0  0  0  0  0
    0.5445   -3.6946  -10.8670 H   0  0  0  0  0
    2.8239   -3.8862  -10.9922 H   0  0  0  0  0
    2.6429    0.1861  -12.3758 H   0  0  0  0  0
    5.1043    0.3548  -12.1458 H   0  0  0  0  0
    6.4076   -1.5754  -11.3215 H   0  0  0  0  0
    5.1129   -4.1868   -9.6442 H   0  0  0  0  0
    6.4432   -3.7922  -10.7337 H   0  0  0  0  0
    5.4606   -5.8558  -11.2525 H   0  0  0  0  0
  1  2  4  0  0  0
  1  6  4  0  0  0
  2  3  4  0  0  0
  3  4  4  0  0  0
  4  5  4  0  0  0
  5  6  4  0  0  0
  6  7  1  0  0  0
  7  8  1  0  0  0
  8  9  1  0  0  0
  9 10  4  0  0  0
  9 11  4  0  0  0
 10 14  4  0  0  0
 11 12  4  0  0  0
 12 13  4  0  0  0
 13 14  4  0  0  0
 14 15  1  0  0  0
 15 16  1  0  0  0
  1 17  1  0  0  0
  2 18  1  0  0  0
  3 19  1  0  0  0
  4 20  1  0  0  0
  5 21  1  0  0  0
  7 22  1  0  0  0
  7 23  1  0  0  0
 10 24  1  0  0  0
 11 25  1  0  0  0
 12 26  1  0  0  0
 13 27  1  0  0  0
 15 28  1  0  0  0
 15 29  1  0  0  0
 16 30  1  0  0  0
M  END
$$$$
