2gz2_ligand
  -I-interpret- 

 42 44  0  0  0  0  0  0  0  0999 V2000
    1.4420    8.9460   53.3390 P   0  0  0  0  0
    0.9540    8.6710   51.8130 O   0  0  0  0  0
    3.0620    9.1320   53.2210 O   0  0  0  0  0
    1.0560    7.8390   54.2520 O   0  0  0  0  0
    3.8250   14.8310   50.2440 P   0  0  0  0  0
    3.8970   14.3170   48.7180 O   0  0  0  0  0
    4.2110   13.5180   51.1230 O   0  0  0  0  0
    4.7690   15.9330   50.4890 O   0  0  0  0  0
    2.2490   15.1100   50.6700 O   0  0  0  0  0
    1.3550   14.0000   50.9440 C   0  0  0  0  0
    1.0560   13.7820   52.4660 C   0  0  0  0  0
   -0.3910   13.5720   52.6600 O   0  0  0  0  0
    1.7100   12.5380   53.1060 C   0  0  0  0  0
    1.8720   12.7410   54.5170 O   0  0  0  0  0
    0.6480   11.4650   52.8860 C   0  0  0  0  0
    0.8170   10.3770   53.8070 O   0  0  0  0  0
   -0.5980   12.2540   53.2590 C   0  0  0  0  0
   -1.8240   11.6310   52.7050 N   0  0  0  0  0
   -2.0910   11.4230   51.4090 C   0  0  0  0  0
   -3.2900   10.8440   51.2890 N   0  0  0  0  0
   -3.7910   10.6800   52.5150 C   0  0  0  0  0
   -4.9750   10.1440   53.0160 C   0  0  0  0  0
   -5.8950    9.6630   52.1970 N   0  0  0  0  0
   -5.1840   10.1240   54.3430 N   0  0  0  0  0
   -4.2700   10.6120   55.1760 C   0  0  0  0  0
   -3.1240   11.1260   54.7360 N   0  0  0  0  0
   -2.8560   11.1770   53.4170 C   0  0  0  0  0
    1.2210    9.4056   51.2556 H   0  0  0  0  0
    3.2570    9.8565   52.6221 H   0  0  0  0  0
    3.2706   13.6003   48.5930 H   0  0  0  0  0
    3.5799   12.8172   50.9434 H   0  0  0  0  0
    1.8411   13.0958   50.5777 H   0  0  0  0  0
    0.4055   14.2223   50.4570 H   0  0  0  0  0
    1.4618   14.6772   52.9372 H   0  0  0  0  0
    2.6901   12.3007   52.6924 H   0  0  0  0  0
    2.2789   11.9635   54.9064 H   0  0  0  0  0
    0.6530   11.0176   51.8920 H   0  0  0  0  0
   -0.7384   12.2935   54.3392 H   0  0  0  0  0
   -1.4328   11.6852   50.5807 H   0  0  0  0  0
   -5.7408    9.6825   51.1889 H   0  0  0  0  0
   -6.7589    9.2725   52.5733 H   0  0  0  0  0
   -4.4645   10.5905   56.2483 H   0  0  0  0  0
  1  2  1  0  0  0
  1  3  1  0  0  0
  1  4  2  0  0  0
 16  1  1  0  0  0
  5  6  1  0  0  0
  5  7  1  0  0  0
  5  8  2  0  0  0
  9  5  1  0  0  0
 10  9  1  0  0  0
 11 10  1  0  0  0
 11 12  1  0  0  0
 13 11  1  0  0  0
 12 17  1  0  0  0
 13 14  1  0  0  0
 15 13  1  0  0  0
 15 16  1  0  0  0
 15 17  1  0  0  0
 17 18  1  0  0  0
 18 19  4  0  0  0
 18 27  4  0  0  0
 19 20  4  0  0  0
 20 21  4  0  0  0
 21 22  4  0  0  0
 21 27  4  0  0  0
 22 23  1  0  0  0
 22 24  4  0  0  0
 24 25  4  0  0  0
 25 26  4  0  0  0
 26 27  4  0  0  0
  2 28  1  0  0  0
  3 29  1  0  0  0
  6 30  1  0  0  0
  7 31  1  0  0  0
 10 32  1  0  0  0
 10 33  1  0  0  0
 11 34  1  0  0  0
 13 35  1  0  0  0
 14 36  1  0  0  0
 15 37  1  0  0  0
 17 38  1  0  0  0
 19 39  1  0  0  0
 23 40  1  0  0  0
 23 41  1  0  0  0
 25 42  1  0  0  0
M  END
$$$$
