4cpz_ligand
  -I-interpret- 

 45 45  0  0  0  0  0  0  0  0999 V2000
   -6.6150   45.8180   56.0190 C   0  0  0  0  0
   -7.6420   46.5040   55.7560 O   0  0  0  0  0
   -6.7440   44.8560   56.8140 O   0  0  0  0  0
   -5.3930   46.1420   55.4720 C   0  0  0  0  0
   -4.3940   44.9560   55.2580 C   0  0  0  0  0
   -3.2960   45.2470   54.3120 C   0  0  0  0  0
   -3.3060   46.5520   53.7720 C   0  0  0  0  0
   -2.2900   46.5860   52.6030 N   0  0  0  0  0
   -1.0240   47.2410   52.6760 C   0  0  0  0  0
   -0.6490   47.8500   53.6710 O   0  0  0  0  0
   -0.1850   47.1400   51.4490 C   0  0  0  0  0
   -4.5900   46.9310   53.2260 C   0  0  0  0  0
   -5.6890   46.6870   54.1130 O   0  0  0  0  0
   -4.6910   48.3770   52.7250 C   0  0  0  0  0
   -4.4220   49.2760   53.7180 O   0  0  0  0  0
   -6.0980   48.6270   52.2050 C   0  0  0  0  0
   -6.4310   47.6220   51.3180 O   0  0  0  0  0
   -6.2260   49.9710   51.5150 C   0  0  0  0  0
   -5.3700   50.1660   50.4280 O   0  0  0  0  0
   -1.9240   44.9770   54.9940 N   0  0  0  0  0
   -0.8440   44.2550   54.3560 C   0  0  0  0  0
   -1.0140   43.5270   53.2540 N   0  0  0  0  0
    0.3180   44.2940   54.9290 N   0  0  0  0  0
   -7.4095   47.2031   55.1406 H   0  0  0  0  0
   -4.9095   46.8211   56.1742 H   0  0  0  0  0
   -4.9656   44.1273   54.8401 H   0  0  0  0  0
   -3.9364   44.7443   56.2244 H   0  0  0  0  0
   -3.4561   44.5758   53.4682 H   0  0  0  0  0
   -3.0633   47.2418   54.5803 H   0  0  0  0  0
   -2.5394   46.1145   51.7336 H   0  0  0  0  0
    0.0134   48.1398   51.0628 H   0  0  0  0  0
    0.7574   46.6502   51.6941 H   0  0  0  0  0
   -0.7141   46.5564   50.6956 H   0  0  0  0  0
   -4.6616   46.2718   52.3609 H   0  0  0  0  0
   -3.9539   48.5110   51.9333 H   0  0  0  0  0
   -4.4944   50.1675   53.3693 H   0  0  0  0  0
   -6.7758   48.6333   53.0586 H   0  0  0  0  0
   -7.3186   47.7722   50.9845 H   0  0  0  0  0
   -5.9689   50.7285   52.2554 H   0  0  0  0  0
   -7.2428   50.0276   51.1265 H   0  0  0  0  0
   -5.5204   51.0382   50.0562 H   0  0  0  0  0
   -1.7779   45.3273   55.9408 H   0  0  0  0  0
   -0.2312   43.0024   52.8635 H   0  0  0  0  0
   -1.9270   43.4939   52.8004 H   0  0  0  0  0
    0.4425   44.8191   55.7946 H   0  0  0  0  0
  1  2  1  0  0  0
  1  3  2  0  0  0
  1  4  1  0  0  0
  4  5  1  0  0  0
  4 13  1  0  0  0
  5  6  1  0  0  0
  6  7  1  0  0  0
  6 20  1  0  0  0
  7  8  1  0  0  0
  7 12  1  0  0  0
  8  9  1  0  0  0
  9 10  2  0  0  0
  9 11  1  0  0  0
 12 13  1  0  0  0
 12 14  1  0  0  0
 14 15  1  0  0  0
 14 16  1  0  0  0
 16 17  1  0  0  0
 16 18  1  0  0  0
 18 19  1  0  0  0
 20 21  1  0  0  0
 21 22  1  0  0  0
 21 23  2  0  0  0
  2 24  1  0  0  0
  4 25  1  0  0  0
  5 26  1  0  0  0
  5 27  1  0  0  0
  6 28  1  0  0  0
  7 29  1  0  0  0
  8 30  1  0  0  0
 11 31  1  0  0  0
 11 32  1  0  0  0
 11 33  1  0  0  0
 12 34  1  0  0  0
 14 35  1  0  0  0
 15 36  1  0  0  0
 16 37  1  0  0  0
 17 38  1  0  0  0
 18 39  1  0  0  0
 18 40  1  0  0  0
 19 41  1  0  0  0
 20 42  1  0  0  0
 22 43  1  0  0  0
 22 44  1  0  0  0
 23 45  1  0  0  0
M  END
$$$$
