5y97_ligand
  -I-interpret- 

 44 45  0  0  0  0  0  0  0  0999 V2000
   34.3440   65.2810    1.3140 C   0  0  0  0  0
   34.6110   63.8000    1.0230 C   0  0  0  0  0
   33.6700   63.2870   -0.0560 C   0  0  0  0  0
   32.1980   63.6550    0.3290 C   0  0  0  0  0
   32.0820   65.1420    0.6590 C   0  0  0  0  0
   30.7030   65.6310    0.7270 C   0  0  0  0  0
   35.2140   65.7000    2.3700 O   0  0  0  0  0
   35.9440   63.6230    0.5670 O   0  0  0  0  0
   33.7570   61.8860   -0.1850 O   0  0  0  0  0
   31.7990   62.8690    1.4660 O   0  0  0  0  0
   32.9890   65.4620    1.7130 O   0  0  0  0  0
   30.5730   66.8770    1.4060 O   0  0  0  0  0
   36.2990   69.4170    3.8480 C   0  0  0  0  0
   34.8770   68.9650    4.1810 C   0  0  0  0  0
   34.7250   67.4700    3.9290 C   0  0  0  0  0
   35.2100   67.1160    2.5280 C   0  0  0  0  0
   36.5980   67.6700    2.2750 C   0  0  0  0  0
   37.0610   67.3650    0.8610 C   0  0  0  0  0
   36.4040   70.8300    4.0270 O   0  0  0  0  0
   34.6010   69.2470    5.5580 O   0  0  0  0  0
   33.3490   67.1060    4.0720 O   0  0  0  0  0
   36.6050   69.0780    2.4970 O   0  0  0  0  0
   34.5273   65.8726    0.4171 H   0  0  0  0  0
   34.4506   63.2455    1.9476 H   0  0  0  0  0
   33.9545   63.7484   -1.0017 H   0  0  0  0  0
   31.5448   63.4414   -0.5170 H   0  0  0  0  0
   32.4201   65.7529   -0.1780 H   0  0  0  0  0
   30.1217   64.8942    1.2814 H   0  0  0  0  0
   30.3575   65.7786   -0.2962 H   0  0  0  0  0
   36.5547   63.9416    1.2357 H   0  0  0  0  0
   34.6551   61.6427   -0.4213 H   0  0  0  0  0
   31.8745   61.9364    1.2513 H   0  0  0  0  0
   29.6498   67.1402    1.4155 H   0  0  0  0  0
   37.0041   68.9162    4.5115 H   0  0  0  0  0
   34.1747   69.5031    3.5443 H   0  0  0  0  0
   35.3277   66.9221    4.6534 H   0  0  0  0  0
   34.5309   67.5640    1.8026 H   0  0  0  0  0
   37.2885   67.1897    2.9682 H   0  0  0  0  0
   37.0842   66.2854    0.7126 H   0  0  0  0  0
   36.3704   67.8163    0.1486 H   0  0  0  0  0
   38.0596   67.7752    0.7106 H   0  0  0  0  0
   37.2973   71.1124    3.8176 H   0  0  0  0  0
   33.7083   68.9637    5.7688 H   0  0  0  0  0
   33.2502   66.1643    3.9137 H   0  0  0  0  0
  1  2  1  0  0  0
  7  1  1  0  0  0
  1 11  1  0  0  0
  2  3  1  0  0  0
  2  8  1  0  0  0
  3  4  1  0  0  0
  3  9  1  0  0  0
  5  4  1  0  0  0
  4 10  1  0  0  0
  5  6  1  0  0  0
 11  5  1  0  0  0
  6 12  1  0  0  0
 16  7  1  0  0  0
 14 13  1  0  0  0
 13 19  1  0  0  0
 13 22  1  0  0  0
 15 14  1  0  0  0
 14 20  1  0  0  0
 15 16  1  0  0  0
 15 21  1  0  0  0
 16 17  1  0  0  0
 17 18  1  0  0  0
 17 22  1  0  0  0
  1 23  1  0  0  0
  2 24  1  0  0  0
  3 25  1  0  0  0
  4 26  1  0  0  0
  5 27  1  0  0  0
  6 28  1  0  0  0
  6 29  1  0  0  0
  8 30  1  0  0  0
  9 31  1  0  0  0
 10 32  1  0  0  0
 12 33  1  0  0  0
 13 34  1  0  0  0
 14 35  1  0  0  0
 15 36  1  0  0  0
 16 37  1  0  0  0
 17 38  1  0  0  0
 18 39  1  0  0  0
 18 40  1  0  0  0
 18 41  1  0  0  0
 19 42  1  0  0  0
 20 43  1  0  0  0
 21 44  1  0  0  0
M  END
$$$$
