1k6v_ligand
  -I-interpret- 

101106  0  0  0  0  0  0  0  0999 V2000
    3.1180   -5.2840   16.2850 N   0  3  0  0  0
    4.5860   -5.1680   15.7160 C   0  0  0  0  0
    5.3840   -4.0130   16.3090 C   0  0  0  0  0
    6.7110   -4.0500   15.6500 C   0  0  0  0  0
    6.7840   -3.6980   14.4150 O   0  0  0  0  0
    7.7990   -4.4460   16.4110 N   0  0  0  0  0
    9.2450   -4.5680   16.0530 C   0  0  0  0  0
   10.0490   -5.0680   17.2840 C   0  0  0  0  0
    9.8370   -3.3260   15.7490 C   0  0  0  0  0
    9.5300   -5.5060   14.9120 C   0  0  0  0  0
    4.4720   -2.7710   16.0070 N   0  3  0  0  0
    3.0220   -2.7640   16.4400 C   0  0  0  0  0
    2.4060   -4.0570   15.8710 C   0  0  0  0  0
    5.0920   -1.5070   16.5610 C   0  0  0  0  0
    5.0370   -0.4330   15.5530 C   0  0  0  0  0
    5.1910    0.5900   16.5100 O   0  0  0  0  0
    6.1970   -0.2170   14.6540 C   0  0  0  0  0
    6.1500    0.8690   13.5930 C   0  0  0  0  0
    7.5870    0.8640   12.7980 C   0  0  0  0  0
    7.5480    1.9760   11.6720 C   0  0  0  0  0
    7.3350    3.4760   11.9910 C   0  0  0  0  0
    7.2970    4.4600   10.8930 C   0  0  0  0  0
    7.4670    3.9730    9.4580 C   0  0  0  0  0
    7.6730    2.5090    9.1600 C   0  0  0  0  0
    7.7110    1.5320   10.2530 C   0  0  0  0  0
    4.9970    0.6110   12.5050 C   0  0  0  0  0
    4.6510   -0.5420   12.0120 O   0  0  0  0  0
    4.4610    1.7520   12.1510 N   0  0  0  0  0
    3.4190    1.8900   11.1550 C   0  0  0  0  0
    3.4300    3.2720   10.5340 C   0  0  0  0  0
    3.7100    4.2880   11.4950 O   0  0  0  0  0
    2.1000    3.3840    9.8350 C   0  0  0  0  0
    1.0540    2.7220   10.6700 C   0  0  0  0  0
   -0.3600    2.7710   10.8350 C   0  0  0  0  0
   -0.9730    1.8760   11.8430 C   0  0  0  0  0
   -0.1500    0.9330   12.6790 C   0  0  0  0  0
    1.2870    0.8820   12.5130 C   0  0  0  0  0
    1.9540    1.7150   11.5640 C   0  0  0  0  0
    2.4080   -6.4070   15.6970 C   0  0  0  0  0
    2.9580   -7.7770   16.0440 C   0  0  0  0  0
    2.7520   -8.2970   17.4260 C   0  0  0  0  0
    3.9750  -10.4000   16.8410 C   0  0  0  0  0
    4.2190   -9.9650   15.4650 C   0  0  0  0  0
    3.7020   -8.6230   15.0450 C   0  0  0  0  0
    4.5420  -11.6570   16.9900 O   0  0  0  0  0
    5.2090  -12.2010   15.7870 C   0  0  0  0  0
    4.9220  -11.0170   14.9000 O   0  0  0  0  0
    3.2400   -9.6210   17.9060 C   0  0  0  0  0
    8.8100    0.8990   13.2310 C   0  0  0  0  0
    3.1573   -5.4106   17.2964 H   0  0  0  0  0
    4.5066   -4.9921   14.6432 H   0  0  0  0  0
    5.1083   -6.0899   15.9718 H   0  0  0  0  0
    5.6016   -4.0215   17.3770 H   0  0  0  0  0
    7.5764   -4.6955   17.3747 H   0  0  0  0  0
    9.7332   -6.0804   17.5358 H   0  0  0  0  0
   11.1128   -5.0663   17.0466 H   0  0  0  0  0
    9.8632   -4.4070   18.1306 H   0  0  0  0  0
   10.9121   -3.4576   15.6268 H   0  0  0  0  0
    9.4098   -2.9379   14.8244 H   0  0  0  0  0
    9.6455   -2.6251   16.5615 H   0  0  0  0  0
    9.1057   -5.0991   13.9941 H   0  0  0  0  0
   10.6080   -5.6188   14.7966 H   0  0  0  0  0
    9.0821   -6.4774   15.1214 H   0  0  0  0  0
    4.4329   -2.8301   14.9895 H   0  0  0  0  0
    2.5021   -1.8809   16.0686 H   0  0  0  0  0
    2.9332   -2.7275   17.5258 H   0  0  0  0  0
    1.3864   -4.1274   16.2499 H   0  0  0  0  0
    2.4648   -3.9961   14.7843 H   0  0  0  0  0
    6.1327   -1.7023   16.8197 H   0  0  0  0  0
    4.5387   -1.1953   17.4469 H   0  0  0  0  0
    4.1981   -0.5621   14.8692 H   0  0  0  0  0
    5.1860    1.4427   16.0689 H   0  0  0  0  0
    6.2775   -1.1451   14.0881 H   0  0  0  0  0
    7.0026    0.0905   15.3207 H   0  0  0  0  0
    5.9472    1.8165   14.0923 H   0  0  0  0  0
    7.5243   -0.2129   12.6415 H   0  0  0  0  0
    7.2135    3.8037   13.0235 H   0  0  0  0  0
    7.1496    5.5192   11.1041 H   0  0  0  0  0
    7.4393    4.6911    8.6384 H   0  0  0  0  0
    7.7940    2.1761    8.1292 H   0  0  0  0  0
    7.8590    0.4754   10.0299 H   0  0  0  0  0
    4.7997    2.5993   12.6068 H   0  0  0  0  0
    3.6920    1.0563   10.5081 H   0  0  0  0  0
    4.2356    3.4177    9.8143 H   0  0  0  0  0
    3.7078    5.1451   11.0627 H   0  0  0  0  0
    2.1548    2.8976    8.8611 H   0  0  0  0  0
    1.8466    4.4347    9.6937 H   0  0  0  0  0
   -0.9721    3.4466   10.2376 H   0  0  0  0  0
   -2.0536    1.9009   11.9839 H   0  0  0  0  0
   -0.6367    0.2877   13.4103 H   0  0  0  0  0
    1.8714    0.1944   13.1243 H   0  0  0  0  0
    2.4970   -6.3003   14.6159 H   0  0  0  0  0
    1.3910   -6.3715   16.0876 H   0  0  0  0  0
    2.2091   -7.6679   18.1314 H   0  0  0  0  0
    3.8625   -8.2634   14.0286 H   0  0  0  0  0
    6.2550  -12.4874   15.8960 H   0  0  0  0  0
    4.8621  -13.1718   15.4331 H   0  0  0  0  0
    3.0828   -9.9888   18.9200 H   0  0  0  0  0
    8.9650    1.8128   13.8046 H   0  0  0  0  0
    8.9936    0.0334   13.8675 H   0  0  0  0  0
    9.4949    0.8800   12.3833 H   0  0  0  0  0
  1 39  1  0  0  0
  1 13  1  0  0  0
  1  2  1  0  0  0
  2  3  1  0  0  0
  3 11  1  0  0  0
  3  4  1  0  0  0
  4  6  1  0  0  0
  4  5  2  0  0  0
  6  7  1  0  0  0
  7 10  1  0  0  0
  7  9  1  0  0  0
  7  8  1  0  0  0
 11 14  1  0  0  0
 11 12  1  0  0  0
 12 13  1  0  0  0
 14 15  1  0  0  0
 15 17  1  0  0  0
 15 16  1  0  0  0
 17 18  1  0  0  0
 18 26  1  0  0  0
 18 19  1  0  0  0
 19 49  1  0  0  0
 19 20  1  0  0  0
 20 25  4  0  0  0
 20 21  4  0  0  0
 21 22  4  0  0  0
 22 23  4  0  0  0
 23 24  4  0  0  0
 24 25  4  0  0  0
 26 28  1  0  0  0
 26 27  2  0  0  0
 28 29  1  0  0  0
 29 38  1  0  0  0
 29 30  1  0  0  0
 30 32  1  0  0  0
 30 31  1  0  0  0
 32 33  1  0  0  0
 33 38  4  0  0  0
 33 34  4  0  0  0
 34 35  4  0  0  0
 35 36  4  0  0  0
 36 37  4  0  0  0
 37 38  4  0  0  0
 39 40  1  0  0  0
 40 44  4  0  0  0
 40 41  4  0  0  0
 41 48  4  0  0  0
 48 42  4  0  0  0
 42 45  1  0  0  0
 42 43  4  0  0  0
 43 47  1  0  0  0
 43 44  4  0  0  0
 47 46  1  0  0  0
 46 45  1  0  0  0
  1 50  1  0  0  0
  2 51  1  0  0  0
  2 52  1  0  0  0
  3 53  1  0  0  0
  6 54  1  0  0  0
  8 55  1  0  0  0
  8 56  1  0  0  0
  8 57  1  0  0  0
  9 58  1  0  0  0
  9 59  1  0  0  0
  9 60  1  0  0  0
 10 61  1  0  0  0
 10 62  1  0  0  0
 10 63  1  0  0  0
 11 64  1  0  0  0
 12 65  1  0  0  0
 12 66  1  0  0  0
 13 67  1  0  0  0
 13 68  1  0  0  0
 14 69  1  0  0  0
 14 70  1  0  0  0
 15 71  1  0  0  0
 16 72  1  0  0  0
 17 73  1  0  0  0
 17 74  1  0  0  0
 18 75  1  0  0  0
 19 76  1  0  0  0
 21 77  1  0  0  0
 22 78  1  0  0  0
 23 79  1  0  0  0
 24 80  1  0  0  0
 25 81  1  0  0  0
 28 82  1  0  0  0
 29 83  1  0  0  0
 30 84  1  0  0  0
 31 85  1  0  0  0
 32 86  1  0  0  0
 32 87  1  0  0  0
 34 88  1  0  0  0
 35 89  1  0  0  0
 36 90  1  0  0  0
 37 91  1  0  0  0
 39 92  1  0  0  0
 39 93  1  0  0  0
 41 94  1  0  0  0
 44 95  1  0  0  0
 46 96  1  0  0  0
 46 97  1  0  0  0
 48 98  1  0  0  0
 49 99  1  0  0  0
 49100  1  0  0  0
 49101  1  0  0  0
M  END
$$$$
