3fqa_ligand
  -I-interpret- 

 17 17  0  0  0  0  0  0  0  0999 V2000
    9.9040   25.4340  -30.7060 C   0  0  0  0  0
   10.7560   25.4560  -29.8170 O   0  0  0  0  0
    9.3240   26.6300  -30.6540 O   0  0  0  0  0
    9.5350   24.3720  -31.6530 C   0  0  0  0  0
   10.2610   23.0100  -31.6460 C   0  0  0  0  0
    9.7860   22.0260  -32.6700 C   0  0  0  0  0
    8.7130   22.3450  -33.5860 C   0  0  0  0  0
    8.1030   23.5780  -33.5300 C   0  0  0  0  0
    8.5190   24.6010  -32.5600 C   0  0  0  0  0
   10.3720   20.8460  -32.7270 N   0  0  0  0  0
    8.6418   26.6831  -31.3274 H   0  0  0  0  0
   11.0633   22.7804  -30.9448 H   0  0  0  0  0
    8.3872   21.6089  -34.3209 H   0  0  0  0  0
    7.2912   23.8011  -34.2223 H   0  0  0  0  0
    8.0122   25.5660  -32.5564 H   0  0  0  0  0
   11.1301   20.6214  -32.0826 H   0  0  0  0  0
   10.0671   20.1579  -33.4154 H   0  0  0  0  0
  1  2  2  0  0  0
  1  3  1  0  0  0
  1  4  1  0  0  0
  4  5  4  0  0  0
  4  9  4  0  0  0
  5  6  4  0  0  0
  6  7  4  0  0  0
  6 10  1  0  0  0
  7  8  4  0  0  0
  8  9  4  0  0  0
  3 11  1  0  0  0
  5 12  1  0  0  0
  7 13  1  0  0  0
  8 14  1  0  0  0
  9 15  1  0  0  0
 10 16  1  0  0  0
 10 17  1  0  0  0
M  END
$$$$
