6nxz_ligand
  -I-interpret- 

 20 19  0  0  0  0  0  0  0  0999 V2000
   -2.1580    0.2560    3.4470 O   0  0  0  0  0
   -0.8180   -0.2850    3.3490 C   0  0  0  0  0
    0.2390    0.8120    3.3830 C   0  0  0  0  0
    3.6840   -0.7830    2.8810 O   0  0  0  0  0
    4.4060   -1.9250    2.6080 C   0  0  0  0  0
    0.1930    1.6930    2.2330 O   0  0  0  0  0
    1.6840    0.3400    3.5930 C   0  0  0  0  0
    2.2430   -0.8440    2.8340 C   0  0  0  0  0
   -2.7945   -0.4623    3.4223 H   0  0  0  0  0
   -0.7311   -0.8152    2.4006 H   0  0  0  0  0
   -0.6526   -0.9466    4.1993 H   0  0  0  0  0
   -0.0460    1.3652    4.2779 H   0  0  0  0  0
    4.1390   -2.7020    3.3242 H   0  0  0  0  0
    4.1768   -2.2655    1.5982 H   0  0  0  0  0
    5.4712   -1.7073    2.6864 H   0  0  0  0  0
   -0.7090    1.9919    2.0962 H   0  0  0  0  0
    1.7052    0.0173    4.6339 H   0  0  0  0  0
    2.2865    1.1802    3.2479 H   0  0  0  0  0
    1.8961   -1.7725    3.2874 H   0  0  0  0  0
    1.9041   -0.8143    1.7985 H   0  0  0  0  0
  2  1  1  0  0  0
  3  2  1  0  0  0
  3  6  1  0  0  0
  7  3  1  0  0  0
  4  5  1  0  0  0
  8  4  1  0  0  0
  7  8  1  0  0  0
  1  9  1  0  0  0
  2 10  1  0  0  0
  2 11  1  0  0  0
  3 12  1  0  0  0
  5 13  1  0  0  0
  5 14  1  0  0  0
  5 15  1  0  0  0
  6 16  1  0  0  0
  7 17  1  0  0  0
  7 18  1  0  0  0
  8 19  1  0  0  0
  8 20  1  0  0  0
M  END
$$$$
