### 
### Created by X-TOOL on Mon Sep 10 21:13:11 2018
### 

@<TRIPOS>MOLECULE
4b3u_ligand
   36    37     1     0     0
SMALL
GAST_HUCK


@<TRIPOS>ATOM
      1 CAA        38.7000    8.1710   12.0700 C.ar      1 NWL        -0.0685
      2 CAB        39.0110    7.1390   11.1840 C.ar      1 NWL        -0.0578
      3 CAC        38.6750    5.8220   11.4980 C.ar      1 NWL        -0.0133
      4 CAD        39.0530    4.7350   10.5070 C.3       1 NWL         0.1022
      5 OAE        39.5510    2.5570   12.1210 O.2       1 NWL        -0.3761
      6 CAF        38.5540    2.4690   11.4010 C.2       1 NWL         0.3374
      7 NAG        38.1980    3.5260   10.5520 N.am      1 NWL        -0.1476
      8 CAH        37.0480    3.4030    9.7370 C.2       1 NWL         0.1893
      9 NAI        36.7000    4.3970    8.9100 N.2       1 NWL        -0.3892
     10 NAJ        37.7630    1.3170   11.4300 N.am      1 NWL        -0.1695
     11 CAK        36.6300    1.1890   10.6300 C.2       1 NWL         0.2769
     12 CAL        36.2740    2.2360    9.7830 C.3       1 NWL         0.1556
     13 NAM        35.2070    2.1380    8.9860 N.4       1 NWL         0.2665
     14 CAN        35.2480    1.2590    7.8060 C.3       1 NWL        -0.0322
     15 CAP        37.7300    6.5860   13.5900 C.ar      1 NWL        -0.0685
     16 CAQ        38.0440    5.5530   12.7080 C.ar      1 NWL        -0.0578
     17 OAQ        35.9620    0.1470   10.7090 O.2       1 NWL        -0.3759
     18 CAR        35.4890    2.1150    6.5570 C.3       1 NWL        -0.0244
     19 CAS        38.0510    7.8910   13.2670 C.ar      1 NWL        -0.0687
     20 H1         38.9650    9.1930   11.8245 H         1 NWL         0.0599
     21 H2         39.5146    7.3610   10.2501 H         1 NWL         0.0557
     22 H3         40.0890    4.4288   10.7141 H         1 NWL         0.0774
     23 H4         38.9916    5.1595    9.4941 H         1 NWL         0.0774
     24 H5         35.8802    4.3068    8.3305 H         1 NWL         0.0535
     25 H6         38.0167    0.5663   12.0400 H         1 NWL         0.2274
     26 H7         35.6498    2.6698   10.5781 H         1 NWL         0.1403
     27 H8         35.0086    3.0673    8.6498 H         1 NWL         0.2060
     28 H9         34.4430    1.8183    9.5606 H         1 NWL         0.2060
     29 H10        34.2907    0.7260    7.7092 H         1 NWL         0.0812
     30 H11        36.0641    0.5298    7.9169 H         1 NWL         0.0812
     31 H12        37.2344    6.3658   14.5286 H         1 NWL         0.0599
     32 H13        37.7941    4.5307   12.9676 H         1 NWL         0.0557
     33 H14        35.5213    1.4668    5.6689 H         1 NWL         0.0281
     34 H15        36.4460    2.6481    6.6568 H         1 NWL         0.0281
     35 H16        34.6726    2.8442    6.4491 H         1 NWL         0.0281
     36 H17        37.7967    8.6960   13.9470 H         1 NWL         0.0559
@<TRIPOS>BOND
     1    2    1 ar 
     2    1   19 ar 
     3    3    2 ar 
     4    4    3 1  
     5    3   16 ar 
     6    7    4 1  
     7    6    5 2  
     8    6    7 am 
     9    6   10 am 
    10    7    8 1  
    11    8    9 2  
    12    8   12 1  
    13   10   11 am 
    14   11   12 1  
    15   11   17 2  
    16   12   13 1  
    17   13   14 1  
    18   14   18 1  
    19   16   15 ar 
    20   15   19 ar 
    21    1   20 1  
    22    2   21 1  
    23    4   22 1  
    24    4   23 1  
    25    9   24 1  
    26   10   25 1  
    27   12   26 1  
    28   13   27 1  
    29   13   28 1  
    30   14   29 1  
    31   14   30 1  
    32   15   31 1  
    33   16   32 1  
    34   18   33 1  
    35   18   34 1  
    36   18   35 1  
    37   19   36 1  
@<TRIPOS>SUBSTRUCTURE
     1 NWL         1

