4b3u_ligand
  -I-interpret- 

 36 37  0  0  0  0  0  0  0  0999 V2000
   38.7000    8.1710   12.0700 C   0  0  0  0  0
   39.0110    7.1390   11.1840 C   0  0  0  0  0
   38.6750    5.8220   11.4980 C   0  0  0  0  0
   39.0530    4.7350   10.5070 C   0  0  0  0  0
   39.5510    2.5570   12.1210 O   0  0  0  0  0
   38.5540    2.4690   11.4010 C   0  0  0  0  0
   38.1980    3.5260   10.5520 N   0  0  0  0  0
   37.0480    3.4030    9.7370 C   0  0  0  0  0
   36.7000    4.3970    8.9100 N   0  0  0  0  0
   37.7630    1.3170   11.4300 N   0  0  0  0  0
   36.6300    1.1890   10.6300 C   0  0  0  0  0
   36.2740    2.2360    9.7830 C   0  0  0  0  0
   35.2070    2.1380    8.9860 N   0  3  0  0  0
   35.2480    1.2590    7.8060 C   0  0  0  0  0
   37.7300    6.5860   13.5900 C   0  0  0  0  0
   38.0440    5.5530   12.7080 C   0  0  0  0  0
   35.9620    0.1470   10.7090 O   0  0  0  0  0
   35.4890    2.1150    6.5570 C   0  0  0  0  0
   38.0510    7.8910   13.2670 C   0  0  0  0  0
   38.9664    9.1987   11.8231 H   0  0  0  0  0
   39.5173    7.3622   10.2449 H   0  0  0  0  0
   40.0644    4.4160   10.7588 H   0  0  0  0  0
   38.9420    5.1634    9.5109 H   0  0  0  0  0
   37.2645    5.2455    8.8665 H   0  0  0  0  0
   38.0218    0.5513   12.0522 H   0  0  0  0  0
   35.8774    1.8874   10.7366 H   0  0  0  0  0
   35.0888    3.0754    8.6017 H   0  0  0  0  0
   34.4818    1.7348    9.5792 H   0  0  0  0  0
   34.3019    0.7261    7.7105 H   0  0  0  0  0
   36.0531    0.5324    7.9156 H   0  0  0  0  0
   37.2316    6.3646   14.5338 H   0  0  0  0  0
   37.7927    4.5250   12.9691 H   0  0  0  0  0
   34.6794    2.8371    6.4513 H   0  0  0  0  0
   36.4375    2.6427    6.6572 H   0  0  0  0  0
   35.5208    1.4716    5.6777 H   0  0  0  0  0
   37.7953    8.7005   13.9507 H   0  0  0  0  0
  2  1  4  0  0  0
  1 19  4  0  0  0
  3  2  4  0  0  0
  4  3  1  0  0  0
  3 16  4  0  0  0
  7  4  1  0  0  0
  6  5  2  0  0  0
  6  7  1  0  0  0
  6 10  1  0  0  0
  7  8  1  0  0  0
  8  9  2  0  0  0
  8 12  1  0  0  0
 10 11  1  0  0  0
 11 12  1  0  0  0
 11 17  2  0  0  0
 12 13  1  0  0  0
 13 14  1  0  0  0
 14 18  1  0  0  0
 16 15  4  0  0  0
 15 19  4  0  0  0
  1 20  1  0  0  0
  2 21  1  0  0  0
  4 22  1  0  0  0
  4 23  1  0  0  0
  9 24  1  0  0  0
 10 25  1  0  0  0
 12 26  1  0  0  0
 13 27  1  0  0  0
 13 28  1  0  0  0
 14 29  1  0  0  0
 14 30  1  0  0  0
 15 31  1  0  0  0
 16 32  1  0  0  0
 18 33  1  0  0  0
 18 34  1  0  0  0
 18 35  1  0  0  0
 19 36  1  0  0  0
M  END
$$$$
