2r3c_ligand
  -I-interpret- 

222227  0  0  0  0  0  0  0  0999 V2000
    1.1940   18.2040  -33.9980 N   0  3  0  0  0
    2.5180   17.8510  -33.3980 C   0  0  0  0  0
    2.5270   16.4780  -32.7240 C   0  0  0  0  0
    2.1000   15.4820  -33.3130 O   0  0  0  0  0
    3.6310   17.9270  -34.4540 C   0  0  0  0  0
    4.0710   19.3430  -34.8060 C   0  0  0  0  0
    5.3640   19.3350  -35.6080 C   0  0  0  0  0
    5.8840   20.7520  -35.8430 C   0  0  0  0  0
    7.1860   20.7680  -36.5800 N   0  3  0  0  0
    3.0590   16.4390  -31.5020 N   0  0  0  0  0
    3.1560   15.2220  -30.6940 C   0  0  0  0  0
    4.3290   14.3290  -31.1220 C   0  0  0  0  0
    5.0570   14.6670  -32.0600 O   0  0  0  0  0
    4.4890   13.1840  -30.4480 N   0  0  0  0  0
    5.5590   12.2150  -30.7360 C   0  0  0  0  0
    5.4250   10.9900  -29.8360 C   0  0  0  0  0
    6.9660   12.7830  -30.6400 C   0  0  0  0  0
    7.8050   12.5360  -31.5150 O   0  0  0  0  0
    7.1810   13.6100  -29.6200 N   0  0  0  0  0
    8.4700   14.2400  -29.3700 C   0  0  0  0  0
    8.8910   15.3100  -30.3730 C   0  0  0  0  0
   10.0630   15.6800  -30.4350 O   0  0  0  0  0
    8.5130   14.7520  -27.9340 C   0  0  0  0  0
    8.3980   13.3800  -26.7330 S   0  0  0  0  0
    7.9430   15.7250  -31.2130 N   0  0  0  0  0
    8.1650   16.7400  -32.2430 C   0  0  0  0  0
    8.1470   16.1580  -33.6630 C   0  0  0  0  0
    8.5180   16.8360  -34.6260 O   0  0  0  0  0
    7.1310   17.8630  -32.0920 C   0  0  0  0  0
    7.4430   18.8150  -30.9360 C   0  0  0  0  0
    6.2040   19.3130  -30.2120 C   0  0  0  0  0
    5.5410   18.4990  -29.5230 O   0  0  0  0  0
    5.9070   20.5250  -30.3110 O   0  0  0  0  0
    7.7380   14.8930  -33.7760 N   0  0  0  0  0
    7.6720   14.1870  -35.0530 C   0  0  0  0  0
    8.9870   13.4190  -35.2450 C   0  0  0  0  0
    9.3310   12.5750  -34.4140 O   0  0  0  0  0
    6.4790   13.2350  -35.0590 C   0  0  0  0  0
    5.2750   13.9320  -34.7960 O   0  0  0  0  0
    9.7440   13.7110  -36.3340 N   0  0  0  0  0
   11.0310   13.0540  -36.6340 C   0  0  0  0  0
   11.4790   13.7370  -37.9350 C   0  0  0  0  0
   10.1910   14.2410  -38.5460 C   0  0  0  0  0
    9.4500   14.7470  -37.3460 C   0  0  0  0  0
   11.0820   11.5210  -36.7420 C   0  0  0  0  0
   12.1100   10.9140  -36.3990 O   0  0  0  0  0
    9.9830   10.9040  -37.1900 N   0  0  0  0  0
    9.9130    9.4440  -37.3350 C   0  0  0  0  0
    9.4130    8.7240  -36.0760 C   0  0  0  0  0
    9.3150    7.4880  -36.0510 O   0  0  0  0  0
    9.0340    9.0580  -38.5380 C   0  0  0  0  0
    9.5620    9.4810  -39.9270 C   0  0  0  0  0
   10.6970    8.6160  -40.4730 C   0  0  0  0  0
   11.1140    7.6380  -39.8140 O   0  0  0  0  0
   11.1790    8.9230  -41.5820 O   0  0  0  0  0
    9.1330    9.4980  -35.0270 N   0  0  0  0  0
    8.6200    8.9520  -33.7670 C   0  0  0  0  0
    7.1870    9.4510  -33.5270 C   0  0  0  0  0
    6.1550    8.9430  -34.5180 C   0  0  0  0  0
    5.6730    9.6050  -35.6140 C   0  0  0  0  0
    4.6950    8.8610  -36.2290 N   0  0  0  0  0
    4.5270    7.6920  -35.5500 C   0  0  0  0  0
    3.6480    6.6020  -35.7940 C   0  0  0  0  0
    3.6920    5.5250  -34.9270 C   0  0  0  0  0
    4.5940    5.5010  -33.8220 C   0  0  0  0  0
    5.4750    6.5940  -33.5790 C   0  0  0  0  0
    5.4420    7.6970  -34.4530 C   0  0  0  0  0
    9.4800    9.2490  -32.5340 C   0  0  0  0  0
    9.0150    9.1120  -31.3980 O   0  0  0  0  0
   10.7500    9.5840  -32.7620 N   0  0  0  0  0
   11.6870    9.9090  -31.6800 C   0  0  0  0  0
   12.0020    8.7490  -30.7350 C   0  0  0  0  0
   12.3060    8.9690  -29.5610 O   0  0  0  0  0
   12.9720   10.5070  -32.2520 C   0  0  0  0  0
   12.7830   11.8460  -32.9710 C   0  0  0  0  0
   12.3320   12.9680  -32.0480 C   0  0  0  0  0
   13.0760   13.4010  -31.1720 O   0  0  0  0  0
   11.1090   13.4430  -32.2480 N   0  0  0  0  0
   11.8540    7.5230  -31.2430 N   0  0  0  0  0
   12.0820    6.2990  -30.4770 C   0  0  0  0  0
   12.2030    5.0850  -31.4290 C   0  0  0  0  0
   10.9770    4.8390  -32.2950 C   0  0  0  0  0
   10.6970    5.4170  -33.5060 C   0  0  0  0  0
    9.4320    5.0680  -33.9210 N   0  0  0  0  0
    8.8680    4.2360  -32.9890 C   0  0  0  0  0
    7.5920    3.6240  -32.9620 C   0  0  0  0  0
    7.2790    2.8260  -31.8740 C   0  0  0  0  0
    8.2050    2.6210  -30.8160 C   0  0  0  0  0
    9.4820    3.2330  -30.8480 C   0  0  0  0  0
    9.8180    4.0590  -31.9480 C   0  0  0  0  0
   10.9610    6.0940  -29.4430 C   0  0  0  0  0
   11.1900    5.5210  -28.3750 O   0  0  0  0  0
    9.7480    6.5320  -29.8020 N   0  0  0  0  0
    8.5670    6.4270  -28.9370 C   0  0  0  0  0
    7.2710    6.6840  -29.7190 C   0  0  0  0  0
    6.0310    5.7920  -29.5300 C   0  0  0  0  0
    5.9100    5.1690  -28.1610 C   0  0  0  0  0
    4.8090    6.5950  -29.8810 C   0  0  0  0  0
    8.6880    7.4480  -27.8210 C   0  0  0  0  0
    8.4180    7.1390  -26.6610 O   0  0  0  0  0
    9.1380    8.6480  -28.1840 N   0  0  0  0  0
    9.3550    9.7390  -27.2420 C   0  0  0  0  0
   10.4220    9.3310  -26.2190 C   0  0  0  0  0
   10.3120    9.6570  -25.0400 O   0  0  0  0  0
    9.8060   10.9800  -28.0020 C   0  0  0  0  0
   10.1790   12.4140  -26.9490 S   0  0  0  0  0
   11.4060    8.5550  -26.6820 N   0  0  0  0  0
   12.4990    8.0520  -25.8490 C   0  0  0  0  0
   13.6260    7.5510  -26.7270 C   0  0  0  0  0
   12.0480    6.9370  -24.9000 C   0  0  0  0  0
   12.5280    6.8490  -23.7640 O   0  0  0  0  0
   11.1090    6.1110  -25.3690 N   0  0  0  0  0
   10.5740    4.9870  -24.6050 C   0  0  0  0  0
    9.8470    4.0340  -25.5310 C   0  0  0  0  0
    9.6510    5.4460  -23.4820 C   0  0  0  0  0
    9.4690    4.7430  -22.4870 O   0  0  0  0  0
    9.0343    6.6205  -23.5778 O   0  0  0  0  0
    0.4710   18.1472  -33.2807 H   0  0  0  0  0
    1.2325   19.1533  -34.3691 H   0  0  0  0  0
    0.9788   17.5514  -34.7518 H   0  0  0  0  0
    2.7044   18.5886  -32.6174 H   0  0  0  0  0
    3.2370   17.4789  -35.3662 H   0  0  0  0  0
    4.5001   17.4162  -34.0394 H   0  0  0  0  0
    4.2390   19.8948  -33.8811 H   0  0  0  0  0
    3.2914   19.8097  -35.4081 H   0  0  0  0  0
    5.1677   18.8737  -36.5759 H   0  0  0  0  0
    6.1155   18.7795  -35.0470 H   0  0  0  0  0
    6.0416   21.2186  -34.8706 H   0  0  0  0  0
    5.1489   21.2849  -36.4462 H   0  0  0  0  0
    7.4892   21.7330  -36.7112 H   0  0  0  0  0
    7.8871   20.2605  -36.0403 H   0  0  0  0  0
    7.0662   20.3214  -37.4892 H   0  0  0  0  0
    3.4194   17.3077  -31.1071 H   0  0  0  0  0
    2.2344   14.6550  -30.8254 H   0  0  0  0  0
    3.3169   15.5170  -29.6571 H   0  0  0  0  0
    3.8348   12.9715  -29.6948 H   0  0  0  0  0
    5.4228   11.9331  -31.7801 H   0  0  0  0  0
    5.4958   11.2977  -28.7927 H   0  0  0  0  0
    4.4595   10.5156  -30.0115 H   0  0  0  0  0
    6.2244   10.2847  -30.0631 H   0  0  0  0  0
    6.4087   13.8117  -28.9850 H   0  0  0  0  0
    9.2187   13.4612  -29.5150 H   0  0  0  0  0
    7.6653   15.4195  -27.7791 H   0  0  0  0  0
    9.4600   15.2690  -27.7792 H   0  0  0  0  0
    7.0133   15.3130  -31.1335 H   0  0  0  0  0
    9.1654   17.1472  -32.0964 H   0  0  0  0  0
    6.1660   17.3992  -31.8877 H   0  0  0  0  0
    7.1390   18.4464  -33.0127 H   0  0  0  0  0
    7.9502   19.6843  -31.3545 H   0  0  0  0  0
    8.0472   18.2667  -30.2133 H   0  0  0  0  0
    5.9404   17.6283  -29.5862 H   0  0  0  0  0
    7.4582   14.3955  -32.9307 H   0  0  0  0  0
    7.5396   14.8924  -35.8734 H   0  0  0  0  0
    6.6260   12.4840  -34.2828 H   0  0  0  0  0
    6.4070   12.7695  -36.0420 H   0  0  0  0  0
    4.5404   13.3141  -34.8048 H   0  0  0  0  0
   11.6895   13.1830  -35.7750 H   0  0  0  0  0
   12.0113   13.0547  -38.5977 H   0  0  0  0  0
   12.1930   14.5406  -37.7550 H   0  0  0  0  0
    9.6464   13.4737  -39.0962 H   0  0  0  0  0
   10.3461   15.0036  -39.3092 H   0  0  0  0  0
    9.7609   15.7459  -37.0399 H   0  0  0  0  0
    8.3832   14.8804  -37.5256 H   0  0  0  0  0
    9.1681   11.4649  -37.4387 H   0  0  0  0  0
   10.9383    9.1134  -37.5013 H   0  0  0  0  0
    8.0843    9.5752  -38.4013 H   0  0  0  0  0
    8.9887    7.9690  -38.5467 H   0  0  0  0  0
    9.9576   10.4911  -39.8205 H   0  0  0  0  0
    8.7292    9.3864  -40.6239 H   0  0  0  0  0
   10.6176    7.5703  -38.9951 H   0  0  0  0  0
    9.2808   10.5043  -35.1039 H   0  0  0  0  0
    8.6462    7.8693  -33.8901 H   0  0  0  0  0
    7.2112   10.5361  -33.6270 H   0  0  0  0  0
    6.8869    9.0846  -32.5453 H   0  0  0  0  0
    6.0159   10.5831  -35.9513 H   0  0  0  0  0
    2.9597    6.6144  -36.6391 H   0  0  0  0  0
    3.0249    4.6787  -35.0912 H   0  0  0  0  0
    4.6093    4.6376  -33.1568 H   0  0  0  0  0
    6.1615    6.5765  -32.7325 H   0  0  0  0  0
   11.0834    9.6157  -33.7254 H   0  0  0  0  0
   11.1754   10.6467  -31.0619 H   0  0  0  0  0
   13.3530    9.7998  -32.9888 H   0  0  0  0  0
   13.6420   10.6877  -31.4114 H   0  0  0  0  0
   12.0074   11.7081  -33.7244 H   0  0  0  0  0
   13.7472   12.1329  -33.3907 H   0  0  0  0  0
   10.7529   14.1980  -31.6618 H   0  0  0  0  0
   10.5251   13.0530  -32.9879 H   0  0  0  0  0
   11.5665    7.4359  -32.2177 H   0  0  0  0  0
   13.0216    6.3927  -29.9325 H   0  0  0  0  0
   12.3353    4.2015  -30.8045 H   0  0  0  0  0
   13.0345    5.2897  -32.1034 H   0  0  0  0  0
   11.3789    6.0611  -34.0611 H   0  0  0  0  0
    6.8783    3.7759  -33.7717 H   0  0  0  0  0
    6.3018    2.3452  -31.8285 H   0  0  0  0  0
    7.9304    1.9874  -29.9726 H   0  0  0  0  0
   10.1944    3.0708  -30.0391 H   0  0  0  0  0
    9.6392    6.9596  -30.7216 H   0  0  0  0  0
    8.5223    5.4153  -28.5339 H   0  0  0  0  0
    7.5557    6.5190  -30.7581 H   0  0  0  0  0
    6.9443    7.6632  -29.3689 H   0  0  0  0  0
    6.1371    4.9393  -30.2006 H   0  0  0  0  0
    6.7824    4.5444  -27.9691 H   0  0  0  0  0
    5.8524    5.9559  -27.4089 H   0  0  0  0  0
    5.0081    4.5583  -28.1196 H   0  0  0  0  0
    4.7465    7.4642  -29.2262 H   0  0  0  0  0
    4.8774    6.9238  -30.9180 H   0  0  0  0  0
    3.9204    5.9770  -29.7523 H   0  0  0  0  0
    9.3408    8.8116  -29.1702 H   0  0  0  0  0
    8.4264    9.9593  -26.7155 H   0  0  0  0  0
    8.9839   11.2698  -28.6564 H   0  0  0  0  0
   10.7271   10.7182  -28.5227 H   0  0  0  0  0
   11.3948    8.2993  -27.6694 H   0  0  0  0  0
   12.8439    8.8828  -25.2335 H   0  0  0  0  0
   13.2585    6.7465  -27.3640 H   0  0  0  0  0
   13.9925    8.3688  -27.3475 H   0  0  0  0  0
   14.4356    7.1783  -26.0995 H   0  0  0  0  0
   10.7470    6.2734  -26.3087 H   0  0  0  0  0
   11.4143    4.4712  -24.1403 H   0  0  0  0  0
    9.0271    4.5596  -26.0205 H   0  0  0  0  0
   10.5413    3.6601  -26.2835 H   0  0  0  0  0
    9.4513    3.1989  -24.9530 H   0  0  0  0  0
    9.2786    7.0424  -24.4048 H   0  0  0  0  0
  1  2  1  0  0  0
  2  3  1  0  0  0
  2  5  1  0  0  0
  3  4  2  0  0  0
  3 10  1  0  0  0
  5  6  1  0  0  0
  6  7  1  0  0  0
  7  8  1  0  0  0
  8  9  1  0  0  0
 10 11  1  0  0  0
 11 12  1  0  0  0
 12 13  2  0  0  0
 12 14  1  0  0  0
 14 15  1  0  0  0
 15 16  1  0  0  0
 15 17  1  0  0  0
 17 18  2  0  0  0
 17 19  1  0  0  0
 19 20  1  0  0  0
 20 21  1  0  0  0
 20 23  1  0  0  0
 21 22  2  0  0  0
 21 25  1  0  0  0
 23 24  1  0  0  0
 24106  1  0  0  0
 25 26  1  0  0  0
 26 27  1  0  0  0
 26 29  1  0  0  0
 27 28  2  0  0  0
 27 34  1  0  0  0
 29 30  1  0  0  0
 30 31  1  0  0  0
 31 32  1  0  0  0
 31 33  2  0  0  0
 34 35  1  0  0  0
 35 36  1  0  0  0
 35 38  1  0  0  0
 36 37  2  0  0  0
 36 40  1  0  0  0
 38 39  1  0  0  0
 40 41  1  0  0  0
 40 44  1  0  0  0
 41 42  1  0  0  0
 41 45  1  0  0  0
 42 43  1  0  0  0
 43 44  1  0  0  0
 45 46  2  0  0  0
 45 47  1  0  0  0
 47 48  1  0  0  0
 48 49  1  0  0  0
 48 51  1  0  0  0
 49 50  2  0  0  0
 49 56  1  0  0  0
 51 52  1  0  0  0
 52 53  1  0  0  0
 53 54  1  0  0  0
 53 55  2  0  0  0
 56 57  1  0  0  0
 57 58  1  0  0  0
 57 68  1  0  0  0
 58 59  1  0  0  0
 59 60  4  0  0  0
 59 67  4  0  0  0
 60 61  4  0  0  0
 61 62  4  0  0  0
 62 63  4  0  0  0
 62 67  4  0  0  0
 63 64  4  0  0  0
 64 65  4  0  0  0
 65 66  4  0  0  0
 66 67  4  0  0  0
 68 69  2  0  0  0
 68 70  1  0  0  0
 70 71  1  0  0  0
 71 72  1  0  0  0
 71 74  1  0  0  0
 72 73  2  0  0  0
 72 79  1  0  0  0
 74 75  1  0  0  0
 75 76  1  0  0  0
 76 77  2  0  0  0
 76 78  1  0  0  0
 79 80  1  0  0  0
 80 81  1  0  0  0
 80 91  1  0  0  0
 81 82  1  0  0  0
 82 83  4  0  0  0
 82 90  4  0  0  0
 83 84  4  0  0  0
 84 85  4  0  0  0
 85 86  4  0  0  0
 85 90  4  0  0  0
 86 87  4  0  0  0
 87 88  4  0  0  0
 88 89  4  0  0  0
 89 90  4  0  0  0
 91 92  2  0  0  0
 91 93  1  0  0  0
 93 94  1  0  0  0
 94 95  1  0  0  0
 94 99  1  0  0  0
 95 96  1  0  0  0
 96 97  1  0  0  0
 96 98  1  0  0  0
 99100  2  0  0  0
 99101  1  0  0  0
101102  1  0  0  0
102103  1  0  0  0
102105  1  0  0  0
103104  2  0  0  0
103107  1  0  0  0
105106  1  0  0  0
107108  1  0  0  0
108109  1  0  0  0
108110  1  0  0  0
110111  2  0  0  0
110112  1  0  0  0
112113  1  0  0  0
113114  1  0  0  0
113115  1  0  0  0
115116  2  0  0  0
115117  1  0  0  0
  1118  1  0  0  0
  1119  1  0  0  0
  1120  1  0  0  0
  2121  1  0  0  0
  5122  1  0  0  0
  5123  1  0  0  0
  6124  1  0  0  0
  6125  1  0  0  0
  7126  1  0  0  0
  7127  1  0  0  0
  8128  1  0  0  0
  8129  1  0  0  0
  9130  1  0  0  0
  9131  1  0  0  0
  9132  1  0  0  0
 10133  1  0  0  0
 11134  1  0  0  0
 11135  1  0  0  0
 14136  1  0  0  0
 15137  1  0  0  0
 16138  1  0  0  0
 16139  1  0  0  0
 16140  1  0  0  0
 19141  1  0  0  0
 20142  1  0  0  0
 23143  1  0  0  0
 23144  1  0  0  0
 25145  1  0  0  0
 26146  1  0  0  0
 29147  1  0  0  0
 29148  1  0  0  0
 30149  1  0  0  0
 30150  1  0  0  0
 32151  1  0  0  0
 34152  1  0  0  0
 35153  1  0  0  0
 38154  1  0  0  0
 38155  1  0  0  0
 39156  1  0  0  0
 41157  1  0  0  0
 42158  1  0  0  0
 42159  1  0  0  0
 43160  1  0  0  0
 43161  1  0  0  0
 44162  1  0  0  0
 44163  1  0  0  0
 47164  1  0  0  0
 48165  1  0  0  0
 51166  1  0  0  0
 51167  1  0  0  0
 52168  1  0  0  0
 52169  1  0  0  0
 54170  1  0  0  0
 56171  1  0  0  0
 57172  1  0  0  0
 58173  1  0  0  0
 58174  1  0  0  0
 60175  1  0  0  0
 63176  1  0  0  0
 64177  1  0  0  0
 65178  1  0  0  0
 66179  1  0  0  0
 70180  1  0  0  0
 71181  1  0  0  0
 74182  1  0  0  0
 74183  1  0  0  0
 75184  1  0  0  0
 75185  1  0  0  0
 78186  1  0  0  0
 78187  1  0  0  0
 79188  1  0  0  0
 80189  1  0  0  0
 81190  1  0  0  0
 81191  1  0  0  0
 83192  1  0  0  0
 86193  1  0  0  0
 87194  1  0  0  0
 88195  1  0  0  0
 89196  1  0  0  0
 93197  1  0  0  0
 94198  1  0  0  0
 95199  1  0  0  0
 95200  1  0  0  0
 96201  1  0  0  0
 97202  1  0  0  0
 97203  1  0  0  0
 97204  1  0  0  0
 98205  1  0  0  0
 98206  1  0  0  0
 98207  1  0  0  0
101208  1  0  0  0
102209  1  0  0  0
105210  1  0  0  0
105211  1  0  0  0
107212  1  0  0  0
108213  1  0  0  0
109214  1  0  0  0
109215  1  0  0  0
109216  1  0  0  0
112217  1  0  0  0
113218  1  0  0  0
114219  1  0  0  0
114220  1  0  0  0
114221  1  0  0  0
117222  1  0  0  0
M  END
$$$$
