### 
### Created by X-TOOL on Mon Sep 10 21:12:55 2018
### 

@<TRIPOS>MOLECULE
2r3c_ligand
  222   227     1     0     0
SMALL
GAST_HUCK


@<TRIPOS>ATOM
      1 N           1.1940   18.2040  -33.9980 N.4       1 DLY         0.2379
      2 CA          2.5180   17.8510  -33.3980 C.3       1 DLY         0.0650
      3 C           2.5270   16.4780  -32.7240 C.2       1 DLY         0.2265
      4 O           2.1000   15.4820  -33.3130 O.2       1 DLY        -0.3907
      5 CB          3.6310   17.9270  -34.4540 C.3       1 DLY         0.0080
      6 CG          4.0710   19.3430  -34.8060 C.3       1 DLY        -0.0410
      7 CD          5.3640   19.3350  -35.6080 C.3       1 DLY        -0.0123
      8 CE          5.8840   20.7520  -35.8430 C.3       1 DLY        -0.0354
      9 NZ          7.1860   20.7680  -36.5800 N.4       1 DLY         0.2185
     10 N           3.0590   16.4390  -31.5020 N.am      1 GLY        -0.2637
     11 CA          3.1560   15.2220  -30.6940 C.3       1 GLY         0.1202
     12 C           4.3290   14.3290  -31.1220 C.2       1 GLY         0.2007
     13 O           5.0570   14.6670  -32.0600 O.2       1 GLY        -0.3947
     14 N           4.4890   13.1840  -30.4480 N.am      1 DAL        -0.2642
     15 CA          5.5590   12.2150  -30.7360 C.3       1 DAL         0.1282
     16 CB          5.4250   10.9900  -29.8360 C.3       1 DAL        -0.0244
     17 C           6.9660   12.7830  -30.6400 C.2       1 DAL         0.2036
     18 O           7.8050   12.5360  -31.5150 O.2       1 DAL        -0.3944
     19 N           7.1810   13.6100  -29.6200 N.am      1 DCY        -0.2629
     20 CA          8.4700   14.2400  -29.3700 C.3       1 DCY         0.1406
     21 C           8.8910   15.3100  -30.3730 C.2       1 DCY         0.2047
     22 O          10.0630   15.6800  -30.4350 O.2       1 DCY        -0.3944
     23 CB          8.5130   14.7520  -27.9340 C.3       1 DCY         0.0443
     24 SG          8.3980   13.3800  -26.7330 S.3       1 DCY        -0.0882
     25 N           7.9430   15.7250  -31.2130 N.am      1 DGL        -0.2636
     26 CA          8.1650   16.7400  -32.2430 C.3       1 DGL         0.1325
     27 C           8.1470   16.1580  -33.6630 C.2       1 DGL         0.2041
     28 O           8.5180   16.8360  -34.6260 O.2       1 DGL        -0.3944
     29 CB          7.1310   17.8630  -32.0920 C.3       1 DGL        -0.0008
     30 CG          7.4430   18.8150  -30.9360 C.3       1 DGL         0.0044
     31 CD          6.2040   19.3130  -30.2120 C.2       1 DGL         0.0350
     32 OE1         5.5410   18.4990  -29.5230 O.co2     1 DGL        -0.5690
     33 OE2         5.9070   20.5250  -30.3110 O.co2     1 DGL        -0.5690
     34 N           7.7380   14.8930  -33.7760 N.am      1 DSN        -0.2616
     35 CA          7.6720   14.1870  -35.0530 C.3       1 DSN         0.1541
     36 C           8.9870   13.4190  -35.2450 C.2       1 DSN         0.2087
     37 O           9.3310   12.5750  -34.4140 O.2       1 DSN        -0.3941
     38 CB          6.4790   13.2350  -35.0590 C.3       1 DSN         0.0843
     39 OG          5.2750   13.9320  -34.7960 O.3       1 DSN        -0.3903
     40 N           9.7440   13.7110  -36.3340 N.am      1 DPR        -0.2498
     41 CA         11.0310   13.0540  -36.6340 C.3       1 DPR         0.1338
     42 CB         11.4790   13.7370  -37.9350 C.3       1 DPR        -0.0104
     43 CG         10.1910   14.2410  -38.5460 C.3       1 DPR        -0.0281
     44 CD          9.4500   14.7470  -37.3460 C.3       1 DPR         0.0369
     45 C          11.0820   11.5210  -36.7420 C.2       1 DPR         0.2041
     46 O          12.1100   10.9140  -36.3990 O.2       1 DPR        -0.3944
     47 N           9.9830   10.9040  -37.1900 N.am      1 DGL        -0.2636
     48 CA          9.9130    9.4440  -37.3350 C.3       1 DGL         0.1325
     49 C           9.4130    8.7240  -36.0760 C.2       1 DGL         0.2041
     50 O           9.3150    7.4880  -36.0510 O.2       1 DGL        -0.3944
     51 CB          9.0340    9.0580  -38.5380 C.3       1 DGL        -0.0008
     52 CG          9.5620    9.4810  -39.9270 C.3       1 DGL         0.0044
     53 CD         10.6970    8.6160  -40.4730 C.2       1 DGL         0.0350
     54 OE1        11.1140    7.6380  -39.8140 O.co2     1 DGL        -0.5690
     55 OE2        11.1790    8.9230  -41.5820 O.co2     1 DGL        -0.5690
     56 N           9.1330    9.4980  -35.0270 N.am      1 DTR        -0.2627
     57 CA          8.6200    8.9520  -33.7670 C.3       1 DTR         0.1352
     58 CB          7.1870    9.4510  -33.5270 C.3       1 DTR         0.0042
     59 CG          6.1550    8.9430  -34.5180 C.2       1 DTR        -0.0418
     60 CD1         5.6730    9.6050  -35.6140 C.2       1 DTR         0.0167
     61 NE1         4.6950    8.8610  -36.2290 N.pl3     1 DTR        -0.2890
     62 CE2         4.5270    7.6920  -35.5500 C.ar      1 DTR         0.0603
     63 CZ2         3.6480    6.6020  -35.7940 C.ar      1 DTR        -0.0443
     64 CH2         3.6920    5.5250  -34.9270 C.ar      1 DTR        -0.0768
     65 CZ3         4.5940    5.5010  -33.8220 C.ar      1 DTR        -0.0792
     66 CE3         5.4750    6.5940  -33.5790 C.ar      1 DTR        -0.0747
     67 CD2         5.4420    7.6970  -34.4530 C.ar      1 DTR        -0.0214
     68 C           9.4800    9.2490  -32.5340 C.2       1 DTR         0.2052
     69 O           9.0150    9.1120  -31.3980 O.2       1 DTR        -0.3942
     70 N          10.7500    9.5840  -32.7620 N.am      1 DGN        -0.2635
     71 CA         11.6870    9.9090  -31.6800 C.3       1 DGN         0.1330
     72 C          12.0020    8.7490  -30.7350 C.2       1 DGN         0.2041
     73 O          12.3060    8.9690  -29.5610 O.2       1 DGN        -0.3944
     74 CB         12.9720   10.5070  -32.2520 C.3       1 DGN         0.0045
     75 CG         12.7830   11.8460  -32.9710 C.3       1 DGN         0.0412
     76 CD         12.3320   12.9680  -32.0480 C.2       1 DGN         0.1737
     77 OE1        13.0760   13.4010  -31.1720 O.2       1 DGN        -0.3973
     78 NE2        11.1090   13.4430  -32.2480 N.am      1 DGN        -0.3009
     79 N          11.8540    7.5230  -31.2430 N.am      1 DTR        -0.2627
     80 CA         12.0820    6.2990  -30.4770 C.3       1 DTR         0.1352
     81 CB         12.2030    5.0850  -31.4290 C.3       1 DTR         0.0042
     82 CG         10.9770    4.8390  -32.2950 C.2       1 DTR        -0.0418
     83 CD1        10.6970    5.4170  -33.5060 C.2       1 DTR         0.0167
     84 NE1         9.4320    5.0680  -33.9210 N.pl3     1 DTR        -0.2890
     85 CE2         8.8680    4.2360  -32.9890 C.ar      1 DTR         0.0603
     86 CZ2         7.5920    3.6240  -32.9620 C.ar      1 DTR        -0.0443
     87 CH2         7.2790    2.8260  -31.8740 C.ar      1 DTR        -0.0768
     88 CZ3         8.2050    2.6210  -30.8160 C.ar      1 DTR        -0.0792
     89 CE3         9.4820    3.2330  -30.8480 C.ar      1 DTR        -0.0747
     90 CD2         9.8180    4.0590  -31.9480 C.ar      1 DTR        -0.0214
     91 C          10.9610    6.0940  -29.4430 C.2       1 DTR         0.2052
     92 O          11.1900    5.5210  -28.3750 O.2       1 DTR        -0.3942
     93 N           9.7480    6.5320  -29.8020 N.am      1 DLE        -0.2636
     94 CA          8.5670    6.4270  -28.9370 C.3       1 DLE         0.1312
     95 CB          7.2710    6.6840  -29.7190 C.3       1 DLE        -0.0101
     96 CG          6.0310    5.7920  -29.5300 C.3       1 DLE        -0.0425
     97 CD1         5.9100    5.1690  -28.1610 C.3       1 DLE        -0.0625
     98 CD2         4.8090    6.5950  -29.8810 C.3       1 DLE        -0.0625
     99 C           8.6880    7.4480  -27.8210 C.2       1 DLE         0.2039
    100 O           8.4180    7.1390  -26.6610 O.2       1 DLE        -0.3944
    101 N           9.1380    8.6480  -28.1840 N.am      1 DCY        -0.2629
    102 CA          9.3550    9.7390  -27.2420 C.3       1 DCY         0.1406
    103 C          10.4220    9.3310  -26.2190 C.2       1 DCY         0.2047
    104 O          10.3120    9.6570  -25.0400 O.2       1 DCY        -0.3944
    105 CB          9.8060   10.9800  -28.0020 C.3       1 DCY         0.0443
    106 SG         10.1790   12.4140  -26.9490 S.3       1 DCY        -0.0882
    107 N          11.4060    8.5550  -26.6820 N.am      1 DAL        -0.2640
    108 CA         12.4990    8.0520  -25.8490 C.3       1 DAL         0.1282
    109 CB         13.6260    7.5510  -26.7270 C.3       1 DAL        -0.0244
    110 C          12.0480    6.9370  -24.9000 C.2       1 DAL         0.2037
    111 O          12.5280    6.8490  -23.7640 O.2       1 DAL        -0.3944
    112 N          11.1090    6.1110  -25.3690 N.am      1 DAL        -0.2626
    113 CA         10.5740    4.9870  -24.6050 C.3       1 DAL         0.1392
    114 CB          9.8470    4.0340  -25.5310 C.3       1 DAL        -0.0230
    115 C           9.6510    5.4460  -23.4820 C.2       1 DAL         0.2568
    116 O           9.4690    4.7430  -22.4870 O.2       1 DAL        -0.3680
    117 H1          1.2509   19.1153  -34.4250 H         1 DLY         0.2015
    118 H2          0.4902   18.2145  -33.2765 H         1 DLY         0.2015
    119 H3          0.9487   17.5202  -34.6968 H         1 DLY         0.2015
    120 H4          2.7358   18.6001  -32.6225 H         1 DLY         0.1098
    121 H5          3.2678   17.4417  -35.3719 H         1 DLY         0.0346
    122 H6          4.5056   17.3803  -34.0717 H         1 DLY         0.0346
    123 H7          4.2286   19.9109  -33.8772 H         1 DLY         0.0270
    124 H8          3.2825   19.8259  -35.4018 H         1 DLY         0.0270
    125 H9          5.1786   18.8561  -36.5808 H         1 DLY         0.0317
    126 H10         6.1237   18.7621  -35.0561 H         1 DLY         0.0317
    127 H11         6.0239   21.2429  -34.8686 H         1 DLY         0.0813
    128 H12         5.1390   21.3086  -36.4305 H         1 DLY         0.0813
    129 H13         7.4866   21.7213  -36.7102 H         1 DLY         0.1994
    130 H14         7.0688   20.3269  -37.4788 H         1 DLY         0.1994
    131 H15         7.8797   20.2667  -36.0475 H         1 DLY         0.1994
    132 H16         3.4123   17.2906  -31.1149 H         1 GLY         0.1882
    133 H17         2.2211   14.6521  -30.7995 H         1 GLY         0.0763
    134 H18         3.2948   15.5071  -29.6407 H         1 GLY         0.0763
    135 H19         3.8477   12.9756  -29.7096 H         1 DAL         0.1883
    136 H20         5.4179   11.8838  -31.7754 H         1 DAL         0.0797
    137 H21         6.2313   10.2774  -30.0643 H         1 DAL         0.0277
    138 H22         4.4509   10.5103  -30.0122 H         1 DAL         0.0277
    139 H23         5.4963   11.2992  -28.7828 H         1 DAL         0.0277
    140 H24         6.4238   13.8077  -28.9974 H         1 DCY         0.1884
    141 H25         9.2235   13.4426  -29.4500 H         1 DCY         0.0808
    142 H26         7.6694   15.4394  -27.7738 H         1 DCY         0.0432
    143 H27         9.4594   15.2893  -27.7738 H         1 DCY         0.0432
    144 H28         7.0315   15.3211  -31.1350 H         1 DGL         0.1883
    145 H29         9.1629   17.1720  -32.0771 H         1 DGL         0.0801
    146 H30         6.1447   17.4092  -31.9152 H         1 DGL         0.0330
    147 H31         7.1055   18.4433  -33.0261 H         1 DGL         0.0330
    148 H32         7.9852   19.6841  -31.3369 H         1 DGL         0.0433
    149 H33         8.0809   18.2868  -30.2121 H         1 DGL         0.0433
    150 H34         7.4637   14.4052  -32.9473 H         1 DSN         0.1884
    151 H35         7.5531   14.9145  -35.8694 H         1 DSN         0.0823
    152 H36         6.6270   12.4673  -34.2853 H         1 DSN         0.0606
    153 H37         6.4079   12.7529  -36.0451 H         1 DSN         0.0606
    154 H38         5.3306   14.3474  -33.9435 H         1 DSN         0.2097
    155 H39        11.7329   13.3213  -35.8304 H         1 DPR         0.0802
    156 H40        11.9738   13.0175  -38.6040 H         1 DPR         0.0313
    157 H41        12.1638   14.5713  -37.7229 H         1 DPR         0.0313
    158 H42         9.6398   13.4285  -39.0420 H         1 DPR         0.0287
    159 H43        10.3810   15.0491  -39.2677 H         1 DPR         0.0287
    160 H44         9.8276   15.7307  -37.0303 H         1 DPR         0.0524
    161 H45         8.3702   14.8151  -37.5442 H         1 DPR         0.0524
    162 H46         9.1841   11.4539  -37.4338 H         1 DGL         0.1883
    163 H47        10.9346    9.0877  -37.5333 H         1 DGL         0.0801
    164 H48         8.0475    9.5237  -38.3970 H         1 DGL         0.0330
    165 H49         8.9260    7.9633  -38.5383 H         1 DGL         0.0330
    166 H50         9.9261   10.5164  -39.8537 H         1 DGL         0.0433
    167 H51         8.7249    9.4362  -40.6392 H         1 DGL         0.0433
    168 H52         9.2779   10.4846  -35.1024 H         1 DTR         0.1884
    169 H53         8.5861    7.8584  -33.8807 H         1 DTR         0.0815
    170 H54         7.1957   10.5498  -33.5769 H         1 DTR         0.0397
    171 H55         6.8789    9.1321  -32.5203 H         1 DTR         0.0397
    172 H56         6.0156   10.5823  -35.9510 H         1 DTR         0.0795
    173 H57         4.1717    9.1426  -37.0703 H         1 DTR         0.2216
    174 H58         2.9635    6.6143  -36.6345 H         1 DTR         0.0541
    175 H59         3.0286    4.6834  -35.0903 H         1 DTR         0.0530
    176 H60         4.6092    4.6424  -33.1605 H         1 DTR         0.0510
    177 H61         6.1577    6.5766  -32.7372 H         1 DTR         0.0540
    178 H62        11.0769    9.6151  -33.7066 H         1 DGN         0.1883
    179 H63        11.2052   10.6873  -31.0700 H         1 DGN         0.0801
    180 H64        13.3960    9.7887  -32.9691 H         1 DGN         0.0337
    181 H65        13.6792   10.6587  -31.4233 H         1 DGN         0.0337
    182 H66        12.0253   11.7157  -33.7577 H         1 DGN         0.0504
    183 H67        13.7408   12.1345  -33.4286 H         1 DGN         0.0504
    184 H68        10.7588   14.1812  -31.6714 H         1 DGN         0.1814
    185 H69        10.5377   13.0628  -32.9753 H         1 DGN         0.1814
    186 H70        11.5721    7.4376  -32.1986 H         1 DTR         0.1884
    187 H71        13.0326    6.4035  -29.9335 H         1 DTR         0.0815
    188 H72        12.3792    4.1864  -30.8195 H         1 DTR         0.0397
    189 H73        13.0643    5.2528  -32.0923 H         1 DTR         0.0397
    190 H74        11.3783    6.0606  -34.0606 H         1 DTR         0.0795
    191 H75         8.9813    5.3818  -34.7924 H         1 DTR         0.2216
    192 H76         6.8822    3.7750  -33.7673 H         1 DTR         0.0541
    193 H77         6.3072    2.3478  -31.8287 H         1 DTR         0.0530
    194 H78         7.9319    1.9909  -29.9773 H         1 DTR         0.0510
    195 H79        10.1905    3.0717  -30.0436 H         1 DTR         0.0540
    196 H80         9.6414    6.9512  -30.7036 H         1 DLE         0.1883
    197 H81         8.5281    5.4159  -28.5057 H         1 DLE         0.0800
    198 H82         7.5349    6.6277  -30.7854 H         1 DLE         0.0315
    199 H83         6.9571    7.7090  -29.4725 H         1 DLE         0.0315
    200 H84         6.1103    4.9636  -30.2493 H         1 DLE         0.0298
    201 H85         5.0001    4.5524  -28.1179 H         1 DLE         0.0232
    202 H86         5.8517    5.9621  -27.4010 H         1 DLE         0.0232
    203 H87         6.7899    4.5383  -27.9661 H         1 DLE         0.0232
    204 H88         4.9330    7.0326  -30.8826 H         1 DLE         0.0232
    205 H89         4.6748    7.3999  -29.1433 H         1 DLE         0.0232
    206 H90         3.9253    5.9400  -29.8739 H         1 DLE         0.0232
    207 H91         9.3368    8.8084  -29.1508 H         1 DCY         0.1884
    208 H92         8.4144    9.9583  -26.7155 H         1 DCY         0.0808
    209 H93         9.0053   11.2654  -28.7001 H         1 DCY         0.0432
    210 H94        10.7133   10.7249  -28.5691 H         1 DCY         0.0432
    211 H95        11.3951    8.3043  -27.6500 H         1 DAL         0.1883
    212 H96        12.8744    8.8871  -25.2394 H         1 DAL         0.0797
    213 H97        14.4437    7.1746  -26.0948 H         1 DAL         0.0277
    214 H98        13.9968    8.3754  -27.3537 H         1 DAL         0.0277
    215 H99        13.2564    6.7389  -27.3703 H         1 DAL         0.0277
    216 H100       10.7541    6.2703  -26.2903 H         1 DAL         0.1884
    217 H101       11.4199    4.4507  -24.1503 H         1 DAL         0.0813
    218 H102        9.4471    3.1907  -24.9489 H         1 DAL         0.0278
    219 H103       10.5466    3.6559  -26.2910 H         1 DAL         0.0278
    220 H104        9.0192    4.5633  -26.0256 H         1 DAL         0.0278
    221 O           9.0343    6.6205  -23.5778 O.3       1 NH2        -0.2910
    222 H105        9.2938    7.1734  -22.8501 H         1 NH2         0.2540
@<TRIPOS>BOND
     1    1    2 1  
     2    2    3 1  
     3    2    5 1  
     4    3    4 2  
     5    3   10 am 
     6    5    6 1  
     7    6    7 1  
     8    7    8 1  
     9    8    9 1  
    10   10   11 1  
    11   11   12 1  
    12   12   13 2  
    13   12   14 am 
    14   14   15 1  
    15   15   16 1  
    16   15   17 1  
    17   17   18 2  
    18   17   19 am 
    19   19   20 1  
    20   20   21 1  
    21   20   23 1  
    22   21   22 2  
    23   21   25 am 
    24   23   24 1  
    25   24  106 1  
    26   25   26 1  
    27   26   27 1  
    28   26   29 1  
    29   27   28 2  
    30   27   34 am 
    31   29   30 1  
    32   30   31 1  
    33   31   32 ar 
    34   31   33 ar 
    35   34   35 1  
    36   35   36 1  
    37   35   38 1  
    38   36   37 2  
    39   36   40 am 
    40   38   39 1  
    41   40   41 1  
    42   40   44 1  
    43   41   42 1  
    44   41   45 1  
    45   42   43 1  
    46   43   44 1  
    47   45   46 2  
    48   45   47 am 
    49   47   48 1  
    50   48   49 1  
    51   48   51 1  
    52   49   50 2  
    53   49   56 am 
    54   51   52 1  
    55   52   53 1  
    56   53   54 ar 
    57   53   55 ar 
    58   56   57 1  
    59   57   58 1  
    60   57   68 1  
    61   58   59 1  
    62   59   60 2  
    63   59   67 1  
    64   60   61 1  
    65   61   62 1  
    66   62   63 ar 
    67   62   67 ar 
    68   63   64 ar 
    69   64   65 ar 
    70   65   66 ar 
    71   66   67 ar 
    72   68   69 2  
    73   68   70 am 
    74   70   71 1  
    75   71   72 1  
    76   71   74 1  
    77   72   73 2  
    78   72   79 am 
    79   74   75 1  
    80   75   76 1  
    81   76   77 2  
    82   76   78 am 
    83   79   80 1  
    84   80   81 1  
    85   80   91 1  
    86   81   82 1  
    87   82   83 2  
    88   82   90 1  
    89   83   84 1  
    90   84   85 1  
    91   85   86 ar 
    92   85   90 ar 
    93   86   87 ar 
    94   87   88 ar 
    95   88   89 ar 
    96   89   90 ar 
    97   91   92 2  
    98   91   93 am 
    99   93   94 1  
   100   94   95 1  
   101   94   99 1  
   102   95   96 1  
   103   96   97 1  
   104   96   98 1  
   105   99  100 2  
   106   99  101 am 
   107  101  102 1  
   108  102  103 1  
   109  102  105 1  
   110  103  104 2  
   111  103  107 am 
   112  105  106 1  
   113  107  108 1  
   114  108  109 1  
   115  108  110 1  
   116  110  111 2  
   117  110  112 am 
   118  112  113 1  
   119  113  114 1  
   120  113  115 1  
   121  115  116 2  
   122    1  117 1  
   123    1  118 1  
   124    1  119 1  
   125    2  120 1  
   126    5  121 1  
   127    5  122 1  
   128    6  123 1  
   129    6  124 1  
   130    7  125 1  
   131    7  126 1  
   132    8  127 1  
   133    8  128 1  
   134    9  129 1  
   135    9  130 1  
   136    9  131 1  
   137   10  132 1  
   138   11  133 1  
   139   11  134 1  
   140   14  135 1  
   141   15  136 1  
   142   16  137 1  
   143   16  138 1  
   144   16  139 1  
   145   19  140 1  
   146   20  141 1  
   147   23  142 1  
   148   23  143 1  
   149   25  144 1  
   150   26  145 1  
   151   29  146 1  
   152   29  147 1  
   153   30  148 1  
   154   30  149 1  
   155   34  150 1  
   156   35  151 1  
   157   38  152 1  
   158   38  153 1  
   159   39  154 1  
   160   41  155 1  
   161   42  156 1  
   162   42  157 1  
   163   43  158 1  
   164   43  159 1  
   165   44  160 1  
   166   44  161 1  
   167   47  162 1  
   168   48  163 1  
   169   51  164 1  
   170   51  165 1  
   171   52  166 1  
   172   52  167 1  
   173   56  168 1  
   174   57  169 1  
   175   58  170 1  
   176   58  171 1  
   177   60  172 1  
   178   61  173 1  
   179   63  174 1  
   180   64  175 1  
   181   65  176 1  
   182   66  177 1  
   183   70  178 1  
   184   71  179 1  
   185   74  180 1  
   186   74  181 1  
   187   75  182 1  
   188   75  183 1  
   189   78  184 1  
   190   78  185 1  
   191   79  186 1  
   192   80  187 1  
   193   81  188 1  
   194   81  189 1  
   195   83  190 1  
   196   84  191 1  
   197   86  192 1  
   198   87  193 1  
   199   88  194 1  
   200   89  195 1  
   201   93  196 1  
   202   94  197 1  
   203   95  198 1  
   204   95  199 1  
   205   96  200 1  
   206   97  201 1  
   207   97  202 1  
   208   97  203 1  
   209   98  204 1  
   210   98  205 1  
   211   98  206 1  
   212  101  207 1  
   213  102  208 1  
   214  105  209 1  
   215  105  210 1  
   216  107  211 1  
   217  108  212 1  
   218  109  213 1  
   219  109  214 1  
   220  109  215 1  
   221  112  216 1  
   222  113  217 1  
   223  114  218 1  
   224  114  219 1  
   225  114  220 1  
   226  115  221 1  
   227  221  222 1  
@<TRIPOS>SUBSTRUCTURE
     1 DLY         1

