5f1x_ligand
  -I-interpret- 

 47 49  0  0  0  0  0  0  0  0999 V2000
   19.9070    1.4480    4.2260 P   0  0  0  0  0
   20.9430    2.2740    3.5130 O   0  0  0  0  0
   18.5870    2.1570    4.4700 O   0  0  0  0  0
   20.5480    0.7910    5.4320 O   0  0  0  0  0
   20.6600   -0.6880    2.4740 P   0  0  0  0  0
   20.6080   -0.6100    0.9490 O   0  0  0  0  0
   22.0540   -0.5400    2.9900 O   0  0  0  0  0
   19.5990    0.2500    3.2000 O   0  0  0  0  0
   19.0540   -3.1630    2.3790 P   0  0  0  0  0
   17.9790   -2.5030    1.5770 O   0  0  0  0  0
   19.7040   -4.3650    1.7210 O   0  0  0  0  0
   20.1310   -2.1270    3.0000 O   0  0  0  0  0
   18.3590   -3.6550    3.7150 O   0  0  0  0  0
   19.0430   -4.3280    4.7880 C   0  0  0  0  0
   18.0030   -4.8240    5.7970 C   0  0  0  0  0
   17.1270   -5.7650    5.1370 O   0  0  0  0  0
   18.6180   -5.5710    6.9760 C   0  0  0  0  0
   17.9740   -5.1570    8.1560 O   0  0  0  0  0
   18.2800   -7.0370    6.6450 C   0  0  0  0  0
   18.2770   -7.8240    7.8160 O   0  0  0  0  0
   16.9040   -6.8420    5.9880 C   0  0  0  0  0
   16.4070   -8.0540    5.2550 N   0  0  0  0  0
   16.9600   -8.6580    4.1780 C   0  0  0  0  0
   16.2160   -9.7090    3.8510 N   0  0  0  0  0
   15.1710   -9.7770    4.6760 C   0  0  0  0  0
   14.0580  -10.6360    4.8340 C   0  0  0  0  0
   13.9010  -11.7110    3.9640 N   0  0  0  0  0
   13.1750  -10.4180    5.8090 N   0  0  0  0  0
   13.3200   -9.3960    6.6410 C   0  0  0  0  0
   14.3400   -8.5640    6.5410 N   0  0  0  0  0
   15.2900   -8.7150    5.5970 C   0  0  0  0  0
   17.9860    1.5638    4.9266 H   0  0  0  0  0
   19.8928    0.2617    5.8926 H   0  0  0  0  0
   19.6993   -0.7088    0.6555 H   0  0  0  0  0
   20.3778   -4.7222    2.3041 H   0  0  0  0  0
   19.7343   -3.6407    5.2757 H   0  0  0  0  0
   19.6098   -5.1719    4.3947 H   0  0  0  0  0
   17.4870   -3.9385    6.1682 H   0  0  0  0  0
   19.6853   -5.4055    7.1232 H   0  0  0  0  0
   18.3532   -5.6211    8.9059 H   0  0  0  0  0
   18.9807   -7.5753    6.0067 H   0  0  0  0  0
   18.0647   -8.7323    7.5892 H   0  0  0  0  0
   16.1156   -6.6681    6.7203 H   0  0  0  0  0
   17.8656   -8.3358    3.6640 H   0  0  0  0  0
   14.5839  -11.8718    3.2236 H   0  0  0  0  0
   13.1031  -12.3380    4.0668 H   0  0  0  0  0
   12.5799   -9.2391    7.4257 H   0  0  0  0  0
  1  2  2  0  0  0
  1  3  1  0  0  0
  1  4  1  0  0  0
  8  1  1  0  0  0
  5  6  1  0  0  0
  5  7  2  0  0  0
  5  8  1  0  0  0
 12  5  1  0  0  0
  9 10  2  0  0  0
  9 11  1  0  0  0
  9 12  1  0  0  0
  9 13  1  0  0  0
 13 14  1  0  0  0
 14 15  1  0  0  0
 15 16  1  0  0  0
 15 17  1  0  0  0
 16 21  1  0  0  0
 17 18  1  0  0  0
 17 19  1  0  0  0
 19 20  1  0  0  0
 19 21  1  0  0  0
 21 22  1  0  0  0
 22 23  4  0  0  0
 22 31  4  0  0  0
 23 24  4  0  0  0
 24 25  4  0  0  0
 25 26  4  0  0  0
 25 31  4  0  0  0
 26 27  1  0  0  0
 26 28  4  0  0  0
 28 29  4  0  0  0
 29 30  4  0  0  0
 30 31  4  0  0  0
  3 32  1  0  0  0
  4 33  1  0  0  0
  6 34  1  0  0  0
 11 35  1  0  0  0
 14 36  1  0  0  0
 14 37  1  0  0  0
 15 38  1  0  0  0
 17 39  1  0  0  0
 18 40  1  0  0  0
 19 41  1  0  0  0
 20 42  1  0  0  0
 21 43  1  0  0  0
 23 44  1  0  0  0
 27 45  1  0  0  0
 27 46  1  0  0  0
 29 47  1  0  0  0
M  END
$$$$
