5ajc_ligand
  -I-interpret- 

108111  0  0  0  0  0  0  0  0999 V2000
   41.7660   64.5670   13.0440 C   0  0  0  0  0
   40.3830   64.5920   12.4590 C   0  0  0  0  0
   40.3250   63.8100   11.1660 C   0  0  0  0  0
   40.8130   62.3990   11.4350 C   0  0  0  0  0
   42.2260   62.4520   12.0010 C   0  0  0  0  0
   42.7720   61.0370   12.2120 C   0  0  0  0  0
   39.9500   65.9100   12.1690 O   0  0  0  0  0
   38.9970   63.8290   10.6250 O   0  0  0  0  0
   39.9580   61.7440   12.3560 O   0  0  0  0  0
   42.2000   63.2110   13.1900 O   0  0  0  0  0
   45.6330   66.1520   14.5160 C   0  0  0  0  0
   44.5860   65.2540   13.8360 C   0  0  0  0  0
   43.6990   66.0840   12.9330 C   0  0  0  0  0
   43.0730   67.2240   13.8320 C   0  0  0  0  0
   44.1440   68.0560   14.5530 C   0  0  0  0  0
   43.4750   68.9550   15.5780 C   0  0  0  0  0
   45.5780   63.0630   13.7090 C   0  0  0  0  0
   46.3710   62.0660   12.9430 C   0  0  0  0  0
   45.0310   67.2070   15.2890 O   0  0  0  0  0
   42.6860   65.3330   12.2640 O   0  0  0  0  0
   42.1330   67.9730   13.0880 O   0  0  0  0  0
   44.3060   70.1090   15.7340 O   0  0  0  0  0
   45.2500   62.7820   14.8690 O   0  0  0  0  0
   45.3090   64.2250   13.0940 N   0  0  0  0  0
   46.4450   66.7380   13.5400 O   0  0  0  0  0
   42.6320   68.9540   12.1140 C   0  0  0  0  0
   41.6450   69.0540   11.0040 C   0  0  0  0  0
   41.8770   70.2620   10.0730 C   0  0  0  0  0
   42.1690   71.5140   10.8960 C   0  0  0  0  0
   43.2630   71.2310   11.9140 C   0  0  0  0  0
   43.5830   72.4650   12.7290 C   0  0  0  0  0
   41.6400   67.8510   10.2120 O   0  0  0  0  0
   40.7290   70.4760    9.2580 O   0  0  0  0  0
   40.9460   71.9660   11.4830 O   0  0  0  0  0
   42.8450   70.1710   12.8200 O   0  0  0  0  0
   44.4910   72.1450   13.7900 O   0  0  0  0  0
   41.8280   71.4770    7.2980 C   0  0  0  0  0
   40.9260   70.3440    7.7820 C   0  0  0  0  0
   39.5410   70.4460    7.1260 C   0  0  0  0  0
   39.5360   69.9140    5.6950 C   0  0  0  0  0
   40.2440   68.5660    5.5780 C   0  0  0  0  0
   41.6430   68.7360    6.1020 C   0  0  0  0  0
   42.5490   67.5040    6.0690 C   0  0  0  0  0
   43.8430   67.7310    6.8120 C   0  0  0  0  0
   44.8220   66.5880    6.5730 C   0  0  0  0  0
   40.0740   66.8550    3.8240 C   0  0  0  0  0
   40.0060   66.5960    2.3540 C   0  0  0  0  0
   40.1560   68.1490    4.1640 N   0  0  0  0  0
   41.3490   72.6360    7.3200 O   0  0  0  0  0
   43.0380   71.2390    6.9920 O   0  0  0  0  0
   38.1920   69.8410    5.2760 O   0  0  0  0  0
   41.5600   69.0850    7.5060 O   0  0  0  0  0
   41.8490   66.4620    6.7560 O   0  0  0  0  0
   44.4610   68.9790    6.4210 O   0  0  0  0  0
   45.9710   66.8560    7.4170 O   0  0  0  0  0
   40.1120   65.9730    4.6430 O   0  0  0  0  0
   41.7350   65.0333   14.0287 H   0  0  0  0  0
   39.7340   64.1464   13.2128 H   0  0  0  0  0
   40.9720   64.2669   10.4171 H   0  0  0  0  0
   40.8100   61.8413   10.4985 H   0  0  0  0  0
   42.9051   62.9368   11.2996 H   0  0  0  0  0
   43.7916   61.0954   12.5928 H   0  0  0  0  0
   42.1441   60.5100   12.9304 H   0  0  0  0  0
   42.7675   60.5019   11.2624 H   0  0  0  0  0
   39.9741   66.4372   12.9709 H   0  0  0  0  0
   38.7286   64.7377   10.4704 H   0  0  0  0  0
   39.0681   61.7116   11.9975 H   0  0  0  0  0
   46.2110   65.5186   15.1889 H   0  0  0  0  0
   43.9330   64.7808   14.5693 H   0  0  0  0  0
   44.3027   66.4946   12.1237 H   0  0  0  0  0
   42.5141   66.7665   14.6484 H   0  0  0  0  0
   44.6872   68.6250   13.7986 H   0  0  0  0  0
   43.3589   68.4340   16.5283 H   0  0  0  0  0
   42.4778   69.2420   15.2445 H   0  0  0  0  0
   47.3094   61.8732   13.4629 H   0  0  0  0  0
   45.8035   61.1392   12.8592 H   0  0  0  0  0
   46.5795   62.4571   11.9472 H   0  0  0  0  0
   43.9112   70.7015   16.3779 H   0  0  0  0  0
   45.6028   64.3857   12.1305 H   0  0  0  0  0
   47.0989   67.2987   13.9638 H   0  0  0  0  0
   43.5792   68.6708   11.6550 H   0  0  0  0  0
   40.6798   69.1962   11.4900 H   0  0  0  0  0
   42.7346   70.0520    9.4338 H   0  0  0  0  0
   42.5502   72.3178   10.2662 H   0  0  0  0  0
   44.1527   70.9249   11.3637 H   0  0  0  0  0
   42.6600   72.8545   13.1586 H   0  0  0  0  0
   44.0457   73.2079   12.0793 H   0  0  0  0  0
   40.9976   67.9381    9.5039 H   0  0  0  0  0
   41.1147   72.7542   12.0044 H   0  0  0  0  0
   44.6826   72.9381   14.2958 H   0  0  0  0  0
   39.2580   71.4982    7.0962 H   0  0  0  0  0
   38.8447   69.8460    7.7119 H   0  0  0  0  0
   40.0957   70.5882    5.0467 H   0  0  0  0  0
   39.7905   67.7716    6.1708 H   0  0  0  0  0
   42.0797   69.4844    5.4407 H   0  0  0  0  0
   42.7830   67.2663    5.0313 H   0  0  0  0  0
   43.5979   67.7745    7.8732 H   0  0  0  0  0
   45.1103   66.5306    5.5234 H   0  0  0  0  0
   44.3706   65.6264    6.8175 H   0  0  0  0  0
   40.8831   66.0271    2.0457 H   0  0  0  0  0
   39.1043   66.0269    2.1280 H   0  0  0  0  0
   39.9812   67.5458    1.8198 H   0  0  0  0  0
   40.1577   68.8593    3.4320 H   0  0  0  0  0
   43.1981   70.2935    7.0366 H   0  0  0  0  0
   38.1561   69.5085    4.3761 H   0  0  0  0  0
   42.3852   65.6657    6.7588 H   0  0  0  0  0
   45.2797   69.0959    6.9085 H   0  0  0  0  0
   46.6210   66.1590    7.3015 H   0  0  0  0  0
  1  2  1  0  0  0
  1 10  1  0  0  0
 20  1  1  0  0  0
  2  3  1  0  0  0
  2  7  1  0  0  0
  3  4  1  0  0  0
  3  8  1  0  0  0
  5  4  1  0  0  0
  4  9  1  0  0  0
  5  6  1  0  0  0
 10  5  1  0  0  0
 12 11  1  0  0  0
 19 11  1  0  0  0
 11 25  1  0  0  0
 13 12  1  0  0  0
 12 24  1  0  0  0
 14 13  1  0  0  0
 13 20  1  0  0  0
 14 15  1  0  0  0
 21 14  1  0  0  0
 15 16  1  0  0  0
 15 19  1  0  0  0
 16 22  1  0  0  0
 17 18  1  0  0  0
 17 23  2  0  0  0
 24 17  1  0  0  0
 26 21  1  0  0  0
 27 26  1  0  0  0
 26 35  1  0  0  0
 28 27  1  0  0  0
 27 32  1  0  0  0
 28 29  1  0  0  0
 33 28  1  0  0  0
 29 30  1  0  0  0
 29 34  1  0  0  0
 30 31  1  0  0  0
 30 35  1  0  0  0
 31 36  1  0  0  0
 38 33  1  0  0  0
 38 37  1  0  0  0
 37 49  2  0  0  0
 37 50  1  0  0  0
 39 38  1  0  0  0
 52 38  1  0  0  0
 40 39  1  0  0  0
 41 40  1  0  0  0
 40 51  1  0  0  0
 41 42  1  0  0  0
 48 41  1  0  0  0
 42 43  1  0  0  0
 42 52  1  0  0  0
 43 44  1  0  0  0
 43 53  1  0  0  0
 44 45  1  0  0  0
 44 54  1  0  0  0
 45 55  1  0  0  0
 46 47  1  0  0  0
 46 48  1  0  0  0
 46 56  2  0  0  0
  1 57  1  0  0  0
  2 58  1  0  0  0
  3 59  1  0  0  0
  4 60  1  0  0  0
  5 61  1  0  0  0
  6 62  1  0  0  0
  6 63  1  0  0  0
  6 64  1  0  0  0
  7 65  1  0  0  0
  8 66  1  0  0  0
  9 67  1  0  0  0
 11 68  1  0  0  0
 12 69  1  0  0  0
 13 70  1  0  0  0
 14 71  1  0  0  0
 15 72  1  0  0  0
 16 73  1  0  0  0
 16 74  1  0  0  0
 18 75  1  0  0  0
 18 76  1  0  0  0
 18 77  1  0  0  0
 22 78  1  0  0  0
 24 79  1  0  0  0
 25 80  1  0  0  0
 26 81  1  0  0  0
 27 82  1  0  0  0
 28 83  1  0  0  0
 29 84  1  0  0  0
 30 85  1  0  0  0
 31 86  1  0  0  0
 31 87  1  0  0  0
 32 88  1  0  0  0
 34 89  1  0  0  0
 36 90  1  0  0  0
 39 91  1  0  0  0
 39 92  1  0  0  0
 40 93  1  0  0  0
 41 94  1  0  0  0
 42 95  1  0  0  0
 43 96  1  0  0  0
 44 97  1  0  0  0
 45 98  1  0  0  0
 45 99  1  0  0  0
 47100  1  0  0  0
 47101  1  0  0  0
 47102  1  0  0  0
 48103  1  0  0  0
 50104  1  0  0  0
 51105  1  0  0  0
 53106  1  0  0  0
 54107  1  0  0  0
 55108  1  0  0  0
M  END
$$$$
