2vnt_ligand
  -I-interpret- 

 42 44  0  0  0  0  0  0  0  0999 V2000
  -40.9210  177.4850   70.2010 N   0  0  0  0  0
  -40.7980  176.3480   69.4720 C   0  0  0  0  0
  -40.2510  175.2830   69.9750 N   0  0  0  0  0
  -39.8180  175.1510   71.2640 C   0  0  0  0  0
  -40.2230  175.9580   72.2200 N   0  0  0  0  0
  -39.8550  175.8330   73.4880 C   0  0  0  0  0
  -39.0350  174.8050   73.8810 C   0  0  0  0  0
  -38.5660  174.6890   75.5150 Cl  0  0  0  0  0
  -38.5440  173.8570   72.9590 C   0  0  0  0  0
  -37.6860  172.7860   73.3360 C   0  0  0  0  0
  -37.2630  171.9350   72.3950 C   0  0  0  0  0
  -37.6400  172.1200   71.0650 C   0  0  0  0  0
  -38.4680  173.1250   70.6660 C   0  0  0  0  0
  -38.9290  174.0240   71.6130 C   0  0  0  0  0
  -36.9920  171.0050   69.8890 S   0  0  0  0  0
  -37.2850  171.4480   68.5580 O   0  0  0  0  0
  -35.7080  170.9240   70.3800 O   0  0  0  0  0
  -37.8400  169.5680   70.1460 N   0  0  0  0  0
  -37.4950  168.4640   71.0630 C   0  0  0  0  0
  -38.8610  167.8720   71.4960 C   0  0  0  0  0
  -39.7580  168.0070   70.2380 C   0  0  0  0  0
  -39.1120  169.2010   69.5140 C   0  0  0  0  0
  -38.8990  168.8190   68.0830 C   0  0  0  0  0
  -37.9160  168.2270   67.6480 O   0  0  0  0  0
  -39.8930  169.1860   67.2920 O   0  0  0  0  0
  -41.1920  176.2670   68.1890 N   0  0  0  0  0
  -41.3250  178.3207   69.7782 H   0  0  0  0  0
  -40.6095  177.5044   71.1721 H   0  0  0  0  0
  -40.1352  174.4796   69.3574 H   0  0  0  0  0
  -40.2074  176.5541   74.2256 H   0  0  0  0  0
  -37.3787  172.6614   74.3743 H   0  0  0  0  0
  -36.6229  171.0959   72.6678 H   0  0  0  0  0
  -38.7623  173.2199   69.6208 H   0  0  0  0  0
  -36.9127  168.8108   71.9167 H   0  0  0  0  0
  -36.8622  167.7181   70.5821 H   0  0  0  0  0
  -39.2799  168.3961   72.3550 H   0  0  0  0  0
  -38.7720  166.8368   71.8255 H   0  0  0  0  0
  -40.8112  168.1616   70.4724 H   0  0  0  0  0
  -39.7929  167.1014   69.6324 H   0  0  0  0  0
  -39.7676  170.0697   69.5751 H   0  0  0  0  0
  -40.5655  169.6327   67.8114 H   0  0  0  0  0
  -41.0544  175.4016   67.6669 H   0  0  0  0  0
  1  2  1  0  0  0
  2  3  1  0  0  0
  2 26  2  0  0  0
  3  4  1  0  0  0
  4  5  4  0  0  0
  4 14  4  0  0  0
  5  6  4  0  0  0
  6  7  4  0  0  0
  7  8  1  0  0  0
  7  9  4  0  0  0
  9 10  4  0  0  0
  9 14  4  0  0  0
 10 11  4  0  0  0
 11 12  4  0  0  0
 12 13  4  0  0  0
 12 15  1  0  0  0
 13 14  4  0  0  0
 15 16  2  0  0  0
 15 17  2  0  0  0
 15 18  1  0  0  0
 18 19  1  0  0  0
 18 22  1  0  0  0
 19 20  1  0  0  0
 20 21  1  0  0  0
 21 22  1  0  0  0
 22 23  1  0  0  0
 23 24  2  0  0  0
 23 25  1  0  0  0
  1 27  1  0  0  0
  1 28  1  0  0  0
  3 29  1  0  0  0
  6 30  1  0  0  0
 10 31  1  0  0  0
 11 32  1  0  0  0
 13 33  1  0  0  0
 19 34  1  0  0  0
 19 35  1  0  0  0
 20 36  1  0  0  0
 20 37  1  0  0  0
 21 38  1  0  0  0
 21 39  1  0  0  0
 22 40  1  0  0  0
 25 41  1  0  0  0
 26 42  1  0  0  0
M  END
$$$$
