5uga_ligand
  -I-interpret- 

 71 75  0  0  0  0  0  0  0  0999 V2000
   13.9160   -6.8930  -29.8980 C   0  0  0  0  0
   14.3600   -5.7970  -30.8600 C   0  0  0  0  0
   14.0430   -6.3550  -32.2590 C   0  0  0  0  0
   14.2820   -7.8550  -32.0810 C   0  0  0  0  0
   12.0700   -4.9410  -32.8810 C   0  0  0  0  0
   15.3630   -2.1440  -32.7280 C   0  0  0  0  0
   17.2270   -0.4790  -32.6100 C   0  0  0  0  0
   19.0830    1.2010  -32.4160 C   0  0  0  0  0
   20.3330    1.2970  -31.5350 C   0  0  0  0  0
   22.6390    0.3890  -31.2490 C   0  0  0  0  0
   19.5790   -1.0790  -33.0450 C   0  0  0  0  0
   13.5250  -10.5560  -31.0190 C   0  0  0  0  0
   13.5210   -9.3450  -30.1140 C   0  0  0  0  0
   13.2030   -9.4680  -28.9230 O   0  0  0  0  0
   13.8870   -8.1220  -30.6870 N   0  0  0  0  0
   12.6430   -6.1870  -32.6430 N   0  0  0  0  0
   12.8360   -3.8020  -32.9420 N   0  0  0  0  0
   12.2760   -2.5560  -33.1770 C   0  0  0  0  0
   13.0300   -1.3790  -33.2350 N   0  0  0  0  0
   14.4100   -1.1390  -33.0530 C   0  0  0  0  0
   16.7270   -1.8210  -32.5120 C   0  0  0  0  0
   16.2520    0.5220  -32.9540 C   0  0  0  0  0
   14.8810    0.2000  -33.1700 C   0  0  0  0  0
   18.5960   -0.1960  -32.3470 N   0  0  0  0  0
   21.3910    0.3470  -32.0810 N   0  3  0  0  0
   20.8600   -1.0890  -32.1890 C   0  0  0  0  0
   10.8690   -2.5100  -33.3470 C   0  0  0  0  0
    9.9950   -1.4820  -33.5800 N   0  0  0  0  0
    8.8070   -2.0600  -33.6310 C   0  0  0  0  0
    8.8710   -3.4250  -33.4420 N   0  0  0  0  0
    7.7920   -4.4320  -33.4210 C   0  0  0  0  0
    7.7400   -5.2280  -34.7330 C   0  0  0  0  0
    6.3960   -3.8390  -33.1550 C   0  0  0  0  0
   10.1900   -3.7240  -33.2600 C   0  0  0  0  0
   10.7200   -4.9480  -33.0370 N   0  0  0  0  0
   12.9389   -6.6731  -29.4679 H   0  0  0  0  0
   14.5973   -6.9795  -29.0515 H   0  0  0  0  0
   15.4177   -5.5596  -30.7464 H   0  0  0  0  0
   13.8442   -4.8556  -30.6707 H   0  0  0  0  0
   14.6383   -5.8520  -33.0210 H   0  0  0  0  0
   15.3183   -8.1318  -32.2747 H   0  0  0  0  0
   13.7083   -8.4497  -32.7918 H   0  0  0  0  0
   15.0389   -3.1813  -32.6434 H   0  0  0  0  0
   19.3201    1.4717  -33.4449 H   0  0  0  0  0
   18.3151    1.8902  -32.0646 H   0  0  0  0  0
   20.0845    1.0238  -30.5095 H   0  0  0  0  0
   20.7136    2.3184  -31.5431 H   0  0  0  0  0
   23.0436    1.4011  -31.2540 H   0  0  0  0  0
   22.4023    0.0961  -30.2261 H   0  0  0  0  0
   23.3745   -0.2998  -31.6646 H   0  0  0  0  0
   19.7877   -0.7074  -34.0482 H   0  0  0  0  0
   19.1810   -2.0876  -33.1565 H   0  0  0  0  0
   14.2257  -11.2955  -30.6312 H   0  0  0  0  0
   12.5238  -10.9854  -31.0536 H   0  0  0  0  0
   13.8285  -10.2572  -32.0223 H   0  0  0  0  0
   12.0606   -7.0187  -32.7408 H   0  0  0  0  0
   12.4848   -0.5434  -33.4470 H   0  0  0  0  0
   17.4222   -2.6224  -32.2620 H   0  0  0  0  0
   16.5725    1.5592  -33.0524 H   0  0  0  0  0
   14.1797    0.9930  -33.4296 H   0  0  0  0  0
   21.6242    0.6641  -33.0220 H   0  0  0  0  0
   21.6111   -1.7275  -32.6541 H   0  0  0  0  0
   20.6381   -1.4774  -31.1950 H   0  0  0  0  0
    7.8778   -1.5169  -33.8036 H   0  0  0  0  0
    8.0426   -5.0889  -32.5881 H   0  0  0  0  0
    7.5599   -4.5456  -35.5636 H   0  0  0  0  0
    8.6896   -5.7418  -34.8826 H   0  0  0  0  0
    6.9338   -5.9597  -34.6809 H   0  0  0  0  0
    6.3933   -3.3397  -32.1861 H   0  0  0  0  0
    6.1534   -3.1192  -33.9367 H   0  0  0  0  0
    5.6565   -4.6398  -33.1546 H   0  0  0  0  0
  2  1  1  0  0  0
 15  1  1  0  0  0
  3  2  1  0  0  0
  3  4  1  0  0  0
 16  3  1  0  0  0
  4 15  1  0  0  0
  5 16  1  0  0  0
 17  5  4  0  0  0
  5 35  4  0  0  0
 20  6  4  0  0  0
  6 21  4  0  0  0
 21  7  4  0  0  0
  7 22  4  0  0  0
  7 24  1  0  0  0
  8  9  1  0  0  0
 24  8  1  0  0  0
  9 25  1  0  0  0
 25 10  1  0  0  0
 24 11  1  0  0  0
 11 26  1  0  0  0
 13 12  1  0  0  0
 13 14  2  0  0  0
 15 13  1  0  0  0
 18 17  4  0  0  0
 19 18  1  0  0  0
 18 27  4  0  0  0
 19 20  1  0  0  0
 20 23  4  0  0  0
 22 23  4  0  0  0
 25 26  1  0  0  0
 27 28  4  0  0  0
 27 34  4  0  0  0
 28 29  4  0  0  0
 29 30  4  0  0  0
 30 31  1  0  0  0
 30 34  4  0  0  0
 31 32  1  0  0  0
 31 33  1  0  0  0
 34 35  4  0  0  0
  1 36  1  0  0  0
  1 37  1  0  0  0
  2 38  1  0  0  0
  2 39  1  0  0  0
  3 40  1  0  0  0
  4 41  1  0  0  0
  4 42  1  0  0  0
  6 43  1  0  0  0
  8 44  1  0  0  0
  8 45  1  0  0  0
  9 46  1  0  0  0
  9 47  1  0  0  0
 10 48  1  0  0  0
 10 49  1  0  0  0
 10 50  1  0  0  0
 11 51  1  0  0  0
 11 52  1  0  0  0
 12 53  1  0  0  0
 12 54  1  0  0  0
 12 55  1  0  0  0
 16 56  1  0  0  0
 19 57  1  0  0  0
 21 58  1  0  0  0
 22 59  1  0  0  0
 23 60  1  0  0  0
 25 61  1  0  0  0
 26 62  1  0  0  0
 26 63  1  0  0  0
 29 64  1  0  0  0
 31 65  1  0  0  0
 32 66  1  0  0  0
 32 67  1  0  0  0
 32 68  1  0  0  0
 33 69  1  0  0  0
 33 70  1  0  0  0
 33 71  1  0  0  0
M  END
$$$$
