4azy_ligand
  -I-interpret- 

 48 52  0  0  0  0  0  0  0  0999 V2000
    8.2810    3.0250  -18.2660 C   0  0  0  0  0
    7.7380    2.6200  -19.4940 C   0  0  0  0  0
    6.3820    2.8480  -19.7560 C   0  0  0  0  0
    5.5500    3.3770  -18.7610 C   0  0  0  0  0
    6.0860    3.7580  -17.5170 C   0  0  0  0  0
    7.4590    3.5860  -17.2770 C   0  0  0  0  0
    5.2880    4.3430  -16.5850 F   0  0  0  0  0
    4.1840    3.3980  -19.3330 C   0  0  0  0  0
    4.1810    2.9500  -20.5440 N   0  0  0  0  0
    5.5350    2.5630  -20.9970 C   0  0  0  0  0
    5.7060    1.0900  -21.3190 C   0  0  0  0  0
    6.5160    0.6550  -22.3850 C   0  0  0  0  0
    6.7180   -0.7030  -22.6130 C   0  0  0  0  0
    6.1280   -1.6380  -21.7650 C   0  0  0  0  0
    5.3320   -1.2260  -20.6780 C   0  0  0  0  0
    5.1550    0.1470  -20.4700 C   0  0  0  0  0
    4.7120   -2.2120  -19.7110 C   0  0  0  0  0
    5.4520   -3.2990  -19.1640 C   0  0  0  0  0
    4.8990   -4.1080  -18.2490 N   0  0  0  0  0
    3.6430   -3.8390  -17.8710 C   0  0  0  0  0
    2.8710   -2.8480  -18.3160 N   0  0  0  0  0
    3.3860   -2.0400  -19.2450 C   0  0  0  0  0
    6.3350   -2.9450  -21.9610 F   0  0  0  0  0
    5.8660    3.4360  -22.2120 C   0  0  0  0  0
    7.0800    4.1420  -22.3190 C   0  0  0  0  0
    7.3370    4.9510  -23.4270 C   0  0  0  0  0
    6.5180    5.0190  -24.4600 N   0  0  0  0  0
    5.3740    4.3420  -24.3950 C   0  0  0  0  0
    4.9830    3.5540  -23.3080 C   0  0  0  0  0
    4.4350    4.4930  -25.5640 C   0  0  0  0  0
    4.9410    3.8260  -26.6580 F   0  0  0  0  0
    3.1810    3.9740  -25.3000 F   0  0  0  0  0
    4.2250    5.8190  -25.8810 F   0  0  0  0  0
    3.0540    3.8180  -18.6680 N   0  0  0  0  0
    9.3479    2.9032  -18.0788 H   0  0  0  0  0
    8.3668    2.1316  -20.2384 H   0  0  0  0  0
    7.8866    3.8887  -16.3212 H   0  0  0  0  0
    3.3433    2.8721  -21.1207 H   0  0  0  0  0
    6.9893    1.3884  -23.0378 H   0  0  0  0  0
    7.3338   -1.0330  -23.4496 H   0  0  0  0  0
    4.5669    0.4822  -19.6157 H   0  0  0  0  0
    6.4765   -3.4747  -19.4920 H   0  0  0  0  0
    3.2066   -4.4991  -17.1214 H   0  0  0  0  0
    2.7755   -1.2339  -19.6520 H   0  0  0  0  0
    7.8260    4.0558  -21.5290 H   0  0  0  0  0
    8.2482    5.5491  -23.4398 H   0  0  0  0  0
    4.0201    3.0432  -23.3066 H   0  0  0  0  0
    2.1468    3.7853  -19.1330 H   0  0  0  0  0
  1  2  4  0  0  0
  1  6  4  0  0  0
  2  3  4  0  0  0
  3  4  4  0  0  0
  3 10  1  0  0  0
  4  5  4  0  0  0
  4  8  1  0  0  0
  5  6  4  0  0  0
  5  7  1  0  0  0
  8  9  1  0  0  0
  8 34  2  0  0  0
  9 10  1  0  0  0
 10 11  1  0  0  0
 10 24  1  0  0  0
 11 12  4  0  0  0
 11 16  4  0  0  0
 12 13  4  0  0  0
 13 14  4  0  0  0
 14 15  4  0  0  0
 14 23  1  0  0  0
 15 16  4  0  0  0
 15 17  1  0  0  0
 17 18  4  0  0  0
 17 22  4  0  0  0
 18 19  4  0  0  0
 19 20  4  0  0  0
 20 21  4  0  0  0
 21 22  4  0  0  0
 24 25  4  0  0  0
 24 29  4  0  0  0
 25 26  4  0  0  0
 26 27  4  0  0  0
 27 28  4  0  0  0
 28 29  4  0  0  0
 28 30  1  0  0  0
 30 31  1  0  0  0
 30 32  1  0  0  0
 30 33  1  0  0  0
  1 35  1  0  0  0
  2 36  1  0  0  0
  6 37  1  0  0  0
  9 38  1  0  0  0
 12 39  1  0  0  0
 13 40  1  0  0  0
 16 41  1  0  0  0
 18 42  1  0  0  0
 20 43  1  0  0  0
 22 44  1  0  0  0
 25 45  1  0  0  0
 26 46  1  0  0  0
 29 47  1  0  0  0
 34 48  1  0  0  0
M  END
$$$$
