4fgz_ligand
  -I-interpret- 

 48 50  0  0  0  0  0  0  0  0999 V2000
   34.8920   33.0530   33.7470 C   0  0  0  0  0
   34.6940   34.3690   33.2220 C   0  0  0  0  0
   33.9390   34.5470   32.0610 C   0  0  0  0  0
   33.3960   33.3950   31.4040 C   0  0  0  0  0
   33.6020   32.1170   31.8980 C   0  0  0  0  0
   34.3510   31.9400   33.0920 C   0  0  0  0  0
   32.6200   33.5560   30.2110 C   0  0  0  0  0
   32.0730   32.4050   29.5670 C   0  0  0  0  0
   32.2990   31.1280   30.1170 C   0  0  0  0  0
   33.0530   31.0080   31.2360 N   0  0  0  0  0
   35.8210   32.8670   35.2060 Cl  0  0  0  0  0
   32.4120   34.9200   29.6910 N   0  0  0  0  0
   31.4130   35.1600   28.6460 C   0  0  0  0  0
   30.0470   34.8890   28.9370 C   0  0  0  0  0
   29.0820   35.1210   27.9460 C   0  0  0  0  0
   29.4770   35.6250   26.6860 C   0  0  0  0  0
   30.8260   35.8970   26.4040 C   0  0  0  0  0
   31.8140   35.6660   27.4080 C   0  0  0  0  0
   28.5280   35.8590   25.6890 O   0  0  0  0  0
   31.1970   36.4520   25.0140 C   0  0  0  0  0
   31.3150   37.9300   24.8780 N   0  3  0  0  0
   30.3750   38.6930   25.6870 C   0  0  0  0  0
   30.9470   39.3960   26.8730 C   0  0  0  0  0
   31.4210   38.4360   23.4950 C   0  0  0  0  0
   30.9920   39.8530   23.2100 C   0  0  0  0  0
   35.1313   35.2303   33.7269 H   0  0  0  0  0
   33.7655   35.5460   31.6609 H   0  0  0  0  0
   34.5042   30.9399   33.4974 H   0  0  0  0  0
   31.4845   32.5137   28.6560 H   0  0  0  0  0
   31.8705   30.2434   29.6459 H   0  0  0  0  0
   32.9630   35.6958   30.0583 H   0  0  0  0  0
   29.7549   34.5069   29.9151 H   0  0  0  0  0
   28.0310   34.9133   28.1469 H   0  0  0  0  0
   32.8643   35.8811   27.2114 H   0  0  0  0  0
   28.9662   36.1978   24.9049 H   0  0  0  0  0
   30.3820   36.1590   24.3522 H   0  0  0  0  0
   32.1879   36.0553   24.7928 H   0  0  0  0  0
   32.2332   38.1071   25.2854 H   0  0  0  0  0
   29.6549   37.9737   26.0771 H   0  0  0  0  0
   29.9738   39.4701   25.0364 H   0  0  0  0  0
   31.3988   38.6653   27.5439 H   0  0  0  0  0
   31.7057   40.1053   26.5423 H   0  0  0  0  0
   30.1528   39.9289   27.3958 H   0  0  0  0  0
   30.7446   37.8116   22.9114 H   0  0  0  0  0
   32.4858   38.4096   23.2637 H   0  0  0  0  0
   29.9401   39.9720   23.4697 H   0  0  0  0  0
   31.5943   40.5401   23.8043 H   0  0  0  0  0
   31.1326   40.0677   22.1506 H   0  0  0  0  0
  1  2  4  0  0  0
  1  6  4  0  0  0
  1 11  1  0  0  0
  2  3  4  0  0  0
  3  4  4  0  0  0
  4  5  4  0  0  0
  4  7  4  0  0  0
  5  6  4  0  0  0
  5 10  4  0  0  0
  7  8  4  0  0  0
  7 12  1  0  0  0
  8  9  4  0  0  0
  9 10  4  0  0  0
 12 13  1  0  0  0
 13 14  4  0  0  0
 13 18  4  0  0  0
 14 15  4  0  0  0
 15 16  4  0  0  0
 16 17  4  0  0  0
 16 19  1  0  0  0
 17 18  4  0  0  0
 17 20  1  0  0  0
 20 21  1  0  0  0
 21 22  1  0  0  0
 21 24  1  0  0  0
 22 23  1  0  0  0
 24 25  1  0  0  0
  2 26  1  0  0  0
  3 27  1  0  0  0
  6 28  1  0  0  0
  8 29  1  0  0  0
  9 30  1  0  0  0
 12 31  1  0  0  0
 14 32  1  0  0  0
 15 33  1  0  0  0
 18 34  1  0  0  0
 19 35  1  0  0  0
 20 36  1  0  0  0
 20 37  1  0  0  0
 21 38  1  0  0  0
 22 39  1  0  0  0
 22 40  1  0  0  0
 23 41  1  0  0  0
 23 42  1  0  0  0
 23 43  1  0  0  0
 24 44  1  0  0  0
 24 45  1  0  0  0
 25 46  1  0  0  0
 25 47  1  0  0  0
 25 48  1  0  0  0
M  END
$$$$
