4zga_ligand
  -I-interpret- 

 42 46  0  0  0  0  0  0  0  0999 V2000
    6.0280   65.5840   24.2120 C   0  0  0  0  0
    6.5860   67.9850   26.7330 C   0  0  0  0  0
    7.7220   67.9390   23.6160 O   0  0  0  0  0
    7.1890   67.7570   24.7580 C   0  0  0  0  0
    7.3330   68.6000   25.8090 N   0  0  0  0  0
    6.4240   68.4910   27.8980 O   0  0  0  0  0
    5.8590   66.7620   26.4030 C   0  0  0  0  0
    6.0990   65.6280   27.3720 C   0  0  0  0  0
    6.0830   64.3910   26.5520 C   0  0  0  0  0
    6.1050   63.0100   27.0180 C   0  0  0  0  0
    6.1260   62.4390   28.2840 C   0  0  0  0  0
    6.1210   61.0530   28.3740 C   0  0  0  0  0
    6.1230   60.2490   27.2320 C   0  0  0  0  0
    6.1140   60.8050   25.9520 C   0  0  0  0  0
    6.0970   62.2020   25.7920 C   0  0  0  0  0
    6.4290   66.7110   25.0300 N   0  0  0  0  0
    6.0670   64.3450   25.0960 C   0  0  0  0  0
    6.0650   63.0480   24.7310 N   0  0  0  0  0
    6.0870   62.5800   23.3410 C   0  0  0  0  0
    4.7340   62.3860   22.7710 C   0  0  0  0  0
    4.0760   61.1770   22.9700 C   0  0  0  0  0
    2.8170   60.9940   22.4270 C   0  0  0  0  0
    4.1550   63.4150   22.0470 C   0  0  0  0  0
    2.8960   63.2220   21.5070 C   0  0  0  0  0
    2.2340   62.0260   21.7000 C   0  0  0  0  0
    1.0170   61.8510   21.1650 F   0  0  0  0  0
    6.7012   65.4692   23.3625 H   0  0  0  0  0
    5.0253   65.7382   23.8134 H   0  0  0  0  0
    7.8657   69.4672   25.8772 H   0  0  0  0  0
    4.7719   66.7071   26.4612 H   0  0  0  0  0
    5.3354   65.6002   28.1494 H   0  0  0  0  0
    7.0475   65.7461   27.8960 H   0  0  0  0  0
    6.1458   63.0598   29.1797 H   0  0  0  0  0
    6.1154   60.5826   29.3572 H   0  0  0  0  0
    6.1318   59.1647   27.3428 H   0  0  0  0  0
    6.1201   60.1563   25.0761 H   0  0  0  0  0
    6.5944   61.6154   23.3246 H   0  0  0  0  0
    6.5918   63.3396   22.7440 H   0  0  0  0  0
    4.5474   60.3820   23.5478 H   0  0  0  0  0
    2.2879   60.0514   22.5674 H   0  0  0  0  0
    4.6813   64.3590   21.9054 H   0  0  0  0  0
    2.4255   64.0164   20.9276 H   0  0  0  0  0
 16  1  1  0  0  0
  1 17  1  0  0  0
  5  2  1  0  0  0
  2  6  2  0  0  0
  2  7  1  0  0  0
  4  3  2  0  0  0
  4  5  1  0  0  0
  4 16  1  0  0  0
  7  8  1  0  0  0
  7 16  1  0  0  0
  8  9  1  0  0  0
  9 10  4  0  0  0
  9 17  4  0  0  0
 10 11  4  0  0  0
 10 15  4  0  0  0
 11 12  4  0  0  0
 12 13  4  0  0  0
 13 14  4  0  0  0
 14 15  4  0  0  0
 15 18  4  0  0  0
 17 18  4  0  0  0
 18 19  1  0  0  0
 19 20  1  0  0  0
 20 21  4  0  0  0
 20 23  4  0  0  0
 21 22  4  0  0  0
 22 25  4  0  0  0
 23 24  4  0  0  0
 24 25  4  0  0  0
 25 26  1  0  0  0
  1 27  1  0  0  0
  1 28  1  0  0  0
  5 29  1  0  0  0
  7 30  1  0  0  0
  8 31  1  0  0  0
  8 32  1  0  0  0
 11 33  1  0  0  0
 12 34  1  0  0  0
 13 35  1  0  0  0
 14 36  1  0  0  0
 19 37  1  0  0  0
 19 38  1  0  0  0
 21 39  1  0  0  0
 22 40  1  0  0  0
 23 41  1  0  0  0
 24 42  1  0  0  0
M  END
$$$$
