### 
### Created by X-TOOL on Wed Jan  1 15:39:35 2020
### 

@<TRIPOS>MOLECULE
5wgd_ligand
  198   200     1     0     0
SMALL
GAST_HUCK


@<TRIPOS>ATOM
      1 C          68.3800   22.5180   63.3340 C.2       1 ACE         0.1752
      2 O          69.4170   23.1350   63.1660 O.2       1 ACE        -0.3972
      3 CH3        68.2310   21.5790   64.5070 C.3       1 ACE         0.0258
      4 N          67.3390   22.6780   62.5310 N.am      1 HIS        -0.2640
      5 CA         66.0600   21.9850   62.7040 C.3       1 HIS         0.1420
      6 C          66.2350   20.5020   62.3060 C.2       1 HIS         0.2060
      7 O          67.1370   20.1530   61.5900 O.2       1 HIS        -0.3942
      8 CB         64.9200   22.6990   61.9530 C.3       1 HIS         0.0427
      9 CG         64.4600   24.0270   62.5910 C.2       1 HIS         0.0561
     10 ND1        64.7450   25.2410   62.1260 N.pl3     1 HIS        -0.2623
     11 CD2        63.7020   24.1350   63.6610 C.2       1 HIS        -0.0276
     12 CE1        64.1800   26.1090   62.9230 C.2       1 HIS         0.0875
     13 NE2        63.5450   25.4380   63.8480 N.2       1 HIS        -0.3437
     14 N          65.4110   19.6640   62.8920 N.am      1 LYS        -0.2636
     15 CA         65.3670   18.2530   62.6320 C.3       1 LYS         0.1310
     16 C          65.3490   17.9450   61.1440 C.2       1 LYS         0.2039
     17 O          64.7840   18.6750   60.3740 O.2       1 LYS        -0.3944
     18 CB         64.0640   17.7390   63.2120 C.3       1 LYS        -0.0122
     19 CG         63.9370   18.0440   64.6980 C.3       1 LYS        -0.0440
     20 CD         62.6920   17.4580   65.2940 C.3       1 LYS        -0.0124
     21 CE         62.8220   17.4450   66.7810 C.3       1 LYS        -0.0354
     22 NZ         61.5670   17.1990   67.4620 N.4       1 LYS         0.2185
     23 N          65.9240   16.8180   60.7990 N.am      1 ILE        -0.2635
     24 CA         65.9410   16.4370   59.3980 C.3       1 ILE         0.1335
     25 C          64.5170   16.1740   58.8740 C.2       1 ILE         0.2042
     26 O          64.2480   16.4150   57.7420 O.2       1 ILE        -0.3944
     27 CB         67.0010   15.4050   58.9530 C.3       1 ILE        -0.0037
     28 CG1        68.0560   15.1180   60.0020 C.3       1 ILE        -0.0491
     29 CG2        66.4610   14.1750   58.2870 C.3       1 ILE        -0.0582
     30 CD1        69.0740   14.1760   59.4400 C.3       1 ILE        -0.0648
     31 N          63.6510   15.6850   59.7270 N.am      1 LEU        -0.2637
     32 CA         62.2410   15.4160   59.3520 C.3       1 LEU         0.1312
     33 C          61.6090   16.7360   58.9370 C.2       1 LEU         0.2040
     34 O          60.8500   16.8210   58.0250 O.2       1 LEU        -0.3944
     35 CB         61.5430   14.9520   60.5980 C.3       1 LEU        -0.0101
     36 CG         60.4350   13.9780   60.4050 C.3       1 LEU        -0.0425
     37 CD1        59.5540   13.9300   61.6000 C.3       1 LEU        -0.0625
     38 CD2        59.6060   14.2990   59.2070 C.3       1 LEU        -0.0625
     39 N          61.9230   17.7320   59.6990 N.am      1 HIS        -0.2619
     40 CA         61.3900   19.0790   59.4390 C.3       1 HIS         0.1421
     41 C          61.7110   19.4990   57.9960 C.2       1 HIS         0.2061
     42 O          60.9120   19.9800   57.2810 O.2       1 HIS        -0.3942
     43 CB         61.9790   20.0360   60.4510 C.3       1 HIS         0.0427
     44 CG         61.4450   21.4130   60.2510 C.2       1 HIS         0.0561
     45 ND1        61.9620   22.2500   59.4140 N.pl3     1 HIS        -0.2623
     46 CD2        60.4370   21.9480   60.8860 C.2       1 HIS        -0.0276
     47 CE1        61.2470   23.3420   59.5080 C.2       1 HIS         0.0875
     48 NE2        60.3100   23.1570   60.4070 N.2       1 HIS        -0.3437
     49 N          62.8950   19.1750   57.5730 N.am      1 LYS        -0.2620
     50 CA         63.3190   19.4000   56.2110 C.3       1 LYS         0.1373
     51 C          62.6700   18.5750   55.3240 C.2       1 LYS         0.2057
     52 O          62.1790   19.0380   54.3210 O.2       1 LYS        -0.3942
     53 CB         64.7700   19.1110   56.2200 C.3       1 LYS         0.0043
     54 CG         65.4510   19.8900   55.2040 C.2       1 LYS        -0.0923
     55 CD         65.0620   19.3160   53.9540 C.2       1 LYS        -0.0766
     56 CE         65.1410   20.2910   52.7680 C.3       1 LYS         0.0478
     57 NZ         64.6280   19.4640   51.6560 N.am      1 LYS        -0.2789
     58 N          62.5570   17.2150   55.4910 N.am      1 LEU        -0.2636
     59 CA         61.8730   16.3600   54.5110 C.3       1 LEU         0.1312
     60 C          60.5110   16.6680   54.3360 C.2       1 LEU         0.2039
     61 O          59.9420   16.3790   53.2990 O.2       1 LEU        -0.3944
     62 CB         62.0770   14.8910   54.8640 C.3       1 LEU        -0.0101
     63 CG         63.5590   14.6080   54.8430 C.3       1 LEU        -0.0425
     64 CD1        63.8810   13.3550   55.5870 C.3       1 LEU        -0.0625
     65 CD2        64.0360   14.4390   53.4130 C.3       1 LEU        -0.0625
     66 N          59.8040   17.2930   55.3390 N.am      1 LEU        -0.2637
     67 CA         58.3800   17.6170   55.1540 C.3       1 LEU         0.1312
     68 C          58.1680   18.6060   54.1960 C.2       1 LEU         0.2039
     69 O          57.0720   18.8530   53.7370 O.2       1 LEU        -0.3944
     70 CB         57.7870   17.9870   56.4990 C.3       1 LEU        -0.0101
     71 CG         57.4710   16.6910   57.2070 C.3       1 LEU        -0.0425
     72 CD1        57.3080   16.9100   58.6750 C.3       1 LEU        -0.0625
     73 CD2        56.1750   16.1480   56.6700 C.3       1 LEU        -0.0625
     74 N          59.2670   19.2840   53.7150 N.am      1 GLN        -0.2636
     75 CA         59.1900   20.3960   52.7190 C.3       1 GLN         0.1330
     76 C          59.6190   20.0720   51.4190 C.2       1 GLN         0.2042
     77 O          59.0440   20.4050   50.4060 O.2       1 GLN        -0.3944
     78 CB         60.0510   21.5360   53.2390 C.3       1 GLN         0.0045
     79 CG         59.6880   21.9040   54.6880 C.3       1 GLN         0.0412
     80 CD         60.4820   23.0940   55.2110 C.2       1 GLN         0.1737
     81 OE1        60.3210   24.1930   54.7530 O.2       1 GLN        -0.3973
     82 NE2        61.3470   22.8360   56.1270 N.am      1 GLN        -0.3009
     83 N          60.7420   19.3950   51.2630 N.am      1 ASP        -0.2616
     84 CA         61.3830   19.1240   49.9690 C.3       1 ASP         0.1476
     85 C          60.7460   18.0510   49.3630 C.2       1 ASP         0.2063
     86 O          60.8610   16.9130   49.8000 O.2       1 ASP        -0.3942
     87 CB         62.8910   18.9900   50.1080 C.3       1 ASP         0.0776
     88 CG         63.4210   19.8200   51.0960 C.2       1 ASP         0.1821
     89 OD1        62.8340   20.8360   51.4840 O.2       1 ASP        -0.3967
     90 N          59.9340   18.4400   48.3770 N.am      1 SER        -0.2614
     91 CA         59.0020   17.6210   47.6160 C.3       1 SER         0.1536
     92 C          57.6810   18.3670   47.8750 C.2       1 SER         0.2015
     93 O          56.8960   18.6450   46.9790 O.2       1 SER        -0.3947
     94 CB         58.8300   16.1970   48.1690 C.3       1 SER         0.0843
     95 OG         59.6810   15.1450   47.6410 O.3       1 SER        -0.3903
     96 N          57.4590   18.6820   49.1460 N.am      1 NH2        -0.2989
     97 H1         67.2314   21.1205   64.4849 H         1 ACE         0.0467
     98 H2         68.3561   22.1406   65.4445 H         1 ACE         0.0467
     99 H3         68.9969   20.7918   64.4461 H         1 ACE         0.0467
    100 H4         67.4316   23.3093   61.7610 H         1 HIS         0.1884
    101 H5         65.8041   22.0112   63.7735 H         1 HIS         0.0824
    102 H6         64.0559   22.0194   61.9157 H         1 HIS         0.0491
    103 H7         65.2639   22.9114   60.9300 H         1 HIS         0.0491
    104 H8         65.3078   25.4569   61.2908 H         1 HIS         0.2386
    105 H9         63.2913   23.3267   64.2642 H         1 HIS         0.0324
    106 H10        64.2292   27.1932   62.8330 H         1 HIS         0.1149
    107 H11        64.7707   20.0340   63.5651 H         1 LYS         0.1883
    108 H12        66.2285   17.7586   63.1046 H         1 LYS         0.0800
    109 H13        64.0177   16.6494   63.0687 H         1 LYS         0.0312
    110 H14        63.2271   18.2148   62.6798 H         1 LYS         0.0312
    111 H15        63.9150   19.1352   64.8347 H         1 LYS         0.0269
    112 H16        64.8100   17.6264   65.2209 H         1 LYS         0.0269
    113 H17        62.5565   16.4299   64.9271 H         1 LYS         0.0317
    114 H18        61.8231   18.0678   65.0055 H         1 LYS         0.0317
    115 H19        63.2107   18.4212   67.1064 H         1 LYS         0.0813
    116 H20        63.5333   16.6547   67.0628 H         1 LYS         0.0813
    117 H21        61.7192   17.2022   68.4584 H         1 LYS         0.1994
    118 H22        61.2022   16.3024   67.1807 H         1 LYS         0.1994
    119 H23        60.9066   17.9212   67.2207 H         1 LYS         0.1994
    120 H24        66.3443   16.2301   61.4902 H         1 ILE         0.1883
    121 H25        66.2552   17.3553   58.8804 H         1 ILE         0.0803
    122 H26        67.5506   15.9200   58.1513 H         1 ILE         0.0345
    123 H27        67.5820   14.6623   60.8838 H         1 ILE         0.0267
    124 H28        68.5477   16.0575   60.2944 H         1 ILE         0.0267
    125 H29        65.7044   14.4634   57.5424 H         1 ILE         0.0235
    126 H30        66.0013   13.5208   59.0424 H         1 ILE         0.0235
    127 H31        67.2811   13.6384   57.7875 H         1 ILE         0.0235
    128 H32        69.8401   13.9673   60.2012 H         1 ILE         0.0230
    129 H33        69.5479   14.6317   58.5581 H         1 ILE         0.0230
    130 H34        68.5823   13.2365   59.1476 H         1 ILE         0.0230
    131 H35        63.9499   15.4868   60.6605 H         1 LEU         0.1883
    132 H36        62.1728   14.6687   58.5478 H         1 LEU         0.0800
    133 H37        61.1274   15.8382   61.1000 H         1 LEU         0.0315
    134 H38        62.2947   14.4809   61.2484 H         1 LEU         0.0315
    135 H39        60.8813   12.9832   60.2596 H         1 LEU         0.0298
    136 H40        58.7454   13.2037   61.4304 H         1 LEU         0.0232
    137 H41        59.1213   14.9257   61.7768 H         1 LEU         0.0232
    138 H42        60.1428   13.6249   62.4776 H         1 LEU         0.0232
    139 H43        60.2493   14.3370   58.3155 H         1 LEU         0.0232
    140 H44        59.1184   15.2747   59.3492 H         1 LEU         0.0232
    141 H45        58.8391   13.5219   59.0728 H         1 LEU         0.0232
    142 H46        62.5361   17.5853   60.4753 H         1 HIS         0.1885
    143 H47        60.2971   19.0640   59.5624 H         1 HIS         0.0824
    144 H48        63.0729   20.0534   60.3367 H         1 HIS         0.0491
    145 H49        61.7215   19.6931   61.4640 H         1 HIS         0.0491
    146 H50        62.7720   22.0905   58.7981 H         1 HIS         0.2386
    147 H51        59.8265   21.4814   61.6577 H         1 HIS         0.0324
    148 H52        61.4041   24.2542   58.9343 H         1 HIS         0.1149
    149 H53        63.5369   18.7542   58.2139 H         1 LYS         0.1885
    150 H54        63.1368   20.4465   55.9255 H         1 LYS         0.0821
    151 H55        64.9269   18.0407   56.0206 H         1 LYS         0.0435
    152 H56        65.1832   19.3645   57.2074 H         1 LYS         0.0435
    153 H57        66.1191   20.7356   55.3606 H         1 LYS         0.0453
    154 H58        64.7388   18.2812   53.8511 H         1 LYS         0.0470
    155 H59        66.1767   20.6119   52.5826 H         1 LYS         0.0644
    156 H60        64.5074   21.1747   52.9342 H         1 LYS         0.0644
    157 H61        65.1398   18.6727   51.3214 H         1 LYS         0.1875
    158 H62        62.9535   16.7936   56.3066 H         1 LEU         0.1883
    159 H63        62.3608   16.5341   53.5406 H         1 LEU         0.0800
    160 H64        61.5651   14.2553   54.1266 H         1 LEU         0.0315
    161 H65        61.6724   14.6883   55.8666 H         1 LEU         0.0315
    162 H66        64.0883   15.4523   55.3088 H         1 LEU         0.0298
    163 H67        64.9660   13.1771   55.5532 H         1 LEU         0.0232
    164 H68        63.3559   12.5074   55.1224 H         1 LEU         0.0232
    165 H69        63.5586   13.4569   56.6337 H         1 LEU         0.0232
    166 H70        63.8102   15.3511   52.8410 H         1 LEU         0.0232
    167 H71        63.5220   13.5817   52.9539 H         1 LEU         0.0232
    168 H72        65.1216   14.2618   53.4071 H         1 LEU         0.0232
    169 H73        60.2602   17.5279   56.1973 H         1 LEU         0.1883
    170 H74        57.8722   16.7083   54.7985 H         1 LEU         0.0800
    171 H75        56.8685   18.5759   56.3590 H         1 LEU         0.0315
    172 H76        58.5117   18.5716   57.0846 H         1 LEU         0.0315
    173 H77        58.2829   15.9703   57.0300 H         1 LEU         0.0298
    174 H78        57.0790   15.9523   59.1654 H         1 LEU         0.0232
    175 H79        56.4848   17.6181   58.8509 H         1 LEU         0.0232
    176 H80        58.2401   17.3208   59.0902 H         1 LEU         0.0232
    177 H81        56.2694   15.9777   55.5874 H         1 LEU         0.0232
    178 H82        55.3682   16.8716   56.8583 H         1 LEU         0.0232
    179 H83        55.9397   15.1977   57.1715 H         1 LEU         0.0232
    180 H84        60.1695   19.0163   54.0522 H         1 GLN         0.1883
    181 H85        58.1426   20.7263   52.6567 H         1 GLN         0.0801
    182 H86        59.9010   22.4176   52.5985 H         1 GLN         0.0337
    183 H87        61.1073   21.2313   53.2020 H         1 GLN         0.0337
    184 H88        59.8904   21.0358   55.3324 H         1 GLN         0.0504
    185 H89        58.6168   22.1503   54.7303 H         1 GLN         0.0504
    186 H90        61.9014   23.5733   56.5131 H         1 GLN         0.1814
    187 H91        61.4652   21.8981   56.4532 H         1 GLN         0.1814
    188 H92        61.1884   19.0412   52.0849 H         1 ASP         0.1885
    189 H93        61.2102   19.9992   49.3255 H         1 ASP         0.0826
    190 H94        63.3566   19.2486   49.1455 H         1 ASP         0.0551
    191 H95        63.1287   17.9464   50.3617 H         1 ASP         0.0551
    192 H96        59.9705   19.4089   48.1324 H         1 SER         0.1884
    193 H97        59.2733   17.5864   46.5506 H         1 SER         0.0823
    194 H98        57.7883   15.8982   47.9806 H         1 SER         0.0606
    195 H99        59.0072   16.2453   49.2535 H         1 SER         0.0606
    196 H100       60.5910   15.3630   47.8053 H         1 SER         0.2097
    197 H101       56.6235   19.1681   49.4021 H         1 NH2         0.1815
    198 H102       58.1274   18.4331   49.8469 H         1 NH2         0.1815
@<TRIPOS>BOND
     1    1    2 2  
     2    1    3 1  
     3    1    4 am 
     4    4    5 1  
     5    5    6 1  
     6    5    8 1  
     7    6    7 2  
     8    6   14 am 
     9    8    9 1  
    10    9   10 1  
    11    9   11 2  
    12   10   12 1  
    13   11   13 1  
    14   12   13 2  
    15   14   15 1  
    16   15   16 1  
    17   15   18 1  
    18   16   17 2  
    19   16   23 am 
    20   18   19 1  
    21   19   20 1  
    22   20   21 1  
    23   21   22 1  
    24   23   24 1  
    25   24   25 1  
    26   24   27 1  
    27   25   26 2  
    28   25   31 am 
    29   27   28 1  
    30   27   29 1  
    31   28   30 1  
    32   31   32 1  
    33   32   33 1  
    34   32   35 1  
    35   33   34 2  
    36   33   39 am 
    37   35   36 1  
    38   36   37 1  
    39   36   38 1  
    40   39   40 1  
    41   40   41 1  
    42   40   43 1  
    43   41   42 2  
    44   41   49 am 
    45   43   44 1  
    46   44   45 1  
    47   44   46 2  
    48   45   47 1  
    49   46   48 1  
    50   47   48 2  
    51   49   50 1  
    52   50   51 1  
    53   50   53 1  
    54   51   52 2  
    55   51   58 am 
    56   53   54 1  
    57   54   55 2  
    58   55   56 1  
    59   56   57 1  
    60   57   88 am 
    61   58   59 1  
    62   59   60 1  
    63   59   62 1  
    64   60   61 2  
    65   60   66 am 
    66   62   63 1  
    67   63   64 1  
    68   63   65 1  
    69   66   67 1  
    70   67   68 1  
    71   67   70 1  
    72   68   69 2  
    73   68   74 am 
    74   70   71 1  
    75   71   72 1  
    76   71   73 1  
    77   74   75 1  
    78   75   76 1  
    79   75   78 1  
    80   76   77 2  
    81   76   83 am 
    82   78   79 1  
    83   79   80 1  
    84   80   81 2  
    85   80   82 am 
    86   83   84 1  
    87   84   85 1  
    88   84   87 1  
    89   85   86 2  
    90   85   90 am 
    91   87   88 1  
    92   88   89 2  
    93   90   91 1  
    94   91   92 1  
    95   91   94 1  
    96   92   93 2  
    97   92   96 am 
    98   94   95 1  
    99    3   97 1  
   100    3   98 1  
   101    3   99 1  
   102    4  100 1  
   103    5  101 1  
   104    8  102 1  
   105    8  103 1  
   106   10  104 1  
   107   11  105 1  
   108   12  106 1  
   109   14  107 1  
   110   15  108 1  
   111   18  109 1  
   112   18  110 1  
   113   19  111 1  
   114   19  112 1  
   115   20  113 1  
   116   20  114 1  
   117   21  115 1  
   118   21  116 1  
   119   22  117 1  
   120   22  118 1  
   121   22  119 1  
   122   23  120 1  
   123   24  121 1  
   124   27  122 1  
   125   28  123 1  
   126   28  124 1  
   127   29  125 1  
   128   29  126 1  
   129   29  127 1  
   130   30  128 1  
   131   30  129 1  
   132   30  130 1  
   133   31  131 1  
   134   32  132 1  
   135   35  133 1  
   136   35  134 1  
   137   36  135 1  
   138   37  136 1  
   139   37  137 1  
   140   37  138 1  
   141   38  139 1  
   142   38  140 1  
   143   38  141 1  
   144   39  142 1  
   145   40  143 1  
   146   43  144 1  
   147   43  145 1  
   148   45  146 1  
   149   46  147 1  
   150   47  148 1  
   151   49  149 1  
   152   50  150 1  
   153   53  151 1  
   154   53  152 1  
   155   54  153 1  
   156   55  154 1  
   157   56  155 1  
   158   56  156 1  
   159   57  157 1  
   160   58  158 1  
   161   59  159 1  
   162   62  160 1  
   163   62  161 1  
   164   63  162 1  
   165   64  163 1  
   166   64  164 1  
   167   64  165 1  
   168   65  166 1  
   169   65  167 1  
   170   65  168 1  
   171   66  169 1  
   172   67  170 1  
   173   70  171 1  
   174   70  172 1  
   175   71  173 1  
   176   72  174 1  
   177   72  175 1  
   178   72  176 1  
   179   73  177 1  
   180   73  178 1  
   181   73  179 1  
   182   74  180 1  
   183   75  181 1  
   184   78  182 1  
   185   78  183 1  
   186   79  184 1  
   187   79  185 1  
   188   82  186 1  
   189   82  187 1  
   190   83  188 1  
   191   84  189 1  
   192   87  190 1  
   193   87  191 1  
   194   90  192 1  
   195   91  193 1  
   196   94  194 1  
   197   94  195 1  
   198   95  196 1  
   199   96  197 1  
   200   96  198 1  
@<TRIPOS>SUBSTRUCTURE
     1 ACE         1

