5wgd_ligand
  -I-interpret- 

196198  0  0  0  0  0  0  0  0999 V2000
   68.3800   22.5180   63.3340 C   0  0  0  0  0
   69.4170   23.1350   63.1660 O   0  0  0  0  0
   68.2310   21.5790   64.5070 C   0  0  0  0  0
   67.3390   22.6780   62.5310 N   0  0  0  0  0
   66.0600   21.9850   62.7040 C   0  0  0  0  0
   66.2350   20.5020   62.3060 C   0  0  0  0  0
   67.1370   20.1530   61.5900 O   0  0  0  0  0
   64.9200   22.6990   61.9530 C   0  0  0  0  0
   64.4600   24.0270   62.5910 C   0  0  0  0  0
   64.7450   25.2410   62.1260 N   0  0  0  0  0
   63.7020   24.1350   63.6610 C   0  0  0  0  0
   64.1800   26.1090   62.9230 C   0  0  0  0  0
   63.5450   25.4380   63.8480 N   0  0  0  0  0
   65.4110   19.6640   62.8920 N   0  0  0  0  0
   65.3670   18.2530   62.6320 C   0  0  0  0  0
   65.3490   17.9450   61.1440 C   0  0  0  0  0
   64.7840   18.6750   60.3740 O   0  0  0  0  0
   64.0640   17.7390   63.2120 C   0  0  0  0  0
   63.9370   18.0440   64.6980 C   0  0  0  0  0
   62.6920   17.4580   65.2940 C   0  0  0  0  0
   62.8220   17.4450   66.7810 C   0  0  0  0  0
   61.5670   17.1990   67.4620 N   0  3  0  0  0
   65.9240   16.8180   60.7990 N   0  0  0  0  0
   65.9410   16.4370   59.3980 C   0  0  0  0  0
   64.5170   16.1740   58.8740 C   0  0  0  0  0
   64.2480   16.4150   57.7420 O   0  0  0  0  0
   67.0010   15.4050   58.9530 C   0  0  0  0  0
   68.0560   15.1180   60.0020 C   0  0  0  0  0
   66.4610   14.1750   58.2870 C   0  0  0  0  0
   69.0740   14.1760   59.4400 C   0  0  0  0  0
   63.6510   15.6850   59.7270 N   0  0  0  0  0
   62.2410   15.4160   59.3520 C   0  0  0  0  0
   61.6090   16.7360   58.9370 C   0  0  0  0  0
   60.8500   16.8210   58.0250 O   0  0  0  0  0
   61.5430   14.9520   60.5980 C   0  0  0  0  0
   60.4350   13.9780   60.4050 C   0  0  0  0  0
   59.5540   13.9300   61.6000 C   0  0  0  0  0
   59.6060   14.2990   59.2070 C   0  0  0  0  0
   61.9230   17.7320   59.6990 N   0  0  0  0  0
   61.3900   19.0790   59.4390 C   0  0  0  0  0
   61.7110   19.4990   57.9960 C   0  0  0  0  0
   60.9120   19.9800   57.2810 O   0  0  0  0  0
   61.9790   20.0360   60.4510 C   0  0  0  0  0
   61.4450   21.4130   60.2510 C   0  0  0  0  0
   61.9620   22.2500   59.4140 N   0  0  0  0  0
   60.4370   21.9480   60.8860 C   0  0  0  0  0
   61.2470   23.3420   59.5080 C   0  0  0  0  0
   60.3100   23.1570   60.4070 N   0  0  0  0  0
   62.8950   19.1750   57.5730 N   0  0  0  0  0
   63.3190   19.4000   56.2110 C   0  0  0  0  0
   62.6700   18.5750   55.3240 C   0  0  0  0  0
   62.1790   19.0380   54.3210 O   0  0  0  0  0
   64.7700   19.1110   56.2200 C   0  0  0  0  0
   65.4510   19.8900   55.2040 C   0  0  0  0  0
   65.0620   19.3160   53.9540 C   0  0  0  0  0
   65.1410   20.2910   52.7680 C   0  0  0  0  0
   64.6280   19.4640   51.6560 N   0  0  0  0  0
   62.5570   17.2150   55.4910 N   0  0  0  0  0
   61.8730   16.3600   54.5110 C   0  0  0  0  0
   60.5110   16.6680   54.3360 C   0  0  0  0  0
   59.9420   16.3790   53.2990 O   0  0  0  0  0
   62.0770   14.8910   54.8640 C   0  0  0  0  0
   63.5590   14.6080   54.8430 C   0  0  0  0  0
   63.8810   13.3550   55.5870 C   0  0  0  0  0
   64.0360   14.4390   53.4130 C   0  0  0  0  0
   59.8040   17.2930   55.3390 N   0  0  0  0  0
   58.3800   17.6170   55.1540 C   0  0  0  0  0
   58.1680   18.6060   54.1960 C   0  0  0  0  0
   57.0720   18.8530   53.7370 O   0  0  0  0  0
   57.7870   17.9870   56.4990 C   0  0  0  0  0
   57.4710   16.6910   57.2070 C   0  0  0  0  0
   57.3080   16.9100   58.6750 C   0  0  0  0  0
   56.1750   16.1480   56.6700 C   0  0  0  0  0
   59.2670   19.2840   53.7150 N   0  0  0  0  0
   59.1900   20.3960   52.7190 C   0  0  0  0  0
   59.6190   20.0720   51.4190 C   0  0  0  0  0
   59.0440   20.4050   50.4060 O   0  0  0  0  0
   60.0510   21.5360   53.2390 C   0  0  0  0  0
   59.6880   21.9040   54.6880 C   0  0  0  0  0
   60.4820   23.0940   55.2110 C   0  0  0  0  0
   60.3210   24.1930   54.7530 O   0  0  0  0  0
   61.3470   22.8360   56.1270 N   0  0  0  0  0
   60.7420   19.3950   51.2630 N   0  0  0  0  0
   61.3830   19.1240   49.9690 C   0  0  0  0  0
   60.7460   18.0510   49.3630 C   0  0  0  0  0
   60.8610   16.9130   49.8000 O   0  0  0  0  0
   62.8910   18.9900   50.1080 C   0  0  0  0  0
   63.4210   19.8200   51.0960 C   0  0  0  0  0
   62.8340   20.8360   51.4840 O   0  0  0  0  0
   59.9340   18.4400   48.3770 N   0  0  0  0  0
   59.0020   17.6210   47.6160 C   0  0  0  0  0
   57.6810   18.3670   47.8750 C   0  0  0  0  0
   56.8960   18.6450   46.9790 O   0  0  0  0  0
   58.8300   16.1970   48.1690 C   0  0  0  0  0
   59.6810   15.1450   47.6410 O   0  0  0  0  0
   57.4590   18.6820   49.1460 N   0  0  0  0  0
   68.9904   20.7995   64.4455 H   0  0  0  0  0
   68.3552   22.1367   65.4353 H   0  0  0  0  0
   67.2402   21.1253   64.4840 H   0  0  0  0  0
   67.4334   23.3219   61.7456 H   0  0  0  0  0
   65.7609   22.0130   63.7518 H   0  0  0  0  0
   64.0619   22.0269   61.9657 H   0  0  0  0  0
   65.2963   22.9384   60.9584 H   0  0  0  0  0
   63.2909   23.3259   64.2647 H   0  0  0  0  0
   64.2292   27.1942   62.8330 H   0  0  0  0  0
   64.7579   20.0414   63.5786 H   0  0  0  0  0
   66.2512   17.7889   63.0690 H   0  0  0  0  0
   64.0392   16.6568   63.0843 H   0  0  0  0  0
   63.2430   18.2333   62.6927 H   0  0  0  0  0
   63.8931   19.1264   64.8188 H   0  0  0  0  0
   64.7950   17.6060   65.2080 H   0  0  0  0  0
   62.5545   16.4402   64.9289 H   0  0  0  0  0
   61.8296   18.0593   65.0065 H   0  0  0  0  0
   63.1781   18.4278   67.0899 H   0  0  0  0  0
   63.5050   16.6378   67.0456 H   0  0  0  0  0
   61.7222   17.2024   68.4701 H   0  0  0  0  0
   60.8996   17.9304   67.2171 H   0  0  0  0  0
   61.1988   16.2916   67.1766 H   0  0  0  0  0
   66.3527   16.2183   61.5040 H   0  0  0  0  0
   66.3237   17.3184   58.8833 H   0  0  0  0  0
   67.5266   15.9182   58.1478 H   0  0  0  0  0
   67.5864   14.6667   60.8760 H   0  0  0  0  0
   68.5431   16.0490   60.2920 H   0  0  0  0  0
   65.7927   13.6553   58.9736 H   0  0  0  0  0
   65.9118   14.4606   57.3898 H   0  0  0  0  0
   67.2873   13.5181   58.0151 H   0  0  0  0  0
   68.5855   13.2455   59.1506 H   0  0  0  0  0
   69.5428   14.6287   58.5663 H   0  0  0  0  0
   69.8326   13.9700   60.1952 H   0  0  0  0  0
   63.9559   15.4828   60.6791 H   0  0  0  0  0
   62.1715   14.6821   58.5491 H   0  0  0  0  0
   61.0944   15.8394   61.0444 H   0  0  0  0  0
   62.2967   14.4414   61.1974 H   0  0  0  0  0
   60.9040   13.0059   60.2528 H   0  0  0  0  0
   60.1386   13.6276   62.4689 H   0  0  0  0  0
   59.1260   14.9172   61.7741 H   0  0  0  0  0
   58.7533   13.2101   61.4308 H   0  0  0  0  0
   59.1696   15.2910   59.3239 H   0  0  0  0  0
   60.2341   14.2797   58.3164 H   0  0  0  0  0
   58.8108   13.5601   59.1085 H   0  0  0  0  0
   62.5483   17.5824   60.4908 H   0  0  0  0  0
   60.3051   19.0893   59.5442 H   0  0  0  0  0
   63.0616   20.0574   60.3258 H   0  0  0  0  0
   61.7115   19.6974   61.4519 H   0  0  0  0  0
   59.8260   21.4810   61.6584 H   0  0  0  0  0
   61.4042   24.2550   58.9337 H   0  0  0  0  0
   63.5498   18.7457   58.2268 H   0  0  0  0  0
   63.0898   20.4151   55.8869 H   0  0  0  0  0
   64.9207   18.0515   56.0132 H   0  0  0  0  0
   65.1764   19.3721   57.1971 H   0  0  0  0  0
   66.1197   20.7364   55.3607 H   0  0  0  0  0
   64.7385   18.2802   53.8510 H   0  0  0  0  0
   66.1453   20.6763   52.5919 H   0  0  0  0  0
   64.5711   21.2070   52.9234 H   0  0  0  0  0
   65.1500   18.6569   51.3147 H   0  0  0  0  0
   62.9615   16.7852   56.3229 H   0  0  0  0  0
   62.3333   16.5634   53.5441 H   0  0  0  0  0
   61.5620   14.2555   54.1436 H   0  0  0  0  0
   61.6673   14.6806   55.8519 H   0  0  0  0  0
   64.0586   15.4520   55.3186 H   0  0  0  0  0
   63.5610   13.4573   56.6239 H   0  0  0  0  0
   63.3600   12.5160   55.1257 H   0  0  0  0  0
   64.9563   13.1798   55.5528 H   0  0  0  0  0
   63.5053   13.6070   52.9502 H   0  0  0  0  0
   63.8375   15.3538   52.8546 H   0  0  0  0  0
   65.1068   14.2352   53.4102 H   0  0  0  0  0
   60.2694   17.5326   56.2145 H   0  0  0  0  0
   57.8710   16.7359   54.7634 H   0  0  0  0  0
   56.8875   18.5898   56.3737 H   0  0  0  0  0
   58.4881   18.5857   57.0805 H   0  0  0  0  0
   58.2932   15.9958   57.0371 H   0  0  0  0  0
   58.2322   17.3171   59.0852 H   0  0  0  0  0
   56.4921   17.6118   58.8480 H   0  0  0  0  0
   57.0811   15.9604   59.1597 H   0  0  0  0  0
   55.3784   16.8703   56.8480 H   0  0  0  0  0
   56.2731   15.9699   55.5991 H   0  0  0  0  0
   55.9378   15.2117   57.1751 H   0  0  0  0  0
   60.1876   19.0109   54.0590 H   0  0  0  0  0
   58.1350   20.6525   52.6227 H   0  0  0  0  0
   59.8829   22.4096   52.6092 H   0  0  0  0  0
   61.0936   21.2190   53.2149 H   0  0  0  0  0
   59.9190   21.0454   55.3185 H   0  0  0  0  0
   58.6316   22.1718   54.7099 H   0  0  0  0  0
   61.9352   23.5823   56.4977 H   0  0  0  0  0
   61.4449   21.8851   56.4828 H   0  0  0  0  0
   61.1973   19.0341   52.1014 H   0  0  0  0  0
   61.2620   19.9738   49.2973 H   0  0  0  0  0
   63.3397   19.2762   49.1568 H   0  0  0  0  0
   63.1093   17.9591   50.3869 H   0  0  0  0  0
   59.9713   19.4283   48.1275 H   0  0  0  0  0
   59.3265   17.5019   46.5823 H   0  0  0  0  0
   57.8146   15.9060   47.8999 H   0  0  0  0  0
   59.0848   16.2677   49.2264 H   0  0  0  0  0
   59.4667   14.3147   48.0726 H   0  0  0  0  0
   56.6057   19.1758   49.4075 H   0  0  0  0  0
   58.1418   18.4301   49.8606 H   0  0  0  0  0
  1  2  2  0  0  0
  1  3  1  0  0  0
  1  4  1  0  0  0
  4  5  1  0  0  0
  5  6  1  0  0  0
  5  8  1  0  0  0
  6  7  2  0  0  0
  6 14  1  0  0  0
  8  9  1  0  0  0
  9 10  4  0  0  0
  9 11  4  0  0  0
 10 12  4  0  0  0
 11 13  4  0  0  0
 12 13  4  0  0  0
 14 15  1  0  0  0
 15 16  1  0  0  0
 15 18  1  0  0  0
 16 17  2  0  0  0
 16 23  1  0  0  0
 18 19  1  0  0  0
 19 20  1  0  0  0
 20 21  1  0  0  0
 21 22  1  0  0  0
 23 24  1  0  0  0
 24 25  1  0  0  0
 24 27  1  0  0  0
 25 26  2  0  0  0
 25 31  1  0  0  0
 27 28  1  0  0  0
 27 29  1  0  0  0
 28 30  1  0  0  0
 31 32  1  0  0  0
 32 33  1  0  0  0
 32 35  1  0  0  0
 33 34  2  0  0  0
 33 39  1  0  0  0
 35 36  1  0  0  0
 36 37  1  0  0  0
 36 38  1  0  0  0
 39 40  1  0  0  0
 40 41  1  0  0  0
 40 43  1  0  0  0
 41 42  2  0  0  0
 41 49  1  0  0  0
 43 44  1  0  0  0
 44 45  4  0  0  0
 44 46  4  0  0  0
 45 47  4  0  0  0
 46 48  4  0  0  0
 47 48  4  0  0  0
 49 50  1  0  0  0
 50 51  1  0  0  0
 50 53  1  0  0  0
 51 52  2  0  0  0
 51 58  1  0  0  0
 53 54  1  0  0  0
 54 55  2  0  0  0
 55 56  1  0  0  0
 56 57  1  0  0  0
 57 88  1  0  0  0
 58 59  1  0  0  0
 59 60  1  0  0  0
 59 62  1  0  0  0
 60 61  2  0  0  0
 60 66  1  0  0  0
 62 63  1  0  0  0
 63 64  1  0  0  0
 63 65  1  0  0  0
 66 67  1  0  0  0
 67 68  1  0  0  0
 67 70  1  0  0  0
 68 69  2  0  0  0
 68 74  1  0  0  0
 70 71  1  0  0  0
 71 72  1  0  0  0
 71 73  1  0  0  0
 74 75  1  0  0  0
 75 76  1  0  0  0
 75 78  1  0  0  0
 76 77  2  0  0  0
 76 83  1  0  0  0
 78 79  1  0  0  0
 79 80  1  0  0  0
 80 81  2  0  0  0
 80 82  1  0  0  0
 83 84  1  0  0  0
 84 85  1  0  0  0
 84 87  1  0  0  0
 85 86  2  0  0  0
 85 90  1  0  0  0
 87 88  1  0  0  0
 88 89  2  0  0  0
 90 91  1  0  0  0
 91 92  1  0  0  0
 91 94  1  0  0  0
 92 93  2  0  0  0
 92 96  1  0  0  0
 94 95  1  0  0  0
  3 97  1  0  0  0
  3 98  1  0  0  0
  3 99  1  0  0  0
  4100  1  0  0  0
  5101  1  0  0  0
  8102  1  0  0  0
  8103  1  0  0  0
 11104  1  0  0  0
 12105  1  0  0  0
 14106  1  0  0  0
 15107  1  0  0  0
 18108  1  0  0  0
 18109  1  0  0  0
 19110  1  0  0  0
 19111  1  0  0  0
 20112  1  0  0  0
 20113  1  0  0  0
 21114  1  0  0  0
 21115  1  0  0  0
 22116  1  0  0  0
 22117  1  0  0  0
 22118  1  0  0  0
 23119  1  0  0  0
 24120  1  0  0  0
 27121  1  0  0  0
 28122  1  0  0  0
 28123  1  0  0  0
 29124  1  0  0  0
 29125  1  0  0  0
 29126  1  0  0  0
 30127  1  0  0  0
 30128  1  0  0  0
 30129  1  0  0  0
 31130  1  0  0  0
 32131  1  0  0  0
 35132  1  0  0  0
 35133  1  0  0  0
 36134  1  0  0  0
 37135  1  0  0  0
 37136  1  0  0  0
 37137  1  0  0  0
 38138  1  0  0  0
 38139  1  0  0  0
 38140  1  0  0  0
 39141  1  0  0  0
 40142  1  0  0  0
 43143  1  0  0  0
 43144  1  0  0  0
 46145  1  0  0  0
 47146  1  0  0  0
 49147  1  0  0  0
 50148  1  0  0  0
 53149  1  0  0  0
 53150  1  0  0  0
 54151  1  0  0  0
 55152  1  0  0  0
 56153  1  0  0  0
 56154  1  0  0  0
 57155  1  0  0  0
 58156  1  0  0  0
 59157  1  0  0  0
 62158  1  0  0  0
 62159  1  0  0  0
 63160  1  0  0  0
 64161  1  0  0  0
 64162  1  0  0  0
 64163  1  0  0  0
 65164  1  0  0  0
 65165  1  0  0  0
 65166  1  0  0  0
 66167  1  0  0  0
 67168  1  0  0  0
 70169  1  0  0  0
 70170  1  0  0  0
 71171  1  0  0  0
 72172  1  0  0  0
 72173  1  0  0  0
 72174  1  0  0  0
 73175  1  0  0  0
 73176  1  0  0  0
 73177  1  0  0  0
 74178  1  0  0  0
 75179  1  0  0  0
 78180  1  0  0  0
 78181  1  0  0  0
 79182  1  0  0  0
 79183  1  0  0  0
 82184  1  0  0  0
 82185  1  0  0  0
 83186  1  0  0  0
 84187  1  0  0  0
 87188  1  0  0  0
 87189  1  0  0  0
 90190  1  0  0  0
 91191  1  0  0  0
 94192  1  0  0  0
 94193  1  0  0  0
 95194  1  0  0  0
 96195  1  0  0  0
 96196  1  0  0  0
M  END
$$$$
