1ebw_ligand
  -I-interpret- 

 98 99  0  0  0  0  0  0  0  0999 V2000
    9.9100   24.1780    2.1720 C   0  0  0  0  0
    9.2280   25.3590    1.8090 C   0  0  0  0  0
    7.8190   25.4550    1.9400 C   0  0  0  0  0
    7.0880   24.3570    2.4430 C   0  0  0  0  0
    7.7540   23.1590    2.8160 C   0  0  0  0  0
    9.1700   23.0730    2.6790 C   0  0  0  0  0
   16.4460   22.1800    8.7940 C   0  0  0  0  0
   15.6340   21.2070    9.4800 C   0  0  0  0  0
   16.2240   20.0240   10.0370 C   0  0  0  0  0
   17.6170   19.8240    9.9050 C   0  0  0  0  0
   18.4340   20.7940    9.2210 C   0  0  0  0  0
   17.8460   21.9740    8.6640 C   0  0  0  0  0
   15.8020   23.4140    8.2000 C   0  0  0  0  0
   14.7140   23.0580    7.2820 O   0  0  0  0  0
   15.1550   22.6460    5.9370 C   0  0  0  0  0
   14.0930   23.0280    4.9120 C   0  0  0  0  0
   13.6800   24.4670    4.9960 C   0  0  0  0  0
   12.2940   24.6570    4.2920 C   0  0  0  0  0
   11.1140   24.6630    5.2640 C   0  0  0  0  0
   10.8230   23.6230    5.8630 O   0  0  0  0  0
   10.4190   25.8270    5.4040 N   0  0  0  0  0
    9.2350   25.9870    6.2840 C   0  0  0  0  0
    9.5850   26.6710    7.6650 C   0  0  0  0  0
    8.2980   26.8910    8.5270 C   0  0  0  0  0
   10.6480   25.8520    8.4900 C   0  0  0  0  0
   11.3160   26.7570    9.5730 C   0  0  0  0  0
    8.2700   26.8820    5.5190 C   0  0  0  0  0
    8.6910   27.9580    5.0600 O   0  0  0  0  0
    6.9760   26.4220    5.3980 N   0  0  0  0  0
    6.0360   27.2650    4.6770 C   0  0  0  0  0
   12.0690   23.6150    3.2490 O   0  0  0  0  0
   11.4240   24.0930    2.0330 C   0  0  0  0  0
   14.7800   25.2040    4.3700 O   0  0  0  0  0
   14.6060   22.7820    3.5510 O   0  0  0  0  0
   15.3520   21.1950    5.7900 C   0  0  0  0  0
   14.3850   20.4830    6.1080 O   0  0  0  0  0
   16.5460   20.7420    5.3250 N   0  0  0  0  0
   16.8210   19.3220    5.1510 C   0  0  0  0  0
   16.7560   18.8890    3.6270 C   0  0  0  0  0
   17.2260   17.3950    3.4290 C   0  0  0  0  0
   15.3220   19.0400    3.0550 C   0  0  0  0  0
   15.3410   19.0800    1.5130 C   0  0  0  0  0
   18.2000   19.0980    5.7050 C   0  0  0  0  0
   19.1520   19.7800    5.2690 O   0  0  0  0  0
   18.2940   18.1270    6.6760 N   0  0  0  0  0
   19.6250   17.8910    7.2220 C   0  0  0  0  0
    9.7914   26.2085    1.4229 H   0  0  0  0  0
    7.3033   26.3717    1.6538 H   0  0  0  0  0
    6.0053   24.4290    2.5459 H   0  0  0  0  0
    7.1869   22.3127    3.2037 H   0  0  0  0  0
    9.6883   22.1573    2.9636 H   0  0  0  0  0
   14.9592   20.8320    8.7105 H   0  0  0  0  0
   15.2463   21.7449   10.3451 H   0  0  0  0  0
   15.6068   19.2897   10.5547 H   0  0  0  0  0
   18.0768   18.9289   10.3239 H   0  0  0  0  0
   18.8249   20.2553    8.3578 H   0  0  0  0  0
   19.1089   21.1678    9.9910 H   0  0  0  0  0
   18.4651   22.7064    8.1459 H   0  0  0  0  0
   16.5589   23.9667    7.6434 H   0  0  0  0  0
   15.3895   24.0146    9.0107 H   0  0  0  0  0
   16.1087   23.1505    5.7819 H   0  0  0  0  0
   13.2207   22.4127    5.1324 H   0  0  0  0  0
   13.5260   24.8318    6.0115 H   0  0  0  0  0
   12.3395   25.6415    3.8264 H   0  0  0  0  0
   10.7321   26.6383    4.8709 H   0  0  0  0  0
    8.8212   25.0071    6.5220 H   0  0  0  0  0
   10.0251   27.6390    7.4256 H   0  0  0  0  0
    7.6046   27.5338    7.9848 H   0  0  0  0  0
    7.8252   25.9288    8.7238 H   0  0  0  0  0
    8.5707   27.3631    9.4708 H   0  0  0  0  0
   11.4179   25.4861    7.8106 H   0  0  0  0  0
   10.1474   25.0194    8.9842 H   0  0  0  0  0
   11.8142   27.5957    9.0868 H   0  0  0  0  0
   10.5514   27.1318   10.2534 H   0  0  0  0  0
   12.0470   26.1730   10.1321 H   0  0  0  0  0
    6.6901   25.5280    5.7974 H   0  0  0  0  0
    5.9571   28.2299    5.1779 H   0  0  0  0  0
    6.3902   27.4117    3.6567 H   0  0  0  0  0
    5.0585   26.7831    4.6579 H   0  0  0  0  0
   11.7997   25.0947    1.8240 H   0  0  0  0  0
   11.6496   23.3881    1.2328 H   0  0  0  0  0
   14.5846   26.1437    4.3870 H   0  0  0  0  0
   13.9347   23.0236    2.9087 H   0  0  0  0  0
   17.2729   21.4180    5.0903 H   0  0  0  0  0
   16.0721   18.7203    5.6661 H   0  0  0  0  0
   17.4316   19.5534    3.0883 H   0  0  0  0  0
   18.2545   17.2902    3.7743 H   0  0  0  0  0
   16.5790   16.7327    4.0042 H   0  0  0  0  0
   17.1678   17.1342    2.3723 H   0  0  0  0  0
   14.8960   19.9734    3.4231 H   0  0  0  0  0
   14.7270   18.1845    3.3746 H   0  0  0  0  0
   15.9409   19.9270    1.1802 H   0  0  0  0  0
   15.7735   18.1548    1.1321 H   0  0  0  0  0
   14.3220   19.1864    1.1410 H   0  0  0  0  0
   17.4793   17.6027    6.9952 H   0  0  0  0  0
   20.2957   17.5820    6.4202 H   0  0  0  0  0
   19.9981   18.8090    7.6760 H   0  0  0  0  0
   19.5729   17.1061    7.9765 H   0  0  0  0  0
  1  2  4  0  0  0
  1  6  4  0  0  0
 32  1  1  0  0  0
  2  3  4  0  0  0
  3  4  4  0  0  0
  5  4  4  0  0  0
  6  5  4  0  0  0
  7  8  1  0  0  0
  7 12  2  0  0  0
 13  7  1  0  0  0
  8  9  1  0  0  0
  9 10  2  0  0  0
 11 10  1  0  0  0
 12 11  1  0  0  0
 14 13  1  0  0  0
 15 14  1  0  0  0
 16 15  1  0  0  0
 17 16  1  0  0  0
 18 17  1  0  0  0
 18 19  1  0  0  0
 31 18  1  0  0  0
 19 20  2  0  0  0
 19 21  1  0  0  0
 21 22  1  0  0  0
 22 23  1  0  0  0
 22 27  1  0  0  0
 23 24  1  0  0  0
 23 25  1  0  0  0
 25 26  1  0  0  0
 27 28  2  0  0  0
 27 29  1  0  0  0
 29 30  1  0  0  0
 32 31  1  0  0  0
 17 33  1  0  0  0
 16 34  1  0  0  0
 15 35  1  0  0  0
 35 36  2  0  0  0
 35 37  1  0  0  0
 37 38  1  0  0  0
 38 39  1  0  0  0
 38 43  1  0  0  0
 39 40  1  0  0  0
 39 41  1  0  0  0
 41 42  1  0  0  0
 43 44  2  0  0  0
 43 45  1  0  0  0
 45 46  1  0  0  0
  2 47  1  0  0  0
  3 48  1  0  0  0
  4 49  1  0  0  0
  5 50  1  0  0  0
  6 51  1  0  0  0
  8 52  1  0  0  0
  8 53  1  0  0  0
  9 54  1  0  0  0
 10 55  1  0  0  0
 11 56  1  0  0  0
 11 57  1  0  0  0
 12 58  1  0  0  0
 13 59  1  0  0  0
 13 60  1  0  0  0
 15 61  1  0  0  0
 16 62  1  0  0  0
 17 63  1  0  0  0
 18 64  1  0  0  0
 21 65  1  0  0  0
 22 66  1  0  0  0
 23 67  1  0  0  0
 24 68  1  0  0  0
 24 69  1  0  0  0
 24 70  1  0  0  0
 25 71  1  0  0  0
 25 72  1  0  0  0
 26 73  1  0  0  0
 26 74  1  0  0  0
 26 75  1  0  0  0
 29 76  1  0  0  0
 30 77  1  0  0  0
 30 78  1  0  0  0
 30 79  1  0  0  0
 32 80  1  0  0  0
 32 81  1  0  0  0
 33 82  1  0  0  0
 34 83  1  0  0  0
 37 84  1  0  0  0
 38 85  1  0  0  0
 39 86  1  0  0  0
 40 87  1  0  0  0
 40 88  1  0  0  0
 40 89  1  0  0  0
 41 90  1  0  0  0
 41 91  1  0  0  0
 42 92  1  0  0  0
 42 93  1  0  0  0
 42 94  1  0  0  0
 45 95  1  0  0  0
 46 96  1  0  0  0
 46 97  1  0  0  0
 46 98  1  0  0  0
M  END
$$$$
