### 
### Created by X-TOOL on Fri Nov 18 12:22:45 2016
### 

@<TRIPOS>MOLECULE
1czl_ligand
   50    52     1     0     0
SMALL
GAST_HUCK


@<TRIPOS>ATOM
      1 N1          1.3480   44.0790   53.3570 N.2       1 FMN        -0.2549
      2 C2          0.3900   44.9120   53.9600 C.2       1 FMN         0.2439
      3 O2         -0.7330   44.5060   54.2740 O.2       1 FMN        -0.3902
      4 N3          0.7060   46.2670   54.2440 N.am      1 FMN        -0.1938
      5 C4          1.9520   46.8270   53.9990 C.2       1 FMN         0.2704
      6 O4          2.1830   48.0010   54.2800 O.2       1 FMN        -0.3655
      7 C4A         2.9690   45.9180   53.3680 C.2       1 FMN         0.2076
      8 N5          4.1900   46.3810   53.1130 N.2       1 FMN        -0.2387
      9 C5A         5.1420   45.5500   52.5450 C.ar      1 FMN         0.0856
     10 C6          6.4660   46.0410   52.3070 C.ar      1 FMN        -0.0403
     11 C7          7.4670   45.2230   51.7930 C.ar      1 FMN        -0.0428
     12 C7M         8.8700   45.7660   51.5510 C.3       1 FMN        -0.0352
     13 C8          7.1410   43.8530   51.4940 C.ar      1 FMN        -0.0416
     14 C8M         8.1870   42.9080   50.9720 C.3       1 FMN        -0.0312
     15 C9          5.8520   43.3690   51.6930 C.ar      1 FMN        -0.0258
     16 C9A         4.8310   44.1980   52.2170 C.ar      1 FMN         0.1048
     17 N10         3.5000   43.7630   52.4710 N.pl3     1 FMN        -0.2138
     18 C10         2.5540   44.5570   53.0860 C.2       1 FMN         0.1894
     19 C1          3.1510   42.3900   52.1070 C.3       1 FMN         0.0886
     20 C2          2.8380   42.3020   50.6160 C.3       1 FMN         0.1102
     21 O2          1.7130   43.0790   50.1830 O.3       1 FMN        -0.3865
     22 C3          2.6370   40.8380   50.2230 C.3       1 FMN         0.1118
     23 O3          3.8750   40.1290   50.3650 O.3       1 FMN        -0.3865
     24 C4          2.0090   40.5350   48.8430 C.3       1 FMN         0.1111
     25 O4          1.8540   39.1220   48.6930 O.3       1 FMN        -0.3865
     26 C5          2.8180   41.1700   47.7060 C.3       1 FMN         0.1068
     27 O5          2.1080   41.0020   46.4750 O.3       1 FMN        -0.2734
     28 P           2.7110   41.1480   45.0060 P.3       1 FMN         0.2008
     29 O1P         3.4530   39.9230   44.7010 O.co2     1 FMN        -0.5537
     30 O2P         3.3050   42.4780   44.7800 O.co2     1 FMN        -0.5537
     31 O3P         1.4440   41.0990   44.1180 O.co2     1 FMN        -0.5537
     32 H1         -0.0054   46.8472   54.6407 H         1 FMN         0.2248
     33 H2          6.6940   47.0764   52.5331 H         1 FMN         0.0564
     34 H3          8.9083   46.8259   51.8428 H         1 FMN         0.0366
     35 H4          9.1214   45.6701   50.4844 H         1 FMN         0.0366
     36 H5          9.5931   45.1941   52.1511 H         1 FMN         0.0366
     37 H6          7.7375   41.9174   50.8089 H         1 FMN         0.0395
     38 H7          9.0036   42.8240   51.7042 H         1 FMN         0.0395
     39 H8          8.5853   43.2910   50.0209 H         1 FMN         0.0395
     40 H9          5.6254   42.3390   51.4424 H         1 FMN         0.0493
     41 H10         2.2681   42.0750   52.6825 H         1 FMN         0.0631
     42 H11         3.9967   41.7264   52.3402 H         1 FMN         0.0631
     43 H12         3.7186   42.6832   50.0782 H         1 FMN         0.0647
     44 H13         1.8708   43.9962   50.3738 H         1 FMN         0.2100
     45 H14         1.9367   40.4247   50.9637 H         1 FMN         0.0647
     46 H15         3.7479   39.2199   50.1204 H         1 FMN         0.2100
     47 H16         1.0057   40.9854   48.8207 H         1 FMN         0.0646
     48 H17         2.7044   38.7030   48.7544 H         1 FMN         0.2100
     49 H18         3.8001   40.6798   47.6345 H         1 FMN         0.0639
     50 H19         2.9572   42.2424   47.9074 H         1 FMN         0.0639
@<TRIPOS>BOND
     1    1    2 1  
     2    1   18 2  
     3    2    3 2  
     4    2    4 am 
     5    4    5 am 
     6    5    6 2  
     7    5    7 1  
     8    7    8 2  
     9    7   18 1  
    10    8    9 1  
    11    9   10 ar 
    12    9   16 ar 
    13   10   11 ar 
    14   11   12 1  
    15   11   13 ar 
    16   13   14 1  
    17   13   15 ar 
    18   15   16 ar 
    19   16   17 1  
    20   17   18 1  
    21   17   19 1  
    22   19   20 1  
    23   20   21 1  
    24   20   22 1  
    25   22   23 1  
    26   22   24 1  
    27   24   25 1  
    28   24   26 1  
    29   26   27 1  
    30   27   28 1  
    31   28   29 ar 
    32   28   30 ar 
    33   28   31 ar 
    34    4   32 1  
    35   10   33 1  
    36   12   34 1  
    37   12   35 1  
    38   12   36 1  
    39   14   37 1  
    40   14   38 1  
    41   14   39 1  
    42   15   40 1  
    43   19   41 1  
    44   19   42 1  
    45   20   43 1  
    46   21   44 1  
    47   22   45 1  
    48   23   46 1  
    49   24   47 1  
    50   25   48 1  
    51   26   49 1  
    52   26   50 1  
@<TRIPOS>SUBSTRUCTURE
     1 FMN         1

