1czl_ligand
  -I-interpret- 

 52 54  0  0  0  0  0  0  0  0999 V2000
    1.3480   44.0790   53.3570 N   0  0  0  0  0
    0.3900   44.9120   53.9600 C   0  0  0  0  0
   -0.7330   44.5060   54.2740 O   0  0  0  0  0
    0.7060   46.2670   54.2440 N   0  0  0  0  0
    1.9520   46.8270   53.9990 C   0  0  0  0  0
    2.1830   48.0010   54.2800 O   0  0  0  0  0
    2.9690   45.9180   53.3680 C   0  0  0  0  0
    4.1900   46.3810   53.1130 N   0  0  0  0  0
    5.1420   45.5500   52.5450 C   0  0  0  0  0
    6.4660   46.0410   52.3070 C   0  0  0  0  0
    7.4670   45.2230   51.7930 C   0  0  0  0  0
    8.8700   45.7660   51.5510 C   0  0  0  0  0
    7.1410   43.8530   51.4940 C   0  0  0  0  0
    8.1870   42.9080   50.9720 C   0  0  0  0  0
    5.8520   43.3690   51.6930 C   0  0  0  0  0
    4.8310   44.1980   52.2170 C   0  0  0  0  0
    3.5000   43.7630   52.4710 N   0  0  0  0  0
    2.5540   44.5570   53.0860 C   0  0  0  0  0
    3.1510   42.3900   52.1070 C   0  0  0  0  0
    2.8380   42.3020   50.6160 C   0  0  0  0  0
    1.7130   43.0790   50.1830 O   0  0  0  0  0
    2.6370   40.8380   50.2230 C   0  0  0  0  0
    3.8750   40.1290   50.3650 O   0  0  0  0  0
    2.0090   40.5350   48.8430 C   0  0  0  0  0
    1.8540   39.1220   48.6930 O   0  0  0  0  0
    2.8180   41.1700   47.7060 C   0  0  0  0  0
    2.1080   41.0020   46.4750 O   0  0  0  0  0
    2.7110   41.1480   45.0060 P   0  0  0  0  0
    3.4530   39.9230   44.7010 O   0  0  0  0  0
    3.3050   42.4780   44.7800 O   0  0  0  0  0
    1.4440   41.0990   44.1180 O   0  0  0  0  0
   -0.0196   46.8588   54.6486 H   0  0  0  0  0
    6.6953   47.0821   52.5343 H   0  0  0  0  0
    8.8215   46.5900   50.8392 H   0  0  0  0  0
    9.2879   46.1218   52.4927 H   0  0  0  0  0
    9.5006   44.9732   51.1486 H   0  0  0  0  0
    8.5809   43.2886   50.0296 H   0  0  0  0  0
    8.9955   42.8257   51.6984 H   0  0  0  0  0
    7.7404   41.9268   50.8108 H   0  0  0  0  0
    5.6241   42.3333   51.4410 H   0  0  0  0  0
    2.2722   42.0834   52.6743 H   0  0  0  0  0
    3.9933   41.7363   52.3334 H   0  0  0  0  0
    3.6998   42.7361   50.1090 H   0  0  0  0  0
    1.5909   42.9640   49.2378 H   0  0  0  0  0
    1.8731   40.4917   50.9191 H   0  0  0  0  0
    3.7465   39.2103   50.1178 H   0  0  0  0  0
    1.0194   40.9887   48.7879 H   0  0  0  0  0
    1.4641   38.9331   47.8363 H   0  0  0  0  0
    3.7927   40.6872   47.6357 H   0  0  0  0  0
    2.9593   42.2322   47.9056 H   0  0  0  0  0
    2.6755   43.1561   45.0359 H   0  0  0  0  0
    0.9135   41.8834   44.2758 H   0  0  0  0  0
  1  2  1  0  0  0
  1 18  2  0  0  0
  2  3  2  0  0  0
  2  4  1  0  0  0
  4  5  1  0  0  0
  5  6  2  0  0  0
  5  7  1  0  0  0
  7  8  2  0  0  0
  7 18  1  0  0  0
  8  9  1  0  0  0
  9 10  4  0  0  0
  9 16  4  0  0  0
 10 11  4  0  0  0
 11 12  1  0  0  0
 11 13  4  0  0  0
 13 14  1  0  0  0
 13 15  4  0  0  0
 15 16  4  0  0  0
 16 17  1  0  0  0
 17 18  1  0  0  0
 17 19  1  0  0  0
 19 20  1  0  0  0
 20 21  1  0  0  0
 20 22  1  0  0  0
 22 23  1  0  0  0
 22 24  1  0  0  0
 24 25  1  0  0  0
 24 26  1  0  0  0
 26 27  1  0  0  0
 27 28  1  0  0  0
 28 29  2  0  0  0
 28 30  1  0  0  0
 28 31  1  0  0  0
  4 32  1  0  0  0
 10 33  1  0  0  0
 12 34  1  0  0  0
 12 35  1  0  0  0
 12 36  1  0  0  0
 14 37  1  0  0  0
 14 38  1  0  0  0
 14 39  1  0  0  0
 15 40  1  0  0  0
 19 41  1  0  0  0
 19 42  1  0  0  0
 20 43  1  0  0  0
 21 44  1  0  0  0
 22 45  1  0  0  0
 23 46  1  0  0  0
 24 47  1  0  0  0
 25 48  1  0  0  0
 26 49  1  0  0  0
 26 50  1  0  0  0
 30 51  1  0  0  0
 31 52  1  0  0  0
M  END
$$$$
