3ccb_ligand
  -I-interpret- 

 28 29  0  0  0  0  0  0  0  0999 V2000
   41.6190    3.4230   18.0610 N   0  3  0  0  0
   44.1900    1.3830   17.1900 C   0  0  0  0  0
   44.5140    0.0750   16.8530 C   0  0  0  0  0
   43.6580   -0.6500   16.0330 C   0  0  0  0  0
   42.4830   -0.0740   15.5460 C   0  0  0  0  0
   42.1530    1.2480   15.8900 C   0  0  0  0  0
   39.6450    1.3740   15.7200 C   0  0  0  0  0
   39.8530    3.4480   13.8320 C   0  0  0  0  0
   42.7350    3.4040   17.1180 C   0  0  0  0  0
   43.0260    1.9780   16.7160 C   0  0  0  0  0
   40.9030    1.8440   15.3360 C   0  0  0  0  0
   38.5150    1.9680   15.1550 C   0  0  0  0  0
   38.6090    2.9990   14.2260 C   0  0  0  0  0
   40.9840    2.8710   14.3780 C   0  0  0  0  0
   41.4217    4.3860   18.3331 H   0  0  0  0  0
   40.7943    3.0178   17.6182 H   0  0  0  0  0
   41.8647    2.8784   18.8877 H   0  0  0  0  0
   44.8586    1.9519   17.8361 H   0  0  0  0  0
   45.4313   -0.3785   17.2284 H   0  0  0  0  0
   43.9060   -1.6777   15.7675 H   0  0  0  0  0
   41.8215   -0.6499   14.8988 H   0  0  0  0  0
   39.5480    0.5638   16.4427 H   0  0  0  0  0
   39.9426    4.2490   13.0982 H   0  0  0  0  0
   43.6174    3.8372   17.5889 H   0  0  0  0  0
   42.4750    3.9861   16.2339 H   0  0  0  0  0
   37.5280    1.6127   15.4512 H   0  0  0  0  0
   37.7066    3.4490   13.8122 H   0  0  0  0  0
   41.9653    3.2212   14.0577 H   0  0  0  0  0
  9  1  1  0  0  0
  2  3  4  0  0  0
 10  2  4  0  0  0
  4  3  4  0  0  0
  5  4  4  0  0  0
  6  5  4  0  0  0
  6 10  4  0  0  0
 11  6  1  0  0  0
 11  7  4  0  0  0
  7 12  4  0  0  0
  8 13  4  0  0  0
 14  8  4  0  0  0
 10  9  1  0  0  0
 11 14  4  0  0  0
 12 13  4  0  0  0
  1 15  1  0  0  0
  1 16  1  0  0  0
  1 17  1  0  0  0
  2 18  1  0  0  0
  3 19  1  0  0  0
  4 20  1  0  0  0
  5 21  1  0  0  0
  7 22  1  0  0  0
  8 23  1  0  0  0
  9 24  1  0  0  0
  9 25  1  0  0  0
 12 26  1  0  0  0
 13 27  1  0  0  0
 14 28  1  0  0  0
M  END
$$$$
