2an5_ligand
  -I-interpret- 

 26 27  0  0  0  0  0  0  0  0999 V2000
   29.4990   46.3790   17.6890 O   0  0  0  0  0
   28.6720   45.3280   18.1970 C   0  0  0  0  0
   28.1850   44.4470   17.0440 C   0  0  0  0  0
   27.7580   45.0510   15.8650 C   0  0  0  0  0
   27.2590   44.2820   14.8200 C   0  0  0  0  0
   27.1880   42.8970   14.9580 C   0  0  0  0  0
   27.6160   42.2970   16.1350 C   0  0  0  0  0
   28.1190   43.0610   17.1850 C   0  0  0  0  0
   28.6160   42.3150   18.4270 C   0  0  0  0  0
   28.7050   43.2460   19.6360 C   0  0  0  0  0
   29.4420   44.5370   19.2620 C   0  0  0  0  0
   29.6170   45.3720   20.4560 N   0  3  0  0  0
   29.0146   46.8722   17.0229 H   0  0  0  0  0
   27.7863   45.7426   18.6784 H   0  0  0  0  0
   27.8153   46.1345   15.7604 H   0  0  0  0  0
   26.9254   44.7592   13.8985 H   0  0  0  0  0
   26.7975   42.2862   14.1441 H   0  0  0  0  0
   27.5574   41.2135   16.2383 H   0  0  0  0  0
   29.6105   41.9200   18.2195 H   0  0  0  0  0
   27.9117   41.5153   18.6562 H   0  0  0  0  0
   29.2524   42.7424   20.4328 H   0  0  0  0  0
   27.6970   43.4955   19.9673 H   0  0  0  0  0
   30.4146   44.2639   18.8528 H   0  0  0  0  0
   30.1077   46.2291   20.2011 H   0  0  0  0  0
   28.7027   45.6047   20.8437 H   0  0  0  0  0
   30.1618   44.8605   21.1502 H   0  0  0  0  0
  1  2  1  0  0  0
  2  3  1  0  0  0
  2 11  1  0  0  0
  3  4  4  0  0  0
  3  8  4  0  0  0
  4  5  4  0  0  0
  5  6  4  0  0  0
  6  7  4  0  0  0
  7  8  4  0  0  0
  8  9  1  0  0  0
  9 10  1  0  0  0
 10 11  1  0  0  0
 11 12  1  0  0  0
  1 13  1  0  0  0
  2 14  1  0  0  0
  4 15  1  0  0  0
  5 16  1  0  0  0
  6 17  1  0  0  0
  7 18  1  0  0  0
  9 19  1  0  0  0
  9 20  1  0  0  0
 10 21  1  0  0  0
 10 22  1  0  0  0
 11 23  1  0  0  0
 12 24  1  0  0  0
 12 25  1  0  0  0
 12 26  1  0  0  0
M  END
$$$$
