6nj0_ligand
  -I-interpret- 

 63 67  0  0  0  0  0  0  0  0999 V2000
   13.4860  -21.3970   -7.1640 C   0  0  0  0  0
   13.1390  -20.3650   -7.9910 C   0  0  0  0  0
   12.9820  -20.5690   -9.3200 C   0  0  0  0  0
   13.2870  -19.6700   -5.9440 C   0  0  0  0  0
   13.1780  -21.7960   -9.8520 N   0  0  0  0  0
   13.6870  -22.6410   -7.6470 N   0  0  0  0  0
   10.8520   -9.7870   -6.8060 O   0  0  0  0  0
   10.8630  -11.0210   -7.0740 C   0  0  0  0  0
   11.8380  -11.4940   -7.6870 O   0  0  0  0  0
    9.7580  -11.8550   -6.6690 C   0  0  0  0  0
    8.5530  -11.7140   -7.3440 C   0  0  0  0  0
    7.4250  -12.4550   -6.9850 C   0  0  0  0  0
    7.4720  -13.3330   -5.9340 C   0  0  0  0  0
    8.7000  -13.5250   -5.2660 C   0  0  0  0  0
    9.8350  -12.7290   -5.5440 C   0  0  0  0  0
   11.0720  -12.8800   -4.8240 C   0  0  0  0  0
   11.8600  -11.9380   -4.6630 O   0  0  0  0  0
   11.3140  -14.0790   -3.8890 C   0  0  0  0  0
   12.7660  -14.1760   -3.3920 C   0  0  0  0  0
   12.9430  -15.2750   -2.4900 C   0  0  0  0  0
   13.0970  -16.5720   -2.9900 C   0  0  0  0  0
   12.9990  -15.1090   -1.0930 C   0  0  0  0  0
   13.1220  -16.1950   -0.2680 C   0  0  0  0  0
   13.2740  -17.4750   -0.7880 C   0  0  0  0  0
   13.2630  -17.6860   -2.1630 C   0  0  0  0  0
   13.4360  -18.9340   -2.7530 O   0  0  0  0  0
   14.3990  -19.7750   -2.0790 C   0  0  0  0  0
   14.6520  -21.0990   -2.8060 C   0  0  0  0  0
   13.5020  -21.4480   -3.4980 O   0  0  0  0  0
   15.8030  -20.8960   -3.7990 C   0  0  0  0  0
   17.0780  -20.9300   -3.1300 O   0  0  0  0  0
   15.5650  -22.0550   -4.6770 C   0  0  0  0  0
   16.0510  -23.3610   -4.0330 O   0  0  0  0  0
   13.9830  -21.9290   -4.7880 C   0  0  0  0  0
   13.6060  -20.9630   -5.9040 N   0  0  0  0  0
   13.0060  -19.2940   -7.2080 N   0  0  0  0  0
   13.5220  -22.8520   -9.0470 C   0  0  0  0  0
   12.6350  -19.5510  -10.1170 N   0  0  0  0  0
   13.2574  -19.0095   -5.0774 H   0  0  0  0  0
   10.0440   -9.5701   -6.3352 H   0  0  0  0  0
    8.4858  -11.0092   -8.1727 H   0  0  0  0  0
    6.4984  -12.3338   -7.5461 H   0  0  0  0  0
    6.5784  -13.8725   -5.6202 H   0  0  0  0  0
    8.7758  -14.3100   -4.5136 H   0  0  0  0  0
   11.0963  -14.9864   -4.4523 H   0  0  0  0  0
   10.6738  -13.9517   -3.0160 H   0  0  0  0  0
   13.0113  -13.2545   -2.8640 H   0  0  0  0  0
   13.4152  -14.3302   -4.2539 H   0  0  0  0  0
   13.0871  -16.7200   -4.0699 H   0  0  0  0  0
   12.9440  -14.1081   -0.6648 H   0  0  0  0  0
   13.1004  -16.0535    0.8126 H   0  0  0  0  0
   13.4029  -18.3208   -0.1126 H   0  0  0  0  0
   14.0007  -20.0097   -1.0919 H   0  0  0  0  0
   15.3435  -19.2323   -2.0404 H   0  0  0  0  0
   14.9095  -21.8857   -2.0968 H   0  0  0  0  0
   15.8302  -19.9402   -4.3223 H   0  0  0  0  0
   17.7790  -20.8008   -3.7730 H   0  0  0  0  0
   16.0873  -22.0703   -5.6336 H   0  0  0  0  0
   15.8811  -24.0934   -4.6300 H   0  0  0  0  0
   13.5297  -22.8905   -5.0290 H   0  0  0  0  0
   13.6679  -23.8441   -9.4743 H   0  0  0  0  0
   12.4889  -18.6216   -9.7229 H   0  0  0  0  0
   12.5167  -19.7047  -11.1184 H   0  0  0  0  0
  1  2  4  0  0  0
  1  6  4  0  0  0
 35  1  4  0  0  0
  2  3  4  0  0  0
 36  2  4  0  0  0
  3  5  4  0  0  0
  3 38  1  0  0  0
 35  4  4  0  0  0
  4 36  4  0  0  0
 37  5  4  0  0  0
  6 37  4  0  0  0
  8  7  1  0  0  0
  8  9  2  0  0  0
 10  8  1  0  0  0
 10 11  4  0  0  0
 15 10  4  0  0  0
 11 12  4  0  0  0
 13 12  4  0  0  0
 14 13  4  0  0  0
 15 14  4  0  0  0
 16 15  1  0  0  0
 16 17  2  0  0  0
 18 16  1  0  0  0
 19 18  1  0  0  0
 20 19  1  0  0  0
 21 20  4  0  0  0
 20 22  4  0  0  0
 25 21  4  0  0  0
 23 22  4  0  0  0
 24 23  4  0  0  0
 25 24  4  0  0  0
 26 25  1  0  0  0
 27 26  1  0  0  0
 28 27  1  0  0  0
 29 28  1  0  0  0
 30 28  1  0  0  0
 34 29  1  0  0  0
 30 31  1  0  0  0
 32 30  1  0  0  0
 32 33  1  0  0  0
 34 32  1  0  0  0
 34 35  1  0  0  0
  4 39  1  0  0  0
  7 40  1  0  0  0
 11 41  1  0  0  0
 12 42  1  0  0  0
 13 43  1  0  0  0
 14 44  1  0  0  0
 18 45  1  0  0  0
 18 46  1  0  0  0
 19 47  1  0  0  0
 19 48  1  0  0  0
 21 49  1  0  0  0
 22 50  1  0  0  0
 23 51  1  0  0  0
 24 52  1  0  0  0
 27 53  1  0  0  0
 27 54  1  0  0  0
 28 55  1  0  0  0
 30 56  1  0  0  0
 31 57  1  0  0  0
 32 58  1  0  0  0
 33 59  1  0  0  0
 34 60  1  0  0  0
 37 61  1  0  0  0
 38 62  1  0  0  0
 38 63  1  0  0  0
M  END
$$$$
