5qal_ligand
  -I-interpret- 

 29 30  0  0  0  0  0  0  0  0999 V2000
  -14.1700  -27.7170   30.5100 N   0  0  0  0  0
  -10.6750  -19.5720   26.8360 C   0  0  0  0  0
  -11.1730  -19.3450   27.9630 O   0  0  0  0  0
  -10.5770  -21.0120   26.3990 C   0  0  0  0  0
  -10.5400  -25.2330   28.4980 C   0  0  0  0  0
  -10.4220  -23.6710   25.6110 C   0  0  0  0  0
   -9.9970  -22.6670   24.7570 C   0  0  0  0  0
  -10.0720  -21.3420   25.1490 C   0  0  0  0  0
  -11.0000  -22.0270   27.2490 C   0  0  0  0  0
  -10.9350  -23.3660   26.8710 C   0  0  0  0  0
  -11.4250  -24.4310   27.7820 C   0  0  0  0  0
  -12.7880  -24.6600   27.9530 C   0  0  0  0  0
  -13.2490  -25.6520   28.7970 C   0  0  0  0  0
  -12.3590  -26.4530   29.5020 C   0  0  0  0  0
  -12.8540  -27.5490   30.4000 C   0  0  0  0  0
  -10.9960  -26.2260   29.3440 C   0  0  0  0  0
  -12.0350  -28.2610   31.0030 O   0  0  0  0  0
  -10.2570  -18.6870   26.0510 O   0  0  0  0  0
  -14.5417  -28.4545   31.1085 H   0  0  0  0  0
  -14.8066  -27.1082   29.9957 H   0  0  0  0  0
   -9.4671  -25.0745   28.3891 H   0  0  0  0  0
  -10.3546  -24.7118   25.2944 H   0  0  0  0  0
   -9.6023  -22.9212   23.7733 H   0  0  0  0  0
   -9.7336  -20.5555   24.4744 H   0  0  0  0  0
  -11.3913  -21.7695   28.2332 H   0  0  0  0  0
  -13.5053  -24.0444   27.4102 H   0  0  0  0  0
  -14.3218  -25.8078   28.9110 H   0  0  0  0  0
  -10.2801  -26.8376   29.8931 H   0  0  0  0  0
   -9.9215  -19.1015   25.2527 H   0  0  0  0  0
 15  1  1  0  0  0
  2  3  2  0  0  0
  4  2  1  0  0  0
  2 18  1  0  0  0
  4  8  4  0  0  0
  9  4  4  0  0  0
 11  5  4  0  0  0
  5 16  4  0  0  0
  6  7  4  0  0  0
 10  6  4  0  0  0
  7  8  4  0  0  0
 10  9  4  0  0  0
 11 10  1  0  0  0
 12 11  4  0  0  0
 13 12  4  0  0  0
 14 13  4  0  0  0
 14 15  1  0  0  0
 14 16  4  0  0  0
 15 17  2  0  0  0
  1 19  1  0  0  0
  1 20  1  0  0  0
  5 21  1  0  0  0
  6 22  1  0  0  0
  7 23  1  0  0  0
  8 24  1  0  0  0
  9 25  1  0  0  0
 12 26  1  0  0  0
 13 27  1  0  0  0
 16 28  1  0  0  0
 18 29  1  0  0  0
M  END
$$$$
