4bbe_ligand
  -I-interpret- 

 52 55  0  0  0  0  0  0  0  0999 V2000
    2.6020   -6.9730   -6.0520 O   0  0  0  0  0
    1.6770   -7.7360   -5.7750 C   0  0  0  0  0
    1.6930   -8.6600   -4.8080 N   0  0  0  0  0
    2.7050   -8.9160   -3.9660 C   0  0  0  0  0
    3.9640   -8.3180   -4.0850 C   0  0  0  0  0
    0.3690   -7.6770   -6.5640 C   0  0  0  0  0
    3.4870  -10.1240   -2.0230 C   0  0  0  0  0
    4.7450   -9.5300   -2.1420 C   0  0  0  0  0
    5.7420   -9.8450   -1.2160 C   0  0  0  0  0
    6.9870   -9.2220   -1.2470 C   0  0  0  0  0
    7.9290   -9.5790   -0.2880 C   0  0  0  0  0
    7.6340  -10.4910    0.6270 N   0  0  0  0  0
    6.4270  -11.0880    0.6560 C   0  0  0  0  0
    5.4970  -10.7610   -0.2620 N   0  0  0  0  0
    6.1890  -12.0030    1.6080 N   0  0  0  0  0
    5.0140  -12.5920    1.8910 C   0  0  0  0  0
    5.0250  -13.6820    2.7600 C   0  0  0  0  0
    3.8440  -14.3390    3.0970 C   0  0  0  0  0
    2.6230  -13.9130    2.5700 C   0  0  0  0  0
    2.6060  -12.8170    1.7010 C   0  0  0  0  0
    3.7910  -12.1610    1.3670 C   0  0  0  0  0
    2.4740   -9.8200   -2.9300 C   0  0  0  0  0
    1.4280  -14.5830    2.9250 N   0  0  0  0  0
    4.9780   -8.6210   -3.1770 C   0  0  0  0  0
    1.3720  -15.3760    4.1890 C   0  0  0  0  0
    0.5050  -16.6310    4.0280 C   0  0  0  0  0
   -0.7680  -16.2520    3.4610 O   0  0  0  0  0
   -0.6210  -15.7790    2.1030 C   0  0  0  0  0
    0.2190  -14.4920    2.0540 C   0  0  0  0  0
    0.8516   -9.2264   -4.7002 H   0  0  0  0  0
    4.1536   -7.6108   -4.8925 H   0  0  0  0  0
   -0.0704   -6.6847   -6.4628 H   0  0  0  0  0
    0.5710   -7.8808   -7.6156 H   0  0  0  0  0
   -0.3229   -8.4236   -6.1743 H   0  0  0  0  0
    3.2961  -10.8303   -1.2151 H   0  0  0  0  0
    7.2177   -8.4728   -2.0044 H   0  0  0  0  0
    8.9118   -9.1077   -0.2891 H   0  0  0  0  0
    6.9865  -12.2822    2.1794 H   0  0  0  0  0
    5.9701  -14.0246    3.1812 H   0  0  0  0  0
    3.8730  -15.1910    3.7763 H   0  0  0  0  0
    1.6604  -12.4732    1.2819 H   0  0  0  0  0
    3.7635  -11.3055    0.6921 H   0  0  0  0  0
    1.4963  -10.2911   -2.8292 H   0  0  0  0  0
    5.9549   -8.1475   -3.2750 H   0  0  0  0  0
    0.9347  -14.7522    4.9686 H   0  0  0  0  0
    2.3845  -15.6868    4.4465 H   0  0  0  0  0
    0.3502  -17.0986    5.0004 H   0  0  0  0  0
    1.0045  -17.3413    3.3692 H   0  0  0  0  0
   -1.6105  -15.5657    1.6985 H   0  0  0  0  0
   -0.1161  -16.5479    1.5182 H   0  0  0  0  0
    0.5487  -14.3379    1.0266 H   0  0  0  0  0
   -0.3980  -13.6673    2.4108 H   0  0  0  0  0
  2  1  2  0  0  0
  3  2  1  0  0  0
  2  6  1  0  0  0
  4  3  1  0  0  0
  4  5  4  0  0  0
 22  4  4  0  0  0
  5 24  4  0  0  0
  7  8  4  0  0  0
  7 22  4  0  0  0
  8  9  1  0  0  0
  8 24  4  0  0  0
  9 10  4  0  0  0
  9 14  4  0  0  0
 10 11  4  0  0  0
 11 12  4  0  0  0
 12 13  4  0  0  0
 13 14  4  0  0  0
 13 15  1  0  0  0
 15 16  1  0  0  0
 16 17  4  0  0  0
 16 21  4  0  0  0
 17 18  4  0  0  0
 18 19  4  0  0  0
 19 20  4  0  0  0
 19 23  1  0  0  0
 20 21  4  0  0  0
 23 25  1  0  0  0
 23 29  1  0  0  0
 25 26  1  0  0  0
 26 27  1  0  0  0
 27 28  1  0  0  0
 28 29  1  0  0  0
  3 30  1  0  0  0
  5 31  1  0  0  0
  6 32  1  0  0  0
  6 33  1  0  0  0
  6 34  1  0  0  0
  7 35  1  0  0  0
 10 36  1  0  0  0
 11 37  1  0  0  0
 15 38  1  0  0  0
 17 39  1  0  0  0
 18 40  1  0  0  0
 20 41  1  0  0  0
 21 42  1  0  0  0
 22 43  1  0  0  0
 24 44  1  0  0  0
 25 45  1  0  0  0
 25 46  1  0  0  0
 26 47  1  0  0  0
 26 48  1  0  0  0
 28 49  1  0  0  0
 28 50  1  0  0  0
 29 51  1  0  0  0
 29 52  1  0  0  0
M  END
$$$$
