### 
### Created by X-TOOL on Mon Sep 10 21:13:16 2018
### 

@<TRIPOS>MOLECULE
2m41_ligand
  245   252     1     0     0
SMALL
GAST_HUCK


@<TRIPOS>ATOM
      1 N         -18.8950   -4.7600   -5.2090 N.4       1 VAL         0.2381
      2 CA        -17.5860   -4.6490   -4.5220 C.3       1 VAL         0.0673
      3 C         -16.4780   -4.3200   -5.5010 C.2       1 VAL         0.2271
      4 O         -16.6870   -4.2720   -6.7120 O.2       1 VAL        -0.3907
      5 CB        -17.1910   -5.9530   -3.8030 C.3       1 VAL         0.0139
      6 CG1       -18.0490   -6.1950   -2.5850 C.3       1 VAL        -0.0553
      7 CG2       -17.2650   -7.1370   -4.7530 C.3       1 VAL        -0.0553
      8 N         -15.2970   -4.0960   -4.9550 N.am      1 PHE        -0.2592
      9 CA        -14.1030   -3.9120   -5.7510 C.3       1 PHE         0.1408
     10 C         -13.0750   -4.9580   -5.3710 C.2       1 PHE         0.2085
     11 O         -12.9280   -5.2750   -4.1860 O.2       1 PHE        -0.3940
     12 CB        -13.5290   -2.5110   -5.5410 C.3       1 PHE         0.0214
     13 CG        -14.1190   -1.4930   -6.4660 C.ar      1 PHE        -0.0386
     14 CD1       -15.4680   -1.1990   -6.4230 C.ar      1 PHE        -0.0601
     15 CD2       -13.3230   -0.8450   -7.3900 C.ar      1 PHE        -0.0601
     16 CE1       -16.0150   -0.2730   -7.2830 C.ar      1 PHE        -0.0686
     17 CE2       -13.8620    0.0820   -8.2570 C.ar      1 PHE        -0.0686
     18 CZ        -15.2100    0.3700   -8.2030 C.ar      1 PHE        -0.0687
     19 N         -12.3810   -5.5360   -6.3660 N.am      1 PRO        -0.2497
     20 CA        -11.2870   -6.4730   -6.1170 C.3       1 PRO         0.1338
     21 C         -10.2830   -5.8590   -5.1550 C.2       1 PRO         0.2042
     22 O          -9.8000   -4.7470   -5.3950 O.2       1 PRO        -0.3944
     23 CB        -10.6660   -6.6800   -7.5000 C.3       1 PRO        -0.0104
     24 CG        -11.7570   -6.3670   -8.4620 C.3       1 PRO        -0.0281
     25 CD        -12.6100   -5.3160   -7.8070 C.3       1 PRO         0.0369
     26 N          -9.9800   -6.5800   -4.0770 N.am      1 TRP        -0.2627
     27 CA         -9.2410   -6.0290   -2.9490 C.3       1 TRP         0.1352
     28 C          -7.9550   -5.2960   -3.3460 C.2       1 TRP         0.2053
     29 O          -7.5200   -4.3880   -2.6360 O.2       1 TRP        -0.3942
     30 CB         -8.9470   -7.1090   -1.9080 C.3       1 TRP         0.0042
     31 CG         -8.3040   -8.3420   -2.4580 C.2       1 TRP        -0.0418
     32 CD1        -8.9100   -9.3440   -3.1580 C.2       1 TRP         0.0167
     33 CD2        -6.9370   -8.7200   -2.3200 C.ar      1 TRP        -0.0214
     34 NE1        -7.9960  -10.3100   -3.4850 N.pl3     1 TRP        -0.2890
     35 CE2        -6.7770   -9.9510   -2.9780 C.ar      1 TRP         0.0603
     36 CE3        -5.8280   -8.1320   -1.7120 C.ar      1 TRP        -0.0747
     37 CZ2        -5.5550  -10.6040   -3.0390 C.ar      1 TRP        -0.0443
     38 CZ3        -4.6160   -8.7840   -1.7760 C.ar      1 TRP        -0.0792
     39 CH2        -4.4890  -10.0090   -2.4350 C.ar      1 TRP        -0.0768
     40 N          -7.3360   -5.6770   -4.4670 N.am      1 HIS        -0.2624
     41 CA         -6.2020   -4.9210   -4.9890 C.3       1 HIS         0.1369
     42 C          -6.6640   -3.5650   -5.5480 C.2       1 HIS         0.2054
     43 O          -6.6580   -3.3260   -6.7520 O.2       1 HIS        -0.3942
     44 CB         -5.4390   -5.7290   -6.0530 C.3       1 HIS         0.0145
     45 CG         -6.2340   -6.0940   -7.2790 C.2       1 HIS        -0.0027
     46 ND1        -6.1050   -5.4380   -8.4860 N.2       1 HIS        -0.3252
     47 CD2        -7.1500   -7.0670   -7.4840 C.2       1 HIS         0.0291
     48 CE1        -6.9050   -5.9920   -9.3760 C.2       1 HIS         0.0907
     49 NE2        -7.5520   -6.9840   -8.7930 N.pl3     1 HIS        -0.2752
     50 N          -7.0820   -2.6840   -4.6590 N.am      1 SER        -0.2615
     51 CA         -7.5940   -1.3830   -5.0520 C.3       1 SER         0.1539
     52 C          -6.8120   -0.2620   -4.3600 C.2       1 SER         0.2062
     53 O          -6.8480    0.8930   -4.7790 O.2       1 SER        -0.3943
     54 CB         -9.0890   -1.3110   -4.6980 C.3       1 SER         0.0843
     55 OG         -9.6550   -0.0490   -5.0110 O.3       1 SER        -0.3903
     56 N          -6.0870   -0.6230   -3.3110 N.am      1 LEU        -0.2636
     57 CA         -5.4190    0.3550   -2.4520 C.3       1 LEU         0.1312
     58 C          -3.9990   -0.0910   -2.1240 C.2       1 LEU         0.2039
     59 O          -3.2710    0.6100   -1.4310 O.2       1 LEU        -0.3944
     60 CB         -6.2200    0.5310   -1.1610 C.3       1 LEU        -0.0101
     61 CG         -7.3270   -0.5090   -0.9540 C.3       1 LEU        -0.0425
     62 CD1        -7.5340   -0.7910    0.5150 C.3       1 LEU        -0.0625
     63 CD2        -8.6360   -0.0360   -1.5730 C.3       1 LEU        -0.0625
     64 N          -3.6100   -1.2610   -2.6210 N.am      1 VAL        -0.2635
     65 CA         -2.2820   -1.7790   -2.3820 C.3       1 VAL         0.1334
     66 C          -1.3550   -1.4080   -3.5410 C.2       1 VAL         0.2066
     67 O          -1.5240   -1.8800   -4.6670 O.2       1 VAL        -0.3942
     68 CB         -2.3090   -3.3140   -2.1630 C.3       1 VAL        -0.0062
     69 CG1        -3.0430   -4.0320   -3.2890 C.3       1 VAL        -0.0584
     70 CG2        -0.9040   -3.8540   -2.0210 C.3       1 VAL        -0.0584
     71 N          -0.3890   -0.5190   -3.2870 N.am      1 PRO        -0.2498
     72 CA          0.5540   -0.0750   -4.2990 C.3       1 PRO         0.1338
     73 C           1.7670   -0.9880   -4.3800 C.2       1 PRO         0.2042
     74 O           1.9670   -1.8570   -3.5290 O.2       1 PRO        -0.3944
     75 CB          0.9520    1.3070   -3.7930 C.3       1 PRO        -0.0104
     76 CG          0.8990    1.1890   -2.3080 C.3       1 PRO        -0.0281
     77 CD         -0.1310    0.1270   -1.9900 C.3       1 PRO         0.0369
     78 N           2.5730   -0.7890   -5.4020 N.am      1 PHE        -0.2619
     79 CA          3.7650   -1.5870   -5.5850 C.3       1 PHE         0.1404
     80 C           4.9790   -0.6840   -5.4680 C.2       1 PHE         0.2060
     81 O           4.9930    0.4120   -6.0270 O.2       1 PHE        -0.3942
     82 CB          3.7470   -2.2750   -6.9550 C.3       1 PHE         0.0214
     83 CG          2.3800   -2.7310   -7.3900 C.ar      1 PHE        -0.0386
     84 CD1         1.6220   -3.5780   -6.5930 C.ar      1 PHE        -0.0601
     85 CD2         1.8520   -2.3060   -8.5980 C.ar      1 PHE        -0.0601
     86 CE1         0.3650   -3.9880   -6.9970 C.ar      1 PHE        -0.0686
     87 CE2         0.5970   -2.7150   -9.0060 C.ar      1 PHE        -0.0686
     88 CZ         -0.1480   -3.5560   -8.2040 C.ar      1 PHE        -0.0687
     89 N           5.9920   -1.1340   -4.7430 N.am      1 LEU        -0.2636
     90 CA          7.2010   -0.3390   -4.5540 C.3       1 LEU         0.1312
     91 C           8.1150   -0.4520   -5.7820 C.2       1 LEU         0.2039
     92 O           9.3350   -0.5010   -5.6690 O.2       1 LEU        -0.3944
     93 CB          7.9130   -0.7170   -3.2160 C.3       1 LEU        -0.0101
     94 CG          8.6170   -2.0960   -3.0590 C.3       1 LEU        -0.0425
     95 CD1         7.9040   -3.2170   -3.7920 C.3       1 LEU        -0.0625
     96 CD2        10.0860   -2.0200   -3.4660 C.3       1 LEU        -0.0625
     97 N           7.4840   -0.4230   -6.9640 N.am      1 ALA        -0.2640
     98 CA          8.1420   -0.7130   -8.2390 C.3       1 ALA         0.1284
     99 C           8.4460   -2.2060   -8.3360 C.2       1 ALA         0.2061
    100 O           8.4500   -2.9050   -7.3220 O.2       1 ALA        -0.3942
    101 CB          9.4060    0.1270   -8.4160 C.3       1 ALA        -0.0244
    102 N           8.6430   -2.7310   -9.5600 N.am      1 PRO        -0.2498
    103 CA          9.0130   -4.1320   -9.7670 C.3       1 PRO         0.1338
    104 C          10.2100   -4.5340   -8.9130 C.2       1 PRO         0.2042
    105 O          11.3540   -4.1860   -9.2170 O.2       1 PRO        -0.3944
    106 CB          9.3630   -4.2120  -11.2600 C.3       1 PRO        -0.0104
    107 CG          9.4060   -2.7990  -11.7430 C.3       1 PRO        -0.0281
    108 CD          8.5010   -2.0220  -10.8370 C.3       1 PRO         0.0369
    109 N           9.9290   -5.2450   -7.8330 N.am      1 SER        -0.2616
    110 CA         10.9530   -5.6770   -6.9050 C.3       1 SER         0.1539
    111 C          11.8270   -6.7650   -7.5210 C.2       1 SER         0.2056
    112 O          11.4550   -7.3890   -8.5180 O.2       1 SER        -0.3943
    113 CB         10.2970   -6.1690   -5.6130 C.3       1 SER         0.0843
    114 OG          9.1890   -7.0100   -5.8950 O.3       1 SER        -0.3903
    115 N          12.9920   -6.9720   -6.9360 N.am      1 GLN        -0.2693
    116 CA         13.9280   -7.9560   -7.4290 C.3       1 GLN         0.0964
    117 C          13.8520   -9.2330   -6.6050 C.2       1 GLN         0.0602
    118 O          13.3070  -10.2320   -7.1180 O.co2     1 GLN        -0.5666
    119 CB         15.3500   -7.3820   -7.4530 C.3       1 GLN        -0.0010
    120 CG         15.7440   -6.6340   -6.1860 C.3       1 GLN         0.0407
    121 CD         17.0540   -5.8880   -6.3390 C.2       1 GLN         0.1737
    122 OE1        17.9410   -6.3060   -7.0860 O.2       1 GLN        -0.3973
    123 NE2        17.1820   -4.7720   -5.6410 N.am      1 GLN        -0.3009
    124 OXT        14.2990   -9.2280   -5.4430 O.co2     1 GLN        -0.5666
    125 H1        -19.1110   -3.8866   -5.6635 H         1 VAL         0.2015
    126 H2        -19.6120   -4.9735   -4.5335 H         1 VAL         0.2015
    127 H3        -18.8520   -5.4952   -5.8972 H         1 VAL         0.2015
    128 H4        -17.6588   -3.8418   -3.7783 H         1 VAL         0.1101
    129 H5        -16.1485   -5.8506   -3.4672 H         1 VAL         0.0376
    130 H6        -17.7393   -7.1318   -2.0986 H         1 VAL         0.0236
    131 H7        -19.1036   -6.2707   -2.8885 H         1 VAL         0.0236
    132 H8        -17.9293   -5.3590   -1.8802 H         1 VAL         0.0236
    133 H9        -16.6341   -6.9413   -5.6326 H         1 VAL         0.0236
    134 H10       -18.3066   -7.2847   -5.0745 H         1 VAL         0.0236
    135 H11       -16.9079   -8.0419   -4.2396 H         1 VAL         0.0236
    136 H12       -15.2254   -4.0521   -3.9585 H         1 PHE         0.1886
    137 H13       -14.3610   -4.0333   -6.8134 H         1 PHE         0.0823
    138 H14       -12.4424   -2.5486   -5.7082 H         1 PHE         0.0474
    139 H15       -13.7301   -2.2014   -4.5048 H         1 PHE         0.0474
    140 H16       -16.1035   -1.7031   -5.7039 H         1 PHE         0.0557
    141 H17       -12.2630   -1.0675   -7.4342 H         1 PHE         0.0557
    142 H18       -17.0747   -0.0492   -7.2381 H         1 PHE         0.0599
    143 H19       -13.2279    0.5832   -8.9793 H         1 PHE         0.0599
    144 H20       -15.6368    1.0998   -8.8815 H         1 PHE         0.0559
    145 H21       -11.6618   -7.4224   -5.7070 H         1 PRO         0.0802
    146 H22       -10.3301   -7.7204   -7.6214 H         1 PRO         0.0313
    147 H23        -9.8139   -6.0001   -7.6471 H         1 PRO         0.0313
    148 H24       -12.3537   -7.2680   -8.6672 H         1 PRO         0.0287
    149 H25       -11.3363   -5.9835   -9.4032 H         1 PRO         0.0287
    150 H26       -12.2901   -4.3071   -8.1065 H         1 PRO         0.0524
    151 H27       -13.6708   -5.4552   -8.0624 H         1 PRO         0.0524
    152 H28       -10.2709   -7.5361   -4.0405 H         1 TRP         0.1884
    153 H29        -9.8970   -5.2848   -2.4739 H         1 TRP         0.0815
    154 H30        -9.8972   -7.3987   -1.4357 H         1 TRP         0.0397
    155 H31        -8.2757   -6.6809   -1.1490 H         1 TRP         0.0397
    156 H32        -9.9669   -9.3717   -3.4188 H         1 TRP         0.0795
    157 H33        -8.1936  -11.1654   -4.0236 H         1 TRP         0.2216
    158 H34        -5.9179   -7.1811   -1.1994 H         1 TRP         0.0540
    159 H35        -5.4519  -11.5547   -3.5495 H         1 TRP         0.0541
    160 H36        -3.7461   -8.3387   -1.3069 H         1 TRP         0.0510
    161 H37        -3.5213  -10.4966   -2.4664 H         1 TRP         0.0530
    162 H38        -7.6537   -6.4903   -4.9545 H         1 HIS         0.1885
    163 H39        -5.5120   -4.7261   -4.1548 H         1 HIS         0.0817
    164 H40        -5.0892   -6.6611   -5.5853 H         1 HIS         0.0420
    165 H41        -4.5726   -5.1329   -6.3753 H         1 HIS         0.0420
    166 H42        -7.5038   -7.7849   -6.7455 H         1 HIS         0.0729
    167 H43        -7.0134   -5.6837  -10.4148 H         1 HIS         0.1199
    168 H44        -8.2454   -7.5958   -9.2468 H         1 HIS         0.2361
    169 H45        -7.0452   -2.9187   -3.6876 H         1 SER         0.1884
    170 H46        -7.4799   -1.2682   -6.1400 H         1 SER         0.0823
    171 H47        -9.2066   -1.4940   -3.6197 H         1 SER         0.0606
    172 H48        -9.6243   -2.0887   -5.2625 H         1 SER         0.0606
    173 H49        -9.2031    0.6293   -4.5229 H         1 SER         0.2097
    174 H50        -5.9934   -1.5959   -3.0996 H         1 LEU         0.1883
    175 H51        -5.3737    1.3189   -2.9800 H         1 LEU         0.0800
    176 H52        -6.6840    1.5282   -1.1776 H         1 LEU         0.0315
    177 H53        -5.5232    0.4648   -0.3124 H         1 LEU         0.0315
    178 H54        -7.0219   -1.4422   -1.4500 H         1 LEU         0.0298
    179 H55        -8.3317   -1.5387    0.6359 H         1 LEU         0.0232
    180 H56        -7.8209    0.1378    1.0298 H         1 LEU         0.0232
    181 H57        -6.6002   -1.1776    0.9493 H         1 LEU         0.0232
    182 H58        -8.4828    0.1687   -2.6429 H         1 LEU         0.0232
    183 H59        -8.9696    0.8825   -1.0680 H         1 LEU         0.0232
    184 H60        -9.4009   -0.8177   -1.4552 H         1 LEU         0.0232
    185 H61        -4.2508   -1.7949   -3.1728 H         1 VAL         0.1883
    186 H62        -1.8913   -1.3117   -1.4660 H         1 VAL         0.0803
    187 H63        -2.8493   -3.5126   -1.2257 H         1 VAL         0.0343
    188 H64        -3.0398   -5.1150   -3.0966 H         1 VAL         0.0234
    189 H65        -2.5380   -3.8279   -4.2446 H         1 VAL         0.0234
    190 H66        -4.0810   -3.6715   -3.3385 H         1 VAL         0.0234
    191 H67        -0.3889   -3.3257   -1.2052 H         1 VAL         0.0234
    192 H68        -0.3551   -3.6998   -2.9617 H         1 VAL         0.0234
    193 H69        -0.9457   -4.9292   -1.7927 H         1 VAL         0.0234
    194 H70         0.0743   -0.0154   -5.2871 H         1 PRO         0.0802
    195 H71         0.2438    2.0701   -4.1481 H         1 PRO         0.0313
    196 H72         1.9677    1.5658   -4.1266 H         1 PRO         0.0313
    197 H73         0.6022    2.1498   -1.8622 H         1 PRO         0.0287
    198 H74         1.8829    0.8914   -1.9164 H         1 PRO         0.0287
    199 H75         0.2662   -0.5979   -1.2643 H         1 PRO         0.0524
    200 H76        -1.0496    0.5808   -1.5897 H         1 PRO         0.0524
    201 H77         2.3566   -0.0720   -6.0646 H         1 PHE         0.1885
    202 H78         3.8086   -2.3568   -4.8005 H         1 PHE         0.0823
    203 H79         4.4073   -3.1536   -6.9102 H         1 PHE         0.0474
    204 H80         4.1302   -1.5661   -7.7037 H         1 PHE         0.0474
    205 H81         2.0195   -3.9212   -5.6447 H         1 PHE         0.0557
    206 H82         2.4310   -1.6439   -9.2315 H         1 PHE         0.0557
    207 H83        -0.2181   -4.6489   -6.3659 H         1 PHE         0.0599
    208 H84         0.1977   -2.3758   -9.9550 H         1 PHE         0.0599
    209 H85        -1.1338   -3.8766   -8.5211 H         1 PHE         0.0559
    210 H86         5.9270   -2.0363   -4.3168 H         1 LEU         0.1883
    211 H87         6.8973    0.7150   -4.4715 H         1 LEU         0.0800
    212 H88         7.1498   -0.6609   -2.4259 H         1 LEU         0.0315
    213 H89         8.6807    0.0508   -3.0395 H         1 LEU         0.0315
    214 H90         8.5889   -2.3470   -1.9884 H         1 LEU         0.0298
    215 H91         8.4505   -4.1596   -3.6410 H         1 LEU         0.0232
    216 H92         7.8633   -2.9849   -4.8665 H         1 LEU         0.0232
    217 H93         6.8813   -3.3193   -3.3999 H         1 LEU         0.0232
    218 H94        10.5758   -1.2003   -2.9199 H         1 LEU         0.0232
    219 H95        10.1576   -1.8341   -4.5478 H         1 LEU         0.0232
    220 H96        10.5833   -2.9707   -3.2236 H         1 LEU         0.0232
    221 H97         6.5114   -0.1908   -6.9756 H         1 ALA         0.1883
    222 H98         7.4473   -0.4514   -9.0507 H         1 ALA         0.0797
    223 H99         9.8747   -0.1147   -9.3814 H         1 ALA         0.0277
    224 H100       10.1105   -0.0944   -7.6008 H         1 ALA         0.0277
    225 H101        9.1428    1.1948   -8.3934 H         1 ALA         0.0277
    226 H102        8.1646   -4.7914   -9.5317 H         1 PRO         0.0802
    227 H103        8.5938   -4.7797  -11.8041 H         1 PRO         0.0313
    228 H104       10.3418   -4.6944  -11.3989 H         1 PRO         0.0313
    229 H105        9.0488   -2.7396  -12.7817 H         1 PRO         0.0287
    230 H106       10.4321   -2.4069  -11.6852 H         1 PRO         0.0287
    231 H107        8.8295   -0.9759  -10.7493 H         1 PRO         0.0524
    232 H108        7.4610   -2.0511  -11.1941 H         1 PRO         0.0524
    233 H109        8.9772   -5.4923   -7.6516 H         1 SER         0.1884
    234 H110       11.5936   -4.8154   -6.6658 H         1 SER         0.0823
    235 H111        9.9516   -5.3014   -5.0316 H         1 SER         0.0606
    236 H112       11.0367   -6.7330   -5.0258 H         1 SER         0.0606
    237 H113        8.7991   -7.3023   -5.0795 H         1 SER         0.2097
    238 H114       13.2335   -6.4328   -6.1292 H         1 GLN         0.1875
    239 H115       13.6473   -8.2052   -8.4630 H         1 GLN         0.0727
    240 H116       15.4268   -6.6866   -8.3018 H         1 GLN         0.0330
    241 H117       16.0553   -8.2140   -7.5955 H         1 GLN         0.0330
    242 H118       15.8442   -7.3588   -5.3646 H         1 GLN         0.0504
    243 H119       14.9520   -5.9106   -5.9422 H         1 GLN         0.0504
    244 H120       18.0251   -4.2377   -5.7025 H         1 GLN         0.1814
    245 H121       16.4357   -4.4624   -5.0518 H         1 GLN         0.1814
@<TRIPOS>BOND
     1    1    2 1  
     2    2    3 1  
     3    2    5 1  
     4    3    4 2  
     5    3    8 am 
     6    5    6 1  
     7    5    7 1  
     8    8    9 1  
     9    9   10 1  
    10    9   12 1  
    11   10   11 2  
    12   10   19 am 
    13   12   13 1  
    14   13   14 ar 
    15   13   15 ar 
    16   14   16 ar 
    17   15   17 ar 
    18   16   18 ar 
    19   17   18 ar 
    20   19   20 1  
    21   19   25 1  
    22   20   21 1  
    23   20   23 1  
    24   21   22 2  
    25   21   26 am 
    26   23   24 1  
    27   24   25 1  
    28   26   27 1  
    29   27   28 1  
    30   27   30 1  
    31   28   29 2  
    32   28   40 am 
    33   30   31 1  
    34   31   32 2  
    35   31   33 1  
    36   32   34 1  
    37   33   35 ar 
    38   33   36 ar 
    39   34   35 1  
    40   35   37 ar 
    41   36   38 ar 
    42   37   39 ar 
    43   38   39 ar 
    44   40   41 1  
    45   41   42 1  
    46   41   44 1  
    47   42   43 2  
    48   42   50 am 
    49   44   45 1  
    50   45   46 1  
    51   45   47 2  
    52   46   48 2  
    53   47   49 1  
    54   48   49 1  
    55   50   51 1  
    56   51   52 1  
    57   51   54 1  
    58   52   53 2  
    59   52   56 am 
    60   54   55 1  
    61   56   57 1  
    62   57   58 1  
    63   57   60 1  
    64   58   59 2  
    65   58   64 am 
    66   60   61 1  
    67   61   62 1  
    68   61   63 1  
    69   64   65 1  
    70   65   66 1  
    71   65   68 1  
    72   66   67 2  
    73   66   71 am 
    74   68   69 1  
    75   68   70 1  
    76   71   72 1  
    77   71   77 1  
    78   72   73 1  
    79   72   75 1  
    80   73   74 2  
    81   73   78 am 
    82   75   76 1  
    83   76   77 1  
    84   78   79 1  
    85   79   80 1  
    86   79   82 1  
    87   80   81 2  
    88   80   89 am 
    89   82   83 1  
    90   83   84 ar 
    91   83   85 ar 
    92   84   86 ar 
    93   85   87 ar 
    94   86   88 ar 
    95   87   88 ar 
    96   89   90 1  
    97   90   91 1  
    98   90   93 1  
    99   91   92 2  
   100   91   97 am 
   101   93   94 1  
   102   94   95 1  
   103   94   96 1  
   104   97   98 1  
   105   98   99 1  
   106   98  101 1  
   107   99  100 2  
   108   99  102 am 
   109  102  103 1  
   110  102  108 1  
   111  103  104 1  
   112  103  106 1  
   113  104  105 2  
   114  104  109 am 
   115  106  107 1  
   116  107  108 1  
   117  109  110 1  
   118  110  111 1  
   119  110  113 1  
   120  111  112 2  
   121  111  115 am 
   122  113  114 1  
   123  115  116 1  
   124  116  117 1  
   125  116  119 1  
   126  117  118 ar 
   127  117  124 ar 
   128  119  120 1  
   129  120  121 1  
   130  121  122 2  
   131  121  123 am 
   132    1  125 1  
   133    1  126 1  
   134    1  127 1  
   135    2  128 1  
   136    5  129 1  
   137    6  130 1  
   138    6  131 1  
   139    6  132 1  
   140    7  133 1  
   141    7  134 1  
   142    7  135 1  
   143    8  136 1  
   144    9  137 1  
   145   12  138 1  
   146   12  139 1  
   147   14  140 1  
   148   15  141 1  
   149   16  142 1  
   150   17  143 1  
   151   18  144 1  
   152   20  145 1  
   153   23  146 1  
   154   23  147 1  
   155   24  148 1  
   156   24  149 1  
   157   25  150 1  
   158   25  151 1  
   159   26  152 1  
   160   27  153 1  
   161   30  154 1  
   162   30  155 1  
   163   32  156 1  
   164   34  157 1  
   165   36  158 1  
   166   37  159 1  
   167   38  160 1  
   168   39  161 1  
   169   40  162 1  
   170   41  163 1  
   171   44  164 1  
   172   44  165 1  
   173   47  166 1  
   174   48  167 1  
   175   49  168 1  
   176   50  169 1  
   177   51  170 1  
   178   54  171 1  
   179   54  172 1  
   180   55  173 1  
   181   56  174 1  
   182   57  175 1  
   183   60  176 1  
   184   60  177 1  
   185   61  178 1  
   186   62  179 1  
   187   62  180 1  
   188   62  181 1  
   189   63  182 1  
   190   63  183 1  
   191   63  184 1  
   192   64  185 1  
   193   65  186 1  
   194   68  187 1  
   195   69  188 1  
   196   69  189 1  
   197   69  190 1  
   198   70  191 1  
   199   70  192 1  
   200   70  193 1  
   201   72  194 1  
   202   75  195 1  
   203   75  196 1  
   204   76  197 1  
   205   76  198 1  
   206   77  199 1  
   207   77  200 1  
   208   78  201 1  
   209   79  202 1  
   210   82  203 1  
   211   82  204 1  
   212   84  205 1  
   213   85  206 1  
   214   86  207 1  
   215   87  208 1  
   216   88  209 1  
   217   89  210 1  
   218   90  211 1  
   219   93  212 1  
   220   93  213 1  
   221   94  214 1  
   222   95  215 1  
   223   95  216 1  
   224   95  217 1  
   225   96  218 1  
   226   96  219 1  
   227   96  220 1  
   228   97  221 1  
   229   98  222 1  
   230  101  223 1  
   231  101  224 1  
   232  101  225 1  
   233  103  226 1  
   234  106  227 1  
   235  106  228 1  
   236  107  229 1  
   237  107  230 1  
   238  108  231 1  
   239  108  232 1  
   240  109  233 1  
   241  110  234 1  
   242  113  235 1  
   243  113  236 1  
   244  114  237 1  
   245  115  238 1  
   246  116  239 1  
   247  119  240 1  
   248  119  241 1  
   249  120  242 1  
   250  120  243 1  
   251  123  244 1  
   252  123  245 1  
@<TRIPOS>SUBSTRUCTURE
     1 VAL         1

