2m41_ligand
  -I-interpret- 

244251  0  0  0  0  0  0  0  0999 V2000
  -18.8950   -4.7600   -5.2090 N   0  3  0  0  0
  -17.5860   -4.6490   -4.5220 C   0  0  0  0  0
  -16.4780   -4.3200   -5.5010 C   0  0  0  0  0
  -16.6870   -4.2720   -6.7120 O   0  0  0  0  0
  -17.1910   -5.9530   -3.8030 C   0  0  0  0  0
  -18.0490   -6.1950   -2.5850 C   0  0  0  0  0
  -17.2650   -7.1370   -4.7530 C   0  0  0  0  0
  -15.2970   -4.0960   -4.9550 N   0  0  0  0  0
  -14.1030   -3.9120   -5.7510 C   0  0  0  0  0
  -13.0750   -4.9580   -5.3710 C   0  0  0  0  0
  -12.9280   -5.2750   -4.1860 O   0  0  0  0  0
  -13.5290   -2.5110   -5.5410 C   0  0  0  0  0
  -14.1190   -1.4930   -6.4660 C   0  0  0  0  0
  -15.4680   -1.1990   -6.4230 C   0  0  0  0  0
  -13.3230   -0.8450   -7.3900 C   0  0  0  0  0
  -16.0150   -0.2730   -7.2830 C   0  0  0  0  0
  -13.8620    0.0820   -8.2570 C   0  0  0  0  0
  -15.2100    0.3700   -8.2030 C   0  0  0  0  0
  -12.3810   -5.5360   -6.3660 N   0  0  0  0  0
  -11.2870   -6.4730   -6.1170 C   0  0  0  0  0
  -10.2830   -5.8590   -5.1550 C   0  0  0  0  0
   -9.8000   -4.7470   -5.3950 O   0  0  0  0  0
  -10.6660   -6.6800   -7.5000 C   0  0  0  0  0
  -11.7570   -6.3670   -8.4620 C   0  0  0  0  0
  -12.6100   -5.3160   -7.8070 C   0  0  0  0  0
   -9.9800   -6.5800   -4.0770 N   0  0  0  0  0
   -9.2410   -6.0290   -2.9490 C   0  0  0  0  0
   -7.9550   -5.2960   -3.3460 C   0  0  0  0  0
   -7.5200   -4.3880   -2.6360 O   0  0  0  0  0
   -8.9470   -7.1090   -1.9080 C   0  0  0  0  0
   -8.3040   -8.3420   -2.4580 C   0  0  0  0  0
   -8.9100   -9.3440   -3.1580 C   0  0  0  0  0
   -6.9370   -8.7200   -2.3200 C   0  0  0  0  0
   -7.9960  -10.3100   -3.4850 N   0  0  0  0  0
   -6.7770   -9.9510   -2.9780 C   0  0  0  0  0
   -5.8280   -8.1320   -1.7120 C   0  0  0  0  0
   -5.5550  -10.6040   -3.0390 C   0  0  0  0  0
   -4.6160   -8.7840   -1.7760 C   0  0  0  0  0
   -4.4890  -10.0090   -2.4350 C   0  0  0  0  0
   -7.3360   -5.6770   -4.4670 N   0  0  0  0  0
   -6.2020   -4.9210   -4.9890 C   0  0  0  0  0
   -6.6640   -3.5650   -5.5480 C   0  0  0  0  0
   -6.6580   -3.3260   -6.7520 O   0  0  0  0  0
   -5.4390   -5.7290   -6.0530 C   0  0  0  0  0
   -6.2340   -6.0940   -7.2790 C   0  0  0  0  0
   -6.1050   -5.4380   -8.4860 N   0  0  0  0  0
   -7.1500   -7.0670   -7.4840 C   0  0  0  0  0
   -6.9050   -5.9920   -9.3760 C   0  0  0  0  0
   -7.5520   -6.9840   -8.7930 N   0  0  0  0  0
   -7.0820   -2.6840   -4.6590 N   0  0  0  0  0
   -7.5940   -1.3830   -5.0520 C   0  0  0  0  0
   -6.8120   -0.2620   -4.3600 C   0  0  0  0  0
   -6.8480    0.8930   -4.7790 O   0  0  0  0  0
   -9.0890   -1.3110   -4.6980 C   0  0  0  0  0
   -9.6550   -0.0490   -5.0110 O   0  0  0  0  0
   -6.0870   -0.6230   -3.3110 N   0  0  0  0  0
   -5.4190    0.3550   -2.4520 C   0  0  0  0  0
   -3.9990   -0.0910   -2.1240 C   0  0  0  0  0
   -3.2710    0.6100   -1.4310 O   0  0  0  0  0
   -6.2200    0.5310   -1.1610 C   0  0  0  0  0
   -7.3270   -0.5090   -0.9540 C   0  0  0  0  0
   -7.5340   -0.7910    0.5150 C   0  0  0  0  0
   -8.6360   -0.0360   -1.5730 C   0  0  0  0  0
   -3.6100   -1.2610   -2.6210 N   0  0  0  0  0
   -2.2820   -1.7790   -2.3820 C   0  0  0  0  0
   -1.3550   -1.4080   -3.5410 C   0  0  0  0  0
   -1.5240   -1.8800   -4.6670 O   0  0  0  0  0
   -2.3090   -3.3140   -2.1630 C   0  0  0  0  0
   -3.0430   -4.0320   -3.2890 C   0  0  0  0  0
   -0.9040   -3.8540   -2.0210 C   0  0  0  0  0
   -0.3890   -0.5190   -3.2870 N   0  0  0  0  0
    0.5540   -0.0750   -4.2990 C   0  0  0  0  0
    1.7670   -0.9880   -4.3800 C   0  0  0  0  0
    1.9670   -1.8570   -3.5290 O   0  0  0  0  0
    0.9520    1.3070   -3.7930 C   0  0  0  0  0
    0.8990    1.1890   -2.3080 C   0  0  0  0  0
   -0.1310    0.1270   -1.9900 C   0  0  0  0  0
    2.5730   -0.7890   -5.4020 N   0  0  0  0  0
    3.7650   -1.5870   -5.5850 C   0  0  0  0  0
    4.9790   -0.6840   -5.4680 C   0  0  0  0  0
    4.9930    0.4120   -6.0270 O   0  0  0  0  0
    3.7470   -2.2750   -6.9550 C   0  0  0  0  0
    2.3800   -2.7310   -7.3900 C   0  0  0  0  0
    1.6220   -3.5780   -6.5930 C   0  0  0  0  0
    1.8520   -2.3060   -8.5980 C   0  0  0  0  0
    0.3650   -3.9880   -6.9970 C   0  0  0  0  0
    0.5970   -2.7150   -9.0060 C   0  0  0  0  0
   -0.1480   -3.5560   -8.2040 C   0  0  0  0  0
    5.9920   -1.1340   -4.7430 N   0  0  0  0  0
    7.2010   -0.3390   -4.5540 C   0  0  0  0  0
    8.1150   -0.4520   -5.7820 C   0  0  0  0  0
    9.3350   -0.5010   -5.6690 O   0  0  0  0  0
    7.9130   -0.7170   -3.2160 C   0  0  0  0  0
    8.6170   -2.0960   -3.0590 C   0  0  0  0  0
    7.9040   -3.2170   -3.7920 C   0  0  0  0  0
   10.0860   -2.0200   -3.4660 C   0  0  0  0  0
    7.4840   -0.4230   -6.9640 N   0  0  0  0  0
    8.1420   -0.7130   -8.2390 C   0  0  0  0  0
    8.4460   -2.2060   -8.3360 C   0  0  0  0  0
    8.4500   -2.9050   -7.3220 O   0  0  0  0  0
    9.4060    0.1270   -8.4160 C   0  0  0  0  0
    8.6430   -2.7310   -9.5600 N   0  0  0  0  0
    9.0130   -4.1320   -9.7670 C   0  0  0  0  0
   10.2100   -4.5340   -8.9130 C   0  0  0  0  0
   11.3540   -4.1860   -9.2170 O   0  0  0  0  0
    9.3630   -4.2120  -11.2600 C   0  0  0  0  0
    9.4060   -2.7990  -11.7430 C   0  0  0  0  0
    8.5010   -2.0220  -10.8370 C   0  0  0  0  0
    9.9290   -5.2450   -7.8330 N   0  0  0  0  0
   10.9530   -5.6770   -6.9050 C   0  0  0  0  0
   11.8270   -6.7650   -7.5210 C   0  0  0  0  0
   11.4550   -7.3890   -8.5180 O   0  0  0  0  0
   10.2970   -6.1690   -5.6130 C   0  0  0  0  0
    9.1890   -7.0100   -5.8950 O   0  0  0  0  0
   12.9920   -6.9720   -6.9360 N   0  0  0  0  0
   13.9280   -7.9560   -7.4290 C   0  0  0  0  0
   13.8520   -9.2330   -6.6050 C   0  0  0  0  0
   13.3070  -10.2320   -7.1180 O   0  0  0  0  0
   15.3500   -7.3820   -7.4530 C   0  0  0  0  0
   15.7440   -6.6340   -6.1860 C   0  0  0  0  0
   17.0540   -5.8880   -6.3390 C   0  0  0  0  0
   17.9410   -6.3060   -7.0860 O   0  0  0  0  0
   17.1820   -4.7720   -5.6410 N   0  0  0  0  0
   14.2990   -9.2280   -5.4430 O   0  0  0  0  0
  -19.1125   -3.8757   -5.6685 H   0  0  0  0  0
  -18.8503   -5.5043   -5.9050 H   0  0  0  0  0
  -19.6196   -4.9761   -4.5245 H   0  0  0  0  0
  -17.7052   -3.8490   -3.7914 H   0  0  0  0  0
  -16.1600   -5.8433   -3.4668 H   0  0  0  0  0
  -19.0847   -6.3365   -2.8940 H   0  0  0  0  0
  -17.6981   -7.0872   -2.0664 H   0  0  0  0  0
  -17.9817   -5.3354   -1.9181 H   0  0  0  0  0
  -16.9109   -8.0330   -4.2431 H   0  0  0  0  0
  -18.2975   -7.2823   -5.0707 H   0  0  0  0  0
  -16.6395   -6.9419   -5.6241 H   0  0  0  0  0
  -15.2240   -4.0512   -3.9386 H   0  0  0  0  0
  -14.3598   -4.0231   -6.8045 H   0  0  0  0  0
  -12.4580   -2.5578   -5.7382 H   0  0  0  0  0
  -13.7610   -2.2065   -4.5204 H   0  0  0  0  0
  -16.1070   -1.7059   -5.6999 H   0  0  0  0  0
  -12.2571   -1.0687   -7.4344 H   0  0  0  0  0
  -17.0806   -0.0480   -7.2378 H   0  0  0  0  0
  -13.2244    0.5860   -8.9833 H   0  0  0  0  0
  -15.6392    1.1038   -8.8852 H   0  0  0  0  0
  -11.6140   -7.4085   -5.6631 H   0  0  0  0  0
  -10.2936   -7.6964   -7.6279 H   0  0  0  0  0
   -9.7967   -6.0404   -7.6526 H   0  0  0  0  0
  -12.3417   -7.2571   -8.6943 H   0  0  0  0  0
  -11.3533   -6.0094   -9.4092 H   0  0  0  0  0
  -12.3458   -4.3068   -8.1229 H   0  0  0  0  0
  -13.6616   -5.4009   -8.0808 H   0  0  0  0  0
  -10.2767   -7.5552   -4.0398 H   0  0  0  0  0
   -9.8935   -5.2740   -2.5104 H   0  0  0  0  0
   -9.9041   -7.4110   -1.4827 H   0  0  0  0  0
   -8.2490   -6.6784   -1.1901 H   0  0  0  0  0
   -9.9679   -9.3717   -3.4191 H   0  0  0  0  0
   -5.9184   -7.1758   -1.1966 H   0  0  0  0  0
   -5.4513  -11.5599   -3.5523 H   0  0  0  0  0
   -3.7413   -8.3362   -1.3043 H   0  0  0  0  0
   -3.5160  -10.4993   -2.4666 H   0  0  0  0  0
   -7.6600   -6.5066   -4.9642 H   0  0  0  0  0
   -5.5147   -4.7303   -4.1648 H   0  0  0  0  0
   -5.1460   -6.6669   -5.5811 H   0  0  0  0  0
   -4.6161   -5.0994   -6.3914 H   0  0  0  0  0
   -7.5041   -7.7856   -6.7448 H   0  0  0  0  0
   -7.0135   -5.6834  -10.4158 H   0  0  0  0  0
   -7.0445   -2.9234   -3.6682 H   0  0  0  0  0
   -7.4709   -1.2506   -6.1269 H   0  0  0  0  0
   -9.1908   -1.4709   -3.6246 H   0  0  0  0  0
   -9.6116   -2.0701   -5.2799 H   0  0  0  0  0
  -10.5854   -0.0493   -4.7744 H   0  0  0  0  0
   -5.9916   -1.6154   -3.0954 H   0  0  0  0  0
   -5.3644    1.3056   -2.9825 H   0  0  0  0  0
   -6.7041    1.5060   -1.2160 H   0  0  0  0  0
   -5.5196    0.4209   -0.3331 H   0  0  0  0  0
   -7.0127   -1.4282   -1.4483 H   0  0  0  0  0
   -6.6081   -1.1739    0.9441 H   0  0  0  0  0
   -7.8182    0.1300    1.0239 H   0  0  0  0  0
   -8.3246   -1.5320    0.6335 H   0  0  0  0  0
   -8.9404    0.9001   -1.1049 H   0  0  0  0  0
   -8.4952    0.1201   -2.6425 H   0  0  0  0  0
   -9.4058   -0.7909   -1.4130 H   0  0  0  0  0
   -4.2636   -1.8055   -3.1838 H   0  0  0  0  0
   -1.8964   -1.3249   -1.4692 H   0  0  0  0  0
   -2.8555   -3.5038   -1.2392 H   0  0  0  0  0
   -4.0714   -3.6739   -3.3370 H   0  0  0  0  0
   -2.5416   -3.8289   -4.2353 H   0  0  0  0  0
   -3.0392   -5.1050   -3.0973 H   0  0  0  0  0
   -0.3387   -3.6351   -2.9269 H   0  0  0  0  0
   -0.4196   -3.3824   -1.1660 H   0  0  0  0  0
   -0.9444   -4.9325   -1.8681 H   0  0  0  0  0
    0.1317   -0.0753   -5.3039 H   0  0  0  0  0
    0.2868    2.0861   -4.1654 H   0  0  0  0  0
    1.9405    1.6023   -4.1448 H   0  0  0  0  0
    0.6267    2.1414   -1.8531 H   0  0  0  0  0
    1.8745    0.9153   -1.9060 H   0  0  0  0  0
    0.2228   -0.5800   -1.2396 H   0  0  0  0  0
   -1.0357    0.5474   -1.5508 H   0  0  0  0  0
    2.3523   -0.0576   -6.0779 H   0  0  0  0  0
    3.8050   -2.3618   -4.8193 H   0  0  0  0  0
    4.3764   -3.1618   -6.8809 H   0  0  0  0  0
    4.0947   -1.5471   -7.6881 H   0  0  0  0  0
    2.0217   -3.9231   -5.6395 H   0  0  0  0  0
    2.4342   -1.6402   -9.2350 H   0  0  0  0  0
   -0.2213   -4.6526   -6.3624 H   0  0  0  0  0
    0.1955   -2.3739   -9.9602 H   0  0  0  0  0
   -1.1392   -3.8784   -8.5229 H   0  0  0  0  0
    5.9257   -2.0543   -4.3082 H   0  0  0  0  0
    6.9287    0.7127   -4.4648 H   0  0  0  0  0
    7.1085   -0.7408   -2.4810 H   0  0  0  0  0
    8.7213    0.0089   -3.1274 H   0  0  0  0  0
    8.5668   -2.3418   -1.9983 H   0  0  0  0  0
    6.8909   -3.3172   -3.4027 H   0  0  0  0  0
    7.8643   -2.9858   -4.8565 H   0  0  0  0  0
    8.4464   -4.1504   -3.6416 H   0  0  0  0  0
   10.1572   -1.7110   -4.5089 H   0  0  0  0  0
   10.5995   -1.2946   -2.8349 H   0  0  0  0  0
   10.5467   -3.0003   -3.3439 H   0  0  0  0  0
    6.4920   -0.1861   -6.9758 H   0  0  0  0  0
    7.4656   -0.4433   -9.0500 H   0  0  0  0  0
    9.1439    1.1848   -8.3934 H   0  0  0  0  0
   10.1032   -0.0932   -7.6076 H   0  0  0  0  0
    9.8694   -0.1134   -9.3728 H   0  0  0  0  0
    8.2090   -4.8101   -9.4808 H   0  0  0  0  0
    8.6258   -4.7972  -11.8097 H   0  0  0  0  0
   10.3173   -4.7146  -11.4176 H   0  0  0  0  0
    9.0800   -2.7276  -12.7807 H   0  0  0  0  0
   10.4219   -2.4049  -11.7171 H   0  0  0  0  0
    8.7668   -0.9670  -10.7710 H   0  0  0  0  0
    7.4712   -1.9850  -11.1922 H   0  0  0  0  0
    8.9582   -5.4973   -7.6480 H   0  0  0  0  0
   11.6001   -4.8306   -6.6746 H   0  0  0  0  0
    9.9464   -5.3057   -5.0475 H   0  0  0  0  0
   11.0313   -6.7369   -5.0417 H   0  0  0  0  0
    8.7950   -7.3053   -5.0709 H   0  0  0  0  0
   13.2383   -6.4220   -6.1130 H   0  0  0  0  0
   13.6570   -8.2113   -8.4534 H   0  0  0  0  0
   13.0365  -10.0223   -8.0149 H   0  0  0  0  0
   15.3941   -6.6673   -8.2748 H   0  0  0  0  0
   16.0346   -8.2240   -7.5549 H   0  0  0  0  0
   15.8637   -7.3650   -5.3864 H   0  0  0  0  0
   14.9639   -5.9043   -5.9689 H   0  0  0  0  0
   18.0388   -4.2229   -5.7098 H   0  0  0  0  0
   16.4239   -4.4604   -5.0339 H   0  0  0  0  0
  1  2  1  0  0  0
  2  3  1  0  0  0
  2  5  1  0  0  0
  3  4  2  0  0  0
  3  8  1  0  0  0
  5  6  1  0  0  0
  5  7  1  0  0  0
  8  9  1  0  0  0
  9 10  1  0  0  0
  9 12  1  0  0  0
 10 11  2  0  0  0
 10 19  1  0  0  0
 12 13  1  0  0  0
 13 14  4  0  0  0
 13 15  4  0  0  0
 14 16  4  0  0  0
 15 17  4  0  0  0
 16 18  4  0  0  0
 17 18  4  0  0  0
 19 20  1  0  0  0
 19 25  1  0  0  0
 20 21  1  0  0  0
 20 23  1  0  0  0
 21 22  2  0  0  0
 21 26  1  0  0  0
 23 24  1  0  0  0
 24 25  1  0  0  0
 26 27  1  0  0  0
 27 28  1  0  0  0
 27 30  1  0  0  0
 28 29  2  0  0  0
 28 40  1  0  0  0
 30 31  1  0  0  0
 31 32  4  0  0  0
 31 33  4  0  0  0
 32 34  4  0  0  0
 33 35  4  0  0  0
 33 36  4  0  0  0
 34 35  4  0  0  0
 35 37  4  0  0  0
 36 38  4  0  0  0
 37 39  4  0  0  0
 38 39  4  0  0  0
 40 41  1  0  0  0
 41 42  1  0  0  0
 41 44  1  0  0  0
 42 43  2  0  0  0
 42 50  1  0  0  0
 44 45  1  0  0  0
 45 46  4  0  0  0
 45 47  4  0  0  0
 46 48  4  0  0  0
 47 49  4  0  0  0
 48 49  4  0  0  0
 50 51  1  0  0  0
 51 52  1  0  0  0
 51 54  1  0  0  0
 52 53  2  0  0  0
 52 56  1  0  0  0
 54 55  1  0  0  0
 56 57  1  0  0  0
 57 58  1  0  0  0
 57 60  1  0  0  0
 58 59  2  0  0  0
 58 64  1  0  0  0
 60 61  1  0  0  0
 61 62  1  0  0  0
 61 63  1  0  0  0
 64 65  1  0  0  0
 65 66  1  0  0  0
 65 68  1  0  0  0
 66 67  2  0  0  0
 66 71  1  0  0  0
 68 69  1  0  0  0
 68 70  1  0  0  0
 71 72  1  0  0  0
 71 77  1  0  0  0
 72 73  1  0  0  0
 72 75  1  0  0  0
 73 74  2  0  0  0
 73 78  1  0  0  0
 75 76  1  0  0  0
 76 77  1  0  0  0
 78 79  1  0  0  0
 79 80  1  0  0  0
 79 82  1  0  0  0
 80 81  2  0  0  0
 80 89  1  0  0  0
 82 83  1  0  0  0
 83 84  4  0  0  0
 83 85  4  0  0  0
 84 86  4  0  0  0
 85 87  4  0  0  0
 86 88  4  0  0  0
 87 88  4  0  0  0
 89 90  1  0  0  0
 90 91  1  0  0  0
 90 93  1  0  0  0
 91 92  2  0  0  0
 91 97  1  0  0  0
 93 94  1  0  0  0
 94 95  1  0  0  0
 94 96  1  0  0  0
 97 98  1  0  0  0
 98 99  1  0  0  0
 98101  1  0  0  0
 99100  2  0  0  0
 99102  1  0  0  0
102103  1  0  0  0
102108  1  0  0  0
103104  1  0  0  0
103106  1  0  0  0
104105  2  0  0  0
104109  1  0  0  0
106107  1  0  0  0
107108  1  0  0  0
109110  1  0  0  0
110111  1  0  0  0
110113  1  0  0  0
111112  2  0  0  0
111115  1  0  0  0
113114  1  0  0  0
115116  1  0  0  0
116117  1  0  0  0
116119  1  0  0  0
117118  1  0  0  0
117124  2  0  0  0
119120  1  0  0  0
120121  1  0  0  0
121122  2  0  0  0
121123  1  0  0  0
  1125  1  0  0  0
  1126  1  0  0  0
  1127  1  0  0  0
  2128  1  0  0  0
  5129  1  0  0  0
  6130  1  0  0  0
  6131  1  0  0  0
  6132  1  0  0  0
  7133  1  0  0  0
  7134  1  0  0  0
  7135  1  0  0  0
  8136  1  0  0  0
  9137  1  0  0  0
 12138  1  0  0  0
 12139  1  0  0  0
 14140  1  0  0  0
 15141  1  0  0  0
 16142  1  0  0  0
 17143  1  0  0  0
 18144  1  0  0  0
 20145  1  0  0  0
 23146  1  0  0  0
 23147  1  0  0  0
 24148  1  0  0  0
 24149  1  0  0  0
 25150  1  0  0  0
 25151  1  0  0  0
 26152  1  0  0  0
 27153  1  0  0  0
 30154  1  0  0  0
 30155  1  0  0  0
 32156  1  0  0  0
 36157  1  0  0  0
 37158  1  0  0  0
 38159  1  0  0  0
 39160  1  0  0  0
 40161  1  0  0  0
 41162  1  0  0  0
 44163  1  0  0  0
 44164  1  0  0  0
 47165  1  0  0  0
 48166  1  0  0  0
 50167  1  0  0  0
 51168  1  0  0  0
 54169  1  0  0  0
 54170  1  0  0  0
 55171  1  0  0  0
 56172  1  0  0  0
 57173  1  0  0  0
 60174  1  0  0  0
 60175  1  0  0  0
 61176  1  0  0  0
 62177  1  0  0  0
 62178  1  0  0  0
 62179  1  0  0  0
 63180  1  0  0  0
 63181  1  0  0  0
 63182  1  0  0  0
 64183  1  0  0  0
 65184  1  0  0  0
 68185  1  0  0  0
 69186  1  0  0  0
 69187  1  0  0  0
 69188  1  0  0  0
 70189  1  0  0  0
 70190  1  0  0  0
 70191  1  0  0  0
 72192  1  0  0  0
 75193  1  0  0  0
 75194  1  0  0  0
 76195  1  0  0  0
 76196  1  0  0  0
 77197  1  0  0  0
 77198  1  0  0  0
 78199  1  0  0  0
 79200  1  0  0  0
 82201  1  0  0  0
 82202  1  0  0  0
 84203  1  0  0  0
 85204  1  0  0  0
 86205  1  0  0  0
 87206  1  0  0  0
 88207  1  0  0  0
 89208  1  0  0  0
 90209  1  0  0  0
 93210  1  0  0  0
 93211  1  0  0  0
 94212  1  0  0  0
 95213  1  0  0  0
 95214  1  0  0  0
 95215  1  0  0  0
 96216  1  0  0  0
 96217  1  0  0  0
 96218  1  0  0  0
 97219  1  0  0  0
 98220  1  0  0  0
101221  1  0  0  0
101222  1  0  0  0
101223  1  0  0  0
103224  1  0  0  0
106225  1  0  0  0
106226  1  0  0  0
107227  1  0  0  0
107228  1  0  0  0
108229  1  0  0  0
108230  1  0  0  0
109231  1  0  0  0
110232  1  0  0  0
113233  1  0  0  0
113234  1  0  0  0
114235  1  0  0  0
115236  1  0  0  0
116237  1  0  0  0
118238  1  0  0  0
119239  1  0  0  0
119240  1  0  0  0
120241  1  0  0  0
120242  1  0  0  0
123243  1  0  0  0
123244  1  0  0  0
M  END
$$$$
