### 
### Created by X-TOOL on Wed Jan  1 15:39:38 2020
### 

@<TRIPOS>MOLECULE
6mi6_ligand
   68    71     1     0     0
SMALL
GAST_HUCK


@<TRIPOS>ATOM
      1 C1'        12.3350   19.0470   57.8710 C.3       1 JSJ         0.2010
      2 C10        12.1720   22.0400   65.8300 C.3       1 JSJ         0.0147
      3 C11        13.4540   21.2570   66.0230 C.2       1 JSJ         0.0037
      4 C12        13.3820   20.4710   67.1020 C.2       1 JSJ         0.0494
      5 C13        14.4190   19.9510   67.3140 C.3       1 JSJ         0.0750
      6 C14        12.0490   20.6130   67.8140 C.3       1 JSJ         0.0433
      7 C15        11.2770   19.3020   67.8520 C.3       1 JSJ        -0.0234
      8 C16        12.2500   21.1790   69.2200 C.3       1 JSJ        -0.0234
      9 C17        12.4650   23.5340   65.8980 C.3       1 JSJ        -0.0388
     10 C18        11.5140   21.6600   64.5090 C.3       1 JSJ        -0.0388
     11 C2          8.1240   18.2890   56.6990 C.ar      1 JSJ         0.0533
     12 C2'        11.5360   19.7630   58.9370 C.3       1 JSJ         0.1385
     13 C3'        12.5610   20.1510   59.9640 C.3       1 JSJ         0.1149
     14 C4         10.3170   17.7450   57.2920 C.ar      1 JSJ         0.1613
     15 C4'        13.7210   19.1890   59.7540 C.3       1 JSJ         0.1189
     16 C5          9.9950   16.3310   57.1730 C.ar      1 JSJ         0.1045
     17 C5'        13.6890   17.9940   60.7050 C.3       1 JSJ         0.1128
     18 C6          8.6010   16.0070   56.7880 C.ar      1 JSJ         0.1298
     19 C8         12.0900   16.5720   57.7480 C.2       1 JSJ         0.1123
     20 N1          7.7470   17.0180   56.5710 N.ar      1 JSJ        -0.2698
     21 N10        11.3380   21.5870   66.9610 N.4       1 JSJ         0.3617
     22 N3          9.3590   18.6550   57.0430 N.ar      1 JSJ        -0.2714
     23 N6          8.1650   14.7360   56.6470 N.pl3     1 JSJ        -0.3152
     24 N7         11.1290   15.6640   57.4660 N.2       1 JSJ        -0.2958
     25 N9         11.5970   17.8050   57.6290 N.pl3     1 JSJ        -0.1919
     26 O1A        16.7030   15.6880   61.4980 O.co2     1 JSJ        -0.6125
     27 O1B        13.6790   16.5520   64.5230 O.co2     1 JSJ        -0.6071
     28 O2'        10.9350   20.9350   58.3740 O.3       1 JSJ        -0.3836
     29 O2A        14.1920   15.3400   62.0900 O.co2     1 JSJ        -0.6125
     30 O2B        15.6310   14.9630   64.3930 O.co2     1 JSJ        -0.6071
     31 O3'        12.9590   21.4900   59.6630 O.3       1 JSJ        -0.3864
     32 O3A        15.6250   17.0680   63.2240 O.3       1 JSJ        -0.1478
     33 O4'        13.6030   18.7080   58.4230 O.3       1 JSJ        -0.3364
     34 O5'        14.9860   17.3940   60.7930 O.3       1 JSJ        -0.2475
     35 O6          9.9770   22.0760   67.2210 O.3       1 JSJ        -0.3537
     36 PA         15.3670   16.2540   61.8710 P.3       1 JSJ         0.2964
     37 PB         15.1730   16.3770   64.5940 P.3       1 JSJ         0.2330
     38 S1         16.0820   17.2870   65.9630 S.3       1 JSJ         0.0447
     39 S2         15.2320   19.1660   66.0280 S.3       1 JSJ        -0.0410
     40 H1         12.4424   19.6503   56.9575 H         1 JSJ         0.0996
     41 H2         14.3214   21.3254   65.3681 H         1 JSJ         0.0982
     42 H3         14.2473   19.1960   68.0954 H         1 JSJ         0.0737
     43 H4         15.0968   20.7279   67.6973 H         1 JSJ         0.0737
     44 H5         11.8106   18.5806   68.4883 H         1 JSJ         0.0230
     45 H6         11.1903   18.8978   66.8326 H         1 JSJ         0.0230
     46 H7         10.2722   19.4799   68.2626 H         1 JSJ         0.0230
     47 H8         12.8097   22.1240   69.1583 H         1 JSJ         0.0230
     48 H9         12.8149   20.4574   69.8285 H         1 JSJ         0.0230
     49 H10        11.2701   21.3629   69.6848 H         1 JSJ         0.0230
     50 H11        13.0868   23.8252   65.0386 H         1 JSJ         0.0188
     51 H12        13.0008   23.7605   66.8316 H         1 JSJ         0.0188
     52 H13        11.5190   24.0947   65.8728 H         1 JSJ         0.0188
     53 H14        11.3176   20.5778   64.4952 H         1 JSJ         0.0188
     54 H15        12.1842   21.9217   63.6769 H         1 JSJ         0.0188
     55 H16        10.5653   22.2062   64.4014 H         1 JSJ         0.0188
     56 H17         7.3898   19.0648   56.5142 H         1 JSJ         0.0996
     57 H18        10.7643   19.1091   59.3692 H         1 JSJ         0.0676
     58 H19        12.1655   20.0800   60.9880 H         1 JSJ         0.0648
     59 H20        14.6717   19.7267   59.8850 H         1 JSJ         0.0651
     60 H21        12.9701   17.2508   60.3298 H         1 JSJ         0.0648
     61 H22        13.3777   18.3334   61.7039 H         1 JSJ         0.0648
     62 H23        13.1141   16.3321   58.0303 H         1 JSJ         0.1349
     63 H24        10.9438   20.8450   66.4041 H         1 JSJ         0.2249
     64 H25         7.1876   14.5537   56.3779 H         1 JSJ         0.1820
     65 H26         8.8100   13.9494   56.8086 H         1 JSJ         0.1820
     66 H27        11.6056   21.4661   57.9607 H         1 JSJ         0.2101
     67 H28        12.2238   22.0759   59.7994 H         1 JSJ         0.2100
     68 H29         9.7283   22.6928   66.5426 H         1 JSJ         0.2688
@<TRIPOS>BOND
     1    1   12 1  
     2    1   25 1  
     3   33    1 1  
     4    3    2 1  
     5    2    9 1  
     6    2   10 1  
     7   21    2 1  
     8    4    3 2  
     9    5    4 1  
    10    4    6 1  
    11   39    5 1  
    12    6    7 1  
    13    6    8 1  
    14    6   21 1  
    15   11   20 ar 
    16   22   11 ar 
    17   13   12 1  
    18   12   28 1  
    19   15   13 1  
    20   13   31 1  
    21   14   16 ar 
    22   14   22 ar 
    23   25   14 1  
    24   17   15 1  
    25   15   33 1  
    26   16   18 ar 
    27   24   16 1  
    28   34   17 1  
    29   18   20 ar 
    30   18   23 1  
    31   19   24 2  
    32   25   19 1  
    33   21   35 1  
    34   36   26 ar 
    35   37   27 ar 
    36   36   29 ar 
    37   37   30 ar 
    38   32   36 1  
    39   37   32 1  
    40   36   34 1  
    41   38   37 1  
    42   38   39 1  
    43    1   40 1  
    44    3   41 1  
    45    5   42 1  
    46    5   43 1  
    47    7   44 1  
    48    7   45 1  
    49    7   46 1  
    50    8   47 1  
    51    8   48 1  
    52    8   49 1  
    53    9   50 1  
    54    9   51 1  
    55    9   52 1  
    56   10   53 1  
    57   10   54 1  
    58   10   55 1  
    59   11   56 1  
    60   12   57 1  
    61   13   58 1  
    62   15   59 1  
    63   17   60 1  
    64   17   61 1  
    65   19   62 1  
    66   21   63 1  
    67   23   64 1  
    68   23   65 1  
    69   28   66 1  
    70   31   67 1  
    71   35   68 1  
@<TRIPOS>SUBSTRUCTURE
     1 JSJ         1

