6mi6_ligand
  -I-interpret- 

 70 73  0  0  0  0  0  0  0  0999 V2000
   12.3350   19.0470   57.8710 C   0  0  0  0  0
   12.1720   22.0400   65.8300 C   0  0  0  0  0
   13.4540   21.2570   66.0230 C   0  0  0  0  0
   13.3820   20.4710   67.1020 C   0  0  0  0  0
   14.4190   19.9510   67.3140 C   0  0  0  0  0
   12.0490   20.6130   67.8140 C   0  0  0  0  0
   11.2770   19.3020   67.8520 C   0  0  0  0  0
   12.2500   21.1790   69.2200 C   0  0  0  0  0
   12.4650   23.5340   65.8980 C   0  0  0  0  0
   11.5140   21.6600   64.5090 C   0  0  0  0  0
    8.1240   18.2890   56.6990 C   0  0  0  0  0
   11.5360   19.7630   58.9370 C   0  0  0  0  0
   12.5610   20.1510   59.9640 C   0  0  0  0  0
   10.3170   17.7450   57.2920 C   0  0  0  0  0
   13.7210   19.1890   59.7540 C   0  0  0  0  0
    9.9950   16.3310   57.1730 C   0  0  0  0  0
   13.6890   17.9940   60.7050 C   0  0  0  0  0
    8.6010   16.0070   56.7880 C   0  0  0  0  0
   12.0900   16.5720   57.7480 C   0  0  0  0  0
    7.7470   17.0180   56.5710 N   0  0  0  0  0
   11.3380   21.5870   66.9610 N   0  3  0  0  0
    9.3590   18.6550   57.0430 N   0  0  0  0  0
    8.1650   14.7360   56.6470 N   0  0  0  0  0
   11.1290   15.6640   57.4660 N   0  0  0  0  0
   11.5970   17.8050   57.6290 N   0  0  0  0  0
   16.7030   15.6880   61.4980 O   0  0  0  0  0
   13.6790   16.5520   64.5230 O   0  0  0  0  0
   10.9350   20.9350   58.3740 O   0  0  0  0  0
   14.1920   15.3400   62.0900 O   0  0  0  0  0
   15.6310   14.9630   64.3930 O   0  0  0  0  0
   12.9590   21.4900   59.6630 O   0  0  0  0  0
   15.6250   17.0680   63.2240 O   0  0  0  0  0
   13.6030   18.7080   58.4230 O   0  0  0  0  0
   14.9860   17.3940   60.7930 O   0  0  0  0  0
    9.9770   22.0760   67.2210 O   0  0  0  0  0
   15.3670   16.2540   61.8710 P   0  0  0  0  0
   15.1730   16.3770   64.5940 P   0  0  0  0  0
   16.0820   17.2870   65.9630 S   0  0  0  0  0
   15.2320   19.1660   66.0280 S   0  0  0  0  0
   12.4727   19.6430   56.9688 H   0  0  0  0  0
   14.3222   21.3254   65.3676 H   0  0  0  0  0
   14.1953   19.1597   68.0295 H   0  0  0  0  0
   15.0836   20.7615   67.6133 H   0  0  0  0  0
   11.8301   18.5732   68.4445 H   0  0  0  0  0
   10.2987   19.4708   68.3021 H   0  0  0  0  0
   11.1512   18.9263   66.8365 H   0  0  0  0  0
   12.8383   22.0947   69.1610 H   0  0  0  0  0
   11.2791   21.3975   69.6646 H   0  0  0  0  0
   12.7754   20.4469   69.8333 H   0  0  0  0  0
   13.1374   23.8084   65.0852 H   0  0  0  0  0
   11.5325   24.0905   65.8035 H   0  0  0  0  0
   12.9339   23.7679   66.8538 H   0  0  0  0  0
   10.5741   22.2019   64.4036 H   0  0  0  0  0
   12.1790   21.9198   63.6854 H   0  0  0  0  0
   11.3199   20.5875   64.4965 H   0  0  0  0  0
    7.3858   19.0691   56.5132 H   0  0  0  0  0
   10.7357   19.1529   59.3559 H   0  0  0  0  0
   12.2038   20.1047   60.9928 H   0  0  0  0  0
   14.6557   19.7163   59.9446 H   0  0  0  0  0
   12.9809   17.2569   60.3264 H   0  0  0  0  0
   13.3869   18.3352   61.6951 H   0  0  0  0  0
   13.1150   16.3319   58.0305 H   0  0  0  0  0
   10.3361   21.7523   67.0578 H   0  0  0  0  0
    8.8037   13.9570   56.8071 H   0  0  0  0  0
    7.1971   14.5554   56.3805 H   0  0  0  0  0
   13.4594   17.4765   64.6597 H   0  0  0  0  0
   10.2822   20.6756   57.7196 H   0  0  0  0  0
   13.4203   15.8624   62.3206 H   0  0  0  0  0
   13.6172   21.7778   60.2998 H   0  0  0  0  0
    9.7257   22.6993   66.5355 H   0  0  0  0  0
  1 12  1  0  0  0
  1 25  1  0  0  0
 33  1  1  0  0  0
  3  2  1  0  0  0
  2  9  1  0  0  0
  2 10  1  0  0  0
 21  2  1  0  0  0
  4  3  2  0  0  0
  5  4  1  0  0  0
  4  6  1  0  0  0
 39  5  1  0  0  0
  6  7  1  0  0  0
  6  8  1  0  0  0
  6 21  1  0  0  0
 11 20  4  0  0  0
 22 11  4  0  0  0
 13 12  1  0  0  0
 12 28  1  0  0  0
 15 13  1  0  0  0
 13 31  1  0  0  0
 14 16  4  0  0  0
 14 22  4  0  0  0
 25 14  4  0  0  0
 17 15  1  0  0  0
 15 33  1  0  0  0
 16 18  4  0  0  0
 24 16  4  0  0  0
 34 17  1  0  0  0
 18 20  4  0  0  0
 18 23  1  0  0  0
 19 24  4  0  0  0
 25 19  4  0  0  0
 21 35  1  0  0  0
 36 26  2  0  0  0
 37 27  1  0  0  0
 36 29  1  0  0  0
 37 30  2  0  0  0
 32 36  1  0  0  0
 37 32  1  0  0  0
 36 34  1  0  0  0
 38 37  1  0  0  0
 38 39  1  0  0  0
  1 40  1  0  0  0
  3 41  1  0  0  0
  5 42  1  0  0  0
  5 43  1  0  0  0
  7 44  1  0  0  0
  7 45  1  0  0  0
  7 46  1  0  0  0
  8 47  1  0  0  0
  8 48  1  0  0  0
  8 49  1  0  0  0
  9 50  1  0  0  0
  9 51  1  0  0  0
  9 52  1  0  0  0
 10 53  1  0  0  0
 10 54  1  0  0  0
 10 55  1  0  0  0
 11 56  1  0  0  0
 12 57  1  0  0  0
 13 58  1  0  0  0
 15 59  1  0  0  0
 17 60  1  0  0  0
 17 61  1  0  0  0
 19 62  1  0  0  0
 21 63  1  0  0  0
 23 64  1  0  0  0
 23 65  1  0  0  0
 27 66  1  0  0  0
 28 67  1  0  0  0
 29 68  1  0  0  0
 31 69  1  0  0  0
 35 70  1  0  0  0
M  END
$$$$
