6euw_ligand
  -I-interpret- 

 46 50  0  0  0  0  0  0  0  0999 V2000
   20.8890  -31.2330   -9.1450 C   0  0  0  0  0
   21.1630  -30.0150   -9.7620 C   0  0  0  0  0
   20.0530  -32.1710   -9.7100 C   0  0  0  0  0
   19.5430  -31.8050  -10.9570 C   0  0  0  0  0
   19.9000  -30.5730  -11.5270 C   0  0  0  0  0
   20.7050  -29.6900  -10.9540 N   0  0  0  0  0
   19.3010  -30.4380  -12.7330 N   0  0  0  0  0
   18.5440  -31.5510  -12.9820 N   0  0  0  0  0
   18.6720  -32.3810  -11.9490 C   0  0  0  0  0
   17.9600  -33.6560  -11.8640 C   0  0  0  0  0
   18.1140  -34.3340  -10.7190 N   0  0  0  0  0
   17.4580  -35.4820  -10.5730 C   0  0  0  0  0
   16.6280  -35.9270  -11.6070 C   0  0  0  0  0
   16.4910  -35.1720  -12.7490 C   0  0  0  0  0
   17.1720  -34.0350  -12.8910 N   0  0  0  0  0
   17.6110  -36.2140   -9.4380 N   0  0  0  0  0
   18.4210  -35.7340   -8.3190 C   0  0  0  0  0
   17.6300  -34.7090   -7.4710 C   0  0  0  0  0
   16.5060  -35.4090   -6.6950 C   0  0  0  0  0
   17.1090  -36.3890   -5.6760 C   0  0  0  0  0
   18.6200  -36.5390   -5.9380 C   0  0  0  0  0
   18.8320  -36.9340   -7.4180 C   0  0  0  0  0
   21.4130  -31.4520   -7.9330 F   0  0  0  0  0
   15.9430  -37.0620  -11.4720 F   0  0  0  0  0
   20.2580  -37.4000   -7.6190 C   0  0  0  0  0
   21.0920  -36.7550   -8.2250 O   0  0  0  0  0
   20.5740  -38.5730   -7.0820 O   0  0  0  0  0
   18.6290  -34.0850   -6.4800 C   0  0  0  0  0
   19.3200  -35.1990   -5.6720 C   0  0  0  0  0
   21.7871  -29.2950   -9.2328 H   0  0  0  0  0
   19.8108  -33.1169   -9.2255 H   0  0  0  0  0
   15.8218  -35.5055  -13.5421 H   0  0  0  0  0
   17.1494  -37.1206   -9.3649 H   0  0  0  0  0
   19.3103  -35.2484   -8.7208 H   0  0  0  0  0
   17.1757  -33.9517   -8.1099 H   0  0  0  0  0
   15.8741  -35.9583   -7.3929 H   0  0  0  0  0
   15.9120  -34.6619   -6.1686 H   0  0  0  0  0
   16.6250  -37.3605   -5.7765 H   0  0  0  0  0
   16.9517  -36.0064   -4.6675 H   0  0  0  0  0
   19.0346  -37.3038   -5.2813 H   0  0  0  0  0
   18.1997  -37.7743   -7.7046 H   0  0  0  0  0
   19.8029  -38.9417   -6.6449 H   0  0  0  0  0
   18.0966  -33.4210   -5.7991 H   0  0  0  0  0
   19.3797  -33.5186   -7.0311 H   0  0  0  0  0
   20.3649  -35.2703   -5.9741 H   0  0  0  0  0
   19.2613  -34.9647   -4.6091 H   0  0  0  0  0
  1  2  4  0  0  0
  1  3  4  0  0  0
  1 23  1  0  0  0
  2  6  4  0  0  0
  3  4  4  0  0  0
  4  5  4  0  0  0
  4  9  4  0  0  0
  5  6  4  0  0  0
  5  7  4  0  0  0
  7  8  4  0  0  0
  8  9  4  0  0  0
  9 10  1  0  0  0
 10 11  4  0  0  0
 10 15  4  0  0  0
 11 12  4  0  0  0
 12 13  4  0  0  0
 12 16  1  0  0  0
 13 14  4  0  0  0
 13 24  1  0  0  0
 14 15  4  0  0  0
 16 17  1  0  0  0
 17 18  1  0  0  0
 17 22  1  0  0  0
 18 19  1  0  0  0
 18 28  1  0  0  0
 19 20  1  0  0  0
 20 21  1  0  0  0
 21 22  1  0  0  0
 21 29  1  0  0  0
 22 25  1  0  0  0
 25 26  2  0  0  0
 25 27  1  0  0  0
 28 29  1  0  0  0
  2 30  1  0  0  0
  3 31  1  0  0  0
 14 32  1  0  0  0
 16 33  1  0  0  0
 17 34  1  0  0  0
 18 35  1  0  0  0
 19 36  1  0  0  0
 19 37  1  0  0  0
 20 38  1  0  0  0
 20 39  1  0  0  0
 21 40  1  0  0  0
 22 41  1  0  0  0
 27 42  1  0  0  0
 28 43  1  0  0  0
 28 44  1  0  0  0
 29 45  1  0  0  0
 29 46  1  0  0  0
M  END
$$$$
