1zm6_ligand
  -I-interpret- 

 84 84  0  0  0  0  0  0  0  0999 V2000
   29.9450   27.4240  -11.1580 N   0  3  0  0  0
   29.4400   28.7610  -11.5000 C   0  0  0  0  0
   30.2690   29.8710  -10.8500 C   0  0  0  0  0
   30.6940   30.8050  -11.5210 O   0  0  0  0  0
   27.9570   28.9040  -11.0790 C   0  0  0  0  0
   27.1180   30.0170  -11.7300 C   0  0  0  0  0
   25.8290   29.4510  -12.3000 C   0  0  0  0  0
   26.8390   31.1240  -10.7160 C   0  0  0  0  0
   30.5170   29.7940   -9.5110 N   0  0  0  0  0
   31.2770   30.9010   -8.8520 C   0  0  0  0  0
   32.0290   30.6960   -7.4810 C   0  0  0  0  0
   32.0140   29.6380   -6.8540 O   0  0  0  0  0
   30.3170   32.0740   -8.7060 C   0  0  0  0  0
   32.6800   31.8690   -7.1010 N   0  0  0  0  0
   33.6350   32.3190   -6.0350 C   0  0  0  0  0
   33.5480   32.0900   -4.5360 C   0  0  0  0  0
   32.6060   32.5150   -3.8470 O   0  0  0  0  0
   33.7640   33.8690   -6.1060 C   0  0  0  0  0
   33.8050   34.3330   -7.5480 C   0  0  0  0  0
   35.0140   34.3360   -5.3710 C   0  0  0  0  0
   32.4620   34.3030   -8.2280 C   0  0  0  0  0
   34.5980   31.3880   -4.0730 N   0  0  0  0  0
   34.8200   31.2340   -2.6400 C   0  0  0  0  0
   35.4930   32.5160   -2.2970 C   0  0  0  0  0
   34.9430   33.5850   -2.5240 O   0  0  0  0  0
   35.7150   30.0470   -2.2750 C   0  0  0  0  0
   35.5710   29.0170   -3.3240 C   0  0  0  0  0
   35.9850   29.3430   -4.5950 C   0  0  0  0  0
   35.0010   27.7790   -3.0540 C   0  0  0  0  0
   35.8260   28.4590   -5.6230 C   0  0  0  0  0
   34.8220   26.9020   -4.0980 C   0  0  0  0  0
   35.2320   27.2430   -5.3770 C   0  0  0  0  0
   35.0340   26.3530   -6.4030 O   0  0  0  0  0
   36.6560   32.4210   -1.7700 N   0  0  0  0  0
   37.3280   33.6160   -1.4510 C   0  0  0  0  0
   38.4330   33.9240   -2.4540 C   0  0  0  0  0
   38.1760   34.3810   -3.5720 O   0  0  0  0  0
   37.8640   33.5050   -0.0330 C   0  0  0  0  0
   38.6670   34.6270    0.3020 O   0  0  0  0  0
   39.5930   33.6670   -2.1250 O   0  0  0  0  0
   30.9217   27.3479  -11.4421 H   0  0  0  0  0
   29.8705   27.2811  -10.1508 H   0  0  0  0  0
   29.3921   26.7183  -11.6446 H   0  0  0  0  0
   29.5244   28.8682  -12.5814 H   0  0  0  0  0
   27.9829   29.1485  -10.0171 H   0  0  0  0  0
   27.4815   27.9715  -11.3832 H   0  0  0  0  0
   27.6824   30.4481  -12.5569 H   0  0  0  0  0
   25.2267   29.0369  -11.4914 H   0  0  0  0  0
   25.2737   30.2457  -12.7982 H   0  0  0  0  0
   26.0648   28.6656  -13.0181 H   0  0  0  0  0
   26.2912   31.9310  -11.2025 H   0  0  0  0  0
   26.2441   30.7222   -9.8958 H   0  0  0  0  0
   27.7833   31.5063  -10.3283 H   0  0  0  0  0
   30.1897   28.9949   -8.9681 H   0  0  0  0  0
   32.1252   31.0289   -9.5245 H   0  0  0  0  0
   29.9666   32.3799   -9.6918 H   0  0  0  0  0
   29.4668   31.7721   -8.0943 H   0  0  0  0  0
   30.8328   32.9067   -8.2278 H   0  0  0  0  0
   32.4386   32.6394   -7.7243 H   0  0  0  0  0
   34.4180   31.6208   -6.3308 H   0  0  0  0  0
   32.8905   34.3062   -5.6223 H   0  0  0  0  0
   34.4623   33.6543   -8.0916 H   0  0  0  0  0
   34.1495   35.3671   -7.5494 H   0  0  0  0  0
   34.9537   34.0331   -4.3257 H   0  0  0  0  0
   35.8938   33.8859   -5.8309 H   0  0  0  0  0
   35.0857   35.4219   -5.4324 H   0  0  0  0  0
   32.0768   33.2834   -8.2238 H   0  0  0  0  0
   31.7713   34.9559   -7.6943 H   0  0  0  0  0
   32.5691   34.6481   -9.2564 H   0  0  0  0  0
   35.2468   30.9582   -4.7323 H   0  0  0  0  0
   33.8935   31.0332   -2.1020 H   0  0  0  0  0
   35.4194   29.6396   -1.3082 H   0  0  0  0  0
   36.7541   30.3692   -2.2079 H   0  0  0  0  0
   36.4432   30.3141   -4.7824 H   0  0  0  0  0
   34.7033   27.5098   -2.0406 H   0  0  0  0  0
   36.1657   28.7137   -6.6269 H   0  0  0  0  0
   34.3552   25.9335   -3.9185 H   0  0  0  0  0
   34.6117   25.5614   -6.0614 H   0  0  0  0  0
   37.0805   31.5116   -1.5878 H   0  0  0  0  0
   36.6308   34.4520   -1.5068 H   0  0  0  0  0
   37.2291   34.5180   -3.6505 H   0  0  0  0  0
   38.4759   32.6057    0.0381 H   0  0  0  0  0
   37.0200   33.4633    0.6556 H   0  0  0  0  0
   38.9911   34.5303    1.2005 H   0  0  0  0  0
  1  2  1  0  0  0
  2  3  1  0  0  0
  2  5  1  0  0  0
  3  4  2  0  0  0
  3  9  1  0  0  0
  5  6  1  0  0  0
  6  7  1  0  0  0
  6  8  1  0  0  0
  9 10  1  0  0  0
 10 11  1  0  0  0
 10 13  1  0  0  0
 11 12  2  0  0  0
 11 14  1  0  0  0
 14 15  1  0  0  0
 15 16  1  0  0  0
 15 18  1  0  0  0
 16 17  2  0  0  0
 16 22  1  0  0  0
 18 19  1  0  0  0
 18 20  1  0  0  0
 19 21  1  0  0  0
 22 23  1  0  0  0
 23 24  1  0  0  0
 23 26  1  0  0  0
 24 25  2  0  0  0
 24 34  1  0  0  0
 26 27  1  0  0  0
 27 28  4  0  0  0
 27 29  4  0  0  0
 28 30  4  0  0  0
 29 31  4  0  0  0
 30 32  4  0  0  0
 31 32  4  0  0  0
 32 33  1  0  0  0
 34 35  1  0  0  0
 35 36  1  0  0  0
 35 38  1  0  0  0
 36 37  1  0  0  0
 36 40  2  0  0  0
 38 39  1  0  0  0
  1 41  1  0  0  0
  1 42  1  0  0  0
  1 43  1  0  0  0
  2 44  1  0  0  0
  5 45  1  0  0  0
  5 46  1  0  0  0
  6 47  1  0  0  0
  7 48  1  0  0  0
  7 49  1  0  0  0
  7 50  1  0  0  0
  8 51  1  0  0  0
  8 52  1  0  0  0
  8 53  1  0  0  0
  9 54  1  0  0  0
 10 55  1  0  0  0
 13 56  1  0  0  0
 13 57  1  0  0  0
 13 58  1  0  0  0
 14 59  1  0  0  0
 15 60  1  0  0  0
 18 61  1  0  0  0
 19 62  1  0  0  0
 19 63  1  0  0  0
 20 64  1  0  0  0
 20 65  1  0  0  0
 20 66  1  0  0  0
 21 67  1  0  0  0
 21 68  1  0  0  0
 21 69  1  0  0  0
 22 70  1  0  0  0
 23 71  1  0  0  0
 26 72  1  0  0  0
 26 73  1  0  0  0
 28 74  1  0  0  0
 29 75  1  0  0  0
 30 76  1  0  0  0
 31 77  1  0  0  0
 33 78  1  0  0  0
 34 79  1  0  0  0
 35 80  1  0  0  0
 37 81  1  0  0  0
 38 82  1  0  0  0
 38 83  1  0  0  0
 39 84  1  0  0  0
M  END
$$$$
