6fzu_ligand
  -I-interpret- 

 26 26  0  0  0  0  0  0  0  0999 V2000
  -17.2120   -1.2340   24.3570 C   0  0  0  0  0
  -17.7560   -0.0290   23.8870 C   0  0  0  0  0
  -15.8190   -1.3870   24.3810 C   0  0  0  0  0
  -13.5890    2.3780   23.8170 C   0  0  0  0  0
  -12.3350    2.3600   22.9100 C   0  0  0  0  0
  -18.0180   -2.3240   24.8010 N   0  0  0  0  0
  -16.9140    1.0030   23.4570 C   0  0  0  0  0
  -14.9710   -0.3590   23.9470 C   0  0  0  0  0
  -19.3090   -2.2740   25.2290 C   0  0  0  0  0
  -15.5170    0.8530   23.4820 C   0  0  0  0  0
  -17.6390    2.4960   22.8850 Cl  0  0  0  0  0
  -19.9620   -3.5700   25.6600 C   0  0  0  0  0
  -19.9950   -1.2580   25.2950 O   0  0  0  0  0
  -14.7130    1.9140   23.0450 O   0  0  0  0  0
  -18.8375    0.1037   23.8567 H   0  0  0  0  0
  -15.3882   -2.3205   24.7430 H   0  0  0  0  0
  -13.7752    3.3898   24.1771 H   0  0  0  0  0
  -13.4353    1.7300   24.6799 H   0  0  0  0  0
  -12.1551    1.3431   22.5611 H   0  0  0  0  0
  -12.4975    3.0156   22.0545 H   0  0  0  0  0
  -11.4724    2.7086   23.4779 H   0  0  0  0  0
  -17.5774   -3.2439   24.7973 H   0  0  0  0  0
  -13.8901   -0.4974   23.9693 H   0  0  0  0  0
  -20.2715   -3.4904   26.7021 H   0  0  0  0  0
  -20.8338   -3.7617   25.0344 H   0  0  0  0  0
  -19.2493   -4.3877   25.5527 H   0  0  0  0  0
  2  1  4  0  0  0
  3  1  4  0  0  0
  1  6  1  0  0  0
  7  2  4  0  0  0
  8  3  4  0  0  0
  4  5  1  0  0  0
 14  4  1  0  0  0
  6  9  1  0  0  0
 10  7  4  0  0  0
  7 11  1  0  0  0
 10  8  4  0  0  0
  9 12  1  0  0  0
  9 13  2  0  0  0
 10 14  1  0  0  0
  2 15  1  0  0  0
  3 16  1  0  0  0
  4 17  1  0  0  0
  4 18  1  0  0  0
  5 19  1  0  0  0
  5 20  1  0  0  0
  5 21  1  0  0  0
  6 22  1  0  0  0
  8 23  1  0  0  0
 12 24  1  0  0  0
 12 25  1  0  0  0
 12 26  1  0  0  0
M  END
$$$$
