3iaf_ligand
  -I-interpret- 

 45 46  0  0  0  0  0  0  0  0999 V2000
   39.2110  -27.5420   -5.3240 N   0  0  0  0  0
   39.4600  -28.2390   -6.4910 C   0  0  0  0  0
   39.8490  -29.6910   -6.4800 C   0  0  0  0  0
   39.3120  -27.6210   -7.7150 N   0  0  0  0  0
   38.9120  -26.3010   -7.7880 C   0  0  0  0  0
   38.7770  -25.7250   -8.9800 N   0  0  0  0  0
   38.6690  -25.5810   -6.6180 C   0  0  0  0  0
   38.8070  -26.2200   -5.3870 C   0  0  0  0  0
   38.2010  -24.1360   -6.6580 C   0  0  0  0  0
   39.2070  -23.0980   -6.6700 N   0  3  0  0  0
   39.4110  -22.2830   -7.7600 C   0  0  0  0  0
   40.5530  -21.1970   -7.5340 S   0  0  0  0  0
   40.8350  -21.6980   -6.0490 C   0  0  0  0  0
   40.0300  -22.7560   -5.6460 C   0  0  0  0  0
   40.0830  -23.4080   -4.2910 C   0  0  0  0  0
   41.9210  -20.9260   -5.3480 C   0  0  0  0  0
   43.1990  -21.7590   -5.2480 C   0  0  0  0  0
   44.3280  -20.9160   -5.2880 O   0  0  0  0  0
   45.5380  -20.9910   -4.2220 P   0  0  0  0  0
   46.1760  -22.3550   -4.2270 O   0  0  0  0  0
   45.1170  -20.6300   -2.8210 O   0  0  0  0  0
   46.5720  -19.9090   -4.8060 O   0  0  0  0  0
   46.0390  -18.4820   -5.3270 P   0  0  0  0  0
   45.4230  -17.7500   -4.1630 O   0  0  0  0  0
   45.0070  -18.6640   -6.4110 O   0  0  0  0  0
   47.1950  -17.6780   -5.8680 O   0  0  0  0  0
   40.7751  -29.8135   -5.9184 H   0  0  0  0  0
   39.0575  -30.2743   -6.0096 H   0  0  0  0  0
   39.9955  -30.0343   -7.5041 H   0  0  0  0  0
   38.9684  -26.2578   -9.8285 H   0  0  0  0  0
   38.4821  -24.7507   -9.0452 H   0  0  0  0  0
   38.5952  -25.6745   -4.4674 H   0  0  0  0  0
   37.6422  -23.9870   -5.7341 H   0  0  0  0  0
   37.6655  -24.0311   -7.6016 H   0  0  0  0  0
   38.8458  -22.3723   -8.6877 H   0  0  0  0  0
   39.1111  -23.3154   -3.8064 H   0  0  0  0  0
   40.3340  -24.4624   -4.4062 H   0  0  0  0  0
   40.8422  -22.9169   -3.6823 H   0  0  0  0  0
   41.5831  -20.6776   -4.3419 H   0  0  0  0  0
   42.1340  -20.0216   -5.9179 H   0  0  0  0  0
   43.2406  -22.4542   -6.0865 H   0  0  0  0  0
   43.1956  -22.3096   -4.3073 H   0  0  0  0  0
   44.7112  -19.7600   -2.8242 H   0  0  0  0  0
   45.4013  -19.1305   -7.1516 H   0  0  0  0  0
   47.5880  -18.1439   -6.6097 H   0  0  0  0  0
  1  2  4  0  0  0
  1  8  4  0  0  0
  2  3  1  0  0  0
  2  4  4  0  0  0
  4  5  4  0  0  0
  5  6  1  0  0  0
  5  7  4  0  0  0
  7  8  4  0  0  0
  7  9  1  0  0  0
  9 10  1  0  0  0
 10 11  4  0  0  0
 10 14  4  0  0  0
 11 12  4  0  0  0
 12 13  4  0  0  0
 13 14  4  0  0  0
 13 16  1  0  0  0
 14 15  1  0  0  0
 16 17  1  0  0  0
 17 18  1  0  0  0
 18 19  1  0  0  0
 19 20  2  0  0  0
 19 21  1  0  0  0
 19 22  1  0  0  0
 22 23  1  0  0  0
 23 24  2  0  0  0
 23 25  1  0  0  0
 23 26  1  0  0  0
  3 27  1  0  0  0
  3 28  1  0  0  0
  3 29  1  0  0  0
  6 30  1  0  0  0
  6 31  1  0  0  0
  8 32  1  0  0  0
  9 33  1  0  0  0
  9 34  1  0  0  0
 11 35  1  0  0  0
 15 36  1  0  0  0
 15 37  1  0  0  0
 15 38  1  0  0  0
 16 39  1  0  0  0
 16 40  1  0  0  0
 17 41  1  0  0  0
 17 42  1  0  0  0
 21 43  1  0  0  0
 25 44  1  0  0  0
 26 45  1  0  0  0
M  END
$$$$
