### 
### Created by X-TOOL on Mon Sep 10 21:13:04 2018
### 

@<TRIPOS>MOLECULE
3iaf_ligand
   42    43     1     0     0
SMALL
GAST_HUCK


@<TRIPOS>ATOM
      1 N1'        39.2110  -27.5420   -5.3240 N.ar      1 TPP        -0.2938
      2 C2'        39.4600  -28.2390   -6.4910 C.ar      1 TPP         0.0758
      3 CM2        39.8490  -29.6910   -6.4800 C.3       1 TPP        -0.0029
      4 N3'        39.3120  -27.6210   -7.7150 N.ar      1 TPP        -0.2610
      5 C4'        38.9120  -26.3010   -7.7880 C.ar      1 TPP         0.1223
      6 N4'        38.7770  -25.7250   -8.9800 N.pl3     1 TPP        -0.3187
      7 C5'        38.6690  -25.5810   -6.6180 C.ar      1 TPP         0.0328
      8 C6'        38.8070  -26.2200   -5.3870 C.ar      1 TPP         0.0074
      9 C7'        38.2010  -24.1360   -6.6580 C.3       1 TPP         0.0562
     10 N3         39.2070  -23.0980   -6.6700 N.2       1 TPP        -0.2745
     11 C2         39.4110  -22.2830   -7.7600 C.2       1 TPP         0.1352
     12 S1         40.5530  -21.1970   -7.5340 S.3       1 TPP         0.1156
     13 C5         40.8350  -21.6980   -6.0490 C.2       1 TPP         0.1730
     14 C4         40.0300  -22.7560   -5.6460 C.2       1 TPP         0.1309
     15 CM4        40.0830  -23.4080   -4.2910 C.3       1 TPP         0.0228
     16 C6         41.9210  -20.9260   -5.3480 C.3       1 TPP         0.0829
     17 C7         43.1990  -21.7590   -5.2480 C.3       1 TPP         0.1135
     18 O7         44.3280  -20.9160   -5.2880 O.3       1 TPP        -0.2401
     19 PA         45.5380  -20.9910   -4.2220 P.3       1 TPP         0.3279
     20 O1A        46.1760  -22.3550   -4.2270 O.co2     1 TPP        -0.5556
     21 O2A        45.1170  -20.6300   -2.8210 O.co2     1 TPP        -0.5556
     22 O3A        46.5720  -19.9090   -4.8060 O.3       1 TPP        -0.1548
     23 PB         46.0390  -18.4820   -5.3270 P.3       1 TPP         0.2069
     24 O1B        45.4230  -17.7500   -4.1630 O.co2     1 TPP        -0.5891
     25 O2B        45.0070  -18.6640   -6.4110 O.co2     1 TPP        -0.5891
     26 O3B        47.1950  -17.6780   -5.8680 O.co2     1 TPP        -0.5891
     27 H          40.7751  -29.8135   -5.9184 H         1 TPP         0.0449
     28 H          39.0575  -30.2743   -6.0096 H         1 TPP         0.0449
     29 H          39.9955  -30.0343   -7.5041 H         1 TPP         0.0449
     30 H          38.9684  -26.2578   -9.8285 H         1 TPP         0.1789
     31 H          38.4821  -24.7507   -9.0452 H         1 TPP         0.1789
     32 H          38.5952  -25.6745   -4.4674 H         1 TPP         0.0791
     33 H          37.6422  -23.9870   -5.7341 H         1 TPP         0.0563
     34 H          37.6655  -24.0311   -7.6016 H         1 TPP         0.0563
     35 H          38.8458  -22.3723   -8.6877 H         1 TPP         0.1655
     36 H          41.0786  -23.8199   -4.1261 H         1 TPP         0.0599
     37 H          39.8637  -22.6659   -3.5233 H         1 TPP         0.0599
     38 H          39.3449  -24.2088   -4.2454 H         1 TPP         0.0599
     39 H          41.5831  -20.6776   -4.3419 H         1 TPP         0.0773
     40 H          42.1340  -20.0216   -5.9179 H         1 TPP         0.0773
     41 H          43.2406  -22.4542   -6.0865 H         1 TPP         0.0687
     42 H          43.1956  -22.3096   -4.3073 H         1 TPP         0.0687
@<TRIPOS>BOND
     1    1    2 ar 
     2    1    8 ar 
     3    2    3 1  
     4    2    4 ar 
     5    4    5 ar 
     6    5    6 1  
     7    5    7 ar 
     8    7    8 ar 
     9    7    9 1  
    10    9   10 1  
    11   10   11 2  
    12   10   14 1  
    13   11   12 1  
    14   12   13 1  
    15   13   14 2  
    16   13   16 1  
    17   14   15 1  
    18   16   17 1  
    19   17   18 1  
    20   18   19 1  
    21   19   20 ar 
    22   19   21 ar 
    23   19   22 1  
    24   22   23 1  
    25   23   24 ar 
    26   23   25 ar 
    27   23   26 ar 
    28    3   27 1  
    29    3   28 1  
    30    3   29 1  
    31    6   30 1  
    32    6   31 1  
    33    8   32 1  
    34    9   33 1  
    35    9   34 1  
    36   11   35 1  
    37   15   36 1  
    38   15   37 1  
    39   15   38 1  
    40   16   39 1  
    41   16   40 1  
    42   17   41 1  
    43   17   42 1  
@<TRIPOS>SUBSTRUCTURE
     1 TPP         1

