2zc9_ligand
  -I-interpret- 

 52 54  0  0  0  0  0  0  0  0999 V2000
   18.1650  -14.9640   24.7310 C   0  0  0  0  0
   16.3050  -15.7140   23.2320 N   0  3  0  0  0
   17.6270  -15.0160   23.2870 C   0  0  0  0  0
   17.4490  -13.6090   22.7270 C   0  0  0  0  0
   16.4680  -12.9820   23.1440 O   0  0  0  0  0
   18.1330  -13.1630   21.6570 N   0  0  0  0  0
   19.2070  -13.9150   20.9810 C   0  0  0  0  0
   19.9730  -12.7300   20.3520 C   0  0  0  0  0
   18.8240  -11.7770   19.9170 C   0  0  0  0  0
   17.8360  -11.8460   21.1120 C   0  0  0  0  0
   16.4020  -11.7500   20.6340 C   0  0  0  0  0
   15.7260  -10.6080   20.9320 N   0  0  0  0  0
   14.3690  -10.4430   20.3670 C   0  0  0  0  0
   13.3410  -10.3610   21.5130 C   0  0  0  0  0
   13.2880   -9.2590   22.3860 C   0  0  0  0  0
   12.3350   -9.2340   23.4100 C   0  0  0  0  0
   11.4380  -10.2950   23.5610 C   0  0  0  0  0
   11.5120  -11.3900   22.7010 C   0  0  0  0  0
   12.4440  -11.4030   21.6720 C   0  0  0  0  0
   15.8850  -12.6720   20.0140 O   0  0  0  0  0
   19.5640  -14.3300   24.8080 C   0  0  0  0  0
   20.6640  -14.8530   24.1100 C   0  0  0  0  0
   21.9170  -14.2340   24.2320 C   0  0  0  0  0
   22.0730  -13.0830   24.9910 C   0  0  0  0  0
   20.9960  -12.5890   25.7570 C   0  0  0  0  0
   19.7440  -13.1800   25.5860 C   0  0  0  0  0
   12.2410   -7.8830   24.5260 Cl  0  0  0  0  0
   18.2351  -15.9860   25.1035 H   0  0  0  0  0
   17.4837  -14.3546   25.3247 H   0  0  0  0  0
   16.4050  -16.6587   23.6034 H   0  0  0  0  0
   15.6258  -15.1977   23.7910 H   0  0  0  0  0
   15.9861  -15.7598   22.2642 H   0  0  0  0  0
   18.3564  -15.5644   22.6909 H   0  0  0  0  0
   18.8644  -14.6690   20.2723 H   0  0  0  0  0
   19.8028  -14.5528   21.6340 H   0  0  0  0  0
   20.6155  -13.0290   19.5238 H   0  0  0  0  0
   20.6764  -12.2629   21.0413 H   0  0  0  0  0
   18.3652  -12.0739   18.9739 H   0  0  0  0  0
   19.1712  -10.7635   19.7159 H   0  0  0  0  0
   17.9439  -11.0368   21.8343 H   0  0  0  0  0
   16.1409   -9.8894   21.5252 H   0  0  0  0  0
   14.1349  -11.2956   19.7295 H   0  0  0  0  0
   14.3299   -9.5268   19.7779 H   0  0  0  0  0
   13.9851   -8.4298   22.2653 H   0  0  0  0  0
   10.6839  -10.2666   24.3476 H   0  0  0  0  0
   10.8381  -12.2359   22.8366 H   0  0  0  0  0
   12.4696  -12.2450   20.9802 H   0  0  0  0  0
   20.5455  -15.7332   23.4781 H   0  0  0  0  0
   22.7802  -14.6633   23.7234 H   0  0  0  0  0
   23.0291  -12.5596   24.9955 H   0  0  0  0  0
   21.1381  -11.7696   26.4617 H   0  0  0  0  0
   18.8782  -12.7321   26.0737 H   0  0  0  0  0
  1  3  1  0  0  0
  1 21  1  0  0  0
  3  2  1  0  0  0
  3  4  1  0  0  0
  4  5  2  0  0  0
  4  6  1  0  0  0
  6  7  1  0  0  0
  6 10  1  0  0  0
  7  8  1  0  0  0
  8  9  1  0  0  0
  9 10  1  0  0  0
 10 11  1  0  0  0
 11 12  1  0  0  0
 11 20  2  0  0  0
 12 13  1  0  0  0
 13 14  1  0  0  0
 14 15  4  0  0  0
 14 19  4  0  0  0
 15 16  4  0  0  0
 16 17  4  0  0  0
 16 27  1  0  0  0
 17 18  4  0  0  0
 18 19  4  0  0  0
 21 22  4  0  0  0
 21 26  4  0  0  0
 22 23  4  0  0  0
 23 24  4  0  0  0
 24 25  4  0  0  0
 25 26  4  0  0  0
  1 28  1  0  0  0
  1 29  1  0  0  0
  2 30  1  0  0  0
  2 31  1  0  0  0
  2 32  1  0  0  0
  3 33  1  0  0  0
  7 34  1  0  0  0
  7 35  1  0  0  0
  8 36  1  0  0  0
  8 37  1  0  0  0
  9 38  1  0  0  0
  9 39  1  0  0  0
 10 40  1  0  0  0
 12 41  1  0  0  0
 13 42  1  0  0  0
 13 43  1  0  0  0
 15 44  1  0  0  0
 17 45  1  0  0  0
 18 46  1  0  0  0
 19 47  1  0  0  0
 22 48  1  0  0  0
 23 49  1  0  0  0
 24 50  1  0  0  0
 25 51  1  0  0  0
 26 52  1  0  0  0
M  END
$$$$
