2i1m_ligand
  -I-interpret- 

 46 48  0  0  0  0  0  0  0  0999 V2000
   45.8260   40.2990   -8.5340 C   0  0  0  0  0
   45.1700   39.0860   -8.9520 C   0  0  0  0  0
   45.2710   38.6140  -10.2860 C   0  0  0  0  0
   46.9450   41.0230   -4.9490 C   0  0  0  0  0
   46.9540   40.3270   -6.3230 C   0  0  0  0  0
   44.4490   41.0530   -6.5970 C   0  0  0  0  0
   44.5530   41.6870   -5.1960 C   0  0  0  0  0
   45.5650   40.9710   -4.2940 C   0  0  0  0  0
   45.6150   41.6490   -2.9250 C   0  0  0  0  0
   46.1680   38.8240  -12.6600 C   0  0  0  0  0
   48.0360   43.1760   -9.6270 C   0  0  0  0  0
   48.3300   44.3040   -8.7350 C   0  0  0  0  0
   49.1940   45.3780   -8.8740 C   0  0  0  0  0
   47.6100   45.8870   -5.6420 C   0  0  0  0  0
   46.0300   39.3390  -11.2500 C   0  0  0  0  0
   46.6830   40.5540  -10.8530 C   0  0  0  0  0
   46.5860   41.0460   -9.5050 C   0  0  0  0  0
   45.7650   40.6540   -7.1720 N   0  0  0  0  0
   45.1340   39.3890  -13.4610 O   0  0  0  0  0
   47.1640   42.2710   -9.0500 N   0  0  0  0  0
   48.5300   43.0820  -10.7590 O   0  0  0  0  0
   49.0710   46.1710   -7.7010 C   0  0  0  0  0
   48.1370   45.5480   -6.9180 C   0  0  0  0  0
   47.6730   44.4120   -7.5270 O   0  0  0  0  0
   47.1900   46.1750   -4.5950 N   0  0  0  0  0
   44.5841   38.5194   -8.2283 H   0  0  0  0  0
   44.7657   37.6925  -10.5750 H   0  0  0  0  0
   47.2160   42.0688   -5.0934 H   0  0  0  0  0
   47.6518   40.5068   -4.2993 H   0  0  0  0  0
   46.9402   39.2520   -6.1435 H   0  0  0  0  0
   47.8398   40.6714   -6.8567 H   0  0  0  0  0
   44.0153   41.8000   -7.2619 H   0  0  0  0  0
   43.8467   40.1494   -6.5024 H   0  0  0  0  0
   43.5737   41.6140   -4.7229 H   0  0  0  0  0
   44.8863   42.7174   -5.3196 H   0  0  0  0  0
   45.2621   39.9324   -4.1607 H   0  0  0  0  0
   45.9154   42.6897   -3.0471 H   0  0  0  0  0
   44.6285   41.6060   -2.4634 H   0  0  0  0  0
   46.3367   41.1331   -2.2916 H   0  0  0  0  0
   46.0857   37.7371  -12.6650 H   0  0  0  0  0
   47.1412   39.1062  -13.0618 H   0  0  0  0  0
   49.8463   45.5776   -9.7242 H   0  0  0  0  0
   47.2630   41.1140  -11.5865 H   0  0  0  0  0
   45.2152   39.0655  -14.3612 H   0  0  0  0  0
   46.8743   42.5310   -8.1072 H   0  0  0  0  0
   49.6112   47.0895   -7.4714 H   0  0  0  0  0
  1  2  4  0  0  0
 17  1  4  0  0  0
  1 18  1  0  0  0
  2  3  4  0  0  0
 15  3  4  0  0  0
  5  4  1  0  0  0
  4  8  1  0  0  0
 18  5  1  0  0  0
  6  7  1  0  0  0
 18  6  1  0  0  0
  7  8  1  0  0  0
  8  9  1  0  0  0
 15 10  1  0  0  0
 10 19  1  0  0  0
 12 11  1  0  0  0
 11 20  1  0  0  0
 11 21  2  0  0  0
 13 12  4  0  0  0
 12 24  4  0  0  0
 22 13  4  0  0  0
 23 14  1  0  0  0
 14 25  3  0  0  0
 16 15  4  0  0  0
 17 16  4  0  0  0
 20 17  1  0  0  0
 22 23  4  0  0  0
 23 24  4  0  0  0
  2 26  1  0  0  0
  3 27  1  0  0  0
  4 28  1  0  0  0
  4 29  1  0  0  0
  5 30  1  0  0  0
  5 31  1  0  0  0
  6 32  1  0  0  0
  6 33  1  0  0  0
  7 34  1  0  0  0
  7 35  1  0  0  0
  8 36  1  0  0  0
  9 37  1  0  0  0
  9 38  1  0  0  0
  9 39  1  0  0  0
 10 40  1  0  0  0
 10 41  1  0  0  0
 13 42  1  0  0  0
 16 43  1  0  0  0
 19 44  1  0  0  0
 20 45  1  0  0  0
 22 46  1  0  0  0
M  END
$$$$
