5bve_ligand
  -I-interpret- 

 62 66  0  0  0  0  0  0  0  0999 V2000
   12.2470   -2.9980   15.1010 C   0  0  0  0  0
   10.8350   -3.3750   14.9630 C   0  0  0  0  0
   18.0070   -1.5960   14.5930 C   0  0  0  0  0
   12.1740   -3.2210   17.5300 C   0  0  0  0  0
   11.8100   -4.7170   17.6820 C   0  0  0  0  0
   11.3940   -5.3200   16.3080 C   0  0  0  0  0
    8.9600   -4.7890   15.5530 C   0  0  0  0  0
    8.6540   -5.8520   14.4930 C   0  0  0  0  0
    7.3280   -6.2630   14.3150 C   0  0  0  0  0
    7.0290   -7.2290   13.3600 C   0  0  0  0  0
    8.0270   -7.7990   12.5750 C   0  0  0  0  0
    9.3500   -7.3850   12.7340 C   0  0  0  0  0
    9.6580   -6.4130   13.6860 C   0  0  0  0  0
    8.3200   -5.2610   16.8900 C   0  0  0  0  0
   19.1800   -2.9840   16.2450 C   0  0  0  0  0
   20.6420   -3.4800   16.4360 C   0  0  0  0  0
   20.6900   -4.4880   17.6060 C   0  0  0  0  0
   12.8550   -2.9680   16.2520 N   0  0  0  0  0
   15.6650   -1.7900   14.3590 C   0  0  0  0  0
   14.1200   -2.6390   16.1460 C   0  0  0  0  0
   14.3670   -2.3690   14.8570 C   0  0  0  0  0
   16.8200   -2.1150   14.9890 N   0  0  0  0  0
   19.1390   -1.9370   15.2390 N   0  0  0  0  0
   13.1000   -2.6060   14.1360 C   0  0  0  0  0
   18.7950   -3.4770   18.6880 C   0  0  0  0  0
   16.9460   -0.3670   12.9060 C   0  0  0  0  0
   10.1480   -2.6790   14.2330 O   0  0  0  0  0
   20.1710   -3.8940   18.8140 O   0  0  0  0  0
   15.7050   -0.8880   13.2910 C   0  0  0  0  0
   10.3980   -4.4990   15.5870 N   0  0  0  0  0
    5.3630   -7.6800   13.1290 Cl  0  0  0  0  0
   18.7220   -2.3850   17.6030 C   0  0  0  0  0
   18.0720   -0.7280   13.5620 N   0  0  0  0  0
    8.4350   -4.2170   17.8560 O   0  0  0  0  0
   12.8439   -2.9411   18.3431 H   0  0  0  0  0
   11.2557   -2.6345   17.5575 H   0  0  0  0  0
   10.9749   -4.8093   18.3764 H   0  0  0  0  0
   12.6799   -5.2566   18.0565 H   0  0  0  0  0
   10.9427   -6.2937   16.4985 H   0  0  0  0  0
   12.2884   -5.3737   15.6873 H   0  0  0  0  0
    8.5138   -3.8217   15.3222 H   0  0  0  0  0
    6.5336   -5.8283   14.9217 H   0  0  0  0  0
    7.7766   -8.5643   11.8403 H   0  0  0  0  0
   10.1380   -7.8184   12.1181 H   0  0  0  0  0
   10.6905   -6.0846   13.8053 H   0  0  0  0  0
    8.8354   -6.1517   17.2492 H   0  0  0  0  0
    7.2683   -5.4984   16.7297 H   0  0  0  0  0
   18.5371   -3.8050   15.9276 H   0  0  0  0  0
   21.2892   -2.6316   16.6583 H   0  0  0  0  0
   20.9853   -3.9648   15.5221 H   0  0  0  0  0
   21.7260   -4.7817   17.7752 H   0  0  0  0  0
   20.0800   -5.3542   17.3495 H   0  0  0  0  0
   14.8420   -2.5933   16.9613 H   0  0  0  0  0
   20.0009   -1.4406   15.0128 H   0  0  0  0  0
   12.9017   -2.4904   13.0704 H   0  0  0  0  0
   18.4327   -3.0862   19.6388 H   0  0  0  0  0
   18.1698   -4.3253   18.4094 H   0  0  0  0  0
   17.0049    0.3334   12.0729 H   0  0  0  0  0
   14.7921   -0.5977   12.7710 H   0  0  0  0  0
   17.6976   -2.0228   17.5165 H   0  0  0  0  0
   19.3734   -1.5545   17.8751 H   0  0  0  0  0
    8.0413   -4.5034   18.6834 H   0  0  0  0  0
  1  2  1  0  0  0
 18  1  4  0  0  0
  1 24  4  0  0  0
  2 27  2  0  0  0
  2 30  1  0  0  0
 22  3  4  0  0  0
  3 23  1  0  0  0
  3 33  4  0  0  0
  4  5  1  0  0  0
 18  4  1  0  0  0
  5  6  1  0  0  0
  6 30  1  0  0  0
  7  8  1  0  0  0
  7 14  1  0  0  0
 30  7  1  0  0  0
  8  9  4  0  0  0
  8 13  4  0  0  0
  9 10  4  0  0  0
 10 11  4  0  0  0
 10 31  1  0  0  0
 12 11  4  0  0  0
 13 12  4  0  0  0
 14 34  1  0  0  0
 15 16  1  0  0  0
 23 15  1  0  0  0
 15 32  1  0  0  0
 16 17  1  0  0  0
 17 28  1  0  0  0
 20 18  4  0  0  0
 21 19  1  0  0  0
 19 22  4  0  0  0
 19 29  4  0  0  0
 20 21  4  0  0  0
 21 24  4  0  0  0
 28 25  1  0  0  0
 25 32  1  0  0  0
 29 26  4  0  0  0
 26 33  4  0  0  0
  4 35  1  0  0  0
  4 36  1  0  0  0
  5 37  1  0  0  0
  5 38  1  0  0  0
  6 39  1  0  0  0
  6 40  1  0  0  0
  7 41  1  0  0  0
  9 42  1  0  0  0
 11 43  1  0  0  0
 12 44  1  0  0  0
 13 45  1  0  0  0
 14 46  1  0  0  0
 14 47  1  0  0  0
 15 48  1  0  0  0
 16 49  1  0  0  0
 16 50  1  0  0  0
 17 51  1  0  0  0
 17 52  1  0  0  0
 20 53  1  0  0  0
 23 54  1  0  0  0
 24 55  1  0  0  0
 25 56  1  0  0  0
 25 57  1  0  0  0
 26 58  1  0  0  0
 29 59  1  0  0  0
 32 60  1  0  0  0
 32 61  1  0  0  0
 34 62  1  0  0  0
M  END
$$$$
