### 
### Created by X-TOOL on Mon Sep 10 21:13:25 2018
### 

@<TRIPOS>MOLECULE
5eay_ligand
  213   215     1     0     0
SMALL
GAST_HUCK


@<TRIPOS>ATOM
      1 N          53.5430   -6.3390   33.6810 N.4       1 ASN         0.2396
      2 CA         52.6890   -6.5680   32.4760 C.3       1 ASN         0.0818
      3 C          53.4850   -7.0110   31.2360 C.2       1 ASN         0.2291
      4 O          54.2510   -7.9770   31.3080 O.2       1 ASN        -0.3905
      5 CB         51.7730   -5.3590   32.1940 C.3       1 ASN         0.0972
      6 CG         52.1380   -4.1320   33.0160 C.2       1 ASN         0.1813
      7 OD1        53.2180   -3.5610   32.8660 O.2       1 ASN        -0.3969
      8 ND2        51.2270   -3.7190   33.8900 N.am      1 ASN        -0.3006
      9 N          53.3000   -6.2990   30.1210 N.am      1 GLU        -0.2608
     10 CA         53.9100   -6.6220   28.8180 C.3       1 GLU         0.1326
     11 C          53.4990   -7.9910   28.2740 C.2       1 GLU         0.2040
     12 O          52.6150   -8.0890   27.4200 O.2       1 GLU        -0.3944
     13 CB         55.4430   -6.4780   28.8520 C.3       1 GLU        -0.0008
     14 CG         55.9650   -5.1360   28.3540 C.3       1 GLU         0.0044
     15 CD         55.7270   -4.9180   26.8670 C.2       1 GLU         0.0350
     16 OE1        55.3300   -3.7970   26.4890 O.co2     1 GLU        -0.5690
     17 OE2        55.9280   -5.8640   26.0740 O.co2     1 GLU        -0.5690
     18 N          54.1470   -9.0370   28.7800 N.am      1 LEU        -0.2637
     19 CA         53.8860  -10.4150   28.3750 C.3       1 LEU         0.1312
     20 C          52.7180  -11.0220   29.1630 C.2       1 LEU         0.2039
     21 O          52.0670  -11.9780   28.7070 O.2       1 LEU        -0.3944
     22 CB         55.1560  -11.2470   28.5720 C.3       1 LEU        -0.0101
     23 CG         55.2490  -12.6590   28.0080 C.3       1 LEU        -0.0425
     24 CD1        55.1250  -12.6660   26.4880 C.3       1 LEU        -0.0625
     25 CD2        56.5690  -13.2720   28.4500 C.3       1 LEU        -0.0625
     26 N          52.4650  -10.4540   30.3430 N.am      1 GLU        -0.2636
     27 CA         51.3540  -10.8570   31.2030 C.3       1 GLU         0.1325
     28 C          50.0050  -10.5550   30.5480 C.2       1 GLU         0.2040
     29 O          49.0580  -11.3280   30.6920 O.2       1 GLU        -0.3944
     30 CB         51.4510  -10.1700   32.5710 C.3       1 GLU        -0.0008
     31 CG         52.6420  -10.5980   33.4190 C.3       1 GLU         0.0044
     32 CD         52.3840  -11.8490   34.2500 C.2       1 GLU         0.0350
     33 OE1        53.3250  -12.3050   34.9380 O.co2     1 GLU        -0.5690
     34 OE2        51.2460  -12.3760   34.2330 O.co2     1 GLU        -0.5690
     35 N          49.9300   -9.4420   29.8170 N.am      1 LEU        -0.2637
     36 CA         48.7040   -9.0430   29.1150 C.3       1 LEU         0.1312
     37 C          48.3760   -9.9540   27.9330 C.2       1 LEU         0.2039
     38 O          47.2120  -10.2740   27.6860 O.2       1 LEU        -0.3944
     39 CB         48.8010   -7.5860   28.6490 C.3       1 LEU        -0.0101
     40 CG         48.1690   -6.4570   29.4760 C.3       1 LEU        -0.0425
     41 CD1        48.4590   -6.5590   30.9680 C.3       1 LEU        -0.0625
     42 CD2        48.6380   -5.1150   28.9310 C.3       1 LEU        -0.0625
     43 N          49.4060  -10.3710   27.2070 N.am      1 LEU        -0.2637
     44 CA         49.2360  -11.2340   26.0570 C.3       1 LEU         0.1312
     45 C          48.7530  -12.6300   26.4710 C.2       1 LEU         0.2039
     46 O          48.0690  -13.3220   25.6970 O.2       1 LEU        -0.3944
     47 CB         50.5470  -11.3100   25.2720 C.3       1 LEU        -0.0101
     48 CG         51.3150   -9.9840   25.1180 C.3       1 LEU        -0.0425
     49 CD1        52.7710  -10.2240   24.7350 C.3       1 LEU        -0.0625
     50 CD2        50.6470   -9.0300   24.1340 C.3       1 LEU        -0.0625
     51 N          49.0850  -13.0220   27.7030 N.am      1 MET        -0.2637
     52 CA         48.7320  -14.3420   28.2240 C.3       1 MET         0.1317
     53 C          47.6130  -14.2800   29.2630 C.2       1 MET         0.2039
     54 O          47.2220  -15.3060   29.8280 O.2       1 MET        -0.3944
     55 CB         49.9760  -15.0260   28.8140 C.3       1 MET        -0.0034
     56 CG         51.0600  -15.3060   27.7850 C.3       1 MET        -0.0024
     57 SD         50.5610  -16.5250   26.5450 S.3       1 MET        -0.1639
     58 CE         50.3060  -17.9630   27.5750 C.3       1 MET        -0.0181
     59 N          47.0880  -13.0770   29.4940 N.am      1 GLU        -0.2636
     60 CA         46.0650  -12.8410   30.5210 C.3       1 GLU         0.1325
     61 C          44.7690  -13.6240   30.2650 C.2       1 GLU         0.2040
     62 O          44.1680  -14.1720   31.1980 O.2       1 GLU        -0.3944
     63 CB         45.7620  -11.3400   30.6330 C.3       1 GLU        -0.0008
     64 CG         44.7730  -10.9820   31.7350 C.3       1 GLU         0.0044
     65 CD         44.4300   -9.5040   31.7710 C.2       1 GLU         0.0350
     66 OE1        44.4360   -8.8510   30.7030 O.co2     1 GLU        -0.5690
     67 OE2        44.1430   -8.9960   32.8750 O.co2     1 GLU        -0.5690
     68 N          44.3380  -13.6510   29.0110 N.am      1 LYS        -0.2637
     69 CA         43.1270  -14.3610   28.6260 C.3       1 LYS         0.1310
     70 C          43.4740  -15.6780   27.9510 C.2       1 LYS         0.2040
     71 O          44.6350  -15.9200   27.5800 O.2       1 LYS        -0.3944
     72 CB         42.2710  -13.5120   27.6790 C.3       1 LYS        -0.0122
     73 CG         41.8220  -12.1710   28.2430 C.3       1 LYS        -0.0440
     74 CD         40.8370  -11.4910   27.2990 C.3       1 LYS        -0.0124
     75 CE         41.0580   -9.9860   27.2240 C.3       1 LYS        -0.0354
     76 NZ         41.0480   -9.3430   28.5670 N.4       1 LYS         0.2185
     77 N          42.4580  -16.5170   27.7820 N.am      1 SER        -0.2616
     78 CA         42.5890  -17.7460   27.0280 C.3       1 SER         0.1539
     79 C          42.8940  -17.4230   25.5660 C.2       1 SER         0.2063
     80 O          42.6480  -16.3100   25.0940 O.2       1 SER        -0.3943
     81 CB         41.2920  -18.5530   27.1180 C.3       1 SER         0.0843
     82 OG         40.2980  -18.0030   26.2680 O.3       1 SER        -0.3903
     83 N          43.4300  -18.4110   24.8560 N.am      1 PHE        -0.2619
     84 CA         43.8030  -18.2360   23.4720 C.3       1 PHE         0.1404
     85 C          42.6220  -17.7900   22.6080 C.2       1 PHE         0.2055
     86 O          42.7710  -16.8830   21.7800 O.2       1 PHE        -0.3942
     87 CB         44.4180  -19.5280   22.9330 C.3       1 PHE         0.0214
     88 CG         44.8740  -19.4270   21.5110 C.ar      1 PHE        -0.0386
     89 CD1        45.9550  -18.6210   21.1840 C.ar      1 PHE        -0.0601
     90 CD2        44.2140  -20.1210   20.4890 C.ar      1 PHE        -0.0601
     91 CE1        46.3850  -18.5120   19.8690 C.ar      1 PHE        -0.0686
     92 CE2        44.6490  -20.0150   19.1700 C.ar      1 PHE        -0.0686
     93 CZ         45.7300  -19.2060   18.8640 C.ar      1 PHE        -0.0687
     94 N          41.4730  -18.4430   22.7870 N.am      1 TRP        -0.2683
     95 CA         40.2730  -18.1500   21.9990 C.3       1 TRP         0.0986
     96 C          39.2640  -17.3270   22.7860 C.2       1 TRP         0.0613
     97 O          39.6470  -16.5090   23.6090 O.co2     1 TRP        -0.5665
     98 CB         39.6140  -19.4280   21.4690 C.3       1 TRP        -0.0013
     99 CG         40.2230  -19.9280   20.1840 C.2       1 TRP        -0.0424
    100 CD1        40.9770  -21.0540   20.0230 C.2       1 TRP         0.0166
    101 CD2        40.1380  -19.3150   18.8840 C.ar      1 TRP        -0.0214
    102 NE1        41.3700  -21.1840   18.7090 N.pl3     1 TRP        -0.2891
    103 CE2        40.8720  -20.1320   17.9870 C.ar      1 TRP         0.0603
    104 CE3        39.5100  -18.1610   18.3910 C.ar      1 TRP        -0.0747
    105 CZ2        41.0000  -19.8320   16.6230 C.ar      1 TRP        -0.0443
    106 CZ3        39.6340  -17.8630   17.0260 C.ar      1 TRP        -0.0792
    107 CH2        40.3790  -18.6970   16.1620 C.ar      1 TRP        -0.0768
    108 OXT        38.0660  -17.4810   22.5980 O.co2     1 TRP        -0.5665
    109 H1         52.9632   -6.0524   34.4542 H         1 ASN         0.2017
    110 H2         54.2183   -5.6176   33.4821 H         1 ASN         0.2017
    111 H3         54.0234   -7.1925   33.9195 H         1 ASN         0.2017
    112 H4         52.0247   -7.4085   32.7256 H         1 ASN         0.1125
    113 H5         50.7364   -5.6424   32.4287 H         1 ASN         0.0585
    114 H6         51.8504   -5.1019   31.1273 H         1 ASN         0.0585
    115 H7         51.4081   -2.9176   34.4600 H         1 ASN         0.1814
    116 H8         50.3600   -4.2095   33.9780 H         1 ASN         0.1814
    117 H9         52.7090   -5.4940   30.1734 H         1 GLU         0.1885
    118 H10        53.5338   -5.8744   28.1042 H         1 GLU         0.0801
    119 H11        55.8761   -7.2695   28.2227 H         1 GLU         0.0330
    120 H12        55.7773   -6.6118   29.8914 H         1 GLU         0.0330
    121 H13        57.0470   -5.0880   28.5461 H         1 GLU         0.0433
    122 H14        55.4578   -4.3344   28.9110 H         1 GLU         0.0433
    123 H15        54.8485   -8.8708   29.4730 H         1 LEU         0.1883
    124 H16        53.6218  -10.4214   27.3072 H         1 LEU         0.0800
    125 H17        55.3135  -11.3300   29.6575 H         1 LEU         0.0315
    126 H18        55.9812  -10.6737   28.1245 H         1 LEU         0.0315
    127 H19        54.4246  -13.2580   28.4221 H         1 LEU         0.0298
    128 H20        55.1967  -13.6998   26.1191 H         1 LEU         0.0232
    129 H21        55.9353  -12.0638   26.0512 H         1 LEU         0.0232
    130 H22        54.1536  -12.2395   26.1974 H         1 LEU         0.0232
    131 H23        56.6320  -13.2542   29.5480 H         1 LEU         0.0232
    132 H24        57.4025  -12.6932   28.0255 H         1 LEU         0.0232
    133 H25        56.6271  -14.3119   28.0962 H         1 LEU         0.0232
    134 H26        53.0645   -9.7167   30.6544 H         1 GLU         0.1883
    135 H27        51.4216  -11.9438   31.3591 H         1 GLU         0.0801
    136 H28        50.5326  -10.3955   33.1328 H         1 GLU         0.0330
    137 H29        51.5220   -9.0850   32.4046 H         1 GLU         0.0330
    138 H30        52.8963   -9.7739   34.1018 H         1 GLU         0.0433
    139 H31        53.4922  -10.7951   32.7494 H         1 GLU         0.0433
    140 H32        50.7385   -8.8579   29.7444 H         1 LEU         0.1883
    141 H33        47.8730   -9.1165   29.8320 H         1 LEU         0.0800
    142 H34        48.3379   -7.5430   27.6522 H         1 LEU         0.0315
    143 H35        49.8728   -7.3529   28.5658 H         1 LEU         0.0315
    144 H36        47.0783   -6.5193   29.3477 H         1 LEU         0.0298
    145 H37        47.9770   -5.7213   31.4933 H         1 LEU         0.0232
    146 H38        49.5457   -6.5191   31.1339 H         1 LEU         0.0232
    147 H39        48.0637   -7.5101   31.3542 H         1 LEU         0.0232
    148 H40        48.4203   -5.0603   27.8541 H         1 LEU         0.0232
    149 H41        49.7213   -5.0123   29.0918 H         1 LEU         0.0232
    150 H42        48.1112   -4.3028   29.4532 H         1 LEU         0.0232
    151 H43        50.3281  -10.0800   27.4623 H         1 LEU         0.1883
    152 H44        48.4693  -10.7907   25.4046 H         1 LEU         0.0800
    153 H45        50.3154  -11.6846   24.2640 H         1 LEU         0.0315
    154 H46        51.2070  -12.0243   25.7860 H         1 LEU         0.0315
    155 H47        51.3100   -9.4921   26.1019 H         1 LEU         0.0298
    156 H48        53.2875   -9.2581   24.6339 H         1 LEU         0.0232
    157 H49        52.8141  -10.7647   23.7781 H         1 LEU         0.0232
    158 H50        53.2620  -10.8222   25.5167 H         1 LEU         0.0232
    159 H51        49.5994   -8.8722   24.4301 H         1 LEU         0.0232
    160 H52        50.6812   -9.4626   23.1232 H         1 LEU         0.0232
    161 H53        51.1784   -8.0669   24.1388 H         1 LEU         0.0232
    162 H54        49.5926  -12.3913   28.2899 H         1 MET         0.1883
    163 H55        48.3727  -14.9508   27.3813 H         1 MET         0.0800
    164 H56        49.6677  -15.9814   29.2636 H         1 MET         0.0320
    165 H57        50.3960  -14.3727   29.5930 H         1 MET         0.0320
    166 H58        51.9509  -15.6832   28.3084 H         1 MET         0.0378
    167 H59        51.3072  -14.3651   27.2716 H         1 MET         0.0378
    168 H60        49.9906  -18.8109   26.9493 H         1 MET         0.0340
    169 H61        49.5259  -17.7469   28.3198 H         1 MET         0.0340
    170 H62        51.2445  -18.2164   28.0898 H         1 MET         0.0340
    171 H63        47.4037  -12.3029   28.9453 H         1 GLU         0.1883
    172 H64        46.4750  -13.1808   31.4835 H         1 GLU         0.0801
    173 H65        45.3466  -10.9996   29.6731 H         1 GLU         0.0330
    174 H66        46.7060  -10.8116   30.8321 H         1 GLU         0.0330
    175 H67        45.2117  -11.2631   32.7038 H         1 GLU         0.0433
    176 H68        43.8465  -11.5523   31.5726 H         1 GLU         0.0433
    177 H69        44.8611  -13.1687   28.3083 H         1 LYS         0.1883
    178 H70        42.5433  -14.5720   29.5342 H         1 LYS         0.0800
    179 H71        41.3723  -14.0911   27.4202 H         1 LYS         0.0312
    180 H72        42.8580  -13.3197   26.7688 H         1 LYS         0.0312
    181 H73        42.7007  -11.5228   28.3757 H         1 LYS         0.0269
    182 H74        41.3357  -12.3333   29.2162 H         1 LYS         0.0269
    183 H75        39.8144  -11.6815   27.6567 H         1 LYS         0.0317
    184 H76        40.9589  -11.9175   26.2924 H         1 LYS         0.0317
    185 H77        40.2581   -9.5415   26.6137 H         1 LYS         0.0813
    186 H78        42.0313   -9.7952   26.7483 H         1 LYS         0.0813
    187 H79        41.1976   -8.3513   28.4658 H         1 LYS         0.1994
    188 H80        41.7823   -9.7374   29.1339 H         1 LYS         0.1994
    189 H81        40.1574   -9.5049   29.0105 H         1 LYS         0.1994
    190 H82        41.5728  -16.2921   28.1893 H         1 SER         0.1884
    191 H83        43.4141  -18.3406   27.4470 H         1 SER         0.0823
    192 H84        40.9283  -18.5370   28.1560 H         1 SER         0.0606
    193 H85        41.4914  -19.5915   26.8152 H         1 SER         0.0606
    194 H86        40.6074  -18.0178   25.3699 H         1 SER         0.2097
    195 H87        43.5788  -19.2986   25.2918 H         1 PHE         0.1885
    196 H88        44.5680  -17.4470   23.4251 H         1 PHE         0.0823
    197 H89        43.6644  -20.3265   23.0006 H         1 PHE         0.0474
    198 H90        45.2848  -19.7879   23.5584 H         1 PHE         0.0474
    199 H91        46.4690  -18.0707   21.9638 H         1 PHE         0.0557
    200 H92        43.3594  -20.7444   20.7260 H         1 PHE         0.0557
    201 H93        47.2343  -17.8832   19.6276 H         1 PHE         0.0599
    202 H94        44.1423  -20.5646   18.3850 H         1 PHE         0.0599
    203 H95        46.0645  -19.1153   17.8369 H         1 PHE         0.0559
    204 H96        41.4289  -19.1585   23.4842 H         1 TRP         0.1877
    205 H97        40.5881  -17.5517   21.1314 H         1 TRP         0.0741
    206 H98        38.5478  -19.2230   21.2927 H         1 TRP         0.0390
    207 H99        39.7150  -20.2143   22.2316 H         1 TRP         0.0390
    208 H100       41.2319  -21.7509   20.8201 H         1 TRP         0.0795
    209 H101       41.9459  -21.9494   18.3303 H         1 TRP         0.2216
    210 H102       38.9419  -17.5145   19.0501 H         1 TRP         0.0540
    211 H103       41.5679  -20.4720   15.9574 H         1 TRP         0.0541
    212 H104       39.1505  -16.9785   16.6273 H         1 TRP         0.0510
    213 H105       40.4621  -18.4354   15.1133 H         1 TRP         0.0530
@<TRIPOS>BOND
     1    1    2 1  
     2    2    3 1  
     3    2    5 1  
     4    3    4 2  
     5    3    9 am 
     6    5    6 1  
     7    6    7 2  
     8    6    8 am 
     9    9   10 1  
    10   10   11 1  
    11   10   13 1  
    12   11   12 2  
    13   11   18 am 
    14   13   14 1  
    15   14   15 1  
    16   15   16 ar 
    17   15   17 ar 
    18   18   19 1  
    19   19   20 1  
    20   19   22 1  
    21   20   21 2  
    22   20   26 am 
    23   22   23 1  
    24   23   24 1  
    25   23   25 1  
    26   26   27 1  
    27   27   28 1  
    28   27   30 1  
    29   28   29 2  
    30   28   35 am 
    31   30   31 1  
    32   31   32 1  
    33   32   33 ar 
    34   32   34 ar 
    35   35   36 1  
    36   36   37 1  
    37   36   39 1  
    38   37   38 2  
    39   37   43 am 
    40   39   40 1  
    41   40   41 1  
    42   40   42 1  
    43   43   44 1  
    44   44   45 1  
    45   44   47 1  
    46   45   46 2  
    47   45   51 am 
    48   47   48 1  
    49   48   49 1  
    50   48   50 1  
    51   51   52 1  
    52   52   53 1  
    53   52   55 1  
    54   53   54 2  
    55   53   59 am 
    56   55   56 1  
    57   56   57 1  
    58   57   58 1  
    59   59   60 1  
    60   60   61 1  
    61   60   63 1  
    62   61   62 2  
    63   61   68 am 
    64   63   64 1  
    65   64   65 1  
    66   65   66 ar 
    67   65   67 ar 
    68   68   69 1  
    69   69   70 1  
    70   69   72 1  
    71   70   71 2  
    72   70   77 am 
    73   72   73 1  
    74   73   74 1  
    75   74   75 1  
    76   75   76 1  
    77   77   78 1  
    78   78   79 1  
    79   78   81 1  
    80   79   80 2  
    81   79   83 am 
    82   81   82 1  
    83   83   84 1  
    84   84   85 1  
    85   84   87 1  
    86   85   86 2  
    87   85   94 am 
    88   87   88 1  
    89   88   89 ar 
    90   88   90 ar 
    91   89   91 ar 
    92   90   92 ar 
    93   91   93 ar 
    94   92   93 ar 
    95   94   95 1  
    96   95   96 1  
    97   95   98 1  
    98   96   97 ar 
    99   96  108 ar 
   100   98   99 1  
   101   99  100 2  
   102   99  101 1  
   103  100  102 1  
   104  101  103 ar 
   105  101  104 ar 
   106  102  103 1  
   107  103  105 ar 
   108  104  106 ar 
   109  105  107 ar 
   110  106  107 ar 
   111    1  109 1  
   112    1  110 1  
   113    1  111 1  
   114    2  112 1  
   115    5  113 1  
   116    5  114 1  
   117    8  115 1  
   118    8  116 1  
   119    9  117 1  
   120   10  118 1  
   121   13  119 1  
   122   13  120 1  
   123   14  121 1  
   124   14  122 1  
   125   18  123 1  
   126   19  124 1  
   127   22  125 1  
   128   22  126 1  
   129   23  127 1  
   130   24  128 1  
   131   24  129 1  
   132   24  130 1  
   133   25  131 1  
   134   25  132 1  
   135   25  133 1  
   136   26  134 1  
   137   27  135 1  
   138   30  136 1  
   139   30  137 1  
   140   31  138 1  
   141   31  139 1  
   142   35  140 1  
   143   36  141 1  
   144   39  142 1  
   145   39  143 1  
   146   40  144 1  
   147   41  145 1  
   148   41  146 1  
   149   41  147 1  
   150   42  148 1  
   151   42  149 1  
   152   42  150 1  
   153   43  151 1  
   154   44  152 1  
   155   47  153 1  
   156   47  154 1  
   157   48  155 1  
   158   49  156 1  
   159   49  157 1  
   160   49  158 1  
   161   50  159 1  
   162   50  160 1  
   163   50  161 1  
   164   51  162 1  
   165   52  163 1  
   166   55  164 1  
   167   55  165 1  
   168   56  166 1  
   169   56  167 1  
   170   58  168 1  
   171   58  169 1  
   172   58  170 1  
   173   59  171 1  
   174   60  172 1  
   175   63  173 1  
   176   63  174 1  
   177   64  175 1  
   178   64  176 1  
   179   68  177 1  
   180   69  178 1  
   181   72  179 1  
   182   72  180 1  
   183   73  181 1  
   184   73  182 1  
   185   74  183 1  
   186   74  184 1  
   187   75  185 1  
   188   75  186 1  
   189   76  187 1  
   190   76  188 1  
   191   76  189 1  
   192   77  190 1  
   193   78  191 1  
   194   81  192 1  
   195   81  193 1  
   196   82  194 1  
   197   83  195 1  
   198   84  196 1  
   199   87  197 1  
   200   87  198 1  
   201   89  199 1  
   202   90  200 1  
   203   91  201 1  
   204   92  202 1  
   205   93  203 1  
   206   94  204 1  
   207   95  205 1  
   208   98  206 1  
   209   98  207 1  
   210  100  208 1  
   211  102  209 1  
   212  104  210 1  
   213  105  211 1  
   214  106  212 1  
   215  107  213 1  
@<TRIPOS>SUBSTRUCTURE
     1 ASN         1

