5eay_ligand
  -I-interpret- 

216218  0  0  0  0  0  0  0  0999 V2000
   53.5430   -6.3390   33.6810 N   0  3  0  0  0
   52.6890   -6.5680   32.4760 C   0  0  0  0  0
   53.4850   -7.0110   31.2360 C   0  0  0  0  0
   54.2510   -7.9770   31.3080 O   0  0  0  0  0
   51.7730   -5.3590   32.1940 C   0  0  0  0  0
   52.1380   -4.1320   33.0160 C   0  0  0  0  0
   53.2180   -3.5610   32.8660 O   0  0  0  0  0
   51.2270   -3.7190   33.8900 N   0  0  0  0  0
   53.3000   -6.2990   30.1210 N   0  0  0  0  0
   53.9100   -6.6220   28.8180 C   0  0  0  0  0
   53.4990   -7.9910   28.2740 C   0  0  0  0  0
   52.6150   -8.0890   27.4200 O   0  0  0  0  0
   55.4430   -6.4780   28.8520 C   0  0  0  0  0
   55.9650   -5.1360   28.3540 C   0  0  0  0  0
   55.7270   -4.9180   26.8670 C   0  0  0  0  0
   55.3300   -3.7970   26.4890 O   0  0  0  0  0
   55.9280   -5.8640   26.0740 O   0  0  0  0  0
   54.1470   -9.0370   28.7800 N   0  0  0  0  0
   53.8860  -10.4150   28.3750 C   0  0  0  0  0
   52.7180  -11.0220   29.1630 C   0  0  0  0  0
   52.0670  -11.9780   28.7070 O   0  0  0  0  0
   55.1560  -11.2470   28.5720 C   0  0  0  0  0
   55.2490  -12.6590   28.0080 C   0  0  0  0  0
   55.1250  -12.6660   26.4880 C   0  0  0  0  0
   56.5690  -13.2720   28.4500 C   0  0  0  0  0
   52.4650  -10.4540   30.3430 N   0  0  0  0  0
   51.3540  -10.8570   31.2030 C   0  0  0  0  0
   50.0050  -10.5550   30.5480 C   0  0  0  0  0
   49.0580  -11.3280   30.6920 O   0  0  0  0  0
   51.4510  -10.1700   32.5710 C   0  0  0  0  0
   52.6420  -10.5980   33.4190 C   0  0  0  0  0
   52.3840  -11.8490   34.2500 C   0  0  0  0  0
   53.3250  -12.3050   34.9380 O   0  0  0  0  0
   51.2460  -12.3760   34.2330 O   0  0  0  0  0
   49.9300   -9.4420   29.8170 N   0  0  0  0  0
   48.7040   -9.0430   29.1150 C   0  0  0  0  0
   48.3760   -9.9540   27.9330 C   0  0  0  0  0
   47.2120  -10.2740   27.6860 O   0  0  0  0  0
   48.8010   -7.5860   28.6490 C   0  0  0  0  0
   48.1690   -6.4570   29.4760 C   0  0  0  0  0
   48.4590   -6.5590   30.9680 C   0  0  0  0  0
   48.6380   -5.1150   28.9310 C   0  0  0  0  0
   49.4060  -10.3710   27.2070 N   0  0  0  0  0
   49.2360  -11.2340   26.0570 C   0  0  0  0  0
   48.7530  -12.6300   26.4710 C   0  0  0  0  0
   48.0690  -13.3220   25.6970 O   0  0  0  0  0
   50.5470  -11.3100   25.2720 C   0  0  0  0  0
   51.3150   -9.9840   25.1180 C   0  0  0  0  0
   52.7710  -10.2240   24.7350 C   0  0  0  0  0
   50.6470   -9.0300   24.1340 C   0  0  0  0  0
   49.0850  -13.0220   27.7030 N   0  0  0  0  0
   48.7320  -14.3420   28.2240 C   0  0  0  0  0
   47.6130  -14.2800   29.2630 C   0  0  0  0  0
   47.2220  -15.3060   29.8280 O   0  0  0  0  0
   49.9760  -15.0260   28.8140 C   0  0  0  0  0
   51.0600  -15.3060   27.7850 C   0  0  0  0  0
   50.5610  -16.5250   26.5450 S   0  0  0  0  0
   50.3060  -17.9630   27.5750 C   0  0  0  0  0
   47.0880  -13.0770   29.4940 N   0  0  0  0  0
   46.0650  -12.8410   30.5210 C   0  0  0  0  0
   44.7690  -13.6240   30.2650 C   0  0  0  0  0
   44.1680  -14.1720   31.1980 O   0  0  0  0  0
   45.7620  -11.3400   30.6330 C   0  0  0  0  0
   44.7730  -10.9820   31.7350 C   0  0  0  0  0
   44.4300   -9.5040   31.7710 C   0  0  0  0  0
   44.4360   -8.8510   30.7030 O   0  0  0  0  0
   44.1430   -8.9960   32.8750 O   0  0  0  0  0
   44.3380  -13.6510   29.0110 N   0  0  0  0  0
   43.1270  -14.3610   28.6260 C   0  0  0  0  0
   43.4740  -15.6780   27.9510 C   0  0  0  0  0
   44.6350  -15.9200   27.5800 O   0  0  0  0  0
   42.2710  -13.5120   27.6790 C   0  0  0  0  0
   41.8220  -12.1710   28.2430 C   0  0  0  0  0
   40.8370  -11.4910   27.2990 C   0  0  0  0  0
   41.0580   -9.9860   27.2240 C   0  0  0  0  0
   41.0480   -9.3430   28.5670 N   0  3  0  0  0
   42.4580  -16.5170   27.7820 N   0  0  0  0  0
   42.5890  -17.7460   27.0280 C   0  0  0  0  0
   42.8940  -17.4230   25.5660 C   0  0  0  0  0
   42.6480  -16.3100   25.0940 O   0  0  0  0  0
   41.2920  -18.5530   27.1180 C   0  0  0  0  0
   40.2980  -18.0030   26.2680 O   0  0  0  0  0
   43.4300  -18.4110   24.8560 N   0  0  0  0  0
   43.8030  -18.2360   23.4720 C   0  0  0  0  0
   42.6220  -17.7900   22.6080 C   0  0  0  0  0
   42.7710  -16.8830   21.7800 O   0  0  0  0  0
   44.4180  -19.5280   22.9330 C   0  0  0  0  0
   44.8740  -19.4270   21.5110 C   0  0  0  0  0
   45.9550  -18.6210   21.1840 C   0  0  0  0  0
   44.2140  -20.1210   20.4890 C   0  0  0  0  0
   46.3850  -18.5120   19.8690 C   0  0  0  0  0
   44.6490  -20.0150   19.1700 C   0  0  0  0  0
   45.7300  -19.2060   18.8640 C   0  0  0  0  0
   41.4730  -18.4430   22.7870 N   0  0  0  0  0
   40.2730  -18.1500   21.9990 C   0  0  0  0  0
   39.2640  -17.3270   22.7860 C   0  0  0  0  0
   39.6470  -16.5090   23.6090 O   0  0  0  0  0
   39.6140  -19.4280   21.4690 C   0  0  0  0  0
   40.2230  -19.9280   20.1840 C   0  0  0  0  0
   40.9770  -21.0540   20.0230 C   0  0  0  0  0
   40.1380  -19.3150   18.8840 C   0  0  0  0  0
   41.3700  -21.1840   18.7090 N   0  0  0  0  0
   40.8720  -20.1320   17.9870 C   0  0  0  0  0
   39.5100  -18.1610   18.3910 C   0  0  0  0  0
   41.0000  -19.8320   16.6230 C   0  0  0  0  0
   39.6340  -17.8630   17.0260 C   0  0  0  0  0
   40.3790  -18.6970   16.1620 C   0  0  0  0  0
   38.0660  -17.4810   22.5980 O   0  0  0  0  0
   54.1340   -7.1555   33.8376 H   0  0  0  0  0
   54.1288   -5.5177   33.5300 H   0  0  0  0  0
   52.9470   -6.1880   34.4949 H   0  0  0  0  0
   52.0438   -7.4138   32.7138 H   0  0  0  0  0
   50.7550   -5.6450   32.4584 H   0  0  0  0  0
   51.8824   -5.0980   31.1414 H   0  0  0  0  0
   51.4101   -2.8992   34.4686 H   0  0  0  0  0
   50.3443   -4.2217   33.9825 H   0  0  0  0  0
   52.6972   -5.4779   30.1745 H   0  0  0  0  0
   53.5134   -5.8838   28.1210 H   0  0  0  0  0
   55.8492   -7.2429   28.1901 H   0  0  0  0  0
   55.7483   -6.5713   29.8942 H   0  0  0  0  0
   57.0415   -5.1155   28.5238 H   0  0  0  0  0
   55.4324   -4.3526   28.8932 H   0  0  0  0  0
   56.2281   -6.6328   26.5643 H   0  0  0  0  0
   54.8626   -8.8675   29.4869 H   0  0  0  0  0
   53.6033  -10.4206   27.3223 H   0  0  0  0  0
   55.2231  -11.3837   29.6513 H   0  0  0  0  0
   55.9265  -10.6923   28.0365 H   0  0  0  0  0
   54.4195  -13.2528   28.3920 H   0  0  0  0  0
   54.1621  -12.2432   26.2013 H   0  0  0  0  0
   55.9284  -12.0690   26.0564 H   0  0  0  0  0
   55.1962  -13.6908   26.1236 H   0  0  0  0  0
   57.3934  -12.6664   28.0737 H   0  0  0  0  0
   56.6070  -13.3034   29.5389 H   0  0  0  0  0
   56.6492  -14.2840   28.0530 H   0  0  0  0  0
   53.0765   -9.7019   30.6606 H   0  0  0  0  0
   51.4225  -11.9350   31.3490 H   0  0  0  0  0
   50.5535  -10.4428   33.1261 H   0  0  0  0  0
   51.5653   -9.1027   32.3813 H   0  0  0  0  0
   52.8576   -9.7849   34.1122 H   0  0  0  0  0
   53.4631  -10.8225   32.7382 H   0  0  0  0  0
   50.6723  -11.8772   33.6467 H   0  0  0  0  0
   50.7546   -8.8462   29.7430 H   0  0  0  0  0
   47.8877   -9.1415   29.8306 H   0  0  0  0  0
   48.2507   -7.5688   27.7082 H   0  0  0  0  0
   49.8688   -7.3685   28.6713 H   0  0  0  0  0
   47.0876   -6.5512   29.3775 H   0  0  0  0  0
   48.0669   -7.5018   31.3494 H   0  0  0  0  0
   49.5360   -6.5194   31.1310 H   0  0  0  0  0
   47.9809   -5.7285   31.4874 H   0  0  0  0  0
   49.7242   -5.0559   28.9998 H   0  0  0  0  0
   48.3330   -5.0209   27.8888 H   0  0  0  0  0
   48.1914   -4.3107   29.5156 H   0  0  0  0  0
   50.3465  -10.0742   27.4674 H   0  0  0  0  0
   48.4657  -10.8093   25.4133 H   0  0  0  0  0
   50.2838  -11.6317   24.2644 H   0  0  0  0  0
   51.2007  -11.9810   25.8294 H   0  0  0  0  0
   51.2926   -9.5021   26.0955 H   0  0  0  0  0
   53.2563  -10.8169   25.5103 H   0  0  0  0  0
   52.8123  -10.7599   23.7867 H   0  0  0  0  0
   53.2817   -9.2662   24.6351 H   0  0  0  0  0
   50.5924   -9.5016   23.1528 H   0  0  0  0  0
   49.6411   -8.7962   24.4826 H   0  0  0  0  0
   51.2316   -8.1126   24.0656 H   0  0  0  0  0
   49.6028  -12.3787   28.3017 H   0  0  0  0  0
   48.3556  -14.9311   27.3877 H   0  0  0  0  0
   49.6589  -15.9846   29.2248 H   0  0  0  0  0
   50.3981  -14.3517   29.5592 H   0  0  0  0  0
   51.9246  -15.7062   28.3145 H   0  0  0  0  0
   51.2731  -14.3720   27.2651 H   0  0  0  0  0
   51.2366  -18.2130   28.0846 H   0  0  0  0  0
   49.5329  -17.7476   28.3126 H   0  0  0  0  0
   49.9935  -18.8024   26.9539 H   0  0  0  0  0
   47.4100  -12.2874   28.9343 H   0  0  0  0  0
   46.4745  -13.2057   31.4630 H   0  0  0  0  0
   45.3155  -11.0311   29.6879 H   0  0  0  0  0
   46.7011  -10.8395   30.8691 H   0  0  0  0  0
   45.2336  -11.2382   32.6891 H   0  0  0  0  0
   43.8511  -11.5311   31.5435 H   0  0  0  0  0
   44.6826   -9.4290   29.9772 H   0  0  0  0  0
   44.8716  -13.1591   28.2943 H   0  0  0  0  0
   42.5561  -14.5602   29.5329 H   0  0  0  0  0
   41.3668  -14.0851   27.4739 H   0  0  0  0  0
   42.8880  -13.2953   26.8070 H   0  0  0  0  0
   42.6950  -11.5294   28.3628 H   0  0  0  0  0
   41.3319  -12.3388   29.2020 H   0  0  0  0  0
   39.8294  -11.6676   27.6754 H   0  0  0  0  0
   40.9821  -11.9053   26.3013 H   0  0  0  0  0
   40.2465   -9.5549   26.6377 H   0  0  0  0  0
   42.0350   -9.8107   26.7735 H   0  0  0  0  0
   41.1994   -8.3396   28.4634 H   0  0  0  0  0
   40.1464   -9.5076   29.0147 H   0  0  0  0  0
   41.7914   -9.7429   29.1396 H   0  0  0  0  0
   41.5551  -16.2876   28.1975 H   0  0  0  0  0
   43.4056  -18.3353   27.4451 H   0  0  0  0  0
   40.9307  -18.5252   28.1460 H   0  0  0  0  0
   41.4930  -19.5782   26.8071 H   0  0  0  0  0
   39.4942  -18.5229   26.3393 H   0  0  0  0  0
   43.5817  -19.3164   25.3006 H   0  0  0  0  0
   44.5450  -17.4390   23.4234 H   0  0  0  0  0
   43.6484  -20.2987   22.9754 H   0  0  0  0  0
   45.2939  -19.7518   23.5419 H   0  0  0  0  0
   46.4719  -18.0677   21.9681 H   0  0  0  0  0
   43.3547  -20.7479   20.7273 H   0  0  0  0  0
   47.2390  -17.8797   19.6263 H   0  0  0  0  0
   44.1395  -20.5677   18.3806 H   0  0  0  0  0
   46.0664  -19.1148   17.8312 H   0  0  0  0  0
   41.4280  -19.1728   23.4982 H   0  0  0  0  0
   40.6028  -17.5570   21.1459 H   0  0  0  0  0
   38.5673  -19.1989   21.2688 H   0  0  0  0  0
   39.7516  -20.2046   22.2214 H   0  0  0  0  0
   41.2321  -21.7515   20.8208 H   0  0  0  0  0
   38.9388  -17.5109   19.0538 H   0  0  0  0  0
   41.5710  -20.4756   15.9537 H   0  0  0  0  0
   39.1478  -16.9736   16.6251 H   0  0  0  0  0
   40.4625  -18.4340   15.1075 H   0  0  0  0  0
   37.9325  -18.1538   21.9264 H   0  0  0  0  0
  1  2  1  0  0  0
  2  3  1  0  0  0
  2  5  1  0  0  0
  3  4  2  0  0  0
  3  9  1  0  0  0
  5  6  1  0  0  0
  6  7  2  0  0  0
  6  8  1  0  0  0
  9 10  1  0  0  0
 10 11  1  0  0  0
 10 13  1  0  0  0
 11 12  2  0  0  0
 11 18  1  0  0  0
 13 14  1  0  0  0
 14 15  1  0  0  0
 15 16  2  0  0  0
 15 17  1  0  0  0
 18 19  1  0  0  0
 19 20  1  0  0  0
 19 22  1  0  0  0
 20 21  2  0  0  0
 20 26  1  0  0  0
 22 23  1  0  0  0
 23 24  1  0  0  0
 23 25  1  0  0  0
 26 27  1  0  0  0
 27 28  1  0  0  0
 27 30  1  0  0  0
 28 29  2  0  0  0
 28 35  1  0  0  0
 30 31  1  0  0  0
 31 32  1  0  0  0
 32 33  2  0  0  0
 32 34  1  0  0  0
 35 36  1  0  0  0
 36 37  1  0  0  0
 36 39  1  0  0  0
 37 38  2  0  0  0
 37 43  1  0  0  0
 39 40  1  0  0  0
 40 41  1  0  0  0
 40 42  1  0  0  0
 43 44  1  0  0  0
 44 45  1  0  0  0
 44 47  1  0  0  0
 45 46  2  0  0  0
 45 51  1  0  0  0
 47 48  1  0  0  0
 48 49  1  0  0  0
 48 50  1  0  0  0
 51 52  1  0  0  0
 52 53  1  0  0  0
 52 55  1  0  0  0
 53 54  2  0  0  0
 53 59  1  0  0  0
 55 56  1  0  0  0
 56 57  1  0  0  0
 57 58  1  0  0  0
 59 60  1  0  0  0
 60 61  1  0  0  0
 60 63  1  0  0  0
 61 62  2  0  0  0
 61 68  1  0  0  0
 63 64  1  0  0  0
 64 65  1  0  0  0
 65 66  1  0  0  0
 65 67  2  0  0  0
 68 69  1  0  0  0
 69 70  1  0  0  0
 69 72  1  0  0  0
 70 71  2  0  0  0
 70 77  1  0  0  0
 72 73  1  0  0  0
 73 74  1  0  0  0
 74 75  1  0  0  0
 75 76  1  0  0  0
 77 78  1  0  0  0
 78 79  1  0  0  0
 78 81  1  0  0  0
 79 80  2  0  0  0
 79 83  1  0  0  0
 81 82  1  0  0  0
 83 84  1  0  0  0
 84 85  1  0  0  0
 84 87  1  0  0  0
 85 86  2  0  0  0
 85 94  1  0  0  0
 87 88  1  0  0  0
 88 89  4  0  0  0
 88 90  4  0  0  0
 89 91  4  0  0  0
 90 92  4  0  0  0
 91 93  4  0  0  0
 92 93  4  0  0  0
 94 95  1  0  0  0
 95 96  1  0  0  0
 95 98  1  0  0  0
 96 97  2  0  0  0
 96108  1  0  0  0
 98 99  1  0  0  0
 99100  4  0  0  0
 99101  4  0  0  0
100102  4  0  0  0
101103  4  0  0  0
101104  4  0  0  0
102103  4  0  0  0
103105  4  0  0  0
104106  4  0  0  0
105107  4  0  0  0
106107  4  0  0  0
  1109  1  0  0  0
  1110  1  0  0  0
  1111  1  0  0  0
  2112  1  0  0  0
  5113  1  0  0  0
  5114  1  0  0  0
  8115  1  0  0  0
  8116  1  0  0  0
  9117  1  0  0  0
 10118  1  0  0  0
 13119  1  0  0  0
 13120  1  0  0  0
 14121  1  0  0  0
 14122  1  0  0  0
 17123  1  0  0  0
 18124  1  0  0  0
 19125  1  0  0  0
 22126  1  0  0  0
 22127  1  0  0  0
 23128  1  0  0  0
 24129  1  0  0  0
 24130  1  0  0  0
 24131  1  0  0  0
 25132  1  0  0  0
 25133  1  0  0  0
 25134  1  0  0  0
 26135  1  0  0  0
 27136  1  0  0  0
 30137  1  0  0  0
 30138  1  0  0  0
 31139  1  0  0  0
 31140  1  0  0  0
 34141  1  0  0  0
 35142  1  0  0  0
 36143  1  0  0  0
 39144  1  0  0  0
 39145  1  0  0  0
 40146  1  0  0  0
 41147  1  0  0  0
 41148  1  0  0  0
 41149  1  0  0  0
 42150  1  0  0  0
 42151  1  0  0  0
 42152  1  0  0  0
 43153  1  0  0  0
 44154  1  0  0  0
 47155  1  0  0  0
 47156  1  0  0  0
 48157  1  0  0  0
 49158  1  0  0  0
 49159  1  0  0  0
 49160  1  0  0  0
 50161  1  0  0  0
 50162  1  0  0  0
 50163  1  0  0  0
 51164  1  0  0  0
 52165  1  0  0  0
 55166  1  0  0  0
 55167  1  0  0  0
 56168  1  0  0  0
 56169  1  0  0  0
 58170  1  0  0  0
 58171  1  0  0  0
 58172  1  0  0  0
 59173  1  0  0  0
 60174  1  0  0  0
 63175  1  0  0  0
 63176  1  0  0  0
 64177  1  0  0  0
 64178  1  0  0  0
 66179  1  0  0  0
 68180  1  0  0  0
 69181  1  0  0  0
 72182  1  0  0  0
 72183  1  0  0  0
 73184  1  0  0  0
 73185  1  0  0  0
 74186  1  0  0  0
 74187  1  0  0  0
 75188  1  0  0  0
 75189  1  0  0  0
 76190  1  0  0  0
 76191  1  0  0  0
 76192  1  0  0  0
 77193  1  0  0  0
 78194  1  0  0  0
 81195  1  0  0  0
 81196  1  0  0  0
 82197  1  0  0  0
 83198  1  0  0  0
 84199  1  0  0  0
 87200  1  0  0  0
 87201  1  0  0  0
 89202  1  0  0  0
 90203  1  0  0  0
 91204  1  0  0  0
 92205  1  0  0  0
 93206  1  0  0  0
 94207  1  0  0  0
 95208  1  0  0  0
 98209  1  0  0  0
 98210  1  0  0  0
100211  1  0  0  0
104212  1  0  0  0
105213  1  0  0  0
106214  1  0  0  0
107215  1  0  0  0
108216  1  0  0  0
M  END
$$$$
