4dlj_ligand
  -I-interpret- 

 46 49  0  0  0  0  0  0  0  0999 V2000
   23.8750  -16.6430  -11.0000 N   0  0  0  0  0
   23.8420  -17.3970   -9.8840 C   0  0  0  0  0
   24.2590  -16.9060   -8.7020 N   0  0  0  0  0
   24.7330  -15.6440   -8.6280 C   0  0  0  0  0
   24.7970  -14.8650   -9.7920 C   0  0  0  0  0
   24.3690  -15.3920  -11.0050 C   0  0  0  0  0
   26.1130  -13.2400   -6.2330 N   0  0  0  0  0
   26.6110  -17.4210  -17.4640 C   0  0  0  0  0
   22.0940  -21.2090  -10.0330 C   0  0  0  0  0
   25.2160  -17.4690  -17.4860 C   0  0  0  0  0
   27.2430  -16.9350  -16.3100 C   0  0  0  0  0
   22.5340  -20.6980   -8.8190 C   0  0  0  0  0
   22.2620  -20.4520  -11.1800 C   0  0  0  0  0
   24.4900  -17.0320  -16.3550 C   0  0  0  0  0
   26.5140  -16.5030  -15.1880 C   0  0  0  0  0
   23.1210  -19.4240   -8.7730 C   0  0  0  0  0
   22.8610  -19.1860  -11.1490 C   0  0  0  0  0
   25.7420  -13.0290   -8.5430 C   0  0  0  0  0
   25.2890  -13.5540   -9.7470 C   0  0  0  0  0
   25.1860  -15.1140   -7.4160 C   0  0  0  0  0
   24.9550  -14.8920  -13.4060 C   0  0  0  0  0
   24.3150  -16.1110  -14.0150 C   0  0  0  0  0
   24.3730  -14.5990  -12.1070 N   0  0  0  0  0
   25.6810  -13.8000   -7.3730 C   0  0  0  0  0
   25.1290  -16.5520  -15.2070 C   0  0  0  0  0
   23.3020  -18.6740   -9.9410 C   0  0  0  0  0
   26.4702  -12.2846   -6.2375 H   0  0  0  0  0
   26.0843  -13.7696   -5.3618 H   0  0  0  0  0
   27.1947  -17.7530  -18.3225 H   0  0  0  0  0
   21.6236  -22.1910  -10.0821 H   0  0  0  0  0
   24.6919  -17.8399  -18.3668 H   0  0  0  0  0
   28.3318  -16.8909  -16.2822 H   0  0  0  0  0
   22.4240  -21.2835   -7.9062 H   0  0  0  0  0
   21.9186  -20.8523  -12.1339 H   0  0  0  0  0
   23.4009  -17.0701  -16.3779 H   0  0  0  0  0
   27.0361  -16.1309  -14.3065 H   0  0  0  0  0
   23.4402  -19.0132   -7.8152 H   0  0  0  0  0
   22.9786  -18.6100  -12.0669 H   0  0  0  0  0
   26.1452  -12.0169   -8.5077 H   0  0  0  0  0
   25.3163  -12.9484  -10.6528 H   0  0  0  0  0
   25.1552  -15.7175   -6.5088 H   0  0  0  0  0
   24.7888  -14.0406  -14.0660 H   0  0  0  0  0
   26.0211  -15.0806  -13.2794 H   0  0  0  0  0
   23.2997  -15.8727  -14.3319 H   0  0  0  0  0
   24.2791  -16.9134  -13.2781 H   0  0  0  0  0
   23.9145  -13.6928  -12.0122 H   0  0  0  0  0
  1  2  4  0  0  0
  6  1  4  0  0  0
  2  3  4  0  0  0
  2 26  1  0  0  0
  4  3  4  0  0  0
  5  4  4  0  0  0
  4 20  4  0  0  0
  6  5  4  0  0  0
  5 19  4  0  0  0
 23  6  1  0  0  0
 24  7  1  0  0  0
 10  8  4  0  0  0
 11  8  4  0  0  0
 12  9  4  0  0  0
 13  9  4  0  0  0
 14 10  4  0  0  0
 15 11  4  0  0  0
 16 12  4  0  0  0
 17 13  4  0  0  0
 25 14  4  0  0  0
 25 15  4  0  0  0
 26 16  4  0  0  0
 26 17  4  0  0  0
 19 18  4  0  0  0
 18 24  4  0  0  0
 20 24  4  0  0  0
 22 21  1  0  0  0
 21 23  1  0  0  0
 22 25  1  0  0  0
  7 27  1  0  0  0
  7 28  1  0  0  0
  8 29  1  0  0  0
  9 30  1  0  0  0
 10 31  1  0  0  0
 11 32  1  0  0  0
 12 33  1  0  0  0
 13 34  1  0  0  0
 14 35  1  0  0  0
 15 36  1  0  0  0
 16 37  1  0  0  0
 17 38  1  0  0  0
 18 39  1  0  0  0
 19 40  1  0  0  0
 20 41  1  0  0  0
 21 42  1  0  0  0
 21 43  1  0  0  0
 22 44  1  0  0  0
 22 45  1  0  0  0
 23 46  1  0  0  0
M  END
$$$$
