5k03_ligand
  -I-interpret- 

 27 29  0  0  0  0  0  0  0  0999 V2000
   18.1040   13.2700   17.6630 C   0  0  0  0  0
   21.6620   16.2800   20.7500 C   0  0  0  0  0
   17.5700   12.5300   16.6220 C   0  0  0  0  0
   19.6860   15.7270   18.8700 N   0  0  0  0  0
   18.6110   15.7610   17.9580 C   0  0  0  0  0
   19.7870   17.0170   19.4200 C   0  0  0  0  0
   20.5530   14.7070   19.2440 C   0  0  0  0  0
   18.1510   14.6290   17.2060 C   0  0  0  0  0
   18.1070   17.0680   18.0040 C   0  0  0  0  0
   18.8290   17.8380   18.9020 N   0  0  0  0  0
   20.8200   17.2800   20.3790 C   0  0  0  0  0
   21.5370   14.9740   20.1760 C   0  0  0  0  0
   17.6420   14.7240   15.9460 N   0  0  0  0  0
   16.9690   17.6120   17.2220 C   0  0  0  0  0
   22.5020   13.9040   20.6110 C   0  0  0  0  0
   17.3000   13.4300   15.6180 N   0  0  0  0  0
   18.4245   12.8952   18.6351 H   0  0  0  0  0
   22.4385   16.4734   21.4901 H   0  0  0  0  0
   17.3986   11.4537   16.6022 H   0  0  0  0  0
   20.4580   13.7122   18.8088 H   0  0  0  0  0
   20.9292   18.2761   20.8079 H   0  0  0  0  0
   17.1871   17.5257   16.1575 H   0  0  0  0  0
   16.0662   17.0478   17.4561 H   0  0  0  0  0
   16.8208   18.6606   17.4800 H   0  0  0  0  0
   23.5193   14.2165   20.3755 H   0  0  0  0  0
   22.4083   13.7471   21.6856 H   0  0  0  0  0
   22.2748   12.9763   20.0858 H   0  0  0  0  0
  1  3  4  0  0  0
  8  1  4  0  0  0
 11  2  4  0  0  0
  2 12  4  0  0  0
  3 16  4  0  0  0
  4  5  4  0  0  0
  6  4  4  0  0  0
  4  7  4  0  0  0
  5  8  1  0  0  0
  5  9  4  0  0  0
  6 10  4  0  0  0
  6 11  4  0  0  0
  7 12  4  0  0  0
  8 13  4  0  0  0
  9 10  4  0  0  0
  9 14  1  0  0  0
 12 15  1  0  0  0
 13 16  4  0  0  0
  1 17  1  0  0  0
  2 18  1  0  0  0
  3 19  1  0  0  0
  7 20  1  0  0  0
 11 21  1  0  0  0
 14 22  1  0  0  0
 14 23  1  0  0  0
 14 24  1  0  0  0
 15 25  1  0  0  0
 15 26  1  0  0  0
 15 27  1  0  0  0
M  END
$$$$
