4ie7_ligand
  -I-interpret- 

 29 31  0  0  0  0  0  0  0  0999 V2000
   31.5210   -4.6430  -34.4500 O   0  0  0  0  0
   27.2180   -4.5290  -31.6920 O   0  0  0  0  0
   29.5590   -7.7620  -28.0240 O   0  0  0  0  0
   33.2850   -5.6660  -33.6590 O   0  0  0  0  0
   27.6450   -7.8350  -26.6420 O   0  0  0  0  0
   31.6900   -7.7830  -29.3750 O   0  0  0  0  0
   25.0660   -5.8550  -28.2350 C   0  0  0  0  0
   25.7000   -6.6630  -27.3170 C   0  0  0  0  0
   25.7010   -5.4060  -29.3790 C   0  0  0  0  0
   31.7570   -6.5390  -31.3810 C   0  0  0  0  0
   29.8540   -5.2870  -32.1730 C   0  0  0  0  0
   32.0060   -5.3010  -33.5370 C   0  0  0  0  0
   31.1790   -5.7090  -32.3380 C   0  0  0  0  0
   27.0000   -7.0440  -27.5470 C   0  0  0  0  0
   31.0560   -6.9570  -30.2620 C   0  0  0  0  0
   27.7440   -5.2800  -30.8350 C   0  0  0  0  0
   29.0360   -7.0090  -28.8880 C   0  0  0  0  0
   27.0110   -5.7630  -29.6170 C   0  0  0  0  0
   29.1520   -5.7180  -31.0430 C   0  0  0  0  0
   27.6440   -6.5840  -28.6880 C   0  0  0  0  0
   29.7540   -6.5550  -30.0990 C   0  0  0  0  0
   33.5471   -6.1726  -32.8868 H   0  0  0  0  0
   28.5378   -8.0085  -26.9493 H   0  0  0  0  0
   31.0936   -7.9930  -28.6526 H   0  0  0  0  0
   24.0322   -5.5604  -28.0544 H   0  0  0  0  0
   25.1774   -6.9957  -26.4202 H   0  0  0  0  0
   25.1682   -4.7731  -30.0887 H   0  0  0  0  0
   32.7873   -6.8681  -31.5159 H   0  0  0  0  0
   29.3804   -4.6371  -32.9089 H   0  0  0  0  0
 12  1  2  0  0  0
 16  2  2  0  0  0
 17  3  2  0  0  0
 12  4  1  0  0  0
 14  5  1  0  0  0
 15  6  1  0  0  0
  8  7  4  0  0  0
  7  9  4  0  0  0
 14  8  4  0  0  0
  9 18  4  0  0  0
 13 10  4  0  0  0
 10 15  4  0  0  0
 11 13  4  0  0  0
 19 11  4  0  0  0
 13 12  1  0  0  0
 20 14  4  0  0  0
 15 21  4  0  0  0
 18 16  1  0  0  0
 16 19  1  0  0  0
 17 20  1  0  0  0
 17 21  1  0  0  0
 18 20  4  0  0  0
 19 21  4  0  0  0
  4 22  1  0  0  0
  5 23  1  0  0  0
  6 24  1  0  0  0
  7 25  1  0  0  0
  8 26  1  0  0  0
  9 27  1  0  0  0
 10 28  1  0  0  0
 11 29  1  0  0  0
M  END
$$$$
