3o9p_ligand
  -I-interpret- 

 55 54  0  0  0  0  0  0  0  0999 V2000
   13.9010   55.4970   39.6030 C   0  0  0  0  0
   11.6660   54.7650   39.0260 N   0  3  0  0  0
   11.2740   57.3170   39.7000 O   0  0  0  0  0
   12.4230   55.3430   40.1100 C   0  0  0  0  0
   12.0990   57.1490   41.7450 N   0  0  0  0  0
   11.7910   57.3670   44.4160 O   0  0  0  0  0
   11.8690   56.6880   40.5110 C   0  0  0  0  0
   13.3980   61.9190   39.6640 N   0  0  0  0  0
   10.7170   59.2320   44.2480 O   0  0  0  0  0
   11.5870   58.4290   42.2150 C   0  0  0  0  0
   15.2220   65.6490   33.6330 N   0  3  0  0  0
   15.0560   60.8900   40.7570 O   0  0  0  0  0
   11.3130   58.3530   43.6850 C   0  0  0  0  0
   14.4940   65.3490   40.2320 O   0  0  0  0  0
   12.5630   59.5780   41.9900 C   0  0  0  0  0
   12.7470   64.2830   40.8560 O   0  0  0  0  0
   12.9740   59.6920   40.5230 C   0  0  0  0  0
   15.3110   67.4810   36.6150 O   0  0  0  0  0
   13.8980   60.8910   40.3340 C   0  0  0  0  0
   14.3280   67.7710   34.6270 O   0  0  0  0  0
   14.1550   63.0820   39.2840 C   0  0  0  0  0
   13.7440   64.2700   40.1510 C   0  0  0  0  0
   13.8570   63.3120   37.8160 C   0  0  0  0  0
   14.4860   64.5820   37.2600 C   0  0  0  0  0
   14.4360   64.6570   35.7540 C   0  0  0  0  0
   14.9630   67.0550   35.4210 C   0  0  0  0  0
   15.3580   65.6810   35.0720 C   0  0  0  0  0
   13.9204   56.1638   38.7410 H   0  0  0  0  0
   14.5157   55.9142   40.4006 H   0  0  0  0  0
   14.2893   54.5196   39.3167 H   0  0  0  0  0
   12.0648   53.8591   38.7795 H   0  0  0  0  0
   10.6962   54.6429   39.3174 H   0  0  0  0  0
   11.7038   55.3858   38.2176 H   0  0  0  0  0
   12.3690   54.7020   40.9899 H   0  0  0  0  0
   12.6559   56.5809   42.3834 H   0  0  0  0  0
   12.2409   56.7376   43.8475 H   0  0  0  0  0
   12.4132   61.8836   39.4007 H   0  0  0  0  0
   10.6809   58.6259   41.6420 H   0  0  0  0  0
   15.8473   66.3398   33.2181 H   0  0  0  0  0
   15.4650   64.7195   33.2903 H   0  0  0  0  0
   14.2581   65.8652   33.3789 H   0  0  0  0  0
   15.2513   65.2554   39.6495 H   0  0  0  0  0
   13.4577   59.3896   42.5834 H   0  0  0  0  0
   12.0730   60.5067   42.2823 H   0  0  0  0  0
   12.0829   59.8247   39.9094 H   0  0  0  0  0
   13.4981   58.7839   40.2250 H   0  0  0  0  0
   15.7909   66.7875   37.0737 H   0  0  0  0  0
   15.2269   62.9508   39.4318 H   0  0  0  0  0
   12.7763   63.4094   37.7126 H   0  0  0  0  0
   14.2730   62.4707   37.2617 H   0  0  0  0  0
   15.5346   64.5898   37.5573 H   0  0  0  0  0
   13.9238   65.4293   37.6526 H   0  0  0  0  0
   13.4194   64.9620   35.5060 H   0  0  0  0  0
   14.7628   63.6802   35.3975 H   0  0  0  0  0
   16.3648   65.4241   35.4012 H   0  0  0  0  0
  4  1  1  0  0  0
  4  2  1  0  0  0
  7  3  2  0  0  0
  7  4  1  0  0  0
  5  7  1  0  0  0
 10  5  1  0  0  0
 13  6  1  0  0  0
  8 19  1  0  0  0
 21  8  1  0  0  0
 13  9  2  0  0  0
 10 13  1  0  0  0
 15 10  1  0  0  0
 27 11  1  0  0  0
 19 12  2  0  0  0
 22 14  1  0  0  0
 17 15  1  0  0  0
 22 16  2  0  0  0
 19 17  1  0  0  0
 26 18  1  0  0  0
 26 20  2  0  0  0
 21 22  1  0  0  0
 23 21  1  0  0  0
 24 23  1  0  0  0
 25 24  1  0  0  0
 27 25  1  0  0  0
 26 27  1  0  0  0
  1 28  1  0  0  0
  1 29  1  0  0  0
  1 30  1  0  0  0
  2 31  1  0  0  0
  2 32  1  0  0  0
  2 33  1  0  0  0
  4 34  1  0  0  0
  5 35  1  0  0  0
  6 36  1  0  0  0
  8 37  1  0  0  0
 10 38  1  0  0  0
 11 39  1  0  0  0
 11 40  1  0  0  0
 11 41  1  0  0  0
 14 42  1  0  0  0
 15 43  1  0  0  0
 15 44  1  0  0  0
 17 45  1  0  0  0
 17 46  1  0  0  0
 18 47  1  0  0  0
 21 48  1  0  0  0
 23 49  1  0  0  0
 23 50  1  0  0  0
 24 51  1  0  0  0
 24 52  1  0  0  0
 25 53  1  0  0  0
 25 54  1  0  0  0
 27 55  1  0  0  0
M  END
$$$$
