1obx_ligand
  -I-interpret- 

 64 64  0  0  0  0  0  0  0  0999 V2000
   28.8690   15.6980    8.9230 N   0  3  0  0  0
   27.3970   15.8440    8.8640 C   0  0  0  0  0
   26.8510   15.5960   10.2500 C   0  0  0  0  0
   27.4180   15.0050   11.1350 O   0  0  0  0  0
   26.8010   14.8030    7.9380 C   0  0  0  0  0
   27.1330   15.0100    6.4830 C   0  0  0  0  0
   28.2670   15.4310    6.0770 O   0  0  0  0  0
   26.2710   14.6850    5.6570 O   0  0  0  0  0
   25.6240   16.0290   10.4350 N   0  0  0  0  0
   24.9590   15.9060   11.7140 C   0  0  0  0  0
   24.3290   14.4960   11.8580 C   0  0  0  0  0
   23.7640   13.8850   10.9460 O   0  0  0  0  0
   23.9300   17.0440   11.8530 C   0  0  0  0  0
   24.5510   18.3430   11.8830 O   0  0  0  0  0
   24.4410   13.9960   13.0750 N   0  0  0  0  0
   23.7400   12.7760   13.4770 C   0  0  0  0  0
   22.5680   13.2180   14.3340 C   0  0  0  0  0
   22.6790   14.1300   15.1240 O   0  0  0  0  0
   24.6550   11.7390   14.2070 C   0  0  0  0  0
   25.3530   12.2850   15.3940 C   0  0  0  0  0
   23.8600   10.5360   14.6390 C   0  0  0  0  0
   21.4940   12.4640   14.1980 N   0  0  0  0  0
   20.2480   12.6800   14.9570 C   0  0  0  0  0
   19.7760   11.4140   15.6120 C   0  0  0  0  0
   20.2690   10.3470   15.2140 O   0  0  0  0  0
   19.1570   13.2200   14.0410 C   0  0  0  0  0
   19.5160   14.5470   13.4940 C   0  0  0  0  0
   20.1660   14.6630   12.2900 C   0  0  0  0  0
   19.2960   15.6870   14.2380 C   0  0  0  0  0
   20.5620   15.9010   11.8490 C   0  0  0  0  0
   19.7240   16.8750   13.7970 C   0  0  0  0  0
   20.3580   16.9750   12.5880 C   0  0  0  0  0
   18.9510   11.5250   16.5010 O   0  0  0  0  0
   29.2631   15.8612    7.9964 H   0  0  0  0  0
   29.2508   16.3778    9.5807 H   0  0  0  0  0
   29.1038   14.7548    9.2324 H   0  0  0  0  0
   27.1458   16.8404    8.5004 H   0  0  0  0  0
   25.7172   14.8695    8.0337 H   0  0  0  0  0
   27.2159   13.8379    8.2289 H   0  0  0  0  0
   28.8191   15.6402    6.8340 H   0  0  0  0  0
   25.1277   16.4630    9.6567 H   0  0  0  0  0
   25.6745   16.0054   12.5302 H   0  0  0  0  0
   23.3956   16.9033   12.7925 H   0  0  0  0  0
   23.2663   17.0067   10.9891 H   0  0  0  0  0
   23.8741   19.0181   11.9702 H   0  0  0  0  0
   25.0331   14.4738   13.7543 H   0  0  0  0  0
   23.3991   12.2367   12.5932 H   0  0  0  0  0
   25.4129   11.4645   13.4733 H   0  0  0  0  0
   25.9871   13.1178   15.0899 H   0  0  0  0  0
   24.6169   12.6329   16.1187 H   0  0  0  0  0
   25.9668   11.5046   15.8438 H   0  0  0  0  0
   23.0699   10.8500   15.3211 H   0  0  0  0  0
   23.4180   10.0606   13.7634 H   0  0  0  0  0
   24.5184    9.8293   15.1442 H   0  0  0  0  0
   21.5271   11.6912   13.5331 H   0  0  0  0  0
   20.4613   13.4098   15.7380 H   0  0  0  0  0
   20.8925   10.5280   14.5068 H   0  0  0  0  0
   18.2392   13.3220   14.6200 H   0  0  0  0  0
   19.0298   12.5267   13.2096 H   0  0  0  0  0
   20.3664   13.7768   11.6878 H   0  0  0  0  0
   18.7705   15.6196   15.1906 H   0  0  0  0  0
   21.0497   15.9979   10.8790 H   0  0  0  0  0
   19.5672   17.7674   14.4030 H   0  0  0  0  0
   20.6967   17.9484   12.2333 H   0  0  0  0  0
  2  1  1  0  0  0
  2  5  1  0  0  0
  3  2  1  0  0  0
  3  4  2  0  0  0
  5  6  1  0  0  0
  6  7  1  0  0  0
  6  8  2  0  0  0
 10  9  1  0  0  0
 10 13  1  0  0  0
 11 10  1  0  0  0
 11 12  2  0  0  0
 13 14  1  0  0  0
  9  3  1  0  0  0
 16 15  1  0  0  0
 16 19  1  0  0  0
 17 16  1  0  0  0
 17 18  2  0  0  0
 19 21  1  0  0  0
 19 20  1  0  0  0
 15 11  1  0  0  0
 22 23  1  0  0  0
 23 26  1  0  0  0
 23 24  1  0  0  0
 24 25  1  0  0  0
 24 33  2  0  0  0
 26 27  1  0  0  0
 27 28  4  0  0  0
 27 29  4  0  0  0
 29 31  4  0  0  0
 31 32  4  0  0  0
 30 32  4  0  0  0
 28 30  4  0  0  0
 17 22  1  0  0  0
  1 34  1  0  0  0
  1 35  1  0  0  0
  1 36  1  0  0  0
  2 37  1  0  0  0
  5 38  1  0  0  0
  5 39  1  0  0  0
  7 40  1  0  0  0
  9 41  1  0  0  0
 10 42  1  0  0  0
 13 43  1  0  0  0
 13 44  1  0  0  0
 14 45  1  0  0  0
 15 46  1  0  0  0
 16 47  1  0  0  0
 19 48  1  0  0  0
 20 49  1  0  0  0
 20 50  1  0  0  0
 20 51  1  0  0  0
 21 52  1  0  0  0
 21 53  1  0  0  0
 21 54  1  0  0  0
 22 55  1  0  0  0
 23 56  1  0  0  0
 25 57  1  0  0  0
 26 58  1  0  0  0
 26 59  1  0  0  0
 28 60  1  0  0  0
 29 61  1  0  0  0
 30 62  1  0  0  0
 31 63  1  0  0  0
 32 64  1  0  0  0
M  END
$$$$
