6q7a_ligand
  -I-interpret- 

 42 45  0  0  0  0  0  0  0  0999 V2000
    5.1580  -32.3790   -9.3190 C   0  0  0  0  0
    4.7490  -33.3250   -8.3660 C   0  0  0  0  0
    7.5640  -34.2060   -7.7040 C   0  0  0  0  0
    5.5740  -35.5160   -8.5750 C   0  0  0  0  0
    3.7630  -36.5840   -9.2500 C   0  0  0  0  0
    3.5010  -35.2640   -9.0640 C   0  0  0  0  0
    2.1910  -34.5390   -9.2660 C   0  0  0  0  0
    2.9450  -37.7860   -9.6660 C   0  0  0  0  0
    2.7290  -37.8630  -11.1820 C   0  0  0  0  0
    1.7470  -38.7410  -11.6760 C   0  0  0  0  0
    1.5220  -38.8460  -13.0590 C   0  0  0  0  0
    2.2730  -38.0660  -13.9510 C   0  0  0  0  0
    5.4520  -32.8530  -10.9870 Cl  0  0  0  0  0
    4.5180  -32.9280   -7.0380 C   0  0  0  0  0
    4.6750  -31.5880   -6.6670 C   0  0  0  0  0
    5.0800  -30.6400   -7.6180 C   0  0  0  0  0
    5.3170  -31.0370   -8.9480 C   0  0  0  0  0
    3.9960  -34.1120   -5.8470 Cl  0  0  0  0  0
    4.6050  -34.6430   -8.6730 N   0  0  0  0  0
    5.1430  -36.6510   -8.8980 N   0  0  0  0  0
    3.2490  -37.1910  -13.4610 C   0  0  0  0  0
    3.4760  -37.0880  -12.0820 C   0  0  0  0  0
    6.9980  -35.3340   -8.1620 C   0  0  0  0  0
    7.8260  -36.3860   -8.2330 O   0  0  0  0  0
    8.9780  -35.8700   -7.7960 C   0  0  0  0  0
    8.9510  -34.5830   -7.4500 C   0  0  0  0  0
    7.0957  -33.2329   -7.5560 H   0  0  0  0  0
    1.8759  -34.6431  -10.3043 H   0  0  0  0  0
    1.4341  -34.9695   -8.6104 H   0  0  0  0  0
    2.3212  -33.4832   -9.0286 H   0  0  0  0  0
    1.9663  -37.7030   -9.1935 H   0  0  0  0  0
    3.4877  -38.6806   -9.3606 H   0  0  0  0  0
    1.1583  -39.3422  -10.9831 H   0  0  0  0  0
    0.7650  -39.5325  -13.4382 H   0  0  0  0  0
    2.0966  -38.1414  -15.0240 H   0  0  0  0  0
    4.4826  -31.2809   -5.6390 H   0  0  0  0  0
    5.2111  -29.5975   -7.3280 H   0  0  0  0  0
    5.6244  -30.2998   -9.6897 H   0  0  0  0  0
    3.8347  -36.5875  -14.1544 H   0  0  0  0  0
    4.2362  -36.4028  -11.7069 H   0  0  0  0  0
    9.8874  -36.4668   -7.7264 H   0  0  0  0  0
    9.7644  -33.9644   -7.0708 H   0  0  0  0  0
  2  1  4  0  0  0
  1 13  1  0  0  0
  1 17  4  0  0  0
  2 14  4  0  0  0
 19  2  1  0  0  0
 23  3  4  0  0  0
  3 26  4  0  0  0
  4 19  4  0  0  0
 20  4  4  0  0  0
  4 23  1  0  0  0
  5  6  4  0  0  0
  5  8  1  0  0  0
  5 20  4  0  0  0
  6  7  1  0  0  0
  6 19  4  0  0  0
  8  9  1  0  0  0
  9 10  4  0  0  0
  9 22  4  0  0  0
 10 11  4  0  0  0
 11 12  4  0  0  0
 12 21  4  0  0  0
 14 15  4  0  0  0
 14 18  1  0  0  0
 15 16  4  0  0  0
 16 17  4  0  0  0
 21 22  4  0  0  0
 23 24  4  0  0  0
 24 25  4  0  0  0
 25 26  4  0  0  0
  3 27  1  0  0  0
  7 28  1  0  0  0
  7 29  1  0  0  0
  7 30  1  0  0  0
  8 31  1  0  0  0
  8 32  1  0  0  0
 10 33  1  0  0  0
 11 34  1  0  0  0
 12 35  1  0  0  0
 15 36  1  0  0  0
 16 37  1  0  0  0
 17 38  1  0  0  0
 21 39  1  0  0  0
 22 40  1  0  0  0
 25 41  1  0  0  0
 26 42  1  0  0  0
M  END
$$$$
