5mky_ligand
  -I-interpret- 

 39 41  0  0  0  0  0  0  0  0999 V2000
    4.9640   14.6640    8.2000 C   0  0  0  0  0
    5.0840   16.0540    8.1900 C   0  0  0  0  0
    2.7130   16.3030    8.4570 C   0  0  0  0  0
    0.5460   14.4030    9.8020 C   0  0  0  0  0
    7.0860   11.6650    7.4110 C   0  0  0  0  0
    5.8590   12.4790    7.5110 N   0  3  0  0  0
    4.8850   11.8480    8.4040 C   0  0  0  0  0
    3.5490   12.5730    8.3480 C   0  0  0  0  0
    3.7020   14.0800    8.3560 C   0  0  0  0  0
    6.1910   13.8100    8.0210 C   0  0  0  0  0
    3.9720   16.8660    8.3270 C   0  0  0  0  0
    2.5800   14.9150    8.4940 C   0  0  0  0  0
    1.2950   14.3360    8.6690 N   0  0  0  0  0
    1.1210   14.8830   11.0220 C   0  0  0  0  0
    0.4960   14.9700   12.1480 N   0  0  0  0  0
   -0.8060   14.5700   12.1940 N   0  0  0  0  0
   -1.4340   14.6740   13.5090 C   0  0  0  0  0
   -1.5310   14.0600   11.1470 C   0  0  0  0  0
   -2.6970   13.7290   11.2940 O   0  0  0  0  0
   -0.7810   13.9910    9.9100 C   0  0  0  0  0
   -1.6170   13.3900    8.5190 Cl  0  0  0  0  0
    6.0684   16.5071    8.0725 H   0  0  0  0  0
    1.8319   16.9406    8.5299 H   0  0  0  0  0
    7.5326   11.5602    8.3998 H   0  0  0  0  0
    6.8358   10.6797    7.0177 H   0  0  0  0  0
    7.7927   12.1560    6.7420 H   0  0  0  0  0
    5.4483   12.5553    6.5805 H   0  0  0  0  0
    5.2652   11.8915    9.4246 H   0  0  0  0  0
    4.7372   10.8153    8.0882 H   0  0  0  0  0
    2.9768   12.2897    9.2314 H   0  0  0  0  0
    3.0537   12.2915    7.4187 H   0  0  0  0  0
    6.6717   13.6940    8.9924 H   0  0  0  0  0
    6.8459   14.2991    7.2999 H   0  0  0  0  0
    4.0868   17.9499    8.3326 H   0  0  0  0  0
    2.1641   15.1984   10.9983 H   0  0  0  0  0
   -0.8892   14.0535   14.2205 H   0  0  0  0  0
   -1.4123   15.7125   13.8395 H   0  0  0  0  0
   -2.4674   14.3334   13.4447 H   0  0  0  0  0
    0.1692   14.0692   10.4384 H   0  0  0  0  0
  1  2  4  0  0  0
  9  1  4  0  0  0
  1 10  1  0  0  0
 11  2  4  0  0  0
  3 11  4  0  0  0
 12  3  4  0  0  0
 13  4  2  0  0  0
  4 14  1  0  0  0
  4 20  1  0  0  0
  6  5  1  0  0  0
  7  6  1  0  0  0
 10  6  1  0  0  0
  8  7  1  0  0  0
  9  8  1  0  0  0
 12  9  4  0  0  0
 12 13  1  0  0  0
 14 15  2  0  0  0
 15 16  1  0  0  0
 16 17  1  0  0  0
 16 18  1  0  0  0
 18 19  2  0  0  0
 18 20  1  0  0  0
 20 21  1  0  0  0
  2 22  1  0  0  0
  3 23  1  0  0  0
  5 24  1  0  0  0
  5 25  1  0  0  0
  5 26  1  0  0  0
  6 27  1  0  0  0
  7 28  1  0  0  0
  7 29  1  0  0  0
  8 30  1  0  0  0
  8 31  1  0  0  0
 10 32  1  0  0  0
 10 33  1  0  0  0
 11 34  1  0  0  0
 14 35  1  0  0  0
 17 36  1  0  0  0
 17 37  1  0  0  0
 17 38  1  0  0  0
 20 39  1  0  0  0
M  END
$$$$
