2ha4_ligand
  -I-interpret- 

 26 25  0  0  0  0  0  0  0  0999 V2000
   36.3000   24.2130    9.1880 N   0  3  0  0  0
   35.6520   23.3870    8.1650 C   0  0  0  0  0
   34.8950   22.2170    8.7860 C   0  0  0  0  0
   33.7500   22.7390    9.4640 O   0  0  0  0  0
   32.4630   22.0710    9.4200 C   0  0  0  0  0
   32.4160   20.9400    8.9750 O   0  0  0  0  0
   31.2520   22.7840    9.9280 C   0  0  0  0  0
   35.4320   25.3420    9.5620 C   0  0  0  0  0
   37.5710   24.6940    8.6300 C   0  0  0  0  0
   36.5760   23.4290   10.3950 C   0  0  0  0  0
   36.4224   22.9879    7.5052 H   0  0  0  0  0
   34.9406   24.0078    7.6204 H   0  0  0  0  0
   35.5367   21.6842    9.4877 H   0  0  0  0  0
   34.5855   21.5158    8.0110 H   0  0  0  0  0
   30.5207   22.8730    9.1247 H   0  0  0  0  0
   30.8194   22.2195   10.7540 H   0  0  0  0  0
   31.5357   23.7777   10.2745 H   0  0  0  0  0
   35.9358   25.9535   10.3105 H   0  0  0  0  0
   35.2225   25.9456    8.6789 H   0  0  0  0  0
   34.4974   24.9597    9.9724 H   0  0  0  0  0
   37.3725   25.2943    7.7421 H   0  0  0  0  0
   38.0858   25.3022    9.3737 H   0  0  0  0  0
   38.1944   23.8411    8.3616 H   0  0  0  0  0
   37.0762   24.0597   11.1299 H   0  0  0  0  0
   35.6378   23.0600   10.8095 H   0  0  0  0  0
   37.2185   22.5862   10.1402 H   0  0  0  0  0
  1  2  1  0  0  0
  1  8  1  0  0  0
  1  9  1  0  0  0
  1 10  1  0  0  0
  2  3  1  0  0  0
  3  4  1  0  0  0
  4  5  1  0  0  0
  5  6  2  0  0  0
  5  7  1  0  0  0
  2 11  1  0  0  0
  2 12  1  0  0  0
  3 13  1  0  0  0
  3 14  1  0  0  0
  7 15  1  0  0  0
  7 16  1  0  0  0
  7 17  1  0  0  0
  8 18  1  0  0  0
  8 19  1  0  0  0
  8 20  1  0  0  0
  9 21  1  0  0  0
  9 22  1  0  0  0
  9 23  1  0  0  0
 10 24  1  0  0  0
 10 25  1  0  0  0
 10 26  1  0  0  0
M  END
$$$$
