### 
### Created by X-TOOL on Mon Sep 10 21:13:19 2018
### 

@<TRIPOS>MOLECULE
4pri_ligand
  171   175     1     0     0
SMALL
GAST_HUCK


@<TRIPOS>ATOM
      1 N          -7.8290   40.2210    2.6900 N.4       1 HIS         0.2394
      2 CA         -8.1560   40.5690    1.3060 C.3       1 HIS         0.0763
      3 C          -7.0870   39.9930    0.3690 C.2       1 HIS         0.2313
      4 O          -5.8850   40.1490    0.6400 O.2       1 HIS        -0.3903
      5 CB         -8.2390   42.0950    1.1390 C.3       1 HIS         0.0628
      6 CG         -9.0190   42.5760   -0.0450 C.2       1 HIS         0.0593
      7 ND1        -8.4440   42.6700   -1.3050 N.pl3     1 HIS        -0.2622
      8 CD2       -10.2820   43.0450   -0.1080 C.2       1 HIS        -0.0274
      9 CE1        -9.3830   43.1590   -2.0940 C.2       1 HIS         0.0875
     10 NE2       -10.5010   43.4120   -1.4170 N.2       1 HIS        -0.3437
     11 N          -7.4730   39.3390   -0.7470 N.am      1 PRO        -0.2470
     12 CA         -6.4490   38.7970   -1.6410 C.3       1 PRO         0.1339
     13 C          -5.8450   39.8700   -2.5610 C.2       1 PRO         0.2041
     14 O          -6.4480   40.9370   -2.7750 O.2       1 PRO        -0.3944
     15 CB         -7.2310   37.7490   -2.4430 C.3       1 PRO        -0.0104
     16 CG         -8.5730   38.3160   -2.5490 C.3       1 PRO        -0.0281
     17 CD         -8.8280   39.0550   -1.2610 C.3       1 PRO         0.0371
     18 N          -4.6580   39.5640   -3.1200 N.am      1 VAL        -0.2635
     19 CA         -4.0030   40.4120   -4.1110 C.3       1 VAL         0.1332
     20 C          -4.5970   40.0740   -5.4570 C.2       1 VAL         0.2039
     21 O          -4.8560   38.9060   -5.7430 O.2       1 VAL        -0.3944
     22 CB         -2.4320   40.3290   -4.1300 C.3       1 VAL        -0.0063
     23 CG1        -1.9080   38.9860   -4.6330 C.3       1 VAL        -0.0584
     24 CG2        -1.8230   41.4850   -4.9200 C.3       1 VAL        -0.0584
     25 N          -4.8060   41.1000   -6.2630 N.am      1 GLY        -0.2664
     26 CA         -5.2240   40.9440   -7.6360 C.3       1 GLY         0.1201
     27 C          -3.9950   40.6890   -8.4910 C.2       1 GLY         0.2007
     28 O          -2.9090   41.2610   -8.2590 O.2       1 GLY        -0.3947
     29 N          -4.1580   39.8160   -9.4810 N.am      1 GLU        -0.2639
     30 CA         -3.0850   39.5270  -10.4300 C.3       1 GLU         0.1324
     31 C          -3.2000   40.5130  -11.5900 C.2       1 GLU         0.2040
     32 O          -4.2760   40.6570  -12.1900 O.2       1 GLU        -0.3944
     33 CB         -3.1010   38.0560  -10.9200 C.3       1 GLU        -0.0008
     34 CG         -3.0080   36.9630   -9.8470 C.3       1 GLU         0.0044
     35 CD         -2.0450   37.0970   -8.6750 C.2       1 GLU         0.0350
     36 OE1        -0.9120   37.5950   -8.8760 O.co2     1 GLU        -0.5690
     37 OE2        -2.4220   36.6780   -7.5540 O.co2     1 GLU        -0.5690
     38 N          -2.1110   41.2300  -11.8660 N.am      1 ALA        -0.2640
     39 CA         -2.0790   42.1870  -12.9580 C.3       1 ALA         0.1282
     40 C          -1.9480   41.4390  -14.3090 C.2       1 ALA         0.2037
     41 O          -1.9210   40.2210  -14.3120 O.2       1 ALA        -0.3944
     42 CB         -0.9330   43.1780  -12.7530 C.3       1 ALA        -0.0244
     43 N          -1.9080   42.1390  -15.4410 N.am      1 ASP        -0.2622
     44 CA         -1.7650   41.4590  -16.7210 C.3       1 ASP         0.1423
     45 C          -0.3750   40.7870  -16.8290 C.2       1 ASP         0.2057
     46 O           0.6090   41.2580  -16.2210 O.2       1 ASP        -0.3943
     47 CB         -1.9610   42.4390  -17.9010 C.3       1 ASP         0.0406
     48 CG         -3.3160   43.0710  -18.0700 C.2       1 ASP         0.0393
     49 OD1        -4.2730   42.5850  -17.4620 O.co2     1 ASP        -0.5688
     50 OD2        -3.4240   44.0310  -18.8550 O.co2     1 ASP        -0.5688
     51 N          -0.3040   39.6880  -17.6300 N.am      1 TYR        -0.2620
     52 CA          0.9230   38.9340  -17.9190 C.3       1 TYR         0.1390
     53 C           1.5000   38.2430  -16.6570 C.2       1 TYR         0.2059
     54 O           2.7000   37.9130  -16.6140 O.2       1 TYR        -0.3942
     55 CB          1.9950   39.8410  -18.5700 C.3       1 TYR         0.0163
     56 CG          1.5270   40.6760  -19.7450 C.ar      1 TYR        -0.0493
     57 CD1         1.0560   41.9720  -19.5610 C.ar      1 TYR        -0.0685
     58 CD2         1.6810   40.2230  -21.0490 C.ar      1 TYR        -0.0685
     59 CE1         0.6460   42.7560  -20.6400 C.ar      1 TYR        -0.0398
     60 CE2         1.3250   41.0230  -22.1430 C.ar      1 TYR        -0.0398
     61 CZ          0.8150   42.2910  -21.9330 C.ar      1 TYR         0.0805
     62 OH          0.4640   43.0650  -23.0070 O.3       1 TYR        -0.3376
     63 N           0.6460   38.0620  -15.6300 N.am      1 PHE        -0.2618
     64 CA          0.9530   37.3370  -14.4020 C.3       1 PHE         0.1404
     65 C           0.5220   35.9080  -14.6980 C.2       1 PHE         0.2060
     66 O          -0.6730   35.5910  -14.6310 O.2       1 PHE        -0.3942
     67 CB          0.2380   37.9440  -13.1600 C.3       1 PHE         0.0214
     68 CG          0.8470   39.1790  -12.5050 C.ar      1 PHE        -0.0386
     69 CD1         1.4270   40.1890  -13.2760 C.ar      1 PHE        -0.0601
     70 CD2         0.7410   39.3800  -11.1270 C.ar      1 PHE        -0.0601
     71 CE1         1.9850   41.3200  -12.6730 C.ar      1 PHE        -0.0686
     72 CE2         1.2720   40.5220  -10.5240 C.ar      1 PHE        -0.0686
     73 CZ          1.9020   41.4810  -11.2990 C.ar      1 PHE        -0.0687
     74 N           1.4560   35.1150  -15.2070 N.am      1 GLU        -0.2635
     75 CA          1.2980   33.7130  -15.5810 C.3       1 GLU         0.1324
     76 C           2.6050   33.0410  -15.3450 C.2       1 GLU         0.2036
     77 O           3.6490   33.6940  -15.3600 O.2       1 GLU        -0.3944
     78 CB          0.8720   33.5290  -17.0600 C.3       1 GLU        -0.0008
     79 CG         -0.5860   33.8330  -17.3910 C.3       1 GLU         0.0044
     80 CD         -0.8660   35.2430  -17.8900 C.2       1 GLU         0.0350
     81 OE1        -0.0620   35.7650  -18.7010 O.co2     1 GLU        -0.5690
     82 OE2        -1.9150   35.8110  -17.5010 O.co2     1 GLU        -0.5690
     83 N           2.5710   31.7400  -15.1480 N.am      1 TYR        -0.2679
     84 CA          3.7710   30.9460  -14.9600 C.3       1 TYR         0.1025
     85 C           4.3660   30.6110  -16.3280 C.2       1 TYR         0.0619
     86 O           3.6070   30.5990  -17.3230 O.co2     1 TYR        -0.5665
     87 CB          3.4150   29.6900  -14.1660 C.3       1 TYR         0.0108
     88 CG          3.0090   29.9650  -12.7330 C.ar      1 TYR        -0.0499
     89 CD1         1.8430   30.6640  -12.4380 C.ar      1 TYR        -0.0686
     90 CD2         3.7760   29.5030  -11.6720 C.ar      1 TYR        -0.0686
     91 CE1         1.4550   30.9080  -11.1250 C.ar      1 TYR        -0.0398
     92 CE2         3.4100   29.7670  -10.3490 C.ar      1 TYR        -0.0398
     93 CZ          2.2320   30.4470  -10.0810 C.ar      1 TYR         0.0805
     94 OH          1.8350   30.6950   -8.7890 O.3       1 TYR        -0.3376
     95 OXT         5.5980   30.4300  -16.4200 O.co2     1 TYR        -0.5665
     96 H          -8.5312   40.5992    3.3064 H         1 HIS         0.2017
     97 H          -6.9289   40.6062    2.9296 H         1 HIS         0.2017
     98 H          -7.8019   39.2180    2.7869 H         1 HIS         0.2017
     99 H          -9.1316   40.1309    1.0488 H         1 HIS         0.1123
    100 H          -7.2132   42.4815    1.0478 H         1 HIS         0.0525
    101 H          -8.7079   42.5092    2.0437 H         1 HIS         0.0525
    102 H          -7.4828   42.4115   -1.5699 H         1 HIS         0.2386
    103 H         -10.9904   43.1190    0.7157 H         1 HIS         0.0324
    104 H          -9.2588   43.3331   -3.1618 H         1 HIS         0.1149
    105 H          -5.6399   38.3256   -1.0638 H         1 PRO         0.0802
    106 H          -7.2539   36.7864   -1.9111 H         1 PRO         0.0313
    107 H          -6.7865   37.6070   -3.4391 H         1 PRO         0.0313
    108 H          -9.3149   37.5146   -2.6806 H         1 PRO         0.0287
    109 H          -8.6266   39.0089   -3.4017 H         1 PRO         0.0287
    110 H          -9.3807   39.9877   -1.4467 H         1 PRO         0.0524
    111 H          -9.3924   38.4287   -0.5545 H         1 PRO         0.0524
    112 H          -4.2048   38.7167   -2.8431 H         1 VAL         0.1883
    113 H          -4.2602   41.4551   -3.8748 H         1 VAL         0.0802
    114 H          -2.0952   40.4333   -3.0880 H         1 VAL         0.0343
    115 H          -0.8081   38.9940   -4.6214 H         1 VAL         0.0234
    116 H          -2.2625   38.8155   -5.6602 H         1 VAL         0.0234
    117 H          -2.2757   38.1810   -3.9798 H         1 VAL         0.0234
    118 H          -2.2170   42.4382   -4.5375 H         1 VAL         0.0234
    119 H          -2.0845   41.3805   -5.9833 H         1 VAL         0.0234
    120 H          -0.7288   41.4693   -4.8082 H         1 VAL         0.0234
    121 H          -4.6687   42.0242   -5.9066 H         1 GLY         0.1881
    122 H          -5.7283   41.8605   -7.9762 H         1 GLY         0.0763
    123 H          -5.9157   40.0927   -7.7183 H         1 GLY         0.0763
    124 H          -5.0355   39.3463   -9.5783 H         1 GLU         0.1883
    125 H          -2.1231   39.6966   -9.9241 H         1 GLU         0.0801
    126 H          -2.2484   37.9243  -11.6025 H         1 GLU         0.0330
    127 H          -4.0398   37.9002  -11.4717 H         1 GLU         0.0330
    128 H          -2.7379   36.0335  -10.3695 H         1 GLU         0.0433
    129 H          -4.0146   36.8617   -9.4151 H         1 GLU         0.0433
    130 H          -1.2925   41.1055  -11.3052 H         1 ALA         0.1883
    131 H          -3.0251   42.7481  -12.9624 H         1 ALA         0.0797
    132 H          -0.9175   43.8978  -13.5847 H         1 ALA         0.0277
    133 H           0.0220   42.6330  -12.7220 H         1 ALA         0.0277
    134 H          -1.0789   43.7163  -11.8049 H         1 ALA         0.0277
    135 H          -1.9765   43.1362  -15.4122 H         1 ASP         0.1884
    136 H          -2.5375   40.6785  -16.7847 H         1 ASP         0.0819
    137 H          -1.7386   41.8872  -18.8262 H         1 ASP         0.0478
    138 H          -1.2324   43.2535  -17.7756 H         1 ASP         0.0478
    139 H          -1.1521   39.3700  -18.0539 H         1 TYR         0.1885
    140 H           0.6638   38.1460  -18.6414 H         1 TYR         0.0821
    141 H           2.8153   39.1968  -18.9193 H         1 TYR         0.0453
    142 H           2.3713   40.5272  -17.7970 H         1 TYR         0.0453
    143 H           1.0065   42.3813  -18.5585 H         1 TYR         0.0530
    144 H           2.0841   39.2320  -21.2236 H         1 TYR         0.0530
    145 H           0.1962   43.7269  -20.4662 H         1 TYR         0.0525
    146 H           1.4492   40.6483  -23.1526 H         1 TYR         0.0525
    147 H           0.1335   43.9007  -22.6991 H         1 TYR         0.2458
    148 H          -0.2693   38.4554  -15.7166 H         1 PHE         0.1885
    149 H           2.0368   37.3642  -14.2162 H         1 PHE         0.0823
    150 H           0.1944   37.1570  -12.3928 H         1 PHE         0.0474
    151 H          -0.7831   38.2105  -13.4704 H         1 PHE         0.0474
    152 H           1.4447   40.0946  -14.3557 H         1 PHE         0.0557
    153 H           0.2389   38.6383  -10.5164 H         1 PHE         0.0557
    154 H           2.4815   42.0694  -13.2787 H         1 PHE         0.0599
    155 H           1.1912   40.6575   -9.4515 H         1 PHE         0.0599
    156 H           2.3310   42.3592  -10.8302 H         1 PHE         0.0559
    157 H           2.3598   35.5188  -15.3488 H         1 GLU         0.1883
    158 H           0.5296   33.2575  -14.9390 H         1 GLU         0.0801
    159 H           1.0661   32.4820  -17.3360 H         1 GLU         0.0330
    160 H           1.4993   34.1923  -17.6736 H         1 GLU         0.0330
    161 H          -1.1807   33.6721  -16.4798 H         1 GLU         0.0433
    162 H          -0.9105   33.1275  -18.1701 H         1 GLU         0.0433
    163 H           1.6830   31.2806  -15.1271 H         1 TYR         0.1877
    164 H           4.5077   31.5288  -14.3877 H         1 TYR         0.0747
    165 H           4.2920   29.0261  -14.1562 H         1 TYR         0.0446
    166 H           2.5788   29.1855  -14.6722 H         1 TYR         0.0446
    167 H           1.2229   31.0266  -13.2498 H         1 TYR         0.0530
    168 H           4.6730   28.9284  -11.8727 H         1 TYR         0.0530
    169 H           0.5440   31.4592  -10.9216 H         1 TYR         0.0525
    170 H           4.0461   29.4406   -9.5342 H         1 TYR         0.0525
    171 H           2.4964   31.2172   -8.3504 H         1 TYR         0.2458
@<TRIPOS>BOND
     1    1    2 1  
     2    2    3 1  
     3    2    5 1  
     4    3    4 2  
     5    3   11 am 
     6    5    6 1  
     7    6    7 1  
     8    6    8 2  
     9    7    9 1  
    10    8   10 1  
    11    9   10 2  
    12   11   12 1  
    13   11   17 1  
    14   12   13 1  
    15   12   15 1  
    16   13   14 2  
    17   13   18 am 
    18   15   16 1  
    19   16   17 1  
    20   18   19 1  
    21   19   20 1  
    22   19   22 1  
    23   20   21 2  
    24   20   25 am 
    25   22   23 1  
    26   22   24 1  
    27   25   26 1  
    28   26   27 1  
    29   27   28 2  
    30   27   29 am 
    31   29   30 1  
    32   30   31 1  
    33   30   33 1  
    34   31   32 2  
    35   31   38 am 
    36   33   34 1  
    37   34   35 1  
    38   35   36 ar 
    39   35   37 ar 
    40   38   39 1  
    41   39   40 1  
    42   39   42 1  
    43   40   41 2  
    44   40   43 am 
    45   43   44 1  
    46   44   45 1  
    47   44   47 1  
    48   45   46 2  
    49   45   51 am 
    50   47   48 1  
    51   48   49 ar 
    52   48   50 ar 
    53   51   52 1  
    54   52   53 1  
    55   52   55 1  
    56   53   54 2  
    57   53   63 am 
    58   55   56 1  
    59   56   57 ar 
    60   56   58 ar 
    61   57   59 ar 
    62   58   60 ar 
    63   59   61 ar 
    64   60   61 ar 
    65   61   62 1  
    66   63   64 1  
    67   64   65 1  
    68   64   67 1  
    69   65   66 2  
    70   65   74 am 
    71   67   68 1  
    72   68   69 ar 
    73   68   70 ar 
    74   69   71 ar 
    75   70   72 ar 
    76   71   73 ar 
    77   72   73 ar 
    78   74   75 1  
    79   75   76 1  
    80   75   78 1  
    81   76   77 2  
    82   76   83 am 
    83   78   79 1  
    84   79   80 1  
    85   80   81 ar 
    86   80   82 ar 
    87   83   84 1  
    88   84   85 1  
    89   84   87 1  
    90   85   86 ar 
    91   85   95 ar 
    92   87   88 1  
    93   88   89 ar 
    94   88   90 ar 
    95   89   91 ar 
    96   90   92 ar 
    97   91   93 ar 
    98   92   93 ar 
    99   93   94 1  
   100    1   96 1  
   101    1   97 1  
   102    1   98 1  
   103    2   99 1  
   104    5  100 1  
   105    5  101 1  
   106    7  102 1  
   107    8  103 1  
   108    9  104 1  
   109   12  105 1  
   110   15  106 1  
   111   15  107 1  
   112   16  108 1  
   113   16  109 1  
   114   17  110 1  
   115   17  111 1  
   116   18  112 1  
   117   19  113 1  
   118   22  114 1  
   119   23  115 1  
   120   23  116 1  
   121   23  117 1  
   122   24  118 1  
   123   24  119 1  
   124   24  120 1  
   125   25  121 1  
   126   26  122 1  
   127   26  123 1  
   128   29  124 1  
   129   30  125 1  
   130   33  126 1  
   131   33  127 1  
   132   34  128 1  
   133   34  129 1  
   134   38  130 1  
   135   39  131 1  
   136   42  132 1  
   137   42  133 1  
   138   42  134 1  
   139   43  135 1  
   140   44  136 1  
   141   47  137 1  
   142   47  138 1  
   143   51  139 1  
   144   52  140 1  
   145   55  141 1  
   146   55  142 1  
   147   57  143 1  
   148   58  144 1  
   149   59  145 1  
   150   60  146 1  
   151   62  147 1  
   152   63  148 1  
   153   64  149 1  
   154   67  150 1  
   155   67  151 1  
   156   69  152 1  
   157   70  153 1  
   158   71  154 1  
   159   72  155 1  
   160   73  156 1  
   161   74  157 1  
   162   75  158 1  
   163   78  159 1  
   164   78  160 1  
   165   79  161 1  
   166   79  162 1  
   167   83  163 1  
   168   84  164 1  
   169   87  165 1  
   170   87  166 1  
   171   89  167 1  
   172   90  168 1  
   173   91  169 1  
   174   92  170 1  
   175   94  171 1  
@<TRIPOS>SUBSTRUCTURE
     1 HIS         1

