4pri_ligand
  -I-interpret- 

174178  0  0  0  0  0  0  0  0999 V2000
   -7.8290   40.2210    2.6900 N   0  3  0  0  0
   -8.1560   40.5690    1.3060 C   0  0  0  0  0
   -7.0870   39.9930    0.3690 C   0  0  0  0  0
   -5.8850   40.1490    0.6400 O   0  0  0  0  0
   -8.2390   42.0950    1.1390 C   0  0  0  0  0
   -9.0190   42.5760   -0.0450 C   0  0  0  0  0
   -8.4440   42.6700   -1.3050 N   0  0  0  0  0
  -10.2820   43.0450   -0.1080 C   0  0  0  0  0
   -9.3830   43.1590   -2.0940 C   0  0  0  0  0
  -10.5010   43.4120   -1.4170 N   0  0  0  0  0
   -7.4730   39.3390   -0.7470 N   0  0  0  0  0
   -6.4490   38.7970   -1.6410 C   0  0  0  0  0
   -5.8450   39.8700   -2.5610 C   0  0  0  0  0
   -6.4480   40.9370   -2.7750 O   0  0  0  0  0
   -7.2310   37.7490   -2.4430 C   0  0  0  0  0
   -8.5730   38.3160   -2.5490 C   0  0  0  0  0
   -8.8280   39.0550   -1.2610 C   0  0  0  0  0
   -4.6580   39.5640   -3.1200 N   0  0  0  0  0
   -4.0030   40.4120   -4.1110 C   0  0  0  0  0
   -4.5970   40.0740   -5.4570 C   0  0  0  0  0
   -4.8560   38.9060   -5.7430 O   0  0  0  0  0
   -2.4320   40.3290   -4.1300 C   0  0  0  0  0
   -1.9080   38.9860   -4.6330 C   0  0  0  0  0
   -1.8230   41.4850   -4.9200 C   0  0  0  0  0
   -4.8060   41.1000   -6.2630 N   0  0  0  0  0
   -5.2240   40.9440   -7.6360 C   0  0  0  0  0
   -3.9950   40.6890   -8.4910 C   0  0  0  0  0
   -2.9090   41.2610   -8.2590 O   0  0  0  0  0
   -4.1580   39.8160   -9.4810 N   0  0  0  0  0
   -3.0850   39.5270  -10.4300 C   0  0  0  0  0
   -3.2000   40.5130  -11.5900 C   0  0  0  0  0
   -4.2760   40.6570  -12.1900 O   0  0  0  0  0
   -3.1010   38.0560  -10.9200 C   0  0  0  0  0
   -3.0080   36.9630   -9.8470 C   0  0  0  0  0
   -2.0450   37.0970   -8.6750 C   0  0  0  0  0
   -0.9120   37.5950   -8.8760 O   0  0  0  0  0
   -2.4220   36.6780   -7.5540 O   0  0  0  0  0
   -2.1110   41.2300  -11.8660 N   0  0  0  0  0
   -2.0790   42.1870  -12.9580 C   0  0  0  0  0
   -1.9480   41.4390  -14.3090 C   0  0  0  0  0
   -1.9210   40.2210  -14.3120 O   0  0  0  0  0
   -0.9330   43.1780  -12.7530 C   0  0  0  0  0
   -1.9080   42.1390  -15.4410 N   0  0  0  0  0
   -1.7650   41.4590  -16.7210 C   0  0  0  0  0
   -0.3750   40.7870  -16.8290 C   0  0  0  0  0
    0.6090   41.2580  -16.2210 O   0  0  0  0  0
   -1.9610   42.4390  -17.9010 C   0  0  0  0  0
   -3.3160   43.0710  -18.0700 C   0  0  0  0  0
   -4.2730   42.5850  -17.4620 O   0  0  0  0  0
   -3.4240   44.0310  -18.8550 O   0  0  0  0  0
   -0.3040   39.6880  -17.6300 N   0  0  0  0  0
    0.9230   38.9340  -17.9190 C   0  0  0  0  0
    1.5000   38.2430  -16.6570 C   0  0  0  0  0
    2.7000   37.9130  -16.6140 O   0  0  0  0  0
    1.9950   39.8410  -18.5700 C   0  0  0  0  0
    1.5270   40.6760  -19.7450 C   0  0  0  0  0
    1.0560   41.9720  -19.5610 C   0  0  0  0  0
    1.6810   40.2230  -21.0490 C   0  0  0  0  0
    0.6460   42.7560  -20.6400 C   0  0  0  0  0
    1.3250   41.0230  -22.1430 C   0  0  0  0  0
    0.8150   42.2910  -21.9330 C   0  0  0  0  0
    0.4640   43.0650  -23.0070 O   0  0  0  0  0
    0.6460   38.0620  -15.6300 N   0  0  0  0  0
    0.9530   37.3370  -14.4020 C   0  0  0  0  0
    0.5220   35.9080  -14.6980 C   0  0  0  0  0
   -0.6730   35.5910  -14.6310 O   0  0  0  0  0
    0.2380   37.9440  -13.1600 C   0  0  0  0  0
    0.8470   39.1790  -12.5050 C   0  0  0  0  0
    1.4270   40.1890  -13.2760 C   0  0  0  0  0
    0.7410   39.3800  -11.1270 C   0  0  0  0  0
    1.9850   41.3200  -12.6730 C   0  0  0  0  0
    1.2720   40.5220  -10.5240 C   0  0  0  0  0
    1.9020   41.4810  -11.2990 C   0  0  0  0  0
    1.4560   35.1150  -15.2070 N   0  0  0  0  0
    1.2980   33.7130  -15.5810 C   0  0  0  0  0
    2.6050   33.0410  -15.3450 C   0  0  0  0  0
    3.6490   33.6940  -15.3600 O   0  0  0  0  0
    0.8720   33.5290  -17.0600 C   0  0  0  0  0
   -0.5860   33.8330  -17.3910 C   0  0  0  0  0
   -0.8660   35.2430  -17.8900 C   0  0  0  0  0
   -0.0620   35.7650  -18.7010 O   0  0  0  0  0
   -1.9150   35.8110  -17.5010 O   0  0  0  0  0
    2.5710   31.7400  -15.1480 N   0  0  0  0  0
    3.7710   30.9460  -14.9600 C   0  0  0  0  0
    4.3660   30.6110  -16.3280 C   0  0  0  0  0
    3.6070   30.5990  -17.3230 O   0  0  0  0  0
    3.4150   29.6900  -14.1660 C   0  0  0  0  0
    3.0090   29.9650  -12.7330 C   0  0  0  0  0
    1.8430   30.6640  -12.4380 C   0  0  0  0  0
    3.7760   29.5030  -11.6720 C   0  0  0  0  0
    1.4550   30.9080  -11.1250 C   0  0  0  0  0
    3.4100   29.7670  -10.3490 C   0  0  0  0  0
    2.2320   30.4470  -10.0810 C   0  0  0  0  0
    1.8350   30.6950   -8.7890 O   0  0  0  0  0
    5.5980   30.4300  -16.4200 O   0  0  0  0  0
   -7.7783   39.2064    2.7813 H   0  0  0  0  0
   -6.9290   40.6313    2.9389 H   0  0  0  0  0
   -8.5527   40.5837    3.3106 H   0  0  0  0  0
   -9.1272   40.1437    1.0529 H   0  0  0  0  0
   -7.2168   42.4467    0.9993 H   0  0  0  0  0
   -8.7522   42.4751    2.0223 H   0  0  0  0  0
  -10.9911   43.1191    0.7165 H   0  0  0  0  0
   -9.2587   43.3332   -3.1628 H   0  0  0  0  0
   -5.5909   38.3921   -1.1045 H   0  0  0  0  0
   -7.2315   36.7729   -1.9580 H   0  0  0  0  0
   -6.7847   37.5574   -3.4188 H   0  0  0  0  0
   -9.3161   37.5338   -2.7039 H   0  0  0  0  0
   -8.6468   38.9867   -3.4050 H   0  0  0  0  0
   -9.4147   39.9614   -1.4105 H   0  0  0  0  0
   -9.4259   38.4736   -0.5591 H   0  0  0  0  0
   -4.1957   38.6997   -2.8376 H   0  0  0  0  0
   -4.1922   41.4504   -3.8389 H   0  0  0  0  0
   -2.1129   40.4158   -3.0914 H   0  0  0  0  0
   -2.2731   38.1892   -3.9850 H   0  0  0  0  0
   -2.2600   38.8183   -5.6509 H   0  0  0  0  0
   -0.8181   38.9951   -4.6210 H   0  0  0  0  0
   -2.1844   41.4512   -5.9478 H   0  0  0  0  0
   -2.1147   42.4300   -4.4618 H   0  0  0  0  0
   -0.7367   41.3961   -4.9124 H   0  0  0  0  0
   -4.6660   42.0427   -5.8995 H   0  0  0  0  0
   -5.7305   41.8478   -7.9746 H   0  0  0  0  0
   -5.9152   40.1054   -7.7204 H   0  0  0  0  0
   -5.0530   39.3369   -9.5802 H   0  0  0  0  0
   -2.1241   39.6502   -9.9303 H   0  0  0  0  0
   -2.2128   37.9396  -11.5410 H   0  0  0  0  0
   -4.0665   37.9147  -11.4057 H   0  0  0  0  0
   -2.6456   36.0896  -10.3892 H   0  0  0  0  0
   -3.9936   36.9641   -9.3815 H   0  0  0  0  0
   -3.3176   36.3395   -7.6248 H   0  0  0  0  0
   -1.2761   41.1030  -11.2939 H   0  0  0  0  0
   -3.0104   42.7529  -12.9743 H   0  0  0  0  0
   -1.0787   43.7107  -11.8133 H   0  0  0  0  0
    0.0126   42.6367  -12.7225 H   0  0  0  0  0
   -0.9187   43.8906  -13.5776 H   0  0  0  0  0
   -1.9778   43.1562  -15.4116 H   0  0  0  0  0
   -2.5387   40.6930  -16.7738 H   0  0  0  0  0
   -1.8023   41.8457  -18.8015 H   0  0  0  0  0
   -1.2763   43.2653  -17.7099 H   0  0  0  0  0
   -2.5609   44.2465  -19.2159 H   0  0  0  0  0
   -1.1690   39.3636  -18.0623 H   0  0  0  0  0
    0.6481   38.1512  -18.6260 H   0  0  0  0  0
    2.7690   39.1763  -18.9536 H   0  0  0  0  0
    2.3125   40.5439  -17.7998 H   0  0  0  0  0
    1.0062   42.3836  -18.5529 H   0  0  0  0  0
    2.0864   39.2265  -21.2246 H   0  0  0  0  0
    0.1937   43.7322  -20.4653 H   0  0  0  0  0
    1.4499   40.6463  -23.1582 H   0  0  0  0  0
    0.6490   42.5869  -23.8187 H   0  0  0  0  0
   -0.2876   38.4632  -15.7184 H   0  0  0  0  0
    2.0090   37.3947  -14.1379 H   0  0  0  0  0
    0.2794   37.1661  -12.3976 H   0  0  0  0  0
   -0.7395   38.2642  -13.5208 H   0  0  0  0  0
    1.4448   40.0941  -14.3617 H   0  0  0  0  0
    0.2362   38.6342  -10.5130 H   0  0  0  0  0
    2.4842   42.0736  -13.2821 H   0  0  0  0  0
    1.1907   40.6582   -9.4456 H   0  0  0  0  0
    2.3334   42.3641  -10.8276 H   0  0  0  0  0
    2.3779   35.5268  -15.3516 H   0  0  0  0  0
    0.5021   33.2763  -14.9777 H   0  0  0  0  0
    1.0195   32.4733  -17.2876 H   0  0  0  0  0
    1.4666   34.2381  -17.6359 H   0  0  0  0  0
   -1.1453   33.7162  -16.4627 H   0  0  0  0  0
   -0.8678   33.1570  -18.1983 H   0  0  0  0  0
    0.6675   35.1616  -18.8599 H   0  0  0  0  0
    1.6653   31.2714  -15.1266 H   0  0  0  0  0
    4.5217   31.4988  -14.3952 H   0  0  0  0  0
    2.7042   30.7573  -17.0374 H   0  0  0  0  0
    4.3054   29.0620  -14.1360 H   0  0  0  0  0
    2.5628   29.2241  -14.6608 H   0  0  0  0  0
    1.2195   31.0287  -13.2543 H   0  0  0  0  0
    4.6780   28.9252  -11.8738 H   0  0  0  0  0
    0.5390   31.4623  -10.9205 H   0  0  0  0  0
    4.0496   29.4388   -9.5296 H   0  0  0  0  0
    2.4730   30.3147   -8.1808 H   0  0  0  0  0
  1  2  1  0  0  0
  2  3  1  0  0  0
  2  5  1  0  0  0
  3  4  2  0  0  0
  3 11  1  0  0  0
  5  6  1  0  0  0
  6  7  4  0  0  0
  6  8  4  0  0  0
  7  9  4  0  0  0
  8 10  4  0  0  0
  9 10  4  0  0  0
 11 12  1  0  0  0
 11 17  1  0  0  0
 12 13  1  0  0  0
 12 15  1  0  0  0
 13 14  2  0  0  0
 13 18  1  0  0  0
 15 16  1  0  0  0
 16 17  1  0  0  0
 18 19  1  0  0  0
 19 20  1  0  0  0
 19 22  1  0  0  0
 20 21  2  0  0  0
 20 25  1  0  0  0
 22 23  1  0  0  0
 22 24  1  0  0  0
 25 26  1  0  0  0
 26 27  1  0  0  0
 27 28  2  0  0  0
 27 29  1  0  0  0
 29 30  1  0  0  0
 30 31  1  0  0  0
 30 33  1  0  0  0
 31 32  2  0  0  0
 31 38  1  0  0  0
 33 34  1  0  0  0
 34 35  1  0  0  0
 35 36  2  0  0  0
 35 37  1  0  0  0
 38 39  1  0  0  0
 39 40  1  0  0  0
 39 42  1  0  0  0
 40 41  2  0  0  0
 40 43  1  0  0  0
 43 44  1  0  0  0
 44 45  1  0  0  0
 44 47  1  0  0  0
 45 46  2  0  0  0
 45 51  1  0  0  0
 47 48  1  0  0  0
 48 49  2  0  0  0
 48 50  1  0  0  0
 51 52  1  0  0  0
 52 53  1  0  0  0
 52 55  1  0  0  0
 53 54  2  0  0  0
 53 63  1  0  0  0
 55 56  1  0  0  0
 56 57  4  0  0  0
 56 58  4  0  0  0
 57 59  4  0  0  0
 58 60  4  0  0  0
 59 61  4  0  0  0
 60 61  4  0  0  0
 61 62  1  0  0  0
 63 64  1  0  0  0
 64 65  1  0  0  0
 64 67  1  0  0  0
 65 66  2  0  0  0
 65 74  1  0  0  0
 67 68  1  0  0  0
 68 69  4  0  0  0
 68 70  4  0  0  0
 69 71  4  0  0  0
 70 72  4  0  0  0
 71 73  4  0  0  0
 72 73  4  0  0  0
 74 75  1  0  0  0
 75 76  1  0  0  0
 75 78  1  0  0  0
 76 77  2  0  0  0
 76 83  1  0  0  0
 78 79  1  0  0  0
 79 80  1  0  0  0
 80 81  1  0  0  0
 80 82  2  0  0  0
 83 84  1  0  0  0
 84 85  1  0  0  0
 84 87  1  0  0  0
 85 86  1  0  0  0
 85 95  2  0  0  0
 87 88  1  0  0  0
 88 89  4  0  0  0
 88 90  4  0  0  0
 89 91  4  0  0  0
 90 92  4  0  0  0
 91 93  4  0  0  0
 92 93  4  0  0  0
 93 94  1  0  0  0
  1 96  1  0  0  0
  1 97  1  0  0  0
  1 98  1  0  0  0
  2 99  1  0  0  0
  5100  1  0  0  0
  5101  1  0  0  0
  8102  1  0  0  0
  9103  1  0  0  0
 12104  1  0  0  0
 15105  1  0  0  0
 15106  1  0  0  0
 16107  1  0  0  0
 16108  1  0  0  0
 17109  1  0  0  0
 17110  1  0  0  0
 18111  1  0  0  0
 19112  1  0  0  0
 22113  1  0  0  0
 23114  1  0  0  0
 23115  1  0  0  0
 23116  1  0  0  0
 24117  1  0  0  0
 24118  1  0  0  0
 24119  1  0  0  0
 25120  1  0  0  0
 26121  1  0  0  0
 26122  1  0  0  0
 29123  1  0  0  0
 30124  1  0  0  0
 33125  1  0  0  0
 33126  1  0  0  0
 34127  1  0  0  0
 34128  1  0  0  0
 37129  1  0  0  0
 38130  1  0  0  0
 39131  1  0  0  0
 42132  1  0  0  0
 42133  1  0  0  0
 42134  1  0  0  0
 43135  1  0  0  0
 44136  1  0  0  0
 47137  1  0  0  0
 47138  1  0  0  0
 50139  1  0  0  0
 51140  1  0  0  0
 52141  1  0  0  0
 55142  1  0  0  0
 55143  1  0  0  0
 57144  1  0  0  0
 58145  1  0  0  0
 59146  1  0  0  0
 60147  1  0  0  0
 62148  1  0  0  0
 63149  1  0  0  0
 64150  1  0  0  0
 67151  1  0  0  0
 67152  1  0  0  0
 69153  1  0  0  0
 70154  1  0  0  0
 71155  1  0  0  0
 72156  1  0  0  0
 73157  1  0  0  0
 74158  1  0  0  0
 75159  1  0  0  0
 78160  1  0  0  0
 78161  1  0  0  0
 79162  1  0  0  0
 79163  1  0  0  0
 81164  1  0  0  0
 83165  1  0  0  0
 84166  1  0  0  0
 86167  1  0  0  0
 87168  1  0  0  0
 87169  1  0  0  0
 89170  1  0  0  0
 90171  1  0  0  0
 91172  1  0  0  0
 92173  1  0  0  0
 94174  1  0  0  0
M  END
$$$$
