3p4v_ligand
  -I-interpret- 

 36 36  0  0  0  0  0  0  0  0999 V2000
   17.2030    5.8910   10.7410 C   0  0  0  0  0
   17.7600    5.8990   13.1530 N   0  0  0  0  0
   17.1860    4.6670   10.7390 O   0  0  0  0  0
   18.8440   12.5130   12.2970 Cl  0  0  0  0  0
   17.7150    6.6690   11.9200 C   0  0  0  0  0
   19.0160    7.4160   11.6430 C   0  0  0  0  0
   19.3270    8.6310   12.5030 C   0  0  0  0  0
   15.5140    6.1210   13.6470 O   0  0  0  0  0
   20.3140    9.6950   14.6370 C   0  0  0  0  0
   15.5870    4.3200   15.5060 C   0  0  0  0  0
   16.6530    4.6740   14.9560 C   0  0  0  0  0
   16.5790    5.5950   13.9220 C   0  0  0  0  0
   19.9200   11.0340   14.1140 C   0  0  0  0  0
   20.1980   12.1780   14.8460 O   0  0  0  0  0
   16.7660    2.9910   17.1030 O   0  0  0  0  0
   15.6490    3.3560   16.6560 C   0  0  0  0  0
   19.2470   11.1610   12.8130 C   0  0  0  0  0
   14.5670    2.8620   17.1050 O   0  0  0  0  0
   14.5490    2.1570   18.3050 C   0  0  0  0  0
   18.9550    9.9270   12.0080 C   0  0  0  0  0
   20.0260    8.4970   13.8490 C   0  0  0  0  0
   16.6770    6.5580    9.6600 O   0  0  0  0  0
   18.6625    5.5608   13.4868 H   0  0  0  0  0
   16.9632    7.4410   12.0841 H   0  0  0  0  0
   18.9255    7.7937   10.6245 H   0  0  0  0  0
   19.8131    6.7011   11.8471 H   0  0  0  0  0
   20.8141    9.6091   15.6017 H   0  0  0  0  0
   14.6289    4.7047   15.1565 H   0  0  0  0  0
   17.6123    4.2703   15.2800 H   0  0  0  0  0
   19.8793   12.9474   14.3685 H   0  0  0  0  0
   15.2116    1.2949   18.2284 H   0  0  0  0  0
   14.8879    2.8068   19.1118 H   0  0  0  0  0
   13.5334    1.8191   18.5112 H   0  0  0  0  0
   18.4577   10.0156   11.0421 H   0  0  0  0  0
   20.3102    7.5135   14.2233 H   0  0  0  0  0
   16.7581    7.5044    9.7989 H   0  0  0  0  0
  1  3  2  0  0  0
  5  1  1  0  0  0
  1 22  1  0  0  0
  5  2  1  0  0  0
  2 12  1  0  0  0
 17  4  1  0  0  0
  6  5  1  0  0  0
  7  6  1  0  0  0
  7 20  4  0  0  0
 21  7  4  0  0  0
 12  8  2  0  0  0
 13  9  4  0  0  0
  9 21  4  0  0  0
 11 10  2  0  0  0
 10 16  1  0  0  0
 12 11  1  0  0  0
 13 14  1  0  0  0
 13 17  4  0  0  0
 16 15  2  0  0  0
 16 18  1  0  0  0
 17 20  4  0  0  0
 18 19  1  0  0  0
  2 23  1  0  0  0
  5 24  1  0  0  0
  6 25  1  0  0  0
  6 26  1  0  0  0
  9 27  1  0  0  0
 10 28  1  0  0  0
 11 29  1  0  0  0
 14 30  1  0  0  0
 19 31  1  0  0  0
 19 32  1  0  0  0
 19 33  1  0  0  0
 20 34  1  0  0  0
 21 35  1  0  0  0
 22 36  1  0  0  0
M  END
$$$$
