3i0s_ligand
  -I-interpret- 

 46 48  0  0  0  0  0  0  0  0999 V2000
   10.5160   15.3650   21.2760 Cl  0  0  0  0  0
   10.6470   14.6320   19.6740 C   0  0  0  0  0
    9.8870   13.5080   19.4560 C   0  0  0  0  0
    9.9180   12.8690   18.2410 C   0  0  0  0  0
    8.8740   11.4100   18.0630 Cl  0  0  0  0  0
   11.4710   15.2130   18.7330 C   0  0  0  0  0
   11.5770   14.6570   17.4780 C   0  0  0  0  0
   12.4950   15.3050   16.4620 C   0  0  0  0  0
   12.5600   14.4690   15.1860 C   0  0  0  0  0
   12.2690   12.9810   15.3960 C   0  0  0  0  0
   10.9150   12.9020   15.9160 N   0  0  0  0  0
   10.7830   13.4430   17.1810 C   0  0  0  0  0
    9.8720   12.3890   15.2450 C   0  0  0  0  0
   10.0720   11.4910   14.4430 O   0  0  0  0  0
    8.2880   12.9400   15.4580 S   0  0  0  0  0
    7.1410   12.7580   14.1170 C   0  0  0  0  0
    6.7370   11.3340   13.8050 C   0  0  0  0  0
    6.8040   10.9770   12.6450 O   0  0  0  0  0
    6.3000   10.5430   14.7950 N   0  0  0  0  0
    6.3580    9.1860   14.7200 C   0  0  0  0  0
    6.1570    8.3410   15.9200 C   0  0  0  0  0
    5.8130    9.1040   17.5030 Cl  0  0  0  0  0
    6.2290    6.9550   15.8080 C   0  0  0  0  0
    6.4840    6.3500   14.5720 C   0  0  0  0  0
    6.5950    4.7310   14.4300 S   0  0  0  0  0
    8.0940    4.3270   14.8360 N   0  0  0  0  0
    5.6300    4.1020   15.2970 O   0  0  0  0  0
    6.3960    4.3210   13.0560 O   0  0  0  0  0
    6.6740    7.1640   13.4520 C   0  0  0  0  0
    6.6120    8.5490   13.5180 C   0  0  0  0  0
    9.2542   13.1204   20.2544 H   0  0  0  0  0
   12.0371   16.1105   18.9824 H   0  0  0  0  0
   13.4960   15.3790   16.8871 H   0  0  0  0  0
   12.1082   16.2941   16.2168 H   0  0  0  0  0
   13.5770   14.5469   14.8017 H   0  0  0  0  0
   11.7966   14.8539   14.5099 H   0  0  0  0  0
   12.9826   12.5351   16.0889 H   0  0  0  0  0
   12.3642   12.4265   14.4624 H   0  0  0  0  0
    7.6360   13.1455   13.2265 H   0  0  0  0  0
    6.2323   13.2848   14.4083 H   0  0  0  0  0
    5.9105   10.9735   15.6336 H   0  0  0  0  0
    6.0852    6.3345   16.6925 H   0  0  0  0  0
    8.2575    3.6982   15.6223 H   0  0  0  0  0
    8.8833    4.6990   14.3077 H   0  0  0  0  0
    6.8786    6.6934   12.4903 H   0  0  0  0  0
    6.7647    9.1402   12.6151 H   0  0  0  0  0
  1  2  1  0  0  0
  2  3  4  0  0  0
  2  6  4  0  0  0
  3  4  4  0  0  0
  4  5  1  0  0  0
  4 12  4  0  0  0
  6  7  4  0  0  0
  7  8  1  0  0  0
  7 12  4  0  0  0
  8  9  1  0  0  0
  9 10  1  0  0  0
 10 11  1  0  0  0
 11 12  1  0  0  0
 11 13  1  0  0  0
 13 14  2  0  0  0
 13 15  1  0  0  0
 15 16  1  0  0  0
 16 17  1  0  0  0
 17 18  2  0  0  0
 17 19  1  0  0  0
 19 20  1  0  0  0
 20 21  4  0  0  0
 20 30  4  0  0  0
 21 22  1  0  0  0
 21 23  4  0  0  0
 23 24  4  0  0  0
 24 25  1  0  0  0
 24 29  4  0  0  0
 25 26  1  0  0  0
 25 27  2  0  0  0
 25 28  2  0  0  0
 29 30  4  0  0  0
  3 31  1  0  0  0
  6 32  1  0  0  0
  8 33  1  0  0  0
  8 34  1  0  0  0
  9 35  1  0  0  0
  9 36  1  0  0  0
 10 37  1  0  0  0
 10 38  1  0  0  0
 16 39  1  0  0  0
 16 40  1  0  0  0
 19 41  1  0  0  0
 23 42  1  0  0  0
 26 43  1  0  0  0
 26 44  1  0  0  0
 29 45  1  0  0  0
 30 46  1  0  0  0
M  END
$$$$
