4ztl_ligand
  -I-interpret- 

 54 57  0  0  0  0  0  0  0  0999 V2000
   29.9840    8.3050   -8.3570 C   0  0  0  0  0
   29.3930    7.6580   -7.2890 N   0  0  0  0  0
   29.6400    6.3580   -7.0870 C   0  0  0  0  0
   30.4410    5.5940   -7.8700 N   0  0  0  0  0
   31.0480    6.1970   -8.9510 C   0  0  0  0  0
   30.8160    7.5820   -9.2960 C   0  0  0  0  0
   29.6700    9.6470   -8.4930 N   0  0  0  0  0
   29.0090    5.7600   -5.9890 N   0  0  0  0  0
   31.5340    8.2510  -10.4030 C   0  0  0  0  0
   28.8730   10.5060   -7.5910 C   0  0  0  0  0
   29.6580   10.9050   -6.3050 C   0  0  0  0  0
   30.4140   12.2200   -6.7180 C   0  0  0  0  0
   29.5890   12.8820   -7.8680 C   0  0  0  0  0
   28.4690   11.8580   -8.2210 C   0  0  0  0  0
   28.7590   11.1320   -5.1950 O   0  0  0  0  0
   30.7280   13.1220   -5.6730 O   0  0  0  0  0
   30.4830   13.1970   -9.1190 C   0  0  0  0  0
   29.7310   13.9110  -10.0950 O   0  0  0  0  0
   28.1300    6.4270   -4.9900 C   0  0  0  0  0
   27.4470    5.4410   -4.0280 C   0  0  0  0  0
   26.4460    6.1490   -3.1080 C   0  0  0  0  0
   32.8040    7.3900  -11.2790 S   0  0  0  0  0
   33.1780    8.8510  -12.1450 C   0  0  0  0  0
   32.3400    9.9150  -11.7180 C   0  0  0  0  0
   31.4520    9.5650  -10.7110 N   0  0  0  0  0
   34.1500    9.0430  -13.1350 C   0  0  0  0  0
   34.3100   10.3160  -13.7640 C   0  0  0  0  0
   33.4650   11.4070  -13.3820 C   0  0  0  0  0
   32.4980   11.2070  -12.3430 C   0  0  0  0  0
   31.7273    5.6086   -9.5678 H   0  0  0  0  0
   30.0379   10.1042   -9.3273 H   0  0  0  0  0
   29.1688    4.7609   -5.8602 H   0  0  0  0  0
   27.9993    9.8909   -7.3756 H   0  0  0  0  0
   30.3396   10.1249   -5.9661 H   0  0  0  0  0
   31.4113   11.9358   -7.0536 H   0  0  0  0  0
   29.1763   13.8410   -7.5547 H   0  0  0  0  0
   27.5069   12.1912   -7.8318 H   0  0  0  0  0
   28.3626   11.7620   -9.3015 H   0  0  0  0  0
   29.2671   11.3756   -4.4178 H   0  0  0  0  0
   31.1852   13.8840   -6.0361 H   0  0  0  0  0
   30.8314   12.2598   -9.5531 H   0  0  0  0  0
   31.3310   13.8064   -8.8066 H   0  0  0  0  0
   30.2888   14.0971  -10.8539 H   0  0  0  0  0
   27.3460    6.9500   -5.5376 H   0  0  0  0  0
   28.7545    7.0914   -4.3928 H   0  0  0  0  0
   28.2148    4.9776   -3.4085 H   0  0  0  0  0
   26.9068    4.7020   -4.6197 H   0  0  0  0  0
   26.9675    6.9014   -2.5163 H   0  0  0  0  0
   25.6762    6.6293   -3.7120 H   0  0  0  0  0
   25.9850    5.4180   -2.4438 H   0  0  0  0  0
   34.7915    8.2122  -13.4289 H   0  0  0  0  0
   35.0717   10.4559  -14.5310 H   0  0  0  0  0
   33.5558   12.3754  -13.8741 H   0  0  0  0  0
   31.8741   12.0407  -12.0207 H   0  0  0  0  0
  1  2  4  0  0  0
  1  6  4  0  0  0
  1  7  1  0  0  0
  2  3  4  0  0  0
  3  4  4  0  0  0
  3  8  1  0  0  0
  4  5  4  0  0  0
  5  6  4  0  0  0
  6  9  1  0  0  0
  7 10  1  0  0  0
  8 19  1  0  0  0
  9 22  4  0  0  0
  9 25  4  0  0  0
 10 11  1  0  0  0
 10 14  1  0  0  0
 11 12  1  0  0  0
 11 15  1  0  0  0
 12 13  1  0  0  0
 12 16  1  0  0  0
 13 14  1  0  0  0
 13 17  1  0  0  0
 17 18  1  0  0  0
 19 20  1  0  0  0
 20 21  1  0  0  0
 22 23  4  0  0  0
 23 24  4  0  0  0
 23 26  4  0  0  0
 24 25  4  0  0  0
 24 29  4  0  0  0
 26 27  4  0  0  0
 27 28  4  0  0  0
 28 29  4  0  0  0
  5 30  1  0  0  0
  7 31  1  0  0  0
  8 32  1  0  0  0
 10 33  1  0  0  0
 11 34  1  0  0  0
 12 35  1  0  0  0
 13 36  1  0  0  0
 14 37  1  0  0  0
 14 38  1  0  0  0
 15 39  1  0  0  0
 16 40  1  0  0  0
 17 41  1  0  0  0
 17 42  1  0  0  0
 18 43  1  0  0  0
 19 44  1  0  0  0
 19 45  1  0  0  0
 20 46  1  0  0  0
 20 47  1  0  0  0
 21 48  1  0  0  0
 21 49  1  0  0  0
 21 50  1  0  0  0
 26 51  1  0  0  0
 27 52  1  0  0  0
 28 53  1  0  0  0
 29 54  1  0  0  0
M  END
$$$$
