4uvy_ligand
  -I-interpret- 

 32 34  0  0  0  0  0  0  0  0999 V2000
  -39.9880  -13.6410   16.8730 C   0  0  0  0  0
  -40.7360  -14.4440   16.0140 C   0  0  0  0  0
  -40.6900  -14.2380   14.6290 C   0  0  0  0  0
  -39.8890  -13.1960   14.1100 C   0  0  0  0  0
  -39.1400  -12.3880   15.0030 C   0  0  0  0  0
  -39.1800  -12.6090   16.3740 C   0  0  0  0  0
  -38.3370  -11.3690   14.5030 C   0  0  0  0  0
  -38.3080  -11.1450   13.1250 N   0  0  0  0  0
  -37.6570  -10.6650   15.2410 O   0  0  0  0  0
  -38.9960  -11.6400   10.7830 C   0  0  0  0  0
  -39.6070  -12.4570    9.8110 C   0  0  0  0  0
  -39.5580  -12.1360    8.4410 C   0  0  0  0  0
  -38.9380  -10.9700    7.9920 C   0  0  0  0  0
  -38.3480  -10.1320    8.9350 C   0  0  0  0  0
  -38.3800  -10.4630   10.2930 C   0  0  0  0  0
  -38.8840  -10.5640    6.2360 Cl  0  0  0  0  0
  -39.0430  -11.9300   12.1880 C   0  0  0  0  0
  -39.8420  -12.9620   12.7260 C   0  0  0  0  0
  -41.7650  -16.3280   14.1830 C   0  0  0  0  0
  -41.4160  -15.0050   13.7290 O   0  0  0  0  0
  -40.0316  -13.8175   17.9477 H   0  0  0  0  0
  -41.3612  -15.2379   16.4226 H   0  0  0  0  0
  -38.5923  -11.9897   17.0516 H   0  0  0  0  0
  -37.7321  -10.3814   12.7706 H   0  0  0  0  0
  -40.1302  -13.3593   10.1274 H   0  0  0  0  0
  -40.0134  -12.8118    7.7172 H   0  0  0  0  0
  -37.8586   -9.2130    8.6125 H   0  0  0  0  0
  -37.9101   -9.7853   11.0058 H   0  0  0  0  0
  -40.4322  -13.5875   12.0562 H   0  0  0  0  0
  -40.8554  -16.8874   14.4018 H   0  0  0  0  0
  -42.3726  -16.2528   15.0848 H   0  0  0  0  0
  -42.3299  -16.8407   13.4045 H   0  0  0  0  0
  1  2  4  0  0  0
  6  1  4  0  0  0
  3  2  4  0  0  0
  4  3  4  0  0  0
  3 20  1  0  0  0
  5  4  4  0  0  0
  4 18  1  0  0  0
  5  6  4  0  0  0
  7  5  1  0  0  0
  8  7  1  0  0  0
  7  9  2  0  0  0
 17  8  1  0  0  0
 10 11  4  0  0  0
 10 15  4  0  0  0
 10 17  1  0  0  0
 11 12  4  0  0  0
 12 13  4  0  0  0
 13 14  4  0  0  0
 13 16  1  0  0  0
 14 15  4  0  0  0
 17 18  2  0  0  0
 20 19  1  0  0  0
  1 21  1  0  0  0
  2 22  1  0  0  0
  6 23  1  0  0  0
  8 24  1  0  0  0
 11 25  1  0  0  0
 12 26  1  0  0  0
 14 27  1  0  0  0
 15 28  1  0  0  0
 18 29  1  0  0  0
 19 30  1  0  0  0
 19 31  1  0  0  0
 19 32  1  0  0  0
M  END
$$$$
