5dlv_ligand
  -I-interpret- 

 79 82  0  0  0  0  0  0  0  0999 V2000
   47.1030   43.7610   12.2000 C   0  0  0  0  0
   45.6710   43.3420   12.5240 C   0  0  0  0  0
   44.6440   44.0490   11.6470 C   0  0  0  0  0
   44.8370   45.5580   11.7620 C   0  0  0  0  0
   46.2350   45.9340   11.2830 C   0  0  0  0  0
   46.4030   47.4540   11.2540 C   0  0  0  0  0
   46.4960   48.0500   12.6590 C   0  0  0  0  0
   47.5600   47.3530   13.4990 C   0  0  0  0  0
   47.2680   45.8580   13.5530 C   0  0  0  0  0
   47.3050   45.2740   12.1460 C   0  0  0  0  0
   48.2120   45.1120   14.5010 C   0  0  0  0  0
   43.3170   43.6860   12.0530 O   0  0  0  0  0
   53.0870   49.4700   20.7410 O   0  0  0  0  0
   52.2710   49.9480   19.9660 C   0  0  0  0  0
   52.5010   51.0680   19.2770 N   0  0  0  0  0
   53.7710   51.7710   19.3720 C   0  0  0  0  0
   53.5970   53.2510   19.6710 C   0  0  0  0  0
   52.5100   53.8550   18.5760 S   0  0  0  0  0
   51.3330   52.9590   18.5230 O   0  0  0  0  0
   53.1800   53.9020   17.2600 O   0  0  0  0  0
   52.0760   55.2120   18.9830 O   0  0  0  0  0
   50.9400   49.2610   19.7470 C   0  0  0  0  0
   50.5550   49.2470   18.2660 C   0  0  0  0  0
   49.9650   47.8990   17.8460 C   0  0  0  0  0
   49.6670   47.0340   19.0650 C   0  0  0  0  0
   48.7010   48.0580   17.0080 C   0  0  0  0  0
   48.6760   47.2110   15.7430 C   0  0  0  0  0
   50.0240   47.3170   15.0370 C   0  0  0  0  0
   47.6000   47.8860   14.9230 C   0  0  0  0  0
   47.8690   49.3680   15.1110 C   0  0  0  0  0
   48.4890   49.4840   16.5070 C   0  0  0  0  0
   48.2840   45.7520   15.8910 C   0  0  0  0  0
   48.6680   45.5760   11.5310 C   0  0  0  0  0
   46.7990   49.4450   12.5690 O   0  0  0  0  0
   47.3420   43.3656   11.2128 H   0  0  0  0  0
   47.7422   43.3758   12.9945 H   0  0  0  0  0
   45.4687   43.6092   13.5612 H   0  0  0  0  0
   45.5853   42.2702   12.3452 H   0  0  0  0  0
   44.7828   43.7464   10.6091 H   0  0  0  0  0
   44.7178   45.8597   12.8026 H   0  0  0  0  0
   44.0948   46.0656   11.1460 H   0  0  0  0  0
   46.3594   45.5626   10.2658 H   0  0  0  0  0
   45.5311   47.8828   10.7601 H   0  0  0  0  0
   47.3284   47.6835   10.7257 H   0  0  0  0  0
   45.5326   47.9045   13.1477 H   0  0  0  0  0
   48.5243   47.5464   13.0292 H   0  0  0  0  0
   46.2665   45.7249   13.9621 H   0  0  0  0  0
   49.2118   45.1407   14.0678 H   0  0  0  0  0
   47.8327   44.0970   14.6198 H   0  0  0  0  0
   43.2088   42.7352   11.9760 H   0  0  0  0  0
   51.7699   51.4392   18.6703 H   0  0  0  0  0
   54.2783   51.6796   18.4116 H   0  0  0  0  0
   54.3401   51.3278   20.1892 H   0  0  0  0  0
   54.5511   53.7716   19.5883 H   0  0  0  0  0
   53.2332   53.3944   20.6884 H   0  0  0  0  0
   52.8389   55.7938   19.0176 H   0  0  0  0  0
   50.1743   49.8067   20.2983 H   0  0  0  0  0
   51.0216   48.2306   20.0929 H   0  0  0  0  0
   51.4539   49.4267   17.6762 H   0  0  0  0  0
   49.8021   50.0176   18.1000 H   0  0  0  0  0
   50.7168   47.4075   17.2285 H   0  0  0  0  0
   50.5897   46.8571   19.6177 H   0  0  0  0  0
   48.9504   47.5469   19.7065 H   0  0  0  0  0
   49.2486   46.0816   18.7396 H   0  0  0  0  0
   47.9271   47.7435   17.7082 H   0  0  0  0  0
   50.2150   48.3578   14.7757 H   0  0  0  0  0
   50.8099   46.9578   15.7014 H   0  0  0  0  0
   50.0070   46.7109   14.1312 H   0  0  0  0  0
   46.5797   47.6737   15.2424 H   0  0  0  0  0
   46.9570   49.9585   15.0235 H   0  0  0  0  0
   48.5330   49.7592   14.3402 H   0  0  0  0  0
   49.4324   50.0288   16.4706 H   0  0  0  0  0
   47.8353   50.0402   17.1789 H   0  0  0  0  0
   49.0253   45.2317   16.4975 H   0  0  0  0  0
   47.3124   45.6800   16.3798 H   0  0  0  0  0
   48.8156   46.6552   11.4901 H   0  0  0  0  0
   49.4492   45.1241   12.1422 H   0  0  0  0  0
   48.7096   45.1638   10.5228 H   0  0  0  0  0
   46.1286   49.8834   12.0399 H   0  0  0  0  0
  1  2  1  0  0  0
 10  1  1  0  0  0
  2  3  1  0  0  0
  4  3  1  0  0  0
  3 12  1  0  0  0
  5  4  1  0  0  0
  6  5  1  0  0  0
 10  5  1  0  0  0
  7  6  1  0  0  0
  8  7  1  0  0  0
  7 34  1  0  0  0
  8  9  1  0  0  0
 29  8  1  0  0  0
  9 10  1  0  0  0
  9 11  1  0  0  0
 10 33  1  0  0  0
 11 32  1  0  0  0
 14 13  2  0  0  0
 14 15  1  0  0  0
 22 14  1  0  0  0
 15 16  1  0  0  0
 16 17  1  0  0  0
 17 18  1  0  0  0
 18 19  2  0  0  0
 18 20  2  0  0  0
 18 21  1  0  0  0
 23 22  1  0  0  0
 24 23  1  0  0  0
 24 25  1  0  0  0
 26 24  1  0  0  0
 27 26  1  0  0  0
 26 31  1  0  0  0
 27 28  1  0  0  0
 27 29  1  0  0  0
 27 32  1  0  0  0
 29 30  1  0  0  0
 30 31  1  0  0  0
  1 35  1  0  0  0
  1 36  1  0  0  0
  2 37  1  0  0  0
  2 38  1  0  0  0
  3 39  1  0  0  0
  4 40  1  0  0  0
  4 41  1  0  0  0
  5 42  1  0  0  0
  6 43  1  0  0  0
  6 44  1  0  0  0
  7 45  1  0  0  0
  8 46  1  0  0  0
  9 47  1  0  0  0
 11 48  1  0  0  0
 11 49  1  0  0  0
 12 50  1  0  0  0
 15 51  1  0  0  0
 16 52  1  0  0  0
 16 53  1  0  0  0
 17 54  1  0  0  0
 17 55  1  0  0  0
 21 56  1  0  0  0
 22 57  1  0  0  0
 22 58  1  0  0  0
 23 59  1  0  0  0
 23 60  1  0  0  0
 24 61  1  0  0  0
 25 62  1  0  0  0
 25 63  1  0  0  0
 25 64  1  0  0  0
 26 65  1  0  0  0
 28 66  1  0  0  0
 28 67  1  0  0  0
 28 68  1  0  0  0
 29 69  1  0  0  0
 30 70  1  0  0  0
 30 71  1  0  0  0
 31 72  1  0  0  0
 31 73  1  0  0  0
 32 74  1  0  0  0
 32 75  1  0  0  0
 33 76  1  0  0  0
 33 77  1  0  0  0
 33 78  1  0  0  0
 34 79  1  0  0  0
M  END
$$$$
