5lla_ligand
  -I-interpret- 

 35 37  0  0  0  0  0  0  0  0999 V2000
   -6.6740   -5.0570   19.2040 Cl  0  0  0  0  0
   -6.7470   -3.4660   18.4610 C   0  0  0  0  0
   -6.3340   -3.3080   17.1160 C   0  0  0  0  0
   -5.6670   -4.5940   16.0780 S   0  0  0  0  0
   -4.4720   -5.3250   16.5680 O   0  0  0  0  0
   -5.4410   -3.8270   14.4210 N   0  0  0  0  0
   -6.8260   -5.3580   15.6090 O   0  0  0  0  0
   -7.2370   -2.3810   19.2160 C   0  0  0  0  0
   -7.3020   -1.1080   18.6660 C   0  0  0  0  0
   -6.8790   -1.0020   17.3350 C   0  0  0  0  0
   -6.4140   -2.0470   16.5640 C   0  0  0  0  0
   -7.7720    0.0640   19.4390 C   0  0  0  0  0
   -8.7110   -0.0730   20.2260 O   0  0  0  0  0
   -7.0740    1.4270   19.3070 C   0  0  0  0  0
   -7.3900    2.3290   20.4560 N   0  0  0  0  0
   -6.9050    2.2200   21.7370 C   0  0  0  0  0
   -5.9840    1.3000   22.2830 C   0  0  0  0  0
   -5.6780    1.4370   23.6680 C   0  0  0  0  0
   -6.2490    2.4880   24.4650 C   0  0  0  0  0
   -7.1580    3.4040   23.8770 C   0  0  0  0  0
   -7.4600    3.2300   22.5080 C   0  0  0  0  0
   -8.2990    3.9790   21.7350 N   0  0  0  0  0
   -8.2500    3.4040   20.4920 C   0  0  0  0  0
   -4.5530   -3.9275   13.9293 H   0  0  0  0  0
   -6.2037   -3.3013   13.9940 H   0  0  0  0  0
   -7.5681   -2.5432   20.2417 H   0  0  0  0  0
   -6.9205   -0.0161   16.8720 H   0  0  0  0  0
   -6.1132   -1.8778   15.5301 H   0  0  0  0  0
   -7.4254    1.9036   18.3919 H   0  0  0  0  0
   -5.9971    1.2592   19.2905 H   0  0  0  0  0
   -5.5277    0.5204   21.6730 H   0  0  0  0  0
   -4.9943    0.7276   24.1343 H   0  0  0  0  0
   -5.9841    2.5807   25.5183 H   0  0  0  0  0
   -7.6058    4.2101   24.4582 H   0  0  0  0  0
   -8.8233    3.7556   19.6342 H   0  0  0  0  0
  1  2  1  0  0  0
  2  3  4  0  0  0
  2  8  4  0  0  0
  3  4  1  0  0  0
  3 11  4  0  0  0
  4  5  2  0  0  0
  4  6  1  0  0  0
  4  7  2  0  0  0
  8  9  4  0  0  0
  9 10  4  0  0  0
  9 12  1  0  0  0
 10 11  4  0  0  0
 12 13  2  0  0  0
 12 14  1  0  0  0
 14 15  1  0  0  0
 15 16  4  0  0  0
 15 23  4  0  0  0
 16 17  4  0  0  0
 16 21  4  0  0  0
 17 18  4  0  0  0
 18 19  4  0  0  0
 19 20  4  0  0  0
 20 21  4  0  0  0
 21 22  4  0  0  0
 22 23  4  0  0  0
  6 24  1  0  0  0
  6 25  1  0  0  0
  8 26  1  0  0  0
 10 27  1  0  0  0
 11 28  1  0  0  0
 14 29  1  0  0  0
 14 30  1  0  0  0
 17 31  1  0  0  0
 18 32  1  0  0  0
 19 33  1  0  0  0
 20 34  1  0  0  0
 23 35  1  0  0  0
M  END
$$$$
