4r5b_ligand
  -I-interpret- 

 44 45  0  0  0  0  0  0  0  0999 V2000
    0.5970    4.9310   79.4600 C   0  0  0  0  0
    1.1910    4.1560   80.6380 C   0  0  0  0  0
    1.7750    2.8240   80.3690 C   0  0  0  0  0
   -1.7750    1.8660   86.2140 O   0  0  0  0  0
   -2.6310    0.8540   86.9230 S   0  0  0  0  0
   -4.0360    1.0350   86.7800 O   0  0  0  0  0
   -2.2720    0.9640   88.2530 O   0  0  0  0  0
   -2.0970   -0.5310   86.3830 N   0  0  0  0  0
   -2.7410    6.3600   80.6300 O   0  0  0  0  0
   -1.6260    5.3680   80.6410 C   0  0  0  0  0
   -0.7640    5.4400   79.4360 C   0  0  0  0  0
   -0.8380    6.7680   78.8820 O   0  0  0  0  0
    0.7680    4.1520   78.2460 O   0  0  0  0  0
    1.8530    1.9300   81.4580 O   0  0  0  0  0
    0.4460    4.2650   81.8810 O   0  0  0  0  0
   -0.9320    4.7350   81.9060 C   0  0  0  0  0
   -1.0530    5.3930   83.5870 S   0  0  0  0  0
   -2.2900    6.0820   83.6210 O   0  0  0  0  0
    0.1110    6.0650   84.0010 O   0  0  0  0  0
   -1.1460    4.3000   84.4440 N   0  0  0  0  0
   -2.1370    3.5420   84.4390 C   0  0  0  0  0
    0.0180    3.4220   84.5460 C   0  0  0  0  0
   -0.5120    2.0080   84.3520 C   0  0  0  0  0
   -1.6660    2.0360   84.7490 C   0  0  0  0  0
    1.1696    5.8520   79.5696 H   0  0  0  0  0
    2.1013    4.7299   80.8115 H   0  0  0  0  0
    2.8037    3.0062   80.0579 H   0  0  0  0  0
    1.1165    2.3507   79.6407 H   0  0  0  0  0
   -2.7461   -1.2039   85.9753 H   0  0  0  0  0
   -1.1031   -0.7524   86.4420 H   0  0  0  0  0
   -3.2606    6.2646   81.4316 H   0  0  0  0  0
   -2.3461    4.5509   80.6853 H   0  0  0  0  0
   -1.2055    4.6806   78.7907 H   0  0  0  0  0
   -0.2814    6.8194   78.1015 H   0  0  0  0  0
    1.6584    3.7942   78.2195 H   0  0  0  0  0
    2.2461    1.1045   81.1654 H   0  0  0  0  0
   -1.6880    3.9726   81.7181 H   0  0  0  0  0
   -2.6152    3.5776   83.4602 H   0  0  0  0  0
   -2.8438    3.8650   85.2034 H   0  0  0  0  0
    0.5141    3.5311   85.5104 H   0  0  0  0  0
    0.7694    3.6705   83.7965 H   0  0  0  0  0
    0.0827    1.2791   84.9026 H   0  0  0  0  0
   -0.4557    1.6996   83.3081 H   0  0  0  0  0
   -2.2428    1.2401   84.2780 H   0  0  0  0  0
  2  1  1  0  0  0
 11  1  1  0  0  0
  1 13  1  0  0  0
  2  3  1  0  0  0
 15  2  1  0  0  0
  3 14  1  0  0  0
  4  5  1  0  0  0
 24  4  1  0  0  0
  5  6  2  0  0  0
  5  7  2  0  0  0
  5  8  1  0  0  0
 10  9  1  0  0  0
 10 11  1  0  0  0
 16 10  1  0  0  0
 11 12  1  0  0  0
 16 15  1  0  0  0
 17 16  1  0  0  0
 17 18  2  0  0  0
 17 19  2  0  0  0
 20 17  1  0  0  0
 21 20  1  0  0  0
 20 22  1  0  0  0
 21 24  1  0  0  0
 22 23  1  0  0  0
 23 24  1  0  0  0
  1 25  1  0  0  0
  2 26  1  0  0  0
  3 27  1  0  0  0
  3 28  1  0  0  0
  8 29  1  0  0  0
  8 30  1  0  0  0
  9 31  1  0  0  0
 10 32  1  0  0  0
 11 33  1  0  0  0
 12 34  1  0  0  0
 13 35  1  0  0  0
 14 36  1  0  0  0
 16 37  1  0  0  0
 21 38  1  0  0  0
 21 39  1  0  0  0
 22 40  1  0  0  0
 22 41  1  0  0  0
 23 42  1  0  0  0
 23 43  1  0  0  0
 24 44  1  0  0  0
M  END
$$$$
