5n34_ligand
  -I-interpret- 

 57 57  0  0  0  0  0  0  0  0999 V2000
   12.8460   40.1780   -9.2810 C   0  0  0  0  0
   13.8340   40.0850  -11.4470 C   0  0  0  0  0
   15.3330   40.3090  -11.5360 C   0  0  0  0  0
   15.9920   41.0860  -10.5860 C   0  0  0  0  0
   17.3440   41.2990  -10.6700 C   0  0  0  0  0
   18.1050   40.7560  -11.6870 C   0  0  0  0  0
   17.4840   39.9500  -12.6250 C   0  0  0  0  0
   12.4030   37.3230   -6.0880 O   0  0  0  0  0
   11.4370   38.4700   -5.9980 P   0  0  0  0  0
   11.1850   39.0390   -4.4590 N   0  0  0  0  0
   10.0530   38.5660   -3.6520 C   0  0  0  0  0
   10.4380   38.6200   -2.1780 C   0  0  0  0  0
    9.3760   38.0580   -1.2430 C   0  0  0  0  0
    9.2530   36.5460   -1.3760 C   0  0  0  0  0
    9.6720   38.4520    0.1940 C   0  0  0  0  0
    8.7920   39.3700   -3.8760 C   0  0  0  0  0
    7.6840   38.9180   -3.8060 O   0  0  0  0  0
   10.0920   38.0700   -6.5750 O   0  0  0  0  0
   12.1110   39.8980   -6.9120 C   0  0  0  0  0
   12.7680   39.4290   -8.1080 N   0  0  0  0  0
   13.5100   39.4330  -10.2470 O   0  0  0  0  0
   16.1030   39.7280  -12.5670 C   0  0  0  0  0
   12.4450   41.2860   -9.3930 O   0  0  0  0  0
    9.0470   40.7090   -4.1540 N   0  0  0  0  0
    7.9830   41.6800   -4.3310 C   0  0  0  0  0
    7.9370   42.4910   -3.0290 C   0  0  0  0  0
    6.8540   43.4490   -2.9640 N   0  3  0  0  0
   13.5160   39.4658  -12.2858 H   0  0  0  0  0
   13.3274   41.0497  -11.4762 H   0  0  0  0  0
   15.4265   41.5297   -9.7666 H   0  0  0  0  0
   17.8317   41.9137   -9.9134 H   0  0  0  0  0
   19.1742   40.9585  -11.7495 H   0  0  0  0  0
   18.0742   39.4848  -13.4145 H   0  0  0  0  0
   11.8269   39.7283   -4.0676 H   0  0  0  0  0
    9.8351   37.5438   -3.9615 H   0  0  0  0  0
   10.5776   39.6691   -1.9173 H   0  0  0  0  0
   11.3341   38.0119   -2.0542 H   0  0  0  0  0
    8.4172   38.4885   -1.5318 H   0  0  0  0  0
    8.9780   36.2938   -2.4002 H   0  0  0  0  0
   10.2082   36.0820   -1.1302 H   0  0  0  0  0
    8.4851   36.1837   -0.6925 H   0  0  0  0  0
   10.6457   38.0574    0.4844 H   0  0  0  0  0
    9.6794   39.5388    0.2772 H   0  0  0  0  0
    8.9025   38.0415    0.8478 H   0  0  0  0  0
    9.4847   38.8108   -6.5115 H   0  0  0  0  0
   12.8278   40.4282   -6.2850 H   0  0  0  0  0
   11.3005   40.5752   -7.1816 H   0  0  0  0  0
   13.1966   38.5035   -8.0944 H   0  0  0  0  0
   15.6207   39.1047  -13.3200 H   0  0  0  0  0
   10.0152   41.0191   -4.2363 H   0  0  0  0  0
    7.0288   41.1914   -4.5280 H   0  0  0  0  0
    8.1708   42.3218   -5.1917 H   0  0  0  0  0
    8.8683   43.0541   -2.9681 H   0  0  0  0  0
    7.7886   41.7825   -2.2141 H   0  0  0  0  0
    6.8928   43.9443   -2.0732 H   0  0  0  0  0
    6.9457   44.1165   -3.7298 H   0  0  0  0  0
    5.9630   42.9590   -3.0434 H   0  0  0  0  0
 20  1  1  0  0  0
  1 21  1  0  0  0
  1 23  2  0  0  0
  2  3  1  0  0  0
 21  2  1  0  0  0
  3  4  4  0  0  0
  3 22  4  0  0  0
  4  5  4  0  0  0
  5  6  4  0  0  0
  7  6  4  0  0  0
 22  7  4  0  0  0
  9  8  2  0  0  0
  9 10  1  0  0  0
  9 18  1  0  0  0
 19  9  1  0  0  0
 10 11  1  0  0  0
 11 12  1  0  0  0
 11 16  1  0  0  0
 12 13  1  0  0  0
 13 14  1  0  0  0
 13 15  1  0  0  0
 16 17  2  0  0  0
 16 24  1  0  0  0
 19 20  1  0  0  0
 24 25  1  0  0  0
 25 26  1  0  0  0
 26 27  1  0  0  0
  2 28  1  0  0  0
  2 29  1  0  0  0
  4 30  1  0  0  0
  5 31  1  0  0  0
  6 32  1  0  0  0
  7 33  1  0  0  0
 10 34  1  0  0  0
 11 35  1  0  0  0
 12 36  1  0  0  0
 12 37  1  0  0  0
 13 38  1  0  0  0
 14 39  1  0  0  0
 14 40  1  0  0  0
 14 41  1  0  0  0
 15 42  1  0  0  0
 15 43  1  0  0  0
 15 44  1  0  0  0
 18 45  1  0  0  0
 19 46  1  0  0  0
 19 47  1  0  0  0
 20 48  1  0  0  0
 22 49  1  0  0  0
 24 50  1  0  0  0
 25 51  1  0  0  0
 25 52  1  0  0  0
 26 53  1  0  0  0
 26 54  1  0  0  0
 27 55  1  0  0  0
 27 56  1  0  0  0
 27 57  1  0  0  0
M  END
$$$$
