### 
### Created by X-TOOL on Mon Sep 10 21:13:30 2018
### 

@<TRIPOS>MOLECULE
5n34_ligand
   56    56     1     0     0
SMALL
GAST_HUCK


@<TRIPOS>ATOM
      1 C10        12.8460   40.1780   -9.2810 C.2       1 8JQ         0.3229
      2 C11        13.8340   40.0850  -11.4470 C.3       1 8JQ         0.1113
      3 C12        15.3330   40.3090  -11.5360 C.ar      1 8JQ        -0.0130
      4 C13        15.9920   41.0860  -10.5860 C.ar      1 8JQ        -0.0578
      5 C14        17.3440   41.2990  -10.6700 C.ar      1 8JQ        -0.0685
      6 C15        18.1050   40.7560  -11.6870 C.ar      1 8JQ        -0.0687
      7 C16        17.4840   39.9500  -12.6250 C.ar      1 8JQ        -0.0685
      8 O01        12.4030   37.3230   -6.0880 O.co2     1 8JQ        -0.6057
      9 P01        11.4370   38.4700   -5.9980 P.3       1 8JQ         0.0870
     10 N01        11.1850   39.0390   -4.4590 N.am      1 8JQ        -0.2736
     11 C01        10.0530   38.5660   -3.6520 C.3       1 8JQ         0.1228
     12 C02        10.4380   38.6200   -2.1780 C.3       1 8JQ        -0.0137
     13 C03         9.3760   38.0580   -1.2430 C.3       1 8JQ        -0.0429
     14 C04         9.2530   36.5460   -1.3760 C.3       1 8JQ        -0.0625
     15 C05         9.6720   38.4520    0.1940 C.3       1 8JQ        -0.0625
     16 C06         8.7920   39.3700   -3.8760 C.2       1 8JQ         0.1979
     17 O02         7.6840   38.9180   -3.8060 O.2       1 8JQ        -0.3950
     18 O03        10.0920   38.0700   -6.5750 O.co2     1 8JQ        -0.6057
     19 C09        12.1110   39.8980   -6.9120 C.3       1 8JQ         0.1132
     20 N04        12.7680   39.4290   -8.1080 N.am      1 8JQ        -0.2448
     21 O04        13.5100   39.4330  -10.2470 O.3       1 8JQ        -0.2506
     22 C17        16.1030   39.7280  -12.5670 C.ar      1 8JQ        -0.0578
     23 O05        12.4450   41.2860   -9.3930 O.2       1 8JQ        -0.3774
     24 N02         9.0470   40.7090   -4.1540 N.am      1 8JQ        -0.2803
     25 C07         7.9830   41.6800   -4.3310 C.3       1 8JQ         0.0707
     26 C08         7.9370   42.4910   -3.0290 C.3       1 8JQ        -0.0148
     27 N03         6.8540   43.4490   -2.9640 N.4       1 8JQ         0.2200
     28 H1         13.5084   39.4658  -12.2959 H         1 8JQ         0.0776
     29 H2         13.3190   41.0563  -11.4828 H         1 8JQ         0.0776
     30 H3         15.4296   41.5273   -9.7711 H         1 8JQ         0.0557
     31 H4         17.8290   41.9103   -9.9176 H         1 8JQ         0.0599
     32 H5         19.1683   40.9574  -11.7491 H         1 8JQ         0.0559
     33 H6         18.0710   39.4873  -13.4101 H         1 8JQ         0.0599
     34 H7         11.8143   39.7148   -4.0752 H         1 8JQ         0.1669
     35 H8          9.8461   37.5216   -3.9283 H         1 8JQ         0.0753
     36 H9         10.6190   39.6702   -1.9054 H         1 8JQ         0.0311
     37 H10        11.3628   38.0407   -2.0399 H         1 8JQ         0.0311
     38 H11         8.4092   38.5002   -1.5253 H         1 8JQ         0.0298
     39 H12         8.4782   36.1791   -0.6867 H         1 8JQ         0.0232
     40 H13        10.2164   36.0765   -1.1281 H         1 8JQ         0.0232
     41 H14         8.9755   36.2901   -2.4092 H         1 8JQ         0.0232
     42 H15         9.7561   39.5465    0.2642 H         1 8JQ         0.0232
     43 H16        10.6180   37.9904    0.5134 H         1 8JQ         0.0232
     44 H17         8.8562   38.1045    0.8450 H         1 8JQ         0.0232
     45 H18        12.8358   40.4310   -6.2791 H         1 8JQ         0.0743
     46 H19        11.2920   40.5796   -7.1854 H         1 8JQ         0.0743
     47 H20        13.1882   38.5217   -8.0947 H         1 8JQ         0.1884
     48 H21        15.6234   39.1082  -13.3159 H         1 8JQ         0.0557
     49 H22         9.9963   41.0130   -4.2347 H         1 8JQ         0.1853
     50 H23         7.0229   41.1701   -4.4988 H         1 8JQ         0.0573
     51 H24         8.2029   42.3380   -5.1846 H         1 8JQ         0.0573
     52 H25         8.8867   43.0369   -2.9290 H         1 8JQ         0.0833
     53 H26         7.8273   41.7891   -2.1892 H         1 8JQ         0.0833
     54 H27         6.8913   43.9391   -2.0839 H         1 8JQ         0.1995
     55 H28         5.9728   42.9658   -3.0424 H         1 8JQ         0.1995
     56 H29         6.9436   44.1093   -3.7203 H         1 8JQ         0.1995
@<TRIPOS>BOND
     1   20    1 am 
     2    1   21 1  
     3    1   23 2  
     4    2    3 1  
     5   21    2 1  
     6    3    4 ar 
     7    3   22 ar 
     8    4    5 ar 
     9    5    6 ar 
    10    7    6 ar 
    11   22    7 ar 
    12    9    8 ar 
    13    9   10 am 
    14    9   18 ar 
    15   19    9 1  
    16   10   11 1  
    17   11   12 1  
    18   11   16 1  
    19   12   13 1  
    20   13   14 1  
    21   13   15 1  
    22   16   17 2  
    23   16   24 am 
    24   19   20 1  
    25   24   25 1  
    26   25   26 1  
    27   26   27 1  
    28    2   28 1  
    29    2   29 1  
    30    4   30 1  
    31    5   31 1  
    32    6   32 1  
    33    7   33 1  
    34   10   34 1  
    35   11   35 1  
    36   12   36 1  
    37   12   37 1  
    38   13   38 1  
    39   14   39 1  
    40   14   40 1  
    41   14   41 1  
    42   15   42 1  
    43   15   43 1  
    44   15   44 1  
    45   19   45 1  
    46   19   46 1  
    47   20   47 1  
    48   22   48 1  
    49   24   49 1  
    50   25   50 1  
    51   25   51 1  
    52   26   52 1  
    53   26   53 1  
    54   27   54 1  
    55   27   55 1  
    56   27   56 1  
@<TRIPOS>SUBSTRUCTURE
     1 8JQ         1

