6n77_ligand
  -I-interpret- 

 42 45  0  0  0  0  0  0  0  0999 V2000
    5.8040  -22.5270   22.3890 C   0  0  0  0  0
    4.6380  -27.7720   22.6750 C   0  0  0  0  0
    5.1680  -21.4220   22.9750 C   0  0  0  0  0
    4.0420  -20.8820   22.3840 C   0  0  0  0  0
    6.8420  -26.8630   23.7130 C   0  0  0  0  0
    3.5150  -21.4020   21.2180 C   0  0  0  0  0
    4.1340  -22.4910   20.6230 C   0  0  0  0  0
    5.2710  -23.0520   21.1980 C   0  0  0  0  0
    5.6040  -24.5540   19.3540 C   0  0  0  0  0
    5.8290  -27.9410   23.4090 C   0  0  0  0  0
    5.8580  -29.3150   23.7170 C   0  0  0  0  0
    8.0130  -22.2570   23.3460 N   0  0  0  0  0
    6.5530  -25.6120   23.2140 N   0  0  0  0  0
    7.0140  -23.0860   23.0370 C   0  0  0  0  0
    4.8100  -29.9760   23.2370 N   0  0  0  0  0
    7.8760  -27.1130   24.3390 O   0  0  0  0  0
    4.0910  -26.6720   22.0990 N   0  0  0  0  0
    2.9470  -26.8730   21.4560 C   0  0  0  0  0
    2.2980  -28.1240   21.3500 C   0  0  0  0  0
    2.8770  -29.2060   21.9230 C   0  0  0  0  0
    4.0610  -29.0140   22.5930 N   0  0  0  0  0
    7.3600  -24.4570   23.3630 C   0  0  0  0  0
    8.6300  -24.3580   23.8610 C   0  0  0  0  0
    8.9800  -23.0680   23.8500 N   0  0  0  0  0
   10.2260  -22.4830   24.3290 C   0  0  0  0  0
    5.9260  -24.1390   20.6840 O   0  0  0  0  0
    3.2400  -19.5390   23.1590 Cl  0  0  0  0  0
    5.5617  -20.9903   23.8952 H   0  0  0  0  0
    2.6236  -20.9619   20.7710 H   0  0  0  0  0
    3.7288  -22.9093   19.7016 H   0  0  0  0  0
    4.5460  -24.8107   19.3010 H   0  0  0  0  0
    5.8172  -23.7414   18.6595 H   0  0  0  0  0
    6.2042  -25.4251   19.0912 H   0  0  0  0  0
    6.6567  -29.7869   24.2893 H   0  0  0  0  0
    5.6828  -25.5082   22.6921 H   0  0  0  0  0
    2.4761  -26.0145   20.9771 H   0  0  0  0  0
    1.3511  -28.2161   20.8181 H   0  0  0  0  0
    2.4202  -30.1933   21.8551 H   0  0  0  0  0
    9.2486  -25.1863   24.2065 H   0  0  0  0  0
   10.7157  -21.9544   23.5112 H   0  0  0  0  0
   10.0107  -21.7844   25.1375 H   0  0  0  0  0
   10.8802  -23.2742   24.6953 H   0  0  0  0  0
  1  3  4  0  0  0
  1  8  4  0  0  0
 14  1  1  0  0  0
 10  2  4  0  0  0
  2 17  4  0  0  0
  2 21  4  0  0  0
  3  4  4  0  0  0
  4  6  4  0  0  0
  4 27  1  0  0  0
  5 10  1  0  0  0
 13  5  1  0  0  0
  5 16  2  0  0  0
  7  6  4  0  0  0
  8  7  4  0  0  0
  8 26  1  0  0  0
 26  9  1  0  0  0
 10 11  4  0  0  0
 11 15  4  0  0  0
 14 12  4  0  0  0
 12 24  4  0  0  0
 22 13  1  0  0  0
 14 22  4  0  0  0
 15 21  4  0  0  0
 17 18  4  0  0  0
 18 19  4  0  0  0
 19 20  4  0  0  0
 20 21  4  0  0  0
 22 23  4  0  0  0
 23 24  4  0  0  0
 24 25  1  0  0  0
  3 28  1  0  0  0
  6 29  1  0  0  0
  7 30  1  0  0  0
  9 31  1  0  0  0
  9 32  1  0  0  0
  9 33  1  0  0  0
 11 34  1  0  0  0
 13 35  1  0  0  0
 18 36  1  0  0  0
 19 37  1  0  0  0
 20 38  1  0  0  0
 23 39  1  0  0  0
 25 40  1  0  0  0
 25 41  1  0  0  0
 25 42  1  0  0  0
M  END
$$$$
