5k00_ligand
  -I-interpret- 

 77 81  0  0  0  0  0  0  0  0999 V2000
   -3.2880   -8.9800    1.2760 C   0  0  0  0  0
   -4.7210   -9.9120    2.7890 C   0  0  0  0  0
   -5.4050   -8.6730    2.9170 C   0  0  0  0  0
   -9.3360   -8.7820    8.0470 O   0  0  0  0  0
   -7.8180   -4.8980    9.5280 O   0  0  0  0  0
   -5.1060  -10.9920    3.5510 O   0  0  0  0  0
   -9.7330   -6.2280    9.2290 C   0  0  0  0  0
   -8.8640   -5.2530   10.0360 C   0  0  0  0  0
   -8.5380   -3.8650   12.0530 C   0  0  0  0  0
   -7.3200   -3.1990   11.6860 C   0  0  0  0  0
   -6.6320   -2.3320   12.5790 C   0  0  0  0  0
   -7.1780   -2.1380   13.8680 C   0  0  0  0  0
   -8.3800   -2.7890   14.2440 C   0  0  0  0  0
   -9.0640   -3.6490   13.3410 C   0  0  0  0  0
   -4.8680   -7.6290    2.1260 C   0  0  0  0  0
   -4.4070  -12.2410    3.4860 C   0  0  0  0  0
   -4.2000  -12.7020    4.9320 C   0  0  0  0  0
   -3.7230  -14.1710    4.9750 C   0  0  0  0  0
   -3.5560  -14.5980    6.4470 C   0  0  0  0  0
   -2.9630  -12.3100    7.1320 C   0  0  0  0  0
   -3.1890  -11.8020    5.6920 C   0  0  0  0  0
   -1.2310  -10.2380    0.6230 C   0  0  0  0  0
   -1.0150  -10.9810    1.8350 C   0  0  0  0  0
   -0.0730  -12.0320    1.8710 C   0  0  0  0  0
    0.6390  -12.3420    0.6880 C   0  0  0  0  0
    0.4260  -11.6280   -0.5270 C   0  0  0  0  0
   -3.8140   -7.7800    1.3090 N   0  0  0  0  0
   -3.6770  -10.0440    1.9690 N   0  0  0  0  0
   -6.3920   -8.4170    3.9780 C   0  0  0  0  0
   -7.1920   -9.4440    4.5370 C   0  0  0  0  0
   -8.0090   -9.2320    5.6560 C   0  0  0  0  0
   -7.9990   -7.9750    6.3000 C   0  0  0  0  0
   -7.1990   -6.9420    5.7690 C   0  0  0  0  0
   -6.3610   -7.1670    4.6560 C   0  0  0  0  0
   -8.8410   -7.7940    7.5190 C   0  0  0  0  0
   -8.9990   -6.5670    8.0190 N   0  0  0  0  0
   -9.2680   -4.7800   11.2150 N   0  0  0  0  0
   -2.5760  -13.7230    7.1110 N   0  3  0  0  0
   -2.1720   -9.2010    0.5290 N   0  0  0  0  0
    1.1190  -11.9050   -1.6830 O   0  0  0  0  0
    1.1560  -11.0140   -2.7940 C   0  0  0  0  0
   -0.5150  -10.5600   -0.5510 C   0  0  0  0  0
  -10.6899   -5.7696    8.9793 H   0  0  0  0  0
   -9.9429   -7.1247    9.8121 H   0  0  0  0  0
   -6.9091   -3.3634   10.6899 H   0  0  0  0  0
   -5.7112   -1.8321   12.2783 H   0  0  0  0  0
   -6.6717   -1.4837   14.5777 H   0  0  0  0  0
   -8.7869   -2.6277   15.2422 H   0  0  0  0  0
   -9.9898   -4.1379   13.6443 H   0  0  0  0  0
   -5.3371   -6.6468    2.1838 H   0  0  0  0  0
   -3.4520  -12.1266    2.9733 H   0  0  0  0  0
   -4.9776  -12.9776    2.9203 H   0  0  0  0  0
   -5.1654  -12.6201    5.4313 H   0  0  0  0  0
   -2.7705  -14.2649    4.4534 H   0  0  0  0  0
   -4.4571  -14.8116    4.4862 H   0  0  0  0  0
   -3.2038  -15.6288    6.4858 H   0  0  0  0  0
   -4.5158  -14.5170    6.9572 H   0  0  0  0  0
   -3.8869  -12.2000    7.6998 H   0  0  0  0  0
   -2.1674  -11.7275    7.5966 H   0  0  0  0  0
   -3.5908  -10.7899    5.7390 H   0  0  0  0  0
   -2.2369  -11.8235    5.1618 H   0  0  0  0  0
   -1.5822  -10.7312    2.7317 H   0  0  0  0  0
    0.1019  -12.5922    2.7895 H   0  0  0  0  0
    1.3709  -13.1495    0.7065 H   0  0  0  0  0
   -7.1714  -10.4338    4.0809 H   0  0  0  0  0
   -8.6486  -10.0328    6.0272 H   0  0  0  0  0
   -7.2285   -5.9529    6.2261 H   0  0  0  0  0
   -5.6879   -6.3804    4.3149 H   0  0  0  0  0
   -8.5666   -5.7978    7.5073 H   0  0  0  0  0
  -10.1769   -5.0950   11.5542 H   0  0  0  0  0
   -1.7034  -13.7915    6.5873 H   0  0  0  0  0
   -2.5002  -14.0319    8.0801 H   0  0  0  0  0
   -1.9940   -8.5146   -0.2042 H   0  0  0  0  0
    0.1426  -10.8500   -3.1605 H   0  0  0  0  0
    1.5891  -10.0637   -2.4817 H   0  0  0  0  0
    1.7645  -11.4490   -3.5869 H   0  0  0  0  0
   -0.6816   -9.9952   -1.4683 H   0  0  0  0  0
 27  1  4  0  0  0
 28  1  4  0  0  0
  1 39  1  0  0  0
  3  2  4  0  0  0
  2  6  1  0  0  0
  2 28  4  0  0  0
  3 15  4  0  0  0
 29  3  1  0  0  0
 35  4  2  0  0  0
  8  5  2  0  0  0
  6 16  1  0  0  0
  7  8  1  0  0  0
 36  7  1  0  0  0
  8 37  1  0  0  0
  9 10  4  0  0  0
  9 14  4  0  0  0
 37  9  1  0  0  0
 10 11  4  0  0  0
 11 12  4  0  0  0
 13 12  4  0  0  0
 14 13  4  0  0  0
 15 27  4  0  0  0
 16 17  1  0  0  0
 17 18  1  0  0  0
 17 21  1  0  0  0
 18 19  1  0  0  0
 19 38  1  0  0  0
 21 20  1  0  0  0
 20 38  1  0  0  0
 22 23  4  0  0  0
 39 22  1  0  0  0
 22 42  4  0  0  0
 23 24  4  0  0  0
 24 25  4  0  0  0
 26 25  4  0  0  0
 26 40  1  0  0  0
 42 26  4  0  0  0
 30 29  4  0  0  0
 34 29  4  0  0  0
 31 30  4  0  0  0
 32 31  4  0  0  0
 32 33  4  0  0  0
 35 32  1  0  0  0
 33 34  4  0  0  0
 35 36  1  0  0  0
 40 41  1  0  0  0
  7 43  1  0  0  0
  7 44  1  0  0  0
 10 45  1  0  0  0
 11 46  1  0  0  0
 12 47  1  0  0  0
 13 48  1  0  0  0
 14 49  1  0  0  0
 15 50  1  0  0  0
 16 51  1  0  0  0
 16 52  1  0  0  0
 17 53  1  0  0  0
 18 54  1  0  0  0
 18 55  1  0  0  0
 19 56  1  0  0  0
 19 57  1  0  0  0
 20 58  1  0  0  0
 20 59  1  0  0  0
 21 60  1  0  0  0
 21 61  1  0  0  0
 23 62  1  0  0  0
 24 63  1  0  0  0
 25 64  1  0  0  0
 30 65  1  0  0  0
 31 66  1  0  0  0
 33 67  1  0  0  0
 34 68  1  0  0  0
 36 69  1  0  0  0
 37 70  1  0  0  0
 38 71  1  0  0  0
 38 72  1  0  0  0
 39 73  1  0  0  0
 41 74  1  0  0  0
 41 75  1  0  0  0
 41 76  1  0  0  0
 42 77  1  0  0  0
M  END
$$$$
