4bdt_ligand
  -I-interpret- 

 41 44  0  0  0  0  0  0  0  0999 V2000
   -1.5090  -40.0070  -54.5220 O   0  0  0  0  0
    0.1030  -32.1370  -46.8300 Cl  0  0  0  0  0
   -0.9500  -32.7670  -48.0350 C   0  0  0  0  0
   -0.7180  -33.8940  -51.4490 N   0  0  0  0  0
   -1.2590  -33.5940  -50.2580 C   0  0  0  0  0
   -1.4890  -34.4020  -52.4890 C   0  0  0  0  0
   -4.7220  -34.4970  -50.9430 N   0  0  0  0  0
   -3.3850  -34.3110  -51.1490 C   0  0  0  0  0
   -0.4210  -33.0930  -49.2740 C   0  0  0  0  0
   -2.3070  -32.9420  -47.7840 C   0  0  0  0  0
   -2.6230  -33.7830  -50.0390 C   0  0  0  0  0
   -0.7050  -34.6970  -53.7590 C   0  0  0  0  0
   -2.8160  -34.6100  -52.3590 C   0  0  0  0  0
   -1.4650  -35.6810  -54.6580 C   0  0  0  0  0
   -1.5230  -37.0380  -53.9730 C   0  0  0  0  0
   -2.8750  -35.0820  -54.8450 C   0  0  0  0  0
   -2.5960  -37.4880  -53.3260 C   0  0  0  0  0
   -3.8790  -36.6780  -53.2080 C   0  0  0  0  0
   -2.6010  -38.8490  -52.6670 C   0  0  0  0  0
   -3.6400  -35.1810  -53.5090 C   0  0  0  0  0
   -1.3780  -39.6610  -53.1380 C   0  0  0  0  0
   -3.1490  -33.4470  -48.7790 C   0  0  0  0  0
   -0.7405  -40.5114  -54.7987 H   0  0  0  0  0
   -5.1359  -34.2660  -50.0398 H   0  0  0  0  0
   -5.3069  -34.8670  -51.6923 H   0  0  0  0  0
    0.6421  -32.9569  -49.4724 H   0  0  0  0  0
   -2.7156  -32.6842  -46.8069 H   0  0  0  0  0
    0.2516  -35.1415  -53.4842 H   0  0  0  0  0
   -0.5600  -33.7648  -54.3050 H   0  0  0  0  0
   -0.9828  -35.8262  -55.6247 H   0  0  0  0  0
   -0.6397  -37.6754  -54.0140 H   0  0  0  0  0
   -3.4103  -35.6330  -55.6183 H   0  0  0  0  0
   -2.7950  -34.0380  -55.1478 H   0  0  0  0  0
   -4.2491  -36.7680  -52.1867 H   0  0  0  0  0
   -4.5963  -37.0636  -53.9325 H   0  0  0  0  0
   -3.5131  -39.3791  -52.9411 H   0  0  0  0  0
   -2.5571  -38.7259  -51.5849 H   0  0  0  0  0
   -4.5711  -34.6210  -53.5962 H   0  0  0  0  0
   -0.4800  -39.0572  -53.0072 H   0  0  0  0  0
   -1.3117  -40.5756  -52.5488 H   0  0  0  0  0
   -4.2121  -33.5802  -48.5784 H   0  0  0  0  0
 21  1  1  0  0  0
  3  2  1  0  0  0
  9  3  4  0  0  0
 10  3  4  0  0  0
  4  5  4  0  0  0
  6  4  4  0  0  0
  5  9  4  0  0  0
 11  5  4  0  0  0
 12  6  1  0  0  0
 13  6  4  0  0  0
  8  7  1  0  0  0
  8 11  4  0  0  0
 13  8  4  0  0  0
 22 10  4  0  0  0
 11 22  4  0  0  0
 14 12  1  0  0  0
 20 13  1  0  0  0
 15 14  1  0  0  0
 14 16  1  0  0  0
 17 15  2  0  0  0
 20 16  1  0  0  0
 17 18  1  0  0  0
 19 17  1  0  0  0
 18 20  1  0  0  0
 19 21  1  0  0  0
  1 23  1  0  0  0
  7 24  1  0  0  0
  7 25  1  0  0  0
  9 26  1  0  0  0
 10 27  1  0  0  0
 12 28  1  0  0  0
 12 29  1  0  0  0
 14 30  1  0  0  0
 15 31  1  0  0  0
 16 32  1  0  0  0
 16 33  1  0  0  0
 18 34  1  0  0  0
 18 35  1  0  0  0
 19 36  1  0  0  0
 19 37  1  0  0  0
 20 38  1  0  0  0
 21 39  1  0  0  0
 21 40  1  0  0  0
 22 41  1  0  0  0
M  END
$$$$
