4p3h_ligand
  -I-interpret- 

 61 65  0  0  0  0  0  0  0  0999 V2000
  -29.5030  -14.6240  -42.3070 C   0  0  0  0  0
  -29.2810  -20.7640  -42.9540 C   0  0  0  0  0
  -30.5890  -22.8920  -42.4130 C   0  0  0  0  0
  -29.5420  -23.7220  -42.9920 C   0  0  0  0  0
  -28.3630  -23.0780  -43.5700 C   0  0  0  0  0
  -25.9600  -20.6770  -43.1140 C   0  0  0  0  0
  -24.5520  -20.7950  -43.5200 C   0  0  0  0  0
  -25.1780  -19.8910  -40.8320 C   0  0  0  0  0
  -23.1280  -17.5460  -44.8380 C   0  0  0  0  0
  -23.8140  -16.8150  -43.7080 C   0  0  0  0  0
  -25.3100  -16.6750  -43.9230 C   0  0  0  0  0
  -25.6010  -16.0500  -45.2420 C   0  0  0  0  0
  -24.9890  -16.8300  -46.3920 C   0  0  0  0  0
  -23.4940  -17.0140  -46.2030 C   0  0  0  0  0
  -25.8380  -15.8100  -42.7870 C   0  0  0  0  0
  -27.3280  -15.8490  -42.6330 C   0  0  0  0  0
  -28.0840  -14.5890  -42.4840 C   0  0  0  0  0
  -30.1860  -15.8940  -42.3160 C   0  0  0  0  0
  -29.4070  -17.1340  -42.4980 C   0  0  0  0  0
  -27.9820  -17.1030  -42.6480 N   0  0  0  0  0
  -30.0120  -18.4660  -42.5020 C   0  0  0  0  0
  -31.2010  -18.6500  -42.2300 O   0  0  0  0  0
  -29.0940  -19.4000  -42.8890 N   0  0  0  0  0
  -28.2270  -21.6170  -43.5160 C   0  0  0  0  0
  -30.4710  -21.4220  -42.3890 C   0  0  0  0  0
  -27.0090  -20.9840  -44.1140 C   0  0  0  0  0
  -23.4600  -20.4780  -42.5840 C   0  0  0  0  0
  -26.3040  -20.2180  -41.7560 C   0  0  0  0  0
  -23.7760  -20.0430  -41.2410 C   0  0  0  0  0
  -29.6570  -25.1910  -43.1300 C   0  0  0  0  0
  -30.4170  -25.9660  -42.3490 N   0  0  0  0  0
  -29.0190  -25.8670  -44.0520 N   0  0  0  0  0
  -29.3890  -27.1450  -43.8770 N   0  0  0  0  0
  -30.2280  -27.1860  -42.8510 N   0  0  0  0  0
  -30.0628  -13.6993  -42.1666 H   0  0  0  0  0
  -31.4752  -23.3652  -41.9901 H   0  0  0  0  0
  -27.5866  -23.6816  -44.0401 H   0  0  0  0  0
  -24.3120  -21.1228  -44.5315 H   0  0  0  0  0
  -25.4023  -19.5302  -39.8282 H   0  0  0  0  0
  -23.4434  -18.5885  -44.7954 H   0  0  0  0  0
  -22.0534  -17.4150  -44.7107 H   0  0  0  0  0
  -23.3890  -15.8129  -43.6511 H   0  0  0  0  0
  -23.6597  -17.3902  -42.7951 H   0  0  0  0  0
  -25.7934  -17.6520  -43.9248 H   0  0  0  0  0
  -25.1723  -15.0479  -45.2450 H   0  0  0  0  0
  -26.6822  -16.0345  -45.3794 H   0  0  0  0  0
  -25.1554  -16.2740  -47.3147 H   0  0  0  0  0
  -25.4567  -17.8138  -46.4306 H   0  0  0  0  0
  -23.1544  -17.7395  -46.9422 H   0  0  0  0  0
  -23.0243  -16.0366  -46.3134 H   0  0  0  0  0
  -25.5630  -14.7793  -43.0108 H   0  0  0  0  0
  -25.4072  -16.1930  -41.8619 H   0  0  0  0  0
  -27.5610  -13.6330  -42.5089 H   0  0  0  0  0
  -31.2678  -15.9376  -42.1895 H   0  0  0  0  0
  -28.1738  -19.0518  -43.1581 H   0  0  0  0  0
  -31.2677  -20.8204  -41.9514 H   0  0  0  0  0
  -26.5871  -21.6902  -44.8290 H   0  0  0  0  0
  -27.3161  -20.0428  -44.5701 H   0  0  0  0  0
  -22.4212  -20.5705  -42.9009 H   0  0  0  0  0
  -27.3421  -20.1210  -41.4383 H   0  0  0  0  0
  -22.9747  -19.8284  -40.5339 H   0  0  0  0  0
  1 17  4  0  0  0
 18  1  4  0  0  0
  2 23  1  0  0  0
 24  2  4  0  0  0
  2 25  4  0  0  0
  4  3  4  0  0  0
 25  3  4  0  0  0
  5  4  4  0  0  0
  4 30  1  0  0  0
 24  5  4  0  0  0
  6  7  4  0  0  0
 26  6  1  0  0  0
  6 28  4  0  0  0
  7 27  4  0  0  0
 28  8  4  0  0  0
  8 29  4  0  0  0
 10  9  1  0  0  0
  9 14  1  0  0  0
 11 10  1  0  0  0
 11 12  1  0  0  0
 15 11  1  0  0  0
 12 13  1  0  0  0
 13 14  1  0  0  0
 16 15  1  0  0  0
 16 17  4  0  0  0
 20 16  4  0  0  0
 19 18  4  0  0  0
 19 20  4  0  0  0
 21 19  1  0  0  0
 21 22  2  0  0  0
 23 21  1  0  0  0
 24 26  1  0  0  0
 27 29  4  0  0  0
 30 31  4  0  0  0
 30 32  4  0  0  0
 31 34  4  0  0  0
 32 33  4  0  0  0
 33 34  4  0  0  0
  1 35  1  0  0  0
  3 36  1  0  0  0
  5 37  1  0  0  0
  7 38  1  0  0  0
  8 39  1  0  0  0
  9 40  1  0  0  0
  9 41  1  0  0  0
 10 42  1  0  0  0
 10 43  1  0  0  0
 11 44  1  0  0  0
 12 45  1  0  0  0
 12 46  1  0  0  0
 13 47  1  0  0  0
 13 48  1  0  0  0
 14 49  1  0  0  0
 14 50  1  0  0  0
 15 51  1  0  0  0
 15 52  1  0  0  0
 17 53  1  0  0  0
 18 54  1  0  0  0
 23 55  1  0  0  0
 25 56  1  0  0  0
 26 57  1  0  0  0
 26 58  1  0  0  0
 27 59  1  0  0  0
 28 60  1  0  0  0
 29 61  1  0  0  0
M  END
$$$$
