6gjr_ligand
  -I-interpret- 

 46 47  0  0  0  0  0  0  0  0999 V2000
    0.0400   16.6450   -6.0020 O   0  0  0  0  0
   -0.6200   17.5720   -5.5750 C   0  0  0  0  0
   -1.0650   17.5400   -4.3320 N   0  0  0  0  0
   -1.0260   16.3110   -3.5550 C   0  0  0  0  0
   -1.4510   15.0810   -4.3290 C   0  0  0  0  0
   -2.4810   15.0440   -4.9470 O   0  0  0  0  0
   -0.6010   13.9170   -4.3060 O   0  0  0  0  0
   -1.0030   12.7040   -4.8860 C   0  0  0  0  0
   -0.0740   11.6360   -4.3720 C   0  0  0  0  0
   -0.8870   18.6130   -6.3530 N   0  0  0  0  0
   -0.3520   18.6920   -7.6960 C   0  0  0  0  0
    1.1560   18.7460   -7.6520 C   0  0  0  0  0
    1.8600   19.4260   -6.7330 N   0  0  0  0  0
    3.1740   19.2050   -7.1000 N   0  0  0  0  0
    4.3090   19.7710   -6.3510 C   0  0  0  0  0
    3.3250   18.4070   -8.2110 N   0  0  0  0  0
    1.9970   18.1360   -8.5320 N   0  0  0  0  0
   -1.6960   19.7640   -6.0020 C   0  0  0  0  0
   -3.0000   19.7540   -6.7610 C   0  0  0  0  0
   -3.5010   18.5470   -7.1480 C   0  0  0  0  0
   -4.6950   18.4890   -7.8170 C   0  0  0  0  0
   -5.4100   19.6110   -8.1240 C   0  0  0  0  0
   -6.5740   19.4680   -8.7740 N   0  0  0  0  0
   -4.9210   20.8430   -7.7450 C   0  0  0  0  0
   -3.7130   20.9020   -7.0630 C   0  0  0  0  0
   -1.4414   18.3893   -3.9108 H   0  0  0  0  0
   -1.7242   16.4295   -2.7264 H   0  0  0  0  0
    0.0073   16.1570   -3.2442 H   0  0  0  0  0
   -0.9554   12.7637   -5.9733 H   0  0  0  0  0
   -2.0353   12.4751   -4.6212 H   0  0  0  0  0
    0.9495   11.8781   -4.6581 H   0  0  0  0  0
   -0.1466   11.5852   -3.2856 H   0  0  0  0  0
   -0.3549   10.6744   -4.8016 H   0  0  0  0  0
   -0.7281   19.5943   -8.1781 H   0  0  0  0  0
   -0.6619   17.8102   -8.2567 H   0  0  0  0  0
    4.2387   20.8587   -6.3545 H   0  0  0  0  0
    4.2824   19.4072   -5.3238 H   0  0  0  0  0
    5.2428   19.4645   -6.8224 H   0  0  0  0  0
   -1.1473   20.6704   -6.2579 H   0  0  0  0  0
   -1.9108   19.7301   -4.9339 H   0  0  0  0  0
   -2.9535   17.6310   -6.9259 H   0  0  0  0  0
   -5.0868   17.5161   -8.1137 H   0  0  0  0  0
   -6.9058   18.5373   -9.0271 H   0  0  0  0  0
   -7.1277   20.2899   -9.0153 H   0  0  0  0  0
   -5.4726   21.7542   -7.9765 H   0  0  0  0  0
   -3.3180   21.8714   -6.7592 H   0  0  0  0  0
  1  2  2  0  0  0
  2  3  1  0  0  0
  2 10  1  0  0  0
  3  4  1  0  0  0
  4  5  1  0  0  0
  5  6  2  0  0  0
  5  7  1  0  0  0
  7  8  1  0  0  0
  8  9  1  0  0  0
 10 11  1  0  0  0
 10 18  1  0  0  0
 11 12  1  0  0  0
 12 13  4  0  0  0
 12 17  4  0  0  0
 13 14  4  0  0  0
 14 15  1  0  0  0
 14 16  4  0  0  0
 16 17  4  0  0  0
 18 19  1  0  0  0
 19 20  4  0  0  0
 19 25  4  0  0  0
 20 21  4  0  0  0
 21 22  4  0  0  0
 22 23  1  0  0  0
 22 24  4  0  0  0
 24 25  4  0  0  0
  3 26  1  0  0  0
  4 27  1  0  0  0
  4 28  1  0  0  0
  8 29  1  0  0  0
  8 30  1  0  0  0
  9 31  1  0  0  0
  9 32  1  0  0  0
  9 33  1  0  0  0
 11 34  1  0  0  0
 11 35  1  0  0  0
 15 36  1  0  0  0
 15 37  1  0  0  0
 15 38  1  0  0  0
 18 39  1  0  0  0
 18 40  1  0  0  0
 20 41  1  0  0  0
 21 42  1  0  0  0
 23 43  1  0  0  0
 23 44  1  0  0  0
 24 45  1  0  0  0
 25 46  1  0  0  0
M  END
$$$$
