### 
### Created by X-TOOL on Mon Sep 10 21:13:20 2018
### 

@<TRIPOS>MOLECULE
4na4_ligand
   58    61     1     0     0
SMALL
GAST_HUCK


@<TRIPOS>ATOM
      1 N1         53.9550   31.8320   24.0770 N.ar      1 A1R        -0.2698
      2 C2         52.7190   32.1630   23.6700 C.ar      1 A1R         0.0533
      3 N3         52.3280   33.4450   23.6450 N.ar      1 A1R        -0.2714
      4 C4         53.1710   34.4320   24.0430 C.ar      1 A1R         0.1613
      5 C5         54.4380   34.1150   24.4740 C.ar      1 A1R         0.1045
      6 C6         54.8250   32.7800   24.4880 C.ar      1 A1R         0.1298
      7 N6         56.0570   32.4050   24.9020 N.pl3     1 A1R        -0.3152
      8 N7         55.0420   35.2690   24.7960 N.2       1 A1R        -0.2958
      9 C8         54.1590   36.2710   24.5620 C.2       1 A1R         0.1123
     10 N9         53.0200   35.7550   24.1120 N.pl3     1 A1R        -0.1919
     11 C1'        51.7720   36.4790   23.7250 C.3       1 A1R         0.2010
     12 C2'        51.4610   37.6800   24.6030 C.3       1 A1R         0.1385
     13 O2'        50.0560   37.6470   24.8570 O.3       1 A1R        -0.3836
     14 C3'        51.8080   38.8970   23.7700 C.3       1 A1R         0.1149
     15 O3'        50.9870   40.0310   24.0530 O.3       1 A1R        -0.3864
     16 O4'        51.8600   36.9970   22.3870 O.3       1 A1R        -0.3364
     17 C4'        51.5360   38.3910   22.3640 C.3       1 A1R         0.1189
     18 C5'        52.3060   39.1110   21.2750 C.3       1 A1R         0.1128
     19 O5'        53.6580   39.3030   21.6610 O.3       1 A1R        -0.2476
     20 PA         54.5080   40.4680   20.9680 P.3       1 A1R         0.2972
     21 O1A        55.9180   40.0630   21.2710 O.co2     1 A1R        -0.6127
     22 O2A        53.9680   41.8250   21.3420 O.co2     1 A1R        -0.6127
     23 O3A        54.1490   40.1900   19.4150 O.3       1 A1R        -0.1319
     24 PB         53.8400   41.3110   18.3000 P.3       1 A1R         0.2973
     25 O1B        52.6540   42.1740   18.6690 O.co2     1 A1R        -0.6127
     26 O2B        53.8470   40.5950   16.9860 O.co2     1 A1R        -0.6127
     27 O5N        55.1210   42.2660   18.3690 O.3       1 A1R        -0.2446
     28 C5N        56.0360   42.3070   17.2840 C.3       1 A1R         0.1289
     29 N4N        57.6710   42.7300   19.0390 N.4       1 A1R         0.2349
     30 C1N        58.9950   42.1730   19.1120 C.3       1 A1R        -0.0039
     31 O2N        60.7530   42.3470   17.4230 O.3       1 A1R        -0.3837
     32 C2N        59.3840   42.0060   17.6470 C.3       1 A1R         0.1258
     33 O3N        59.0690   44.1190   16.4770 O.3       1 A1R        -0.3833
     34 C3N        58.4460   42.8810   16.8320 C.3       1 A1R         0.1307
     35 C4N        57.2390   43.1230   17.7170 C.3       1 A1R         0.0357
     36 H          52.0305   31.3858   23.3585 H         1 A1R         0.0996
     37 H          56.7323   33.1154   25.2185 H         1 A1R         0.1820
     38 H          56.3198   31.4091   24.9007 H         1 A1R         0.1820
     39 H          54.3526   37.3312   24.7182 H         1 A1R         0.1349
     40 H          50.9370   35.7657   23.7872 H         1 A1R         0.0996
     41 H          52.0336   37.6626   25.5421 H         1 A1R         0.0676
     42 H          49.8171   38.3847   25.4057 H         1 A1R         0.2101
     43 H          52.8644   39.1737   23.9022 H         1 A1R         0.0648
     44 H          50.0787   39.8145   23.8782 H         1 A1R         0.2100
     45 H          50.4642   38.5124   22.1483 H         1 A1R         0.0651
     46 H          51.8405   40.0904   21.0905 H         1 A1R         0.0648
     47 H          52.2751   38.5109   20.3536 H         1 A1R         0.0648
     48 H          55.5598   42.7780   16.4115 H         1 A1R         0.0679
     49 H          56.3517   41.2861   17.0229 H         1 A1R         0.0679
     50 H          57.6429   43.5453   19.6311 H         1 A1R         0.2019
     51 H          57.0232   42.0401   19.3861 H         1 A1R         0.2019
     52 H          58.9869   41.2031   19.6309 H         1 A1R         0.0840
     53 H          59.6836   42.8588   19.6272 H         1 A1R         0.0840
     54 H          60.8971   43.2529   17.6703 H         1 A1R         0.2101
     55 H          59.2399   40.9555   17.3544 H         1 A1R         0.0675
     56 H          59.8464   43.9441   15.9598 H         1 A1R         0.2102
     57 H          58.1433   42.3557   15.9142 H         1 A1R         0.0679
     58 H          56.9693   44.1893   17.7032 H         1 A1R         0.0904
@<TRIPOS>BOND
     1    2    1 ar 
     2    6    1 ar 
     3    3    2 ar 
     4    4    3 ar 
     5    4    5 ar 
     6   10    4 1  
     7    5    6 ar 
     8    8    5 1  
     9    6    7 1  
    10    9    8 2  
    11   10    9 1  
    12   11   10 1  
    13   11   12 1  
    14   16   11 1  
    15   12   13 1  
    16   14   12 1  
    17   14   15 1  
    18   17   14 1  
    19   17   16 1  
    20   18   17 1  
    21   19   18 1  
    22   20   19 1  
    23   20   21 ar 
    24   20   22 ar 
    25   23   20 1  
    26   24   23 1  
    27   24   25 ar 
    28   24   26 ar 
    29   27   24 1  
    30   28   27 1  
    31   35   28 1  
    32   29   30 1  
    33   29   35 1  
    34   30   32 1  
    35   32   31 1  
    36   32   34 1  
    37   34   33 1  
    38   34   35 1  
    39    2   36 1  
    40    7   37 1  
    41    7   38 1  
    42    9   39 1  
    43   11   40 1  
    44   12   41 1  
    45   13   42 1  
    46   14   43 1  
    47   15   44 1  
    48   17   45 1  
    49   18   46 1  
    50   18   47 1  
    51   28   48 1  
    52   28   49 1  
    53   29   50 1  
    54   29   51 1  
    55   30   52 1  
    56   30   53 1  
    57   31   54 1  
    58   32   55 1  
    59   33   56 1  
    60   34   57 1  
    61   35   58 1  
@<TRIPOS>SUBSTRUCTURE
     1 A1R         1

