4na4_ligand
  -I-interpret- 

 60 63  0  0  0  0  0  0  0  0999 V2000
   53.9550   31.8320   24.0770 N   0  0  0  0  0
   52.7190   32.1630   23.6700 C   0  0  0  0  0
   52.3280   33.4450   23.6450 N   0  0  0  0  0
   53.1710   34.4320   24.0430 C   0  0  0  0  0
   54.4380   34.1150   24.4740 C   0  0  0  0  0
   54.8250   32.7800   24.4880 C   0  0  0  0  0
   56.0570   32.4050   24.9020 N   0  0  0  0  0
   55.0420   35.2690   24.7960 N   0  0  0  0  0
   54.1590   36.2710   24.5620 C   0  0  0  0  0
   53.0200   35.7550   24.1120 N   0  0  0  0  0
   51.7720   36.4790   23.7250 C   0  0  0  0  0
   51.4610   37.6800   24.6030 C   0  0  0  0  0
   50.0560   37.6470   24.8570 O   0  0  0  0  0
   51.8080   38.8970   23.7700 C   0  0  0  0  0
   50.9870   40.0310   24.0530 O   0  0  0  0  0
   51.8600   36.9970   22.3870 O   0  0  0  0  0
   51.5360   38.3910   22.3640 C   0  0  0  0  0
   52.3060   39.1110   21.2750 C   0  0  0  0  0
   53.6580   39.3030   21.6610 O   0  0  0  0  0
   54.5080   40.4680   20.9680 P   0  0  0  0  0
   55.9180   40.0630   21.2710 O   0  0  0  0  0
   53.9680   41.8250   21.3420 O   0  0  0  0  0
   54.1490   40.1900   19.4150 O   0  0  0  0  0
   53.8400   41.3110   18.3000 P   0  0  0  0  0
   52.6540   42.1740   18.6690 O   0  0  0  0  0
   53.8470   40.5950   16.9860 O   0  0  0  0  0
   55.1210   42.2660   18.3690 O   0  0  0  0  0
   56.0360   42.3070   17.2840 C   0  0  0  0  0
   57.6710   42.7300   19.0390 N   0  3  0  0  0
   58.9950   42.1730   19.1120 C   0  0  0  0  0
   60.7530   42.3470   17.4230 O   0  0  0  0  0
   59.3840   42.0060   17.6470 C   0  0  0  0  0
   59.0690   44.1190   16.4770 O   0  0  0  0  0
   58.4460   42.8810   16.8320 C   0  0  0  0  0
   57.2390   43.1230   17.7170 C   0  0  0  0  0
   52.0267   31.3815   23.3568 H   0  0  0  0  0
   56.3172   31.4187   24.9007 H   0  0  0  0  0
   56.7258   33.1085   25.2155 H   0  0  0  0  0
   54.3528   37.3322   24.7183 H   0  0  0  0  0
   50.9903   35.7268   23.8312 H   0  0  0  0  0
   52.0074   37.6900   25.5461 H   0  0  0  0  0
   49.8146   38.3925   25.4115 H   0  0  0  0  0
   52.8226   39.2505   23.9535 H   0  0  0  0  0
   51.2549   40.7656   23.4961 H   0  0  0  0  0
   50.4932   38.5802   22.1091 H   0  0  0  0  0
   51.8467   40.0844   21.1029 H   0  0  0  0  0
   52.2806   38.5079   20.3674 H   0  0  0  0  0
   53.0513   41.8910   21.0646 H   0  0  0  0  0
   52.7992   42.5621   19.5350 H   0  0  0  0  0
   55.5663   42.7618   16.4119 H   0  0  0  0  0
   56.3436   41.2973   17.0121 H   0  0  0  0  0
   57.6783   43.5766   19.6078 H   0  0  0  0  0
   57.0296   42.0010   19.3514 H   0  0  0  0  0
   59.0263   41.2342   19.6650 H   0  0  0  0  0
   59.6890   42.8090   19.6615 H   0  0  0  0  0
   60.9626   42.2306   16.4934 H   0  0  0  0  0
   59.2869   40.9632   17.3450 H   0  0  0  0  0
   58.4548   44.6495   15.9642 H   0  0  0  0  0
   58.1702   42.3980   15.8946 H   0  0  0  0  0
   56.9153   44.1627   17.6682 H   0  0  0  0  0
  2  1  4  0  0  0
  6  1  4  0  0  0
  3  2  4  0  0  0
  4  3  4  0  0  0
  4  5  4  0  0  0
 10  4  4  0  0  0
  5  6  4  0  0  0
  8  5  4  0  0  0
  6  7  1  0  0  0
  9  8  4  0  0  0
 10  9  4  0  0  0
 11 10  1  0  0  0
 11 12  1  0  0  0
 16 11  1  0  0  0
 12 13  1  0  0  0
 14 12  1  0  0  0
 14 15  1  0  0  0
 17 14  1  0  0  0
 17 16  1  0  0  0
 18 17  1  0  0  0
 19 18  1  0  0  0
 20 19  1  0  0  0
 20 21  2  0  0  0
 20 22  1  0  0  0
 23 20  1  0  0  0
 24 23  1  0  0  0
 24 25  1  0  0  0
 24 26  2  0  0  0
 27 24  1  0  0  0
 28 27  1  0  0  0
 35 28  1  0  0  0
 29 30  1  0  0  0
 29 35  1  0  0  0
 30 32  1  0  0  0
 32 31  1  0  0  0
 32 34  1  0  0  0
 34 33  1  0  0  0
 34 35  1  0  0  0
  2 36  1  0  0  0
  7 37  1  0  0  0
  7 38  1  0  0  0
  9 39  1  0  0  0
 11 40  1  0  0  0
 12 41  1  0  0  0
 13 42  1  0  0  0
 14 43  1  0  0  0
 15 44  1  0  0  0
 17 45  1  0  0  0
 18 46  1  0  0  0
 18 47  1  0  0  0
 22 48  1  0  0  0
 25 49  1  0  0  0
 28 50  1  0  0  0
 28 51  1  0  0  0
 29 52  1  0  0  0
 29 53  1  0  0  0
 30 54  1  0  0  0
 30 55  1  0  0  0
 31 56  1  0  0  0
 32 57  1  0  0  0
 33 58  1  0  0  0
 34 59  1  0  0  0
 35 60  1  0  0  0
M  END
$$$$
