4cli_ligand
  -I-interpret- 

 49 52  0  0  0  0  0  0  0  0999 V2000
   26.3890   48.2230    7.4390 C   0  0  0  0  0
   34.4000   46.8120    8.7880 C   0  0  0  0  0
   34.8690   46.6270   10.1040 C   0  0  0  0  0
   29.9120   45.4530    8.5200 C   0  0  0  0  0
   33.6470   44.5010   10.2610 C   0  0  0  0  0
   27.8220   45.9680    9.4930 C   0  0  0  0  0
   27.8080   48.4060    7.3250 C   0  0  0  0  0
   28.8480   46.3680    8.6050 C   0  0  0  0  0
   28.8920   47.6360    7.8070 C   0  0  0  0  0
   33.5380   45.8350    8.1850 C   0  0  0  0  0
   33.1400   44.6400    8.9220 C   0  0  0  0  0
   29.9930   44.2340    9.2420 C   0  0  0  0  0
   34.4920   45.4820   10.8230 C   0  0  0  0  0
   30.0600   48.3890    7.3350 C   0  0  0  0  0
   28.9160   43.9330   10.0990 C   0  0  0  0  0
   33.0940   46.1240    6.7820 C   0  0  0  0  0
   31.5520   48.1510    7.4820 C   0  0  0  0  0
   32.2090   43.5390    8.3520 C   0  0  0  0  0
   32.9180   42.1720    8.2670 C   0  0  0  0  0
   27.6890   50.5690    5.9860 C   0  0  0  0  0
   31.8320   47.3710    5.0630 C   0  0  0  0  0
   25.2410   48.0740    7.4870 N   0  0  0  0  0
   27.8390   44.7890   10.2230 N   0  0  0  0  0
   29.7090   49.4810    6.6570 N   0  0  0  0  0
   28.3760   49.4780    6.6600 N   0  0  0  0  0
   32.1780   47.1950    6.4830 N   0  0  0  0  0
   28.9340   42.7370   10.8520 N   0  0  0  0  0
   33.5850   45.3670    5.9340 O   0  0  0  0  0
   31.0350   43.3250    9.1860 O   0  0  0  0  0
   34.9420   45.3170   12.0630 F   0  0  0  0  0
   34.6925   47.6992    8.2264 H   0  0  0  0  0
   35.5219   47.3702   10.5617 H   0  0  0  0  0
   30.7359   45.6981    7.8498 H   0  0  0  0  0
   33.3747   43.6253   10.8502 H   0  0  0  0  0
   26.9632   46.6287    9.6110 H   0  0  0  0  0
   31.6937   47.7012    8.4647 H   0  0  0  0  0
   32.0321   49.1165    7.3223 H   0  0  0  0  0
   31.9256   43.8999    7.3633 H   0  0  0  0  0
   33.7876   42.2551    7.6151 H   0  0  0  0  0
   33.2372   41.8671    9.2636 H   0  0  0  0  0
   32.2285   41.4311    7.8624 H   0  0  0  0  0
   27.0632   50.1659    5.1898 H   0  0  0  0  0
   27.0666   51.1033    6.7038 H   0  0  0  0  0
   28.4243   51.2524    5.5612 H   0  0  0  0  0
   32.7375   47.5783    4.4927 H   0  0  0  0  0
   31.3658   46.4598    4.6883 H   0  0  0  0  0
   31.1375   48.2048    4.9602 H   0  0  0  0  0
   29.7241   42.0967   10.7734 H   0  0  0  0  0
   28.1569   42.5142   11.4740 H   0  0  0  0  0
  7  1  1  0  0  0
  1 22  3  0  0  0
  2  3  4  0  0  0
 10  2  4  0  0  0
  3 13  4  0  0  0
  8  4  4  0  0  0
  4 12  4  0  0  0
 11  5  4  0  0  0
  5 13  4  0  0  0
  8  6  4  0  0  0
  6 23  4  0  0  0
  9  7  4  0  0  0
  7 25  4  0  0  0
  9  8  1  0  0  0
 14  9  4  0  0  0
 10 11  4  0  0  0
 16 10  1  0  0  0
 11 18  1  0  0  0
 12 15  4  0  0  0
 12 29  1  0  0  0
 13 30  1  0  0  0
 17 14  1  0  0  0
 14 24  4  0  0  0
 23 15  4  0  0  0
 15 27  1  0  0  0
 26 16  1  0  0  0
 16 28  2  0  0  0
 17 26  1  0  0  0
 18 19  1  0  0  0
 18 29  1  0  0  0
 25 20  1  0  0  0
 26 21  1  0  0  0
 24 25  4  0  0  0
  2 31  1  0  0  0
  3 32  1  0  0  0
  4 33  1  0  0  0
  5 34  1  0  0  0
  6 35  1  0  0  0
 17 36  1  0  0  0
 17 37  1  0  0  0
 18 38  1  0  0  0
 19 39  1  0  0  0
 19 40  1  0  0  0
 19 41  1  0  0  0
 20 42  1  0  0  0
 20 43  1  0  0  0
 20 44  1  0  0  0
 21 45  1  0  0  0
 21 46  1  0  0  0
 21 47  1  0  0  0
 27 48  1  0  0  0
 27 49  1  0  0  0
M  END
$$$$
