5etp_ligand
  -I-interpret- 

 30 32  0  0  0  0  0  0  0  0999 V2000
   -9.7430   26.6860  -17.9210 C   0  0  0  0  0
  -11.5570   25.2910  -17.2380 C   0  0  0  0  0
  -10.6240   27.7490  -18.0610 C   0  0  0  0  0
  -12.4030   26.3280  -17.3350 C   0  0  0  0  0
  -10.2150   25.4160  -17.5220 C   0  0  0  0  0
   -9.1070   20.5510  -19.3520 C   0  0  0  0  0
  -11.9670   27.5960  -17.7240 C   0  0  0  0  0
   -9.6810   21.4230  -20.2600 C   0  0  0  0  0
   -9.6480   19.2690  -19.2340 C   0  0  0  0  0
  -11.2430   19.9780  -20.9090 C   0  0  0  0  0
   -8.0850   22.4470  -19.1750 C   0  0  0  0  0
   -9.4040   24.0830  -17.1920 C   0  0  0  0  0
   -7.9200   24.1440  -17.0390 C   0  0  0  0  0
  -10.7390   21.2050  -21.0470 N   0  0  0  0  0
   -9.0020   22.6030  -20.1370 N   0  0  0  0  0
  -10.7360   19.0550  -20.0560 N   0  0  0  0  0
   -8.0400   21.1810  -18.7150 N   0  0  0  0  0
  -12.2970   19.6190  -21.6400 N   0  0  0  0  0
  -10.0520   23.0620  -16.8990 O   0  0  0  0  0
   -9.2610   18.3560  -18.4620 O   0  0  0  0  0
   -7.0350   23.7220  -18.6510 S   0  0  0  0  0
  -13.2060   28.9810  -17.8290 Br  0  0  0  0  0
   -8.6813   26.8319  -18.1200 H   0  0  0  0  0
  -11.9432   24.3209  -16.9252 H   0  0  0  0  0
  -10.2639   28.7070  -18.4360 H   0  0  0  0  0
  -13.4575   26.1766  -17.1042 H   0  0  0  0  0
   -7.6223   23.4173  -16.2831 H   0  0  0  0  0
   -7.6456   25.1591  -16.7519 H   0  0  0  0  0
  -11.1205   21.9030  -21.6854 H   0  0  0  0  0
  -12.6889   18.6822  -21.5442 H   0  0  0  0  0
  1  3  4  0  0  0
  5  1  4  0  0  0
  2  4  4  0  0  0
  5  2  4  0  0  0
  3  7  4  0  0  0
  4  7  4  0  0  0
 12  5  1  0  0  0
  6  8  4  0  0  0
  6  9  1  0  0  0
 17  6  4  0  0  0
  7 22  1  0  0  0
  8 14  1  0  0  0
 15  8  4  0  0  0
  9 16  1  0  0  0
  9 20  2  0  0  0
 14 10  1  0  0  0
 16 10  4  0  0  0
 10 18  2  0  0  0
 11 15  4  0  0  0
 11 17  4  0  0  0
 21 11  1  0  0  0
 13 12  1  0  0  0
 12 19  2  0  0  0
 13 21  1  0  0  0
  1 23  1  0  0  0
  2 24  1  0  0  0
  3 25  1  0  0  0
  4 26  1  0  0  0
 13 27  1  0  0  0
 13 28  1  0  0  0
 14 29  1  0  0  0
 18 30  1  0  0  0
M  END
$$$$
