5u12_ligand
  -I-interpret- 

 29 31  0  0  0  0  0  0  0  0999 V2000
   -2.3420  -12.1610   71.8530 C   0  0  0  0  0
   -1.1080  -11.9920   72.4480 C   0  0  0  0  0
   -2.6280  -11.5000   70.6760 C   0  0  0  0  0
   -0.1610  -11.1630   71.8740 C   0  0  0  0  0
   -1.6860  -10.6650   70.1070 C   0  0  0  0  0
   -3.4510   -5.6780   68.7800 C   0  0  0  0  0
   -0.4480  -10.4990   70.7030 C   0  0  0  0  0
   -3.9500   -5.7870   67.4960 C   0  0  0  0  0
   -3.2620   -4.4180   69.3140 C   0  0  0  0  0
   -4.0500   -3.5150   67.3170 C   0  0  0  0  0
   -3.6510   -7.7800   68.1770 C   0  0  0  0  0
   -1.9330   -9.9370   68.8450 C   0  0  0  0  0
   -4.2610   -4.7140   66.7390 N   0  0  0  0  0
   -4.0760   -7.1040   67.1300 N   0  0  0  0  0
   -3.5680   -3.3400   68.5740 N   0  0  0  0  0
   -3.2590   -6.9730   69.2080 N   0  0  0  0  0
   -4.3450   -2.3520   66.5520 N   0  0  0  0  0
   -2.7580   -4.1900   70.5720 O   0  0  0  0  0
    0.4970   -9.6920   70.1600 F   0  0  0  0  0
   -3.5960   -9.5180   68.3360 S   0  0  0  0  0
   -3.0863  -12.8129   72.3103 H   0  0  0  0  0
   -0.8783  -12.5152   73.3762 H   0  0  0  0  0
   -3.5968  -11.6366   70.1954 H   0  0  0  0  0
    0.8119  -11.0357   72.3487 H   0  0  0  0  0
   -1.5836  -10.6211   68.0717 H   0  0  0  0  0
   -1.4513   -8.9712   68.9976 H   0  0  0  0  0
   -3.4399   -2.4012   68.9517 H   0  0  0  0  0
   -4.7028   -2.4441   65.6013 H   0  0  0  0  0
   -4.1986   -1.4262   66.9544 H   0  0  0  0  0
  1  2  4  0  0  0
  3  1  4  0  0  0
  4  2  4  0  0  0
  5  3  4  0  0  0
  7  4  4  0  0  0
  5  7  4  0  0  0
 12  5  1  0  0  0
  6  8  4  0  0  0
  6  9  1  0  0  0
 16  6  4  0  0  0
  7 19  1  0  0  0
  8 13  1  0  0  0
 14  8  4  0  0  0
  9 15  1  0  0  0
  9 18  2  0  0  0
 13 10  2  0  0  0
 15 10  1  0  0  0
 10 17  1  0  0  0
 11 14  4  0  0  0
 11 16  4  0  0  0
 20 11  1  0  0  0
 12 20  1  0  0  0
  1 21  1  0  0  0
  2 22  1  0  0  0
  3 23  1  0  0  0
  4 24  1  0  0  0
 12 25  1  0  0  0
 12 26  1  0  0  0
 15 27  1  0  0  0
 17 28  1  0  0  0
 17 29  1  0  0  0
M  END
$$$$
