4nnr_ligand
  -I-interpret- 

134137  0  0  0  0  0  0  0  0999 V2000
   19.6430   32.8710    8.8290 C   0  0  0  0  0
   18.2570   32.5570    9.3250 C   0  0  0  0  0
   17.3360   32.4120    8.1180 C   0  0  0  0  0
   16.9890   33.7310    7.4870 C   0  0  0  0  0
   16.3970   34.7020    8.4950 C   0  0  0  0  0
   17.2720   34.8560    9.7260 C   0  0  0  0  0
   17.5350   33.2240   11.5450 C   0  0  0  0  0
   16.9740   34.1170   12.4130 C   0  0  0  0  0
   17.7890   35.1120   13.2100 C   0  0  0  0  0
   19.0970   34.5010   13.6960 C   0  0  0  0  0
   19.9880   35.6290   14.2530 C   0  0  0  0  0
   20.1300   36.7240   13.2080 C   0  0  0  0  0
   18.7450   37.2790   12.9210 C   0  0  0  0  0
   18.6890   38.4930   11.9820 C   0  0  0  0  0
   19.5150   38.3700   10.6830 C   0  0  0  0  0
   19.3050   39.5640    9.7370 C   0  0  0  0  0
   20.2630   40.7340   10.0420 C   0  0  0  0  0
   21.6460   40.4330    9.4950 C   0  0  0  0  0
   22.6700   39.8760   10.3790 C   0  0  0  0  0
   23.9950   39.3620    9.9190 C   0  0  0  0  0
   23.8240   37.9460    9.4940 C   0  0  0  0  0
   23.5680   37.5580    8.0720 C   0  0  0  0  0
   23.2190   36.0750    8.0250 C   0  0  0  0  0
   21.8380   35.6670    8.6240 C   0  0  0  0  0
   21.5570   34.1490    8.5930 C   0  0  0  0  0
   22.6140   33.4740    9.3980 C   0  0  0  0  0
   23.5280   32.5510    8.7550 C   0  0  0  0  0
   24.6690   31.9270    9.5170 C   0  0  0  0  0
   24.6130   30.4010    9.3480 C   0  0  0  0  0
   25.8290   29.7650   10.0010 C   0  0  0  0  0
   27.0590   30.2730    9.2400 C   0  0  0  0  0
   27.1930   31.7840    9.4530 C   0  0  0  0  0
   25.9550   32.5360    8.9780 C   0  0  0  0  0
   18.9030   33.4160   14.7400 C   0  0  0  0  0
   17.8460   40.0410    9.8090 C   0  0  0  0  0
   21.9330   40.7190    8.0550 C   0  0  0  0  0
   24.9810   39.2780   11.0930 C   0  0  0  0  0
   25.4620   40.6480   11.4910 C   0  0  0  0  0
   26.8360   41.0450   11.1860 C   0  0  0  0  0
   20.6350   36.3690    7.9870 C   0  0  0  0  0
   22.7060   33.7730   10.8560 C   0  0  0  0  0
   22.3320   37.1310   13.7480 C   0  0  0  0  0
   18.0340   40.2590   13.3870 C   0  0  0  0  0
   25.4650   27.7910    8.7800 C   0  0  0  0  0
   17.6950   33.5480   10.2510 N   0  0  0  0  0
   20.2950   33.8880    9.1880 O   0  0  0  0  0
   20.1780   31.9580    7.9400 O   0  0  0  0  0
   17.8770   31.9670   12.0460 O   0  0  0  0  0
   15.6000   34.1250   12.5060 O   0  0  0  0  0
   18.0190   36.2150   12.3400 O   0  0  0  0  0
   17.0330   35.5660   14.3550 O   0  0  0  0  0
   21.0410   37.7000   13.6500 O   0  0  0  0  0
   19.0920   39.6430   12.7000 O   0  0  0  0  0
   23.9030   36.9400   10.4620 O   0  0  0  0  0
   23.2690   35.8460    6.6420 O   0  0  0  0  0
   25.6900   28.3550   10.0580 O   0  0  0  0  0
   28.2630   29.6740    9.6640 O   0  0  0  0  0
   18.3341   31.6336    9.8990 H   0  0  0  0  0
   16.4089   31.9516    8.4595 H   0  0  0  0  0
   17.8566   31.8120    7.3716 H   0  0  0  0  0
   16.2481   33.5530    6.7076 H   0  0  0  0  0
   17.9028   34.1692    7.0858 H   0  0  0  0  0
   15.4299   34.3125    8.8131 H   0  0  0  0  0
   16.3112   35.6773    8.0160 H   0  0  0  0  0
   16.6974   35.3692   10.4971 H   0  0  0  0  0
   18.1615   35.4223    9.4498 H   0  0  0  0  0
   17.7940   33.9541   13.1124 H   0  0  0  0  0
   19.5731   34.0136   12.8452 H   0  0  0  0  0
   20.9722   35.2286   14.4963 H   0  0  0  0  0
   19.5320   36.0419   15.1528 H   0  0  0  0  0
   20.5397   36.3352   12.2758 H   0  0  0  0  0
   18.3373   37.6489   13.8618 H   0  0  0  0  0
   17.6543   38.5619   11.6462 H   0  0  0  0  0
   19.1922   37.4680   10.1631 H   0  0  0  0  0
   20.5697   38.3389   10.9565 H   0  0  0  0  0
   19.5303   39.2206    8.7273 H   0  0  0  0  0
   20.3276   40.8709   11.1214 H   0  0  0  0  0
   19.8818   41.6401    9.5710 H   0  0  0  0  0
   22.6354   39.9883    9.3884 H   0  0  0  0  0
   22.1877   38.9770   10.7628 H   0  0  0  0  0
   22.9484   40.7350   10.9894 H   0  0  0  0  0
   24.3549   40.0243    9.1317 H   0  0  0  0  0
   23.8162   38.7169    8.7235 H   0  0  0  0  0
   24.4569   37.7483    7.4706 H   0  0  0  0  0
   22.7421   38.1455    7.6709 H   0  0  0  0  0
   23.8917   35.4811    8.6437 H   0  0  0  0  0
   21.9413   35.9985    9.6572 H   0  0  0  0  0
   21.5547   33.7857    7.5653 H   0  0  0  0  0
   23.3879   32.3040    7.7027 H   0  0  0  0  0
   24.6119   32.1246   10.5874 H   0  0  0  0  0
   24.6054   30.1564    8.2858 H   0  0  0  0  0
   23.7087   30.0191    9.8219 H   0  0  0  0  0
   25.9420   30.0534   11.0461 H   0  0  0  0  0
   26.9034   30.0154    8.1924 H   0  0  0  0  0
   28.0490   32.1361    8.8773 H   0  0  0  0  0
   27.3176   31.9694   10.5199 H   0  0  0  0  0
   26.0219   33.5618    9.3406 H   0  0  0  0  0
   25.9241   32.4842    7.8897 H   0  0  0  0  0
   18.3940   33.8354   15.6078 H   0  0  0  0  0
   18.3012   32.6110   14.3181 H   0  0  0  0  0
   19.8750   33.0253   15.0410 H   0  0  0  0  0
   17.1840   39.2272    9.5129 H   0  0  0  0  0
   17.6148   40.3462   10.8296 H   0  0  0  0  0
   17.7079   40.8868    9.1354 H   0  0  0  0  0
   21.2572   40.1368    7.4286 H   0  0  0  0  0
   21.7860   41.7814    7.8606 H   0  0  0  0  0
   22.9642   40.4465    7.8303 H   0  0  0  0  0
   25.8398   38.6806   10.7869 H   0  0  0  0  0
   24.4739   38.8239   11.9443 H   0  0  0  0  0
   25.4069   40.6553   12.5796 H   0  0  0  0  0
   24.8412   41.3367   10.9179 H   0  0  0  0  0
   27.5280   40.3627   11.6795 H   0  0  0  0  0
   26.9930   41.0070   10.1080 H   0  0  0  0  0
   27.0075   42.0602   11.5439 H   0  0  0  0  0
   20.7323   37.4465    8.1201 H   0  0  0  0  0
   20.6007   36.1347    6.9230 H   0  0  0  0  0
   19.7189   36.0237    8.4661 H   0  0  0  0  0
   22.5707   32.8524   11.4236 H   0  0  0  0  0
   23.6853   34.1973   11.0775 H   0  0  0  0  0
   21.9291   34.4871   11.1289 H   0  0  0  0  0
   22.3106   36.3050   14.4589 H   0  0  0  0  0
   22.6403   36.7622   12.7697 H   0  0  0  0  0
   23.0366   37.8888   14.0906 H   0  0  0  0  0
   17.2683   40.5644   12.6739 H   0  0  0  0  0
   17.6071   39.5547   14.1010 H   0  0  0  0  0
   18.4080   41.1346   13.9177 H   0  0  0  0  0
   24.5504   28.2064    8.3569 H   0  0  0  0  0
   26.3069   28.0240    8.1281 H   0  0  0  0  0
   25.3649   26.7097    8.8740 H   0  0  0  0  0
   15.3274   34.7895   13.1429 H   0  0  0  0  0
   16.8744   34.8263   14.9461 H   0  0  0  0  0
   23.7744   36.0851   10.0447 H   0  0  0  0  0
   23.0636   34.9254    6.4636 H   0  0  0  0  0
   28.9936   30.0306    9.1535 H   0  0  0  0  0
  2  1  1  0  0  0
  1 46  1  0  0  0
  1 47  2  0  0  0
  2  3  1  0  0  0
 45  2  1  0  0  0
  3  4  1  0  0  0
  5  4  1  0  0  0
  6  5  1  0  0  0
 45  6  1  0  0  0
  7  8  1  0  0  0
  7 45  1  0  0  0
  7 48  2  0  0  0
  8  9  1  0  0  0
  8 49  1  0  0  0
  9 10  1  0  0  0
  9 50  1  0  0  0
  9 51  1  0  0  0
 10 11  1  0  0  0
 10 34  1  0  0  0
 11 12  1  0  0  0
 12 13  1  0  0  0
 12 52  1  0  0  0
 13 14  1  0  0  0
 13 50  1  0  0  0
 14 15  1  0  0  0
 14 53  1  0  0  0
 15 16  1  0  0  0
 16 17  1  0  0  0
 16 35  1  0  0  0
 17 18  1  0  0  0
 18 19  1  0  0  0
 18 36  1  0  0  0
 19 20  1  0  0  0
 20 21  1  0  0  0
 20 37  1  0  0  0
 21 22  1  0  0  0
 21 54  1  0  0  0
 22 23  1  0  0  0
 23 24  1  0  0  0
 23 55  1  0  0  0
 24 25  1  0  0  0
 24 40  1  0  0  0
 25 26  1  0  0  0
 25 46  1  0  0  0
 26 27  2  0  0  0
 26 41  1  0  0  0
 27 28  1  0  0  0
 28 29  1  0  0  0
 28 33  1  0  0  0
 29 30  1  0  0  0
 30 31  1  0  0  0
 30 56  1  0  0  0
 31 32  1  0  0  0
 31 57  1  0  0  0
 32 33  1  0  0  0
 37 38  1  0  0  0
 38 39  1  0  0  0
 52 42  1  0  0  0
 53 43  1  0  0  0
 56 44  1  0  0  0
  2 58  1  0  0  0
  3 59  1  0  0  0
  3 60  1  0  0  0
  4 61  1  0  0  0
  4 62  1  0  0  0
  5 63  1  0  0  0
  5 64  1  0  0  0
  6 65  1  0  0  0
  6 66  1  0  0  0
  8 67  1  0  0  0
 10 68  1  0  0  0
 11 69  1  0  0  0
 11 70  1  0  0  0
 12 71  1  0  0  0
 13 72  1  0  0  0
 14 73  1  0  0  0
 15 74  1  0  0  0
 15 75  1  0  0  0
 16 76  1  0  0  0
 17 77  1  0  0  0
 17 78  1  0  0  0
 18 79  1  0  0  0
 19 80  1  0  0  0
 19 81  1  0  0  0
 20 82  1  0  0  0
 21 83  1  0  0  0
 22 84  1  0  0  0
 22 85  1  0  0  0
 23 86  1  0  0  0
 24 87  1  0  0  0
 25 88  1  0  0  0
 27 89  1  0  0  0
 28 90  1  0  0  0
 29 91  1  0  0  0
 29 92  1  0  0  0
 30 93  1  0  0  0
 31 94  1  0  0  0
 32 95  1  0  0  0
 32 96  1  0  0  0
 33 97  1  0  0  0
 33 98  1  0  0  0
 34 99  1  0  0  0
 34100  1  0  0  0
 34101  1  0  0  0
 35102  1  0  0  0
 35103  1  0  0  0
 35104  1  0  0  0
 36105  1  0  0  0
 36106  1  0  0  0
 36107  1  0  0  0
 37108  1  0  0  0
 37109  1  0  0  0
 38110  1  0  0  0
 38111  1  0  0  0
 39112  1  0  0  0
 39113  1  0  0  0
 39114  1  0  0  0
 40115  1  0  0  0
 40116  1  0  0  0
 40117  1  0  0  0
 41118  1  0  0  0
 41119  1  0  0  0
 41120  1  0  0  0
 42121  1  0  0  0
 42122  1  0  0  0
 42123  1  0  0  0
 43124  1  0  0  0
 43125  1  0  0  0
 43126  1  0  0  0
 44127  1  0  0  0
 44128  1  0  0  0
 44129  1  0  0  0
 49130  1  0  0  0
 51131  1  0  0  0
 54132  1  0  0  0
 55133  1  0  0  0
 57134  1  0  0  0
M  END
$$$$
