1ftl_ligand
  -I-interpret- 

 22 23  0  0  0  0  0  0  0  0999 V2000
   28.1460    4.0820   43.2830 O   0  0  0  0  0
   30.2500    2.6800   42.2920 O   0  0  0  0  0
   28.5080    4.2700   42.1470 C   0  0  0  0  0
   29.6780    3.4740   41.5890 C   0  0  0  0  0
   27.9300    5.1800   41.3180 N   0  0  0  0  0
   30.0380    3.7340   40.3080 N   0  0  0  0  0
   28.3280    5.4140   40.0250 C   0  0  0  0  0
   29.4080    4.6790   39.4980 C   0  0  0  0  0
   27.7720    6.4620   39.3140 C   0  0  0  0  0
   29.9230    4.9950   38.2390 C   0  0  0  0  0
   28.2870    6.7720   38.0720 C   0  0  0  0  0
   29.3550    6.0440   37.5350 C   0  0  0  0  0
   27.7040    7.9150   37.3560 N   0  0  0  0  0
   29.8760    6.3300   36.1880 N   0  0  0  0  0
   27.1400    8.7660   38.0170 O   0  0  0  0  0
   29.8640    5.3850   35.4070 O   0  0  0  0  0
   27.7520    7.8850   36.1400 O   0  0  0  0  0
   30.2580    7.4810   35.9150 O   0  0  0  0  0
   27.1483    5.7253   41.6812 H   0  0  0  0  0
   30.8165    3.2068   39.9126 H   0  0  0  0  0
   26.9411    7.0333   39.7278 H   0  0  0  0  0
   30.7541    4.4283   37.8193 H   0  0  0  0  0
  1  3  2  0  0  0
  3  4  1  0  0  0
  3  5  1  0  0  0
  4  6  1  0  0  0
  5  7  1  0  0  0
  6  8  1  0  0  0
  7  8  4  0  0  0
  7  9  4  0  0  0
  8 10  4  0  0  0
  9 11  4  0  0  0
 10 12  4  0  0  0
 11 12  4  0  0  0
 11 13  1  0  0  0
 12 14  1  0  0  0
 13 15  2  0  0  0
 13 17  2  0  0  0
 14 16  2  0  0  0
 14 18  2  0  0  0
  4  2  2  0  0  0
  5 19  1  0  0  0
  6 20  1  0  0  0
  9 21  1  0  0  0
 10 22  1  0  0  0
M  END
$$$$
