4awq_ligand
  -I-interpret- 

 68 72  0  0  0  0  0  0  0  0999 V2000
   -3.9120    5.4300    1.3370 C   0  0  0  0  0
   -3.7550    4.0100    0.7610 C   0  0  0  0  0
   -3.9880    2.9010    1.5940 C   0  0  0  0  0
   -4.3300    3.2070    2.8830 O   0  0  0  0  0
   -4.6800    2.1600    3.7490 C   0  0  0  0  0
   -3.8580    1.5790    1.1330 C   0  0  0  0  0
   -3.5590    1.3490   -0.2100 C   0  0  0  0  0
   -3.3250    2.4370   -1.0470 C   0  0  0  0  0
   -3.4570    3.7530   -0.5790 C   0  0  0  0  0
   -3.2170    4.8950   -1.5650 C   0  0  0  0  0
   -2.3640    5.7480   -1.3680 O   0  0  0  0  0
   -4.0030    4.8290   -2.6540 N   0  0  0  0  0
   -3.9700    5.7980   -3.7550 C   0  0  0  0  0
   -2.6360    5.7390   -4.5990 C   0  0  0  0  0
   -5.2270    5.5630   -4.6840 C   0  0  0  0  0
   -5.0020    4.4430   -5.7550 C   0  0  0  0  0
   -4.5990    3.1240   -5.1460 C   0  0  0  0  0
   -3.0430    3.2230   -5.1030 C   0  0  0  0  0
   -2.6520    4.6090   -5.6440 C   0  0  0  0  0
   -3.8360    4.9150   -6.4890 N   0  0  0  0  0
   -3.8800    5.7400   -7.6010 C   0  0  0  0  0
   -5.1130    6.0120   -8.2490 C   0  0  0  0  0
   -5.1160    6.8580   -9.3490 C   0  0  0  0  0
   -2.7370    6.3510   -8.0200 N   0  0  0  0  0
   -2.6980    7.1440   -9.0980 C   0  0  0  0  0
   -3.8930    7.4400   -9.7670 C   0  0  0  0  0
   -3.8420    8.3160  -10.9840 C   0  0  0  0  0
   -2.7770    8.7960  -11.3660 O   0  0  0  0  0
   -5.0430    8.5070  -11.5980 N   0  0  0  0  0
   -5.1160    9.2520  -12.8890 C   0  0  0  0  0
   -5.0190   10.7640  -12.7700 C   0  0  0  0  0
   -4.7600   11.5310  -13.9090 C   0  0  0  0  0
   -4.6820   12.9200  -13.8150 C   0  0  0  0  0
   -4.8850   13.5300  -12.5690 C   0  0  0  0  0
   -5.1180   12.7830  -11.4190 C   0  0  0  0  0
   -5.2050   11.3760  -11.5160 C   0  0  0  0  0
   -4.9339    5.5661    1.6911 H   0  0  0  0  0
   -3.2178    5.5629    2.1668 H   0  0  0  0  0
   -3.6950    6.1622    0.5593 H   0  0  0  0  0
   -5.5457    1.6327    3.3482 H   0  0  0  0  0
   -3.8418    1.4691    3.8391 H   0  0  0  0  0
   -4.9235    2.5677    4.7301 H   0  0  0  0  0
   -3.9896    0.7418    1.8185 H   0  0  0  0  0
   -3.5092    0.3319   -0.5988 H   0  0  0  0  0
   -3.0344    2.2633   -2.0831 H   0  0  0  0  0
   -4.6647    4.0555   -2.7187 H   0  0  0  0  0
   -4.0015    6.7957   -3.3171 H   0  0  0  0  0
   -1.8106    5.5515   -3.9123 H   0  0  0  0  0
   -2.5296    6.6860   -5.1281 H   0  0  0  0  0
   -5.4232    6.4940   -5.2159 H   0  0  0  0  0
   -6.0543    5.2496   -4.0472 H   0  0  0  0  0
   -5.9132    4.2808   -6.3307 H   0  0  0  0  0
   -4.9535    2.2669   -5.7185 H   0  0  0  0  0
   -5.0405    2.9583   -4.1633 H   0  0  0  0  0
   -2.5944    2.4367   -5.7101 H   0  0  0  0  0
   -2.6813    3.0965   -4.0826 H   0  0  0  0  0
   -1.6564    4.5716   -6.0862 H   0  0  0  0  0
   -6.0399    5.5650   -7.8896 H   0  0  0  0  0
   -6.0425    7.0712   -9.8822 H   0  0  0  0  0
   -1.7510    7.5531   -9.4499 H   0  0  0  0  0
   -5.8949    8.1397  -11.1740 H   0  0  0  0  0
   -6.0926    9.0341  -13.3212 H   0  0  0  0  0
   -4.2623    8.9296  -13.4851 H   0  0  0  0  0
   -4.6186   11.0424  -14.8730 H   0  0  0  0  0
   -4.4664   13.5227  -14.6972 H   0  0  0  0  0
   -4.8596   14.6175  -12.4997 H   0  0  0  0  0
   -5.2321   13.2772  -10.4542 H   0  0  0  0  0
   -5.4132   10.7730  -10.6322 H   0  0  0  0  0
  1  2  1  0  0  0
  2  3  4  0  0  0
  2  9  4  0  0  0
  3  4  1  0  0  0
  3  6  4  0  0  0
  4  5  1  0  0  0
  6  7  4  0  0  0
  7  8  4  0  0  0
  8  9  4  0  0  0
  9 10  1  0  0  0
 10 11  2  0  0  0
 10 12  1  0  0  0
 12 13  1  0  0  0
 13 14  1  0  0  0
 13 15  1  0  0  0
 14 19  1  0  0  0
 15 16  1  0  0  0
 16 17  1  0  0  0
 16 20  1  0  0  0
 17 18  1  0  0  0
 18 19  1  0  0  0
 19 20  1  0  0  0
 20 21  1  0  0  0
 21 22  4  0  0  0
 21 24  4  0  0  0
 22 23  4  0  0  0
 23 26  4  0  0  0
 24 25  4  0  0  0
 25 26  4  0  0  0
 26 27  1  0  0  0
 27 28  2  0  0  0
 27 29  1  0  0  0
 29 30  1  0  0  0
 30 31  1  0  0  0
 31 32  4  0  0  0
 31 36  4  0  0  0
 32 33  4  0  0  0
 33 34  4  0  0  0
 34 35  4  0  0  0
 35 36  4  0  0  0
  1 37  1  0  0  0
  1 38  1  0  0  0
  1 39  1  0  0  0
  5 40  1  0  0  0
  5 41  1  0  0  0
  5 42  1  0  0  0
  6 43  1  0  0  0
  7 44  1  0  0  0
  8 45  1  0  0  0
 12 46  1  0  0  0
 13 47  1  0  0  0
 14 48  1  0  0  0
 14 49  1  0  0  0
 15 50  1  0  0  0
 15 51  1  0  0  0
 16 52  1  0  0  0
 17 53  1  0  0  0
 17 54  1  0  0  0
 18 55  1  0  0  0
 18 56  1  0  0  0
 19 57  1  0  0  0
 22 58  1  0  0  0
 23 59  1  0  0  0
 25 60  1  0  0  0
 29 61  1  0  0  0
 30 62  1  0  0  0
 30 63  1  0  0  0
 32 64  1  0  0  0
 33 65  1  0  0  0
 34 66  1  0  0  0
 35 67  1  0  0  0
 36 68  1  0  0  0
M  END
$$$$
