4og7_ligand
  -I-interpret- 

 69 72  0  0  0  0  0  0  0  0999 V2000
  -10.5320   19.1560  -13.1580 C   0  0  0  0  0
  -10.0510   20.3970  -13.5670 C   0  0  0  0  0
   -8.6830   20.5970  -13.6800 C   0  0  0  0  0
   -8.1540   22.2090  -14.2480 S   0  0  0  0  0
   -8.2720   22.1950  -15.7240 O   0  0  0  0  0
   -6.7790   22.3800  -13.6800 O   0  0  0  0  0
   -9.1440   23.2950  -13.6840 N   0  0  0  0  0
   -7.7840   19.5760  -13.3710 C   0  0  0  0  0
   -8.2740   18.3390  -12.9890 C   0  0  0  0  0
   -9.6670   18.1310  -12.8580 C   0  0  0  0  0
  -10.2170   16.9590  -12.4950 O   0  0  0  0  0
   -9.3850   15.8420  -12.0990 C   0  0  0  0  0
  -10.3580   14.9320  -11.3600 C   0  0  0  0  0
  -11.1420   14.1630  -12.3970 C   0  0  0  0  0
  -12.0540   13.1460  -11.7450 N   0  3  0  0  0
  -11.4890   11.9550  -11.0140 C   0  0  0  0  0
  -12.5720   11.2430  -10.1720 C   0  0  0  0  0
  -13.0120   12.7470  -12.7520 C   0  0  0  0  0
  -14.1830   11.9850  -12.1060 C   0  0  0  0  0
  -13.6240   10.7700  -11.2940 C   0  0  0  0  0
  -14.7560    9.8860  -10.6580 C   0  0  0  0  0
  -15.7040    9.3460  -11.7670 C   0  0  0  0  0
  -15.1730    8.3510  -12.7450 C   0  0  0  0  0
  -16.3980    8.1180  -13.6020 C   0  0  0  0  0
  -17.4500    7.9640  -12.5240 C   0  0  0  0  0
  -16.9190    8.6750  -11.2780 C   0  0  0  0  0
  -15.4530   10.7800   -9.8400 O   0  0  0  0  0
  -14.2510    8.8040   -9.8910 C   0  0  0  0  0
  -13.2650    8.0210  -10.4200 N   0  0  0  0  0
  -12.7440    6.9060   -9.7400 C   0  0  0  0  0
  -13.2070    6.6110   -8.4690 C   0  0  0  0  0
  -14.2670    7.3850   -7.9350 C   0  0  0  0  0
  -14.7550    8.5040   -8.6170 C   0  0  0  0  0
  -11.6069   18.9956  -13.0748 H   0  0  0  0  0
  -10.7446   21.2058  -13.7968 H   0  0  0  0  0
   -9.7224   23.8393  -14.3240 H   0  0  0  0  0
   -9.2072   23.4544  -12.6785 H   0  0  0  0  0
   -6.7096   19.7500  -13.4296 H   0  0  0  0  0
   -7.5826   17.5207  -12.7880 H   0  0  0  0  0
   -8.5390   16.1444  -11.4818 H   0  0  0  0  0
   -8.9085   15.3498  -12.9468 H   0  0  0  0  0
  -11.0296   15.5210  -10.7354 H   0  0  0  0  0
   -9.8168   14.2469  -10.7075 H   0  0  0  0  0
  -10.4413   13.6382  -13.0464 H   0  0  0  0  0
  -11.7518   14.8652  -12.9655 H   0  0  0  0  0
  -12.4473   13.6383  -10.9429 H   0  0  0  0  0
  -10.7025   12.3019  -10.3438 H   0  0  0  0  0
  -11.1032   11.2490  -11.7494 H   0  0  0  0  0
  -13.0160   11.8864   -9.4123 H   0  0  0  0  0
  -12.1792   10.4179   -9.5778 H   0  0  0  0  0
  -12.5187   12.0951  -13.4730 H   0  0  0  0  0
  -13.3982   13.6377  -13.2475 H   0  0  0  0  0
  -14.8573   11.6253  -12.8832 H   0  0  0  0  0
  -14.7274   12.6515  -11.4370 H   0  0  0  0  0
  -13.0998   10.1425  -12.0148 H   0  0  0  0  0
  -15.8769   10.3074  -12.2506 H   0  0  0  0  0
  -14.7742    7.4465  -12.2857 H   0  0  0  0  0
  -14.3016    8.6968  -13.3011 H   0  0  0  0  0
  -16.3187    7.2665  -14.2778 H   0  0  0  0  0
  -16.6025    8.9125  -14.3196 H   0  0  0  0  0
  -17.6390    6.9107  -12.3165 H   0  0  0  0  0
  -18.3967    8.3998  -12.8433 H   0  0  0  0  0
  -17.6410    9.3709  -10.8507 H   0  0  0  0  0
  -16.7185    7.9888  -10.4552 H   0  0  0  0  0
  -16.1738   10.3186   -9.4050 H   0  0  0  0  0
  -11.9839    6.2807  -10.2084 H   0  0  0  0  0
  -12.7650    5.7996   -7.8907 H   0  0  0  0  0
  -14.7084    7.1041   -6.9788 H   0  0  0  0  0
  -15.5186    9.1360   -8.1636 H   0  0  0  0  0
  1  2  4  0  0  0
  1 10  4  0  0  0
  2  3  4  0  0  0
  3  4  1  0  0  0
  3  8  4  0  0  0
  4  5  2  0  0  0
  4  6  2  0  0  0
  4  7  1  0  0  0
  8  9  4  0  0  0
  9 10  4  0  0  0
 10 11  1  0  0  0
 11 12  1  0  0  0
 12 13  1  0  0  0
 13 14  1  0  0  0
 14 15  1  0  0  0
 15 16  1  0  0  0
 15 18  1  0  0  0
 16 17  1  0  0  0
 17 20  1  0  0  0
 18 19  1  0  0  0
 19 20  1  0  0  0
 20 21  1  0  0  0
 21 22  1  0  0  0
 21 27  1  0  0  0
 21 28  1  0  0  0
 22 23  1  0  0  0
 22 26  1  0  0  0
 23 24  1  0  0  0
 24 25  1  0  0  0
 25 26  1  0  0  0
 28 29  4  0  0  0
 28 33  4  0  0  0
 29 30  4  0  0  0
 30 31  4  0  0  0
 31 32  4  0  0  0
 32 33  4  0  0  0
  1 34  1  0  0  0
  2 35  1  0  0  0
  7 36  1  0  0  0
  7 37  1  0  0  0
  8 38  1  0  0  0
  9 39  1  0  0  0
 12 40  1  0  0  0
 12 41  1  0  0  0
 13 42  1  0  0  0
 13 43  1  0  0  0
 14 44  1  0  0  0
 14 45  1  0  0  0
 15 46  1  0  0  0
 16 47  1  0  0  0
 16 48  1  0  0  0
 17 49  1  0  0  0
 17 50  1  0  0  0
 18 51  1  0  0  0
 18 52  1  0  0  0
 19 53  1  0  0  0
 19 54  1  0  0  0
 20 55  1  0  0  0
 22 56  1  0  0  0
 23 57  1  0  0  0
 23 58  1  0  0  0
 24 59  1  0  0  0
 24 60  1  0  0  0
 25 61  1  0  0  0
 25 62  1  0  0  0
 26 63  1  0  0  0
 26 64  1  0  0  0
 27 65  1  0  0  0
 30 66  1  0  0  0
 31 67  1  0  0  0
 32 68  1  0  0  0
 33 69  1  0  0  0
M  END
$$$$
