5jyp_ligand
  -I-interpret- 

 62 66  0  0  0  0  0  0  0  0999 V2000
   -0.2920   -5.2600   76.7500 C   0  0  0  0  0
   -1.4870   -4.9130   76.1420 C   0  0  0  0  0
   -2.2570   -5.8900   75.5190 C   0  0  0  0  0
   -1.8360   -7.2150   75.5000 C   0  0  0  0  0
   -0.6390   -7.5680   76.1070 C   0  0  0  0  0
    0.1290   -6.5860   76.7300 C   0  0  0  0  0
   -0.1600   -9.0120   76.0980 C   0  0  0  0  0
    1.2100   -9.1460   76.7430 C   0  0  0  0  0
    3.7090   -8.9100   76.4760 C   0  0  0  0  0
    5.9300   -9.0350   77.7170 C   0  0  0  0  0
    7.0970   -9.1720   78.6920 C   0  0  0  0  0
    8.3480   -9.6090   77.9450 C   0  0  0  0  0
    9.0310   -8.4900   77.1790 C   0  0  0  0  0
    9.3160   -7.2850   78.0390 C   0  0  0  0  0
    8.0210   -6.7930   78.6380 C   0  0  0  0  0
    7.2910   -7.8620   79.4410 C   0  0  0  0  0
    8.3300   -5.5990   79.5320 C   0  0  0  0  0
    8.6140   -3.2930   80.6380 C   0  0  0  0  0
    8.9570   -0.8960   80.0750 C   0  0  0  0  0
    8.9100    0.5580   80.5220 C   0  0  0  0  0
    7.4660    0.9390   80.7880 C   0  0  0  0  0
    6.5430    0.9050   79.7440 C   0  0  0  0  0
    5.2130    1.2350   79.9660 C   0  0  0  0  0
    4.8080    1.5980   81.2410 C   0  0  0  0  0
    5.7240    1.6280   82.2870 C   0  0  0  0  0
    7.0530    1.2960   82.0640 C   0  0  0  0  0
    2.3720   -8.8500   75.9750 N   0  0  0  0  0
    5.9950   -8.7610   76.4000 N   0  0  0  0  0
    4.8160   -8.6870   75.7440 N   0  0  0  0  0
    9.0750   -4.3540   81.3290 N   0  0  0  0  0
    8.9280   -5.5670   80.7380 N   0  0  0  0  0
    8.6140   -1.9190   81.0030 N   0  0  0  0  0
    1.3010   -9.5080   77.9000 O   0  0  0  0  0
    9.2810   -1.1860   78.9370 O   0  0  0  0  0
    4.2650   -9.2070   78.0750 S   0  0  0  0  0
    7.9800   -3.9670   79.1960 S   0  0  0  0  0
    0.3148   -4.4992   77.2410 H   0  0  0  0  0
   -1.8236   -3.8763   76.1516 H   0  0  0  0  0
   -3.1976   -5.6146   75.0421 H   0  0  0  0  0
   -2.4447   -7.9746   75.0095 H   0  0  0  0  0
    1.0701   -6.8598   77.2070 H   0  0  0  0  0
   -0.0896   -9.3469   75.0631 H   0  0  0  0  0
   -0.8696   -9.6156   76.6640 H   0  0  0  0  0
    6.8815   -9.9426   79.4322 H   0  0  0  0  0
    8.0442  -10.3612   77.2170 H   0  0  0  0  0
    9.0579   -9.9732   78.6876 H   0  0  0  0  0
    8.3628   -8.1777   76.3765 H   0  0  0  0  0
    9.9835   -8.8703   76.8098 H   0  0  0  0  0
    9.7635   -6.4976   77.4325 H   0  0  0  0  0
   10.0098   -7.5565   78.8346 H   0  0  0  0  0
    7.3572   -6.5146   77.8195 H   0  0  0  0  0
    7.8986   -8.0783   80.3197 H   0  0  0  0  0
    6.3000   -7.4721   79.6735 H   0  0  0  0  0
    9.3243    1.1982   79.7432 H   0  0  0  0  0
    9.4997    0.6854   81.4298 H   0  0  0  0  0
    6.8684    0.6167   78.7445 H   0  0  0  0  0
    4.4948    1.2089   79.1465 H   0  0  0  0  0
    3.7663    1.8613   81.4247 H   0  0  0  0  0
    5.3966    1.9136   83.2867 H   0  0  0  0  0
    7.7683    1.3155   82.8863 H   0  0  0  0  0
    2.2412   -8.5766   75.0011 H   0  0  0  0  0
    8.3612   -1.6592   81.9564 H   0  0  0  0  0
  1  2  4  0  0  0
  6  1  4  0  0  0
  3  2  4  0  0  0
  4  3  4  0  0  0
  5  4  4  0  0  0
  5  6  4  0  0  0
  7  5  1  0  0  0
  8  7  1  0  0  0
 27  8  1  0  0  0
  8 33  2  0  0  0
  9 27  1  0  0  0
  9 29  4  0  0  0
 35  9  4  0  0  0
 11 10  1  0  0  0
 10 28  4  0  0  0
 10 35  4  0  0  0
 11 12  1  0  0  0
 16 11  1  0  0  0
 13 12  1  0  0  0
 14 13  1  0  0  0
 15 14  1  0  0  0
 15 16  1  0  0  0
 17 15  1  0  0  0
 17 31  4  0  0  0
 36 17  4  0  0  0
 18 30  4  0  0  0
 32 18  1  0  0  0
 18 36  4  0  0  0
 19 20  1  0  0  0
 19 32  1  0  0  0
 19 34  2  0  0  0
 20 21  1  0  0  0
 21 22  4  0  0  0
 21 26  4  0  0  0
 22 23  4  0  0  0
 23 24  4  0  0  0
 24 25  4  0  0  0
 25 26  4  0  0  0
 28 29  4  0  0  0
 30 31  4  0  0  0
  1 37  1  0  0  0
  2 38  1  0  0  0
  3 39  1  0  0  0
  4 40  1  0  0  0
  6 41  1  0  0  0
  7 42  1  0  0  0
  7 43  1  0  0  0
 11 44  1  0  0  0
 12 45  1  0  0  0
 12 46  1  0  0  0
 13 47  1  0  0  0
 13 48  1  0  0  0
 14 49  1  0  0  0
 14 50  1  0  0  0
 15 51  1  0  0  0
 16 52  1  0  0  0
 16 53  1  0  0  0
 20 54  1  0  0  0
 20 55  1  0  0  0
 22 56  1  0  0  0
 23 57  1  0  0  0
 24 58  1  0  0  0
 25 59  1  0  0  0
 26 60  1  0  0  0
 27 61  1  0  0  0
 32 62  1  0  0  0
M  END
$$$$
