### 
### Created by X-TOOL on Sun Sep  9 21:52:17 2018
### 

@<TRIPOS>MOLECULE
4iut_ligand
  143   142     1     0     0
SMALL
GAST_HUCK


@<TRIPOS>ATOM
      1 N          19.6070  -41.0640   14.2780 N.4       1 NON         0.2398
      2 CA         21.0070  -41.0770   13.8690 C.3       1 NON         0.0910
      3 C          21.2600  -40.0760   12.7440 C.2       1 NON         0.2293
      4 O          20.4510  -39.9430   11.8250 O.2       1 NON        -0.3906
      5 CB         21.4500  -42.4840   13.4170 C.3       1 NON         0.1120
      6 OG1        22.8290  -42.4540   13.0280 O.3       1 NON        -0.3840
      7 CG2        20.6040  -42.9630   12.2460 C.3       1 NON        -0.0314
      8 N          22.3840  -39.3700   12.8240 N.am      1 NON        -0.2609
      9 CA         22.7280  -38.3680   11.8210 C.3       1 NON         0.1311
     10 C          23.1860  -38.9890   10.5070 C.2       1 NON         0.2039
     11 O          23.6000  -40.1470   10.4610 O.2       1 NON        -0.3944
     12 CB         23.8170  -37.4270   12.3390 C.3       1 NON        -0.0122
     13 CG         23.3410  -36.3810   13.3270 C.3       1 NON        -0.0440
     14 CD         24.4220  -35.3360   13.5440 C.3       1 NON        -0.0124
     15 CE         24.1070  -34.4310   14.7200 C.3       1 NON        -0.0354
     16 NZ         25.2420  -33.5100   15.0040 N.4       1 NON         0.2185
     17 N          23.1130  -38.1990    9.4410 N.am      1 NON        -0.2636
     18 CA         23.5980  -38.6190    8.1360 C.3       1 NON         0.1330
     19 C          25.1190  -38.6170    8.1500 C.2       1 NON         0.2041
     20 O          25.7380  -38.1620    9.1120 O.2       1 NON        -0.3944
     21 CB         23.0960  -37.6620    7.0550 C.3       1 NON         0.0045
     22 CG         21.6750  -37.1760    7.2740 C.3       1 NON         0.0412
     23 CD         20.6980  -37.7490    6.2740 C.2       1 NON         0.1737
     24 OE1        20.9130  -37.6680    5.0650 O.2       1 NON        -0.3973
     25 NE2        19.6230  -38.3450    6.7720 N.am      1 NON        -0.3009
     26 N          25.7210  -39.1250    7.0820 N.am      1 NON        -0.2613
     27 CA         27.1720  -39.1120    6.9600 C.3       1 NON         0.1565
     28 C          27.6310  -37.9370    6.1120 C.2       1 NON         0.2065
     29 O          27.1960  -37.7690    4.9710 O.2       1 NON        -0.3943
     30 CB         27.7130  -40.4220    6.3680 C.3       1 NON         0.0924
     31 OG1        27.6620  -41.4500    7.3630 O.3       1 NON        -0.3874
     32 CG2        29.1540  -40.2420    5.9160 C.3       1 NON        -0.0346
     33 N          28.5100  -37.1220    6.6810 N.am      1 NON        -0.2639
     34 CA         29.0050  -35.9410    5.9920 C.3       1 NON         0.1282
     35 C          29.9900  -36.3110    4.8940 C.2       1 NON         0.2036
     36 O          30.6490  -37.3490    4.9470 O.2       1 NON        -0.3944
     37 CB         29.6440  -34.9790    6.9800 C.3       1 NON        -0.0244
     38 N          30.0650  -35.4450    3.8940 N.am      1 NON        -0.2637
     39 CA         31.0360  -35.5460    2.8260 C.3       1 NON         0.1311
     40 C          31.8210  -34.2450    2.9020 C.2       1 NON         0.2039
     41 O          31.3370  -33.2270    2.4150 O.2       1 NON        -0.3944
     42 CB         30.2980  -35.5970    1.4880 C.3       1 NON        -0.0092
     43 CG         30.9940  -36.3440    0.3630 C.3       1 NON        -0.0156
     44 CD         30.5090  -35.8500   -1.0000 C.3       1 NON         0.0627
     45 NE         29.0580  -35.6750   -1.0570 N.pl3     1 NON        -0.2723
     46 CZ         28.4150  -35.1110   -2.0760 C.cat     1 NON         0.2882
     47 NH1        27.0940  -34.9890   -2.0490 N.pl3     1 NON        -0.2849
     48 NH2        29.0950  -34.6660   -3.1230 N.pl3     1 NON        -0.2849
     49 N          32.9860  -34.2320    3.5250 N.am      1 NON        -0.2637
     50 CA         33.7560  -32.9780    3.5340 C.3       1 NON         0.1309
     51 CB         34.8940  -32.9600    4.5470 C.3       1 NON        -0.0122
     52 CG         34.3860  -33.0020    5.9550 C.3       1 NON        -0.0440
     53 CD         35.5750  -32.7570    6.8380 C.3       1 NON        -0.0123
     54 CE         35.1600  -32.6600    8.2710 C.3       1 NON        -0.0324
     55 NZ         36.2520  -32.0230    9.0180 N.4       1 NON         0.2309
     56 CH1        35.8650  -31.8790   10.4360 C.3       1 NON        -0.0433
     57 CH2        37.4000  -32.8980    8.9740 C.3       1 NON        -0.0433
     58 C          34.2210  -32.6620    2.1280 C.2       1 NON         0.2034
     59 O          34.5930  -33.5850    1.3690 O.2       1 NON        -0.3944
     60 N          34.1840  -31.3800    1.8000 N.am      1 NON        -0.2672
     61 CA         34.6330  -30.8780    0.5210 C.3       1 NON         0.1173
     62 C          35.9470  -31.5360    0.1200 C.2       1 NON         0.0623
     63 O          36.9424  -31.5124    0.8922 O.co2     1 NON        -0.5665
     64 CB         34.8050  -29.3650    0.6180 C.3       1 NON         0.0789
     65 OG         35.0220  -28.7960   -0.6550 O.3       1 NON        -0.3910
     66 O          36.0396  -32.1108   -0.9974 O.co2     1 NON        -0.5665
     67 H1         19.3499  -40.1330   14.5666 H         1 NON         0.2016
     68 H2         19.4756  -41.7024   15.0469 H         1 NON         0.2016
     69 H3         19.0279  -41.3475   13.5032 H         1 NON         0.2016
     70 H4         21.6171  -40.7851   14.7365 H         1 NON         0.1125
     71 H5         21.3268  -43.1837   14.2568 H         1 NON         0.0674
     72 H6         22.9411  -41.8420   12.3101 H         1 NON         0.2102
     73 H7         20.9358  -43.9661   11.9401 H         1 NON         0.0258
     74 H8         20.7174  -42.2662   11.4024 H         1 NON         0.0258
     75 H9         19.5474  -43.0030   12.5491 H         1 NON         0.0258
     76 H10        23.0077  -39.5295   13.5892 H         1 NON         0.1884
     77 H11        21.8246  -37.7737   11.6195 H         1 NON         0.0800
     78 H12        24.2572  -36.9062   11.4759 H         1 NON         0.0312
     79 H13        24.5887  -38.0364   12.8322 H         1 NON         0.0312
     80 H14        23.1069  -36.8664   14.2859 H         1 NON         0.0269
     81 H15        22.4375  -35.8930   12.9328 H         1 NON         0.0269
     82 H16        24.5097  -34.7214   12.6360 H         1 NON         0.0317
     83 H17        25.3773  -35.8470   13.7346 H         1 NON         0.0317
     84 H18        23.9151  -35.0499   15.6089 H         1 NON         0.0813
     85 H19        23.2113  -33.8366   14.4866 H         1 NON         0.0813
     86 H20        25.0084  -32.9206   15.7877 H         1 NON         0.1994
     87 H21        25.4205  -32.9370   14.1942 H         1 NON         0.1994
     88 H22        26.0654  -34.0488   15.2225 H         1 NON         0.1994
     89 H23        22.7124  -37.2880    9.5392 H         1 NON         0.1883
     90 H24        23.2337  -39.6342    7.9201 H         1 NON         0.0801
     91 H25        23.1388  -38.1811    6.0861 H         1 NON         0.0337
     92 H26        23.7615  -36.7865    7.0316 H         1 NON         0.0337
     93 H27        21.6619  -36.0794    7.1890 H         1 NON         0.0504
     94 H28        21.3554  -37.4693    8.2848 H         1 NON         0.0504
     95 H29        18.9419  -38.7427    6.1573 H         1 NON         0.1814
     96 H30        19.4936  -38.3967    7.7622 H         1 NON         0.1814
     97 H31        25.1693  -39.5232    6.3491 H         1 NON         0.1884
     98 H32        27.5937  -38.9949    7.9692 H         1 NON         0.0826
     99 H33        27.0946  -40.7134    5.5062 H         1 NON         0.0639
    100 H34        27.9966  -42.2603    6.9970 H         1 NON         0.2101
    101 H35        29.5270  -41.1873    5.4949 H         1 NON         0.0257
    102 H36        29.7751  -39.9538    6.7769 H         1 NON         0.0257
    103 H37        29.2022  -39.4548    5.1492 H         1 NON         0.0257
    104 H38        28.8391  -37.3243    7.6034 H         1 NON         0.1883
    105 H39        28.1478  -35.4347    5.5242 H         1 NON         0.0797
    106 H40        30.0124  -34.0927    6.4427 H         1 NON         0.0277
    107 H41        30.4846  -35.4770    7.4854 H         1 NON         0.0277
    108 H42        28.8975  -34.6709    7.7269 H         1 NON         0.0277
    109 H43        29.4177  -34.6830    3.8765 H         1 NON         0.1883
    110 H44        31.6873  -36.4239    2.9486 H         1 NON         0.0800
    111 H45        30.1382  -34.5613    1.1538 H         1 NON         0.0313
    112 H46        29.3253  -36.0810    1.6601 H         1 NON         0.0313
    113 H47        30.7766  -37.4183    0.4551 H         1 NON         0.0301
    114 H48        32.0792  -36.1816    0.4399 H         1 NON         0.0301
    115 H49        30.8047  -36.5831   -1.7649 H         1 NON         0.0689
    116 H50        30.9880  -34.8832   -1.2141 H         1 NON         0.0689
    117 H51        28.4994  -36.0091   -0.2587 H         1 NON         0.2642
    118 H52        26.6009  -34.5516   -2.8405 H         1 NON         0.2615
    119 H53        26.5617  -35.3317   -1.2366 H         1 NON         0.2615
    120 H54        30.1205  -34.7586   -3.1482 H         1 NON         0.2615
    121 H55        28.5979  -34.2276   -3.9114 H         1 NON         0.2615
    122 H56        33.3351  -35.0522    3.9782 H         1 NON         0.1883
    123 H57        33.0627  -32.1785    3.8341 H         1 NON         0.0800
    124 H58        35.4804  -32.0399    4.4074 H         1 NON         0.0312
    125 H59        35.5380  -33.8350    4.3747 H         1 NON         0.0312
    126 H60        33.9464  -33.9866    6.1723 H         1 NON         0.0269
    127 H61        33.6284  -32.2198    6.1103 H         1 NON         0.0269
    128 H62        36.0593  -31.8160    6.5382 H         1 NON         0.0317
    129 H63        36.2865  -33.5881    6.7240 H         1 NON         0.0317
    130 H64        34.9697  -33.6659    8.6734 H         1 NON         0.0814
    131 H65        34.2467  -32.0527    8.3548 H         1 NON         0.0814
    132 H66        36.4716  -31.1240    8.6186 H         1 NON         0.2028
    133 H67        36.6846  -31.4017   10.9931 H         1 NON         0.0777
    134 H68        35.6610  -32.8719   10.8631 H         1 NON         0.0777
    135 H69        34.9613  -31.2561   10.5080 H         1 NON         0.0777
    136 H70        37.7199  -33.0308    7.9300 H         1 NON         0.0777
    137 H71        37.1329  -33.8751    9.4028 H         1 NON         0.0777
    138 H72        38.2216  -32.4545    9.5556 H         1 NON         0.0777
    139 H73        33.8283  -30.7275    2.4692 H         1 NON         0.1876
    140 H74        33.8744  -31.1066   -0.2421 H         1 NON         0.0749
    141 H75        35.6677  -29.1420    1.2630 H         1 NON         0.0599
    142 H76        33.8962  -28.9274    1.0569 H         1 NON         0.0599
    143 H77        35.1256  -27.8558   -0.5669 H         1 NON         0.2096
@<TRIPOS>BOND
     1    1    2 1  
     2    2    3 1  
     3    2    5 1  
     4    3    4 2  
     5    3    8 am 
     6    5    6 1  
     7    5    7 1  
     8    8    9 1  
     9    9   10 1  
    10    9   12 1  
    11   10   11 2  
    12   10   17 am 
    13   12   13 1  
    14   13   14 1  
    15   14   15 1  
    16   15   16 1  
    17   17   18 1  
    18   18   19 1  
    19   18   21 1  
    20   19   20 2  
    21   19   26 am 
    22   21   22 1  
    23   22   23 1  
    24   23   24 2  
    25   23   25 am 
    26   26   27 1  
    27   27   28 1  
    28   27   30 1  
    29   28   29 2  
    30   28   33 am 
    31   30   31 1  
    32   30   32 1  
    33   33   34 1  
    34   34   35 1  
    35   34   37 1  
    36   35   36 2  
    37   35   38 am 
    38   38   39 1  
    39   39   40 1  
    40   39   42 1  
    41   40   41 2  
    42   40   49 am 
    43   42   43 1  
    44   43   44 1  
    45   44   45 1  
    46   45   46 ar 
    47   46   47 ar 
    48   46   48 ar 
    49   49   50 1  
    50   50   51 1  
    51   50   58 1  
    52   51   52 1  
    53   52   53 1  
    54   53   54 1  
    55   54   55 1  
    56   55   56 1  
    57   55   57 1  
    58   58   59 2  
    59   58   60 am 
    60   60   61 1  
    61   61   62 1  
    62   61   64 1  
    63   62   63 ar 
    64   64   65 1  
    65   62   66 ar 
    66    1   67 1  
    67    1   68 1  
    68    1   69 1  
    69    2   70 1  
    70    5   71 1  
    71    6   72 1  
    72    7   73 1  
    73    7   74 1  
    74    7   75 1  
    75    8   76 1  
    76    9   77 1  
    77   12   78 1  
    78   12   79 1  
    79   13   80 1  
    80   13   81 1  
    81   14   82 1  
    82   14   83 1  
    83   15   84 1  
    84   15   85 1  
    85   16   86 1  
    86   16   87 1  
    87   16   88 1  
    88   17   89 1  
    89   18   90 1  
    90   21   91 1  
    91   21   92 1  
    92   22   93 1  
    93   22   94 1  
    94   25   95 1  
    95   25   96 1  
    96   26   97 1  
    97   27   98 1  
    98   30   99 1  
    99   31  100 1  
   100   32  101 1  
   101   32  102 1  
   102   32  103 1  
   103   33  104 1  
   104   34  105 1  
   105   37  106 1  
   106   37  107 1  
   107   37  108 1  
   108   38  109 1  
   109   39  110 1  
   110   42  111 1  
   111   42  112 1  
   112   43  113 1  
   113   43  114 1  
   114   44  115 1  
   115   44  116 1  
   116   45  117 1  
   117   47  118 1  
   118   47  119 1  
   119   48  120 1  
   120   48  121 1  
   121   49  122 1  
   122   50  123 1  
   123   51  124 1  
   124   51  125 1  
   125   52  126 1  
   126   52  127 1  
   127   53  128 1  
   128   53  129 1  
   129   54  130 1  
   130   54  131 1  
   131   55  132 1  
   132   56  133 1  
   133   56  134 1  
   134   56  135 1  
   135   57  136 1  
   136   57  137 1  
   137   57  138 1  
   138   60  139 1  
   139   61  140 1  
   140   64  141 1  
   141   64  142 1  
   142   65  143 1  
@<TRIPOS>SUBSTRUCTURE
     1 NON         1

