4iut_ligand
  -I-interpret- 

143142  0  0  0  0  0  0  0  0999 V2000
   19.6070  -41.0640   14.2780 N   0  3  0  0  0
   21.0070  -41.0770   13.8690 C   0  0  0  0  0
   21.2600  -40.0760   12.7440 C   0  0  0  0  0
   20.4510  -39.9430   11.8250 O   0  0  0  0  0
   21.4500  -42.4840   13.4170 C   0  0  0  0  0
   22.8290  -42.4540   13.0280 O   0  0  0  0  0
   20.6040  -42.9630   12.2460 C   0  0  0  0  0
   22.3840  -39.3700   12.8240 N   0  0  0  0  0
   22.7280  -38.3680   11.8210 C   0  0  0  0  0
   23.1860  -38.9890   10.5070 C   0  0  0  0  0
   23.6000  -40.1470   10.4610 O   0  0  0  0  0
   23.8170  -37.4270   12.3390 C   0  0  0  0  0
   23.3410  -36.3810   13.3270 C   0  0  0  0  0
   24.4220  -35.3360   13.5440 C   0  0  0  0  0
   24.1070  -34.4310   14.7200 C   0  0  0  0  0
   25.2420  -33.5100   15.0040 N   0  3  0  0  0
   23.1130  -38.1990    9.4410 N   0  0  0  0  0
   23.5980  -38.6190    8.1360 C   0  0  0  0  0
   25.1190  -38.6170    8.1500 C   0  0  0  0  0
   25.7380  -38.1620    9.1120 O   0  0  0  0  0
   23.0960  -37.6620    7.0550 C   0  0  0  0  0
   21.6750  -37.1760    7.2740 C   0  0  0  0  0
   20.6980  -37.7490    6.2740 C   0  0  0  0  0
   20.9130  -37.6680    5.0650 O   0  0  0  0  0
   19.6230  -38.3450    6.7720 N   0  0  0  0  0
   25.7210  -39.1250    7.0820 N   0  0  0  0  0
   27.1720  -39.1120    6.9600 C   0  0  0  0  0
   27.6310  -37.9370    6.1120 C   0  0  0  0  0
   27.1960  -37.7690    4.9710 O   0  0  0  0  0
   27.7130  -40.4220    6.3680 C   0  0  0  0  0
   27.6620  -41.4500    7.3630 O   0  0  0  0  0
   29.1540  -40.2420    5.9160 C   0  0  0  0  0
   28.5100  -37.1220    6.6810 N   0  0  0  0  0
   29.0050  -35.9410    5.9920 C   0  0  0  0  0
   29.9900  -36.3110    4.8940 C   0  0  0  0  0
   30.6490  -37.3490    4.9470 O   0  0  0  0  0
   29.6440  -34.9790    6.9800 C   0  0  0  0  0
   30.0650  -35.4450    3.8940 N   0  0  0  0  0
   31.0360  -35.5460    2.8260 C   0  0  0  0  0
   31.8210  -34.2450    2.9020 C   0  0  0  0  0
   31.3370  -33.2270    2.4150 O   0  0  0  0  0
   30.2980  -35.5970    1.4880 C   0  0  0  0  0
   30.9940  -36.3440    0.3630 C   0  0  0  0  0
   30.5090  -35.8500   -1.0000 C   0  0  0  0  0
   29.0580  -35.6750   -1.0570 N   0  0  0  0  0
   28.4150  -35.1110   -2.0760 C   0  0  0  0  0
   27.0940  -34.9890   -2.0490 N   0  0  0  0  0
   29.0950  -34.6660   -3.1230 N   0  0  0  0  0
   32.9860  -34.2320    3.5250 N   0  0  0  0  0
   33.7560  -32.9780    3.5340 C   0  0  0  0  0
   34.8940  -32.9600    4.5470 C   0  0  0  0  0
   34.3860  -33.0020    5.9550 C   0  0  0  0  0
   35.5750  -32.7570    6.8380 C   0  0  0  0  0
   35.1600  -32.6600    8.2710 C   0  0  0  0  0
   36.2520  -32.0230    9.0180 N   0  3  0  0  0
   35.8650  -31.8790   10.4360 C   0  0  0  0  0
   37.4000  -32.8980    8.9740 C   0  0  0  0  0
   34.2210  -32.6620    2.1280 C   0  0  0  0  0
   34.5930  -33.5850    1.3690 O   0  0  0  0  0
   34.1840  -31.3800    1.8000 N   0  0  0  0  0
   34.6330  -30.8780    0.5210 C   0  0  0  0  0
   35.9470  -31.5360    0.1200 C   0  0  0  0  0
   36.9424  -31.5124    0.8922 O   0  0  0  0  0
   34.8050  -29.3650    0.6180 C   0  0  0  0  0
   35.0220  -28.7960   -0.6550 O   0  0  0  0  0
   36.0396  -32.1108   -0.9974 O   0  0  0  0  0
   19.3480  -40.1216   14.5698 H   0  0  0  0  0
   19.0221  -41.3510   13.4932 H   0  0  0  0  0
   19.4753  -41.7104   15.0560 H   0  0  0  0  0
   21.5962  -40.7894   14.7398 H   0  0  0  0  0
   21.3171  -43.1733   14.2509 H   0  0  0  0  0
   23.3622  -42.1518   13.7669 H   0  0  0  0  0
   20.7306  -42.2812   11.4051 H   0  0  0  0  0
   20.9223  -43.9640   11.9549 H   0  0  0  0  0
   19.5553  -42.9856   12.5423 H   0  0  0  0  0
   23.0202  -39.5327   13.6045 H   0  0  0  0  0
   21.8149  -37.8047   11.6284 H   0  0  0  0  0
   24.2066  -36.8896   11.4744 H   0  0  0  0  0
   24.5458  -38.0461   12.8622 H   0  0  0  0  0
   23.1150  -36.8641   14.2776 H   0  0  0  0  0
   22.4490  -35.8955   12.9313 H   0  0  0  0  0
   24.4867  -34.7202   12.6469 H   0  0  0  0  0
   25.3592  -35.8522   13.7518 H   0  0  0  0  0
   23.9304  -35.0498   15.5998 H   0  0  0  0  0
   23.2264  -33.8362   14.4773 H   0  0  0  0  0
   25.0045  -32.9142   15.7971 H   0  0  0  0  0
   26.0745  -34.0563   15.2249 H   0  0  0  0  0
   25.4217  -32.9308   14.1839 H   0  0  0  0  0
   22.7044  -37.2698    9.5411 H   0  0  0  0  0
   23.2284  -39.6210    7.9179 H   0  0  0  0  0
   23.1105  -38.2048    6.1099 H   0  0  0  0  0
   23.7441  -36.7858    7.0720 H   0  0  0  0  0
   21.6721  -36.0921    7.1593 H   0  0  0  0  0
   21.3622  -37.4975    8.2674 H   0  0  0  0  0
   18.9335  -38.7599    6.1452 H   0  0  0  0  0
   19.4857  -38.3885    7.7818 H   0  0  0  0  0
   25.1582  -39.5311    6.3345 H   0  0  0  0  0
   27.5734  -39.0079    7.9680 H   0  0  0  0  0
   27.1002  -40.6992    5.5103 H   0  0  0  0  0
   28.0001  -42.2688    6.9931 H   0  0  0  0  0
   29.2004  -39.4618    5.1563 H   0  0  0  0  0
   29.7683  -39.9564    6.7699 H   0  0  0  0  0
   29.5224  -41.1793    5.4990 H   0  0  0  0  0
   28.8457  -37.3283    7.6218 H   0  0  0  0  0
   28.1544  -35.4472    5.5223 H   0  0  0  0  0
   28.9034  -34.6746    7.7195 H   0  0  0  0  0
   30.4766  -35.4737    7.4801 H   0  0  0  0  0
   30.0086  -34.1012    6.4465 H   0  0  0  0  0
   29.4048  -34.6677    3.8761 H   0  0  0  0  0
   31.6682  -36.4297    2.9123 H   0  0  0  0  0
   30.2042  -34.5638    1.1537 H   0  0  0  0  0
   29.3662  -36.1306    1.6756 H   0  0  0  0  0
   30.7657  -37.4060    0.4530 H   0  0  0  0  0
   32.0675  -36.1702    0.4377 H   0  0  0  0  0
   30.7841  -36.5984   -1.7431 H   0  0  0  0  0
   30.9695  -34.8797   -1.1862 H   0  0  0  0  0
   28.5048  -36.0059   -0.2665 H   0  0  0  0  0
   26.6059  -34.5542   -2.8320 H   0  0  0  0  0
   26.5667  -35.3301   -1.2453 H   0  0  0  0  0
   30.1107  -34.7560   -3.1472 H   0  0  0  0  0
   33.3421  -35.0686    3.9873 H   0  0  0  0  0
   33.0896  -32.1848    3.8728 H   0  0  0  0  0
   35.4570  -32.0363    4.4134 H   0  0  0  0  0
   35.5149  -33.8403    4.3804 H   0  0  0  0  0
   33.9238  -33.9639    6.1770 H   0  0  0  0  0
   33.6151  -32.2486    6.1168 H   0  0  0  0  0
   36.0445  -31.8184    6.5434 H   0  0  0  0  0
   36.2714  -33.5884    6.7290 H   0  0  0  0  0
   34.9584  -33.6531    8.6726 H   0  0  0  0  0
   34.2484  -32.0690    8.3597 H   0  0  0  0  0
   36.4561  -31.1105    8.6104 H   0  0  0  0  0
   34.9694  -31.2616   10.5060 H   0  0  0  0  0
   35.6631  -32.8635   10.8580 H   0  0  0  0  0
   36.6779  -31.4059   10.9869 H   0  0  0  0  0
   37.1434  -33.8551    9.4281 H   0  0  0  0  0
   37.6965  -33.0544    7.9368 H   0  0  0  0  0
   38.2236  -32.4426    9.5239 H   0  0  0  0  0
   33.8212  -30.7145    2.4826 H   0  0  0  0  0
   33.8921  -31.1147   -0.2427 H   0  0  0  0  0
   36.7114  -31.0410    1.6959 H   0  0  0  0  0
   35.6690  -29.1517    1.2474 H   0  0  0  0  0
   33.8963  -28.9370    1.0412 H   0  0  0  0  0
   35.1267  -27.8459   -0.5660 H   0  0  0  0  0
  1  2  1  0  0  0
  2  3  1  0  0  0
  2  5  1  0  0  0
  3  4  2  0  0  0
  3  8  1  0  0  0
  5  6  1  0  0  0
  5  7  1  0  0  0
  8  9  1  0  0  0
  9 10  1  0  0  0
  9 12  1  0  0  0
 10 11  2  0  0  0
 10 17  1  0  0  0
 12 13  1  0  0  0
 13 14  1  0  0  0
 14 15  1  0  0  0
 15 16  1  0  0  0
 17 18  1  0  0  0
 18 19  1  0  0  0
 18 21  1  0  0  0
 19 20  2  0  0  0
 19 26  1  0  0  0
 21 22  1  0  0  0
 22 23  1  0  0  0
 23 24  2  0  0  0
 23 25  1  0  0  0
 26 27  1  0  0  0
 27 28  1  0  0  0
 27 30  1  0  0  0
 28 29  2  0  0  0
 28 33  1  0  0  0
 30 31  1  0  0  0
 30 32  1  0  0  0
 33 34  1  0  0  0
 34 35  1  0  0  0
 34 37  1  0  0  0
 35 36  2  0  0  0
 35 38  1  0  0  0
 38 39  1  0  0  0
 39 40  1  0  0  0
 39 42  1  0  0  0
 40 41  2  0  0  0
 40 49  1  0  0  0
 42 43  1  0  0  0
 43 44  1  0  0  0
 44 45  1  0  0  0
 45 46  1  0  0  0
 46 47  1  0  0  0
 46 48  2  0  0  0
 49 50  1  0  0  0
 50 51  1  0  0  0
 50 58  1  0  0  0
 51 52  1  0  0  0
 52 53  1  0  0  0
 53 54  1  0  0  0
 54 55  1  0  0  0
 55 56  1  0  0  0
 55 57  1  0  0  0
 58 59  2  0  0  0
 58 60  1  0  0  0
 60 61  1  0  0  0
 61 62  1  0  0  0
 61 64  1  0  0  0
 62 63  1  0  0  0
 64 65  1  0  0  0
 62 66  2  0  0  0
  1 67  1  0  0  0
  1 68  1  0  0  0
  1 69  1  0  0  0
  2 70  1  0  0  0
  5 71  1  0  0  0
  6 72  1  0  0  0
  7 73  1  0  0  0
  7 74  1  0  0  0
  7 75  1  0  0  0
  8 76  1  0  0  0
  9 77  1  0  0  0
 12 78  1  0  0  0
 12 79  1  0  0  0
 13 80  1  0  0  0
 13 81  1  0  0  0
 14 82  1  0  0  0
 14 83  1  0  0  0
 15 84  1  0  0  0
 15 85  1  0  0  0
 16 86  1  0  0  0
 16 87  1  0  0  0
 16 88  1  0  0  0
 17 89  1  0  0  0
 18 90  1  0  0  0
 21 91  1  0  0  0
 21 92  1  0  0  0
 22 93  1  0  0  0
 22 94  1  0  0  0
 25 95  1  0  0  0
 25 96  1  0  0  0
 26 97  1  0  0  0
 27 98  1  0  0  0
 30 99  1  0  0  0
 31100  1  0  0  0
 32101  1  0  0  0
 32102  1  0  0  0
 32103  1  0  0  0
 33104  1  0  0  0
 34105  1  0  0  0
 37106  1  0  0  0
 37107  1  0  0  0
 37108  1  0  0  0
 38109  1  0  0  0
 39110  1  0  0  0
 42111  1  0  0  0
 42112  1  0  0  0
 43113  1  0  0  0
 43114  1  0  0  0
 44115  1  0  0  0
 44116  1  0  0  0
 45117  1  0  0  0
 47118  1  0  0  0
 47119  1  0  0  0
 48120  1  0  0  0
 49121  1  0  0  0
 50122  1  0  0  0
 51123  1  0  0  0
 51124  1  0  0  0
 52125  1  0  0  0
 52126  1  0  0  0
 53127  1  0  0  0
 53128  1  0  0  0
 54129  1  0  0  0
 54130  1  0  0  0
 55131  1  0  0  0
 56132  1  0  0  0
 56133  1  0  0  0
 56134  1  0  0  0
 57135  1  0  0  0
 57136  1  0  0  0
 57137  1  0  0  0
 60138  1  0  0  0
 61139  1  0  0  0
 63140  1  0  0  0
 64141  1  0  0  0
 64142  1  0  0  0
 65143  1  0  0  0
M  END
$$$$
