3su5_ligand
  -I-interpret- 

106111  0  0  0  0  0  0  0  0999 V2000
  -13.2070   -8.3430   14.1530 C   0  0  0  0  0
  -15.0550   -9.7890   13.6030 N   0  0  0  0  0
  -13.3730   -7.5950   13.1870 O   0  0  0  0  0
  -13.6660   -9.7990   14.1300 C   0  0  0  0  0
  -12.8890  -10.6190   13.1400 C   0  0  0  0  0
  -13.9210  -11.6480   12.7010 C   0  0  0  0  0
  -16.0400   -9.0460   14.0850 C   0  0  0  0  0
  -15.7870   -8.2880   15.0310 O   0  0  0  0  0
  -17.4290   -9.0470   13.4430 C   0  0  0  0  0
  -18.4200   -9.3070   14.4980 N   0  0  0  0  0
  -18.9420  -10.5040   14.6680 C   0  0  0  0  0
  -19.8030  -10.5890   15.7100 O   0  0  0  0  0
  -17.7230   -7.7300   12.7010 C   0  0  0  0  0
  -18.7480  -11.4570   13.9140 O   0  0  0  0  0
  -13.4460  -13.6590   13.9000 C   0  0  0  0  0
  -12.4700  -13.8470   13.1580 O   0  0  0  0  0
  -13.6830  -14.4700   14.8970 N   0  0  0  0  0
  -13.5910   -4.2920   15.5080 C   0  0  0  0  0
  -14.0810   -4.1140   14.0650 C   0  0  0  0  0
  -17.8200   -6.5130   13.6400 C   0  0  0  0  0
  -12.5730   -7.9790   15.2670 N   0  0  0  0  0
  -12.2550   -6.6000   15.5880 C   0  0  0  0  0
  -11.0320   -5.9510   14.9610 C   0  0  0  0  0
  -13.5290   -5.7720   15.8970 C   0  0  0  0  0
  -12.5520   -6.1440   17.0110 C   0  0  0  0  0
  -12.8870  -15.6250   15.3330 C   0  0  0  0  0
  -13.5740  -16.1360   16.5770 C   0  0  0  0  0
  -14.7230  -15.3930   16.8350 C   0  0  0  0  0
  -14.8540  -14.2910   15.7820 C   0  0  0  0  0
  -13.2410  -17.1940   17.4080 C   0  0  0  0  0
  -14.0330  -17.5020   18.4960 C   0  0  0  0  0
  -15.1710  -16.7590   18.7510 C   0  0  0  0  0
  -15.5310  -15.6890   17.9390 C   0  0  0  0  0
  -16.8510  -15.0390   18.3620 C   0  0  0  0  0
  -10.2650   -6.7480   14.2520 N   0  0  0  0  0
  -10.7920   -4.7750   15.2180 O   0  0  0  0  0
   -9.0000   -6.0590   13.5690 S   0  0  0  0  0
   -8.2520   -7.3520   12.5800 C   0  0  0  0  0
   -9.4250   -4.9830   12.6280 O   0  0  0  0  0
   -7.9920   -5.6090   14.5520 O   0  0  0  0  0
   -6.8170   -7.0550   12.1740 C   0  0  0  0  0
   -7.1160   -8.0870   13.2750 C   0  0  0  0  0
  -16.8620  -13.5820   18.6990 C   0  0  0  0  0
  -18.3460  -13.1880   18.7590 C   0  0  0  0  0
  -18.8630  -12.8890   17.3500 C   0  0  0  0  0
  -20.2910  -12.3570   17.3220 C   0  0  0  0  0
  -20.4830  -11.8340   15.9170 C   0  0  0  0  0
  -21.3220  -13.4690   17.5450 C   0  0  0  0  0
  -20.4790  -11.2430   18.3670 C   0  0  0  0  0
  -16.6380   -7.4910   11.6620 C   0  0  0  0  0
  -19.0650   -7.8660   11.9750 C   0  0  0  0  0
  -15.1760  -10.7870   12.5220 C   0  0  0  0  0
  -14.2760  -12.6070   13.7300 O   0  0  0  0  0
  -13.5487  -10.2143   15.1309 H   0  0  0  0  0
  -11.9879  -11.0645   13.5616 H   0  0  0  0  0
  -12.4872  -10.0317   12.3144 H   0  0  0  0  0
  -13.5462  -12.2087   11.8447 H   0  0  0  0  0
  -17.4786   -9.8306   12.6870 H   0  0  0  0  0
  -18.7090   -8.5445   15.1107 H   0  0  0  0  0
  -14.2889   -3.7870   16.1759 H   0  0  0  0  0
  -12.5892   -3.8702   15.5884 H   0  0  0  0  0
  -13.3978   -4.6232   13.3852 H   0  0  0  0  0
  -15.0791   -4.5409   13.9663 H   0  0  0  0  0
  -14.1130   -3.0519   13.8219 H   0  0  0  0  0
  -18.6238   -6.6733   14.3585 H   0  0  0  0  0
  -16.8760   -6.3890   14.1706 H   0  0  0  0  0
  -18.0286   -5.6185   13.0530 H   0  0  0  0  0
  -12.2974   -8.7060   15.9272 H   0  0  0  0  0
  -14.5900   -5.9130   15.6909 H   0  0  0  0  0
  -12.0277   -5.6456   17.8264 H   0  0  0  0  0
  -12.5917   -6.5815   18.0085 H   0  0  0  0  0
  -11.9914  -16.0274   14.8596 H   0  0  0  0  0
  -15.6386  -13.5387   15.7017 H   0  0  0  0  0
  -12.3493  -17.7859   17.2015 H   0  0  0  0  0
  -13.7619  -18.3289   19.1524 H   0  0  0  0  0
  -15.7978  -17.0169   19.6047 H   0  0  0  0  0
  -17.1310  -15.5445   19.2862 H   0  0  0  0  0
  -17.5027  -15.1326   17.4933 H   0  0  0  0  0
  -10.4658   -7.7424   14.1456 H   0  0  0  0  0
   -9.1554   -7.6599   12.0535 H   0  0  0  0  0
   -6.1721   -6.1913   12.0123 H   0  0  0  0  0
   -6.2215   -6.9746   11.2646 H   0  0  0  0  0
   -6.8396   -9.1074   13.5404 H   0  0  0  0  0
   -6.7902   -8.3245   14.2877 H   0  0  0  0  0
  -16.3219  -12.9953   17.9559 H   0  0  0  0  0
  -16.3574  -13.3863   19.6451 H   0  0  0  0  0
  -18.4569  -12.2984   19.3789 H   0  0  0  0  0
  -18.9195  -14.0111   19.1852 H   0  0  0  0  0
  -18.8531  -13.8261   16.7933 H   0  0  0  0  0
  -18.2199  -12.1194   16.9231 H   0  0  0  0  0
  -20.0727  -12.5663   15.2216 H   0  0  0  0  0
  -21.5488  -11.6711   15.7565 H   0  0  0  0  0
  -21.2217  -14.2185   16.7599 H   0  0  0  0  0
  -21.1498  -13.9330   18.5162 H   0  0  0  0  0
  -22.3252  -13.0436   17.5169 H   0  0  0  0  0
  -20.2703  -11.6397   19.3606 H   0  0  0  0  0
  -19.7936  -10.4237   18.1501 H   0  0  0  0  0
  -21.5058  -10.8794   18.3278 H   0  0  0  0  0
  -15.6698   -7.4247   12.1583 H   0  0  0  0  0
  -16.6280   -8.3181   10.9521 H   0  0  0  0  0
  -16.8415   -6.5596   11.1337 H   0  0  0  0  0
  -19.0095   -8.6891   11.2627 H   0  0  0  0  0
  -19.8516   -8.0659   12.7026 H   0  0  0  0  0
  -19.2855   -6.9394   11.4450 H   0  0  0  0  0
  -15.2370  -10.3319   11.5335 H   0  0  0  0  0
  -16.0970  -11.3666   12.5850 H   0  0  0  0  0
  1  3  2  0  0  0
  1  4  1  0  0  0
 21  1  1  0  0  0
  4  2  1  0  0  0
  2  7  1  0  0  0
  2 52  1  0  0  0
  4  5  1  0  0  0
  5  6  1  0  0  0
  6 52  1  0  0  0
  6 53  1  0  0  0
  7  8  2  0  0  0
  7  9  1  0  0  0
  9 10  1  0  0  0
  9 13  1  0  0  0
 10 11  1  0  0  0
 11 12  1  0  0  0
 11 14  2  0  0  0
 12 47  1  0  0  0
 13 20  1  0  0  0
 13 50  1  0  0  0
 13 51  1  0  0  0
 15 16  2  0  0  0
 15 17  1  0  0  0
 53 15  1  0  0  0
 17 26  4  0  0  0
 17 29  4  0  0  0
 18 19  1  0  0  0
 24 18  1  0  0  0
 22 21  1  0  0  0
 22 23  1  0  0  0
 22 24  1  0  0  0
 22 25  1  0  0  0
 23 35  1  0  0  0
 23 36  2  0  0  0
 24 25  1  0  0  0
 26 27  4  0  0  0
 27 28  4  0  0  0
 27 30  4  0  0  0
 28 29  4  0  0  0
 28 33  4  0  0  0
 30 31  4  0  0  0
 31 32  4  0  0  0
 32 33  4  0  0  0
 33 34  1  0  0  0
 34 43  1  0  0  0
 35 37  1  0  0  0
 37 38  1  0  0  0
 37 39  2  0  0  0
 37 40  2  0  0  0
 38 41  1  0  0  0
 38 42  1  0  0  0
 41 42  1  0  0  0
 43 44  1  0  0  0
 44 45  1  0  0  0
 45 46  1  0  0  0
 46 47  1  0  0  0
 46 48  1  0  0  0
 46 49  1  0  0  0
  4 54  1  0  0  0
  5 55  1  0  0  0
  5 56  1  0  0  0
  6 57  1  0  0  0
  9 58  1  0  0  0
 10 59  1  0  0  0
 18 60  1  0  0  0
 18 61  1  0  0  0
 19 62  1  0  0  0
 19 63  1  0  0  0
 19 64  1  0  0  0
 20 65  1  0  0  0
 20 66  1  0  0  0
 20 67  1  0  0  0
 21 68  1  0  0  0
 24 69  1  0  0  0
 25 70  1  0  0  0
 25 71  1  0  0  0
 26 72  1  0  0  0
 29 73  1  0  0  0
 30 74  1  0  0  0
 31 75  1  0  0  0
 32 76  1  0  0  0
 34 77  1  0  0  0
 34 78  1  0  0  0
 35 79  1  0  0  0
 38 80  1  0  0  0
 41 81  1  0  0  0
 41 82  1  0  0  0
 42 83  1  0  0  0
 42 84  1  0  0  0
 43 85  1  0  0  0
 43 86  1  0  0  0
 44 87  1  0  0  0
 44 88  1  0  0  0
 45 89  1  0  0  0
 45 90  1  0  0  0
 47 91  1  0  0  0
 47 92  1  0  0  0
 48 93  1  0  0  0
 48 94  1  0  0  0
 48 95  1  0  0  0
 49 96  1  0  0  0
 49 97  1  0  0  0
 49 98  1  0  0  0
 50 99  1  0  0  0
 50100  1  0  0  0
 50101  1  0  0  0
 51102  1  0  0  0
 51103  1  0  0  0
 51104  1  0  0  0
 52105  1  0  0  0
 52106  1  0  0  0
M  END
$$$$
