### 
### Created by X-TOOL on Mon Sep 10 21:13:02 2018
### 

@<TRIPOS>MOLECULE
3lw0_ligand
   63    67     1     0     0
SMALL
GAST_HUCK


@<TRIPOS>ATOM
      1 C1         -1.7020  -22.5570  -56.0160 C.ar      1 CCX        -0.0084
      2 C2         -0.5290  -22.6360  -56.7460 C.ar      1 CCX         0.0688
      3 C3         -2.4910  -21.4040  -56.0170 C.ar      1 CCX        -0.0371
      4 C4         -0.0740  -21.5530  -57.5000 C.ar      1 CCX        -0.0349
      5 C5         -2.0470  -20.3140  -56.7880 C.ar      1 CCX         0.0786
      6 C6         -0.8480  -20.3940  -57.5210 C.ar      1 CCX        -0.0432
      7 C7         -1.8670  -23.7750  -55.3800 C.2       1 CCX        -0.0423
      8 C8         -0.7720  -24.5640  -55.7380 C.2       1 CCX         0.0190
      9 N9          0.0190  -23.8580  -56.5610 N.pl3     1 CCX        -0.2849
     10 C10        -3.0190  -24.1540  -54.4620 C.3       1 CCX        -0.0357
     11 C11        -2.8280  -19.1130  -56.8110 C.1       1 CCX         0.0887
     12 N12        -3.4780  -18.1500  -56.8000 N.1       1 CCX        -0.3361
     13 C13        -2.5680  -24.1880  -53.0010 C.3       1 CCX        -0.0503
     14 C14        -3.6820  -24.5270  -52.0160 C.3       1 CCX        -0.0706
     15 C15        -4.4390  -23.2640  -51.5930 C.3       1 CCX        -0.1129
     16 C16        -6.8630  -24.4190  -48.8430 C.3       1 CCX        -0.0487
     17 C17        -7.2920  -22.9860  -48.5370 C.3       1 CCX         0.0376
     18 C18        -5.5740  -24.3320  -49.6840 C.3       1 CCX        -0.1109
     19 C19        -7.6570  -22.3370  -49.8680 C.3       1 CCX        -0.0487
     20 N20        -5.7470  -23.5410  -50.9450 N.4       1 CCX         0.4030
     21 C21        -6.3960  -22.2250  -50.7270 C.3       1 CCX        -0.1109
     22 N22        -8.4220  -22.9300  -47.5980 N.am      1 CCX        -0.2848
     23 C23        -8.6310  -21.7860  -46.7580 C.2       1 CCX         0.1998
     24 C24        -9.7980  -21.7450  -45.8590 C.ar      1 CCX         0.0710
     25 C25       -12.0510  -21.6110  -44.1710 C.ar      1 CCX        -0.0655
     26 C26       -11.1960  -22.6980  -44.1560 C.ar      1 CCX         0.0125
     27 C27       -11.7710  -20.5710  -45.0510 C.ar      1 CCX        -0.0706
     28 C28       -10.0950  -22.7730  -44.9750 C.ar      1 CCX         0.0951
     29 C29       -10.6520  -20.6400  -45.8900 C.ar      1 CCX        -0.0539
     30 C30       -11.2350  -23.8400  -43.3980 C.2       1 CCX         0.0998
     31 C31       -10.1430  -24.6000  -43.7770 C.2       1 CCX         0.0744
     32 N32        -9.4650  -23.9330  -44.7360 N.pl3     1 CCX        -0.2559
     33 C33       -12.2270  -24.1630  -42.4200 C.1       1 CCX         0.0596
     34 N34       -13.0930  -24.3560  -41.6660 N.1       1 CCX        -0.3652
     35 O35        -7.8690  -20.8450  -46.7670 O.2       1 CCX        -0.3894
     36 H          -3.4156  -21.3509  -55.4422 H         1 CCX         0.0671
     37 H           0.8610  -21.6120  -58.0571 H         1 CCX         0.0561
     38 H          -0.5207  -19.5389  -58.1124 H         1 CCX         0.0611
     39 H          -0.5896  -25.5854  -55.4040 H         1 CCX         0.0801
     40 H           0.8893  -24.1886  -56.9778 H         1 CCX         0.2240
     41 H          -3.3763  -25.1454  -54.7406 H         1 CCX         0.0352
     42 H          -3.8087  -23.4100  -54.5668 H         1 CCX         0.0352
     43 H          -2.2073  -23.1904  -52.7505 H         1 CCX         0.0279
     44 H          -1.8112  -24.9676  -52.9142 H         1 CCX         0.0279
     45 H          -3.2405  -24.9846  -51.1307 H         1 CCX         0.0247
     46 H          -4.3811  -25.2102  -52.4983 H         1 CCX         0.0247
     47 H          -4.6381  -22.6856  -52.4952 H         1 CCX         0.0017
     48 H          -3.8189  -22.7406  -50.8652 H         1 CCX         0.0017
     49 H          -7.6447  -24.9482  -49.3879 H         1 CCX         0.0268
     50 H          -6.6864  -24.9744  -47.9219 H         1 CCX         0.0268
     51 H          -6.4760  -22.4528  -48.0492 H         1 CCX         0.0554
     52 H          -5.2931  -25.3469  -49.9656 H         1 CCX         0.0018
     53 H          -4.8176  -23.8310  -49.0799 H         1 CCX         0.0018
     54 H          -8.0726  -21.3447  -49.6924 H         1 CCX         0.0268
     55 H          -8.4007  -22.9452  -50.3828 H         1 CCX         0.0268
     56 H          -5.6879  -21.5799  -50.2069 H         1 CCX         0.0018
     57 H          -6.6826  -21.8233  -51.6989 H         1 CCX         0.0018
     58 H          -9.0679  -23.7175  -47.5429 H         1 CCX         0.1844
     59 H         -12.9187  -21.5706  -43.5126 H         1 CCX         0.0585
     60 H         -12.4246  -19.6995  -45.0877 H         1 CCX         0.0540
     61 H         -10.4444  -19.8197  -46.5771 H         1 CCX         0.0598
     62 H          -9.8745  -25.5747  -43.3696 H         1 CCX         0.1210
     63 H          -8.6166  -24.2568  -45.2004 H         1 CCX         0.2390
@<TRIPOS>BOND
     1    1    2 ar 
     2    1    3 ar 
     3    7    1 1  
     4    2    4 ar 
     5    9    2 1  
     6    3    5 ar 
     7    4    6 ar 
     8    5    6 ar 
     9    5   11 1  
    10    7    8 2  
    11   10    7 1  
    12    8    9 1  
    13   13   10 1  
    14   11   12 3  
    15   14   13 1  
    16   15   14 1  
    17   20   15 1  
    18   17   16 1  
    19   16   18 1  
    20   17   19 1  
    21   22   17 1  
    22   18   20 1  
    23   19   21 1  
    24   21   20 1  
    25   23   22 am 
    26   24   23 1  
    27   23   35 2  
    28   28   24 ar 
    29   24   29 ar 
    30   26   25 ar 
    31   25   27 ar 
    32   26   28 ar 
    33   26   30 1  
    34   27   29 ar 
    35   28   32 1  
    36   30   31 2  
    37   30   33 1  
    38   31   32 1  
    39   33   34 3  
    40    3   36 1  
    41    4   37 1  
    42    6   38 1  
    43    8   39 1  
    44    9   40 1  
    45   10   41 1  
    46   10   42 1  
    47   13   43 1  
    48   13   44 1  
    49   14   45 1  
    50   14   46 1  
    51   15   47 1  
    52   15   48 1  
    53   16   49 1  
    54   16   50 1  
    55   17   51 1  
    56   18   52 1  
    57   18   53 1  
    58   19   54 1  
    59   19   55 1  
    60   21   56 1  
    61   21   57 1  
    62   22   58 1  
    63   25   59 1  
    64   27   60 1  
    65   29   61 1  
    66   31   62 1  
    67   32   63 1  
@<TRIPOS>SUBSTRUCTURE
     1 CCX         1

