3lw0_ligand
  -I-interpret- 

 62 66  0  0  0  0  0  0  0  0999 V2000
   -1.7020  -22.5570  -56.0160 C   0  0  0  0  0
   -0.5290  -22.6360  -56.7460 C   0  0  0  0  0
   -2.4910  -21.4040  -56.0170 C   0  0  0  0  0
   -0.0740  -21.5530  -57.5000 C   0  0  0  0  0
   -2.0470  -20.3140  -56.7880 C   0  0  0  0  0
   -0.8480  -20.3940  -57.5210 C   0  0  0  0  0
   -1.8670  -23.7750  -55.3800 C   0  0  0  0  0
   -0.7720  -24.5640  -55.7380 C   0  0  0  0  0
    0.0190  -23.8580  -56.5610 N   0  0  0  0  0
   -3.0190  -24.1540  -54.4620 C   0  0  0  0  0
   -2.8280  -19.1130  -56.8110 C   0  0  0  0  0
   -3.4780  -18.1500  -56.8000 N   0  0  0  0  0
   -2.5680  -24.1880  -53.0010 C   0  0  0  0  0
   -3.6820  -24.5270  -52.0160 C   0  0  0  0  0
   -4.4390  -23.2640  -51.5930 C   0  0  0  0  0
   -6.8630  -24.4190  -48.8430 C   0  0  0  0  0
   -7.2920  -22.9860  -48.5370 C   0  0  0  0  0
   -5.5740  -24.3320  -49.6840 C   0  0  0  0  0
   -7.6570  -22.3370  -49.8680 C   0  0  0  0  0
   -5.7470  -23.5410  -50.9450 N   0  3  0  0  0
   -6.3960  -22.2250  -50.7270 C   0  0  0  0  0
   -8.4220  -22.9300  -47.5980 N   0  0  0  0  0
   -8.6310  -21.7860  -46.7580 C   0  0  0  0  0
   -9.7980  -21.7450  -45.8590 C   0  0  0  0  0
  -12.0510  -21.6110  -44.1710 C   0  0  0  0  0
  -11.1960  -22.6980  -44.1560 C   0  0  0  0  0
  -11.7710  -20.5710  -45.0510 C   0  0  0  0  0
  -10.0950  -22.7730  -44.9750 C   0  0  0  0  0
  -10.6520  -20.6400  -45.8900 C   0  0  0  0  0
  -11.2350  -23.8400  -43.3980 C   0  0  0  0  0
  -10.1430  -24.6000  -43.7770 C   0  0  0  0  0
   -9.4650  -23.9330  -44.7360 N   0  0  0  0  0
  -12.2270  -24.1630  -42.4200 C   0  0  0  0  0
  -13.0930  -24.3560  -41.6660 N   0  0  0  0  0
   -7.8690  -20.8450  -46.7670 O   0  0  0  0  0
   -3.4156  -21.3509  -55.4422 H   0  0  0  0  0
    0.8610  -21.6120  -58.0571 H   0  0  0  0  0
   -0.5207  -19.5389  -58.1124 H   0  0  0  0  0
   -0.5896  -25.5854  -55.4040 H   0  0  0  0  0
   -3.3763  -25.1454  -54.7406 H   0  0  0  0  0
   -3.8087  -23.4100  -54.5668 H   0  0  0  0  0
   -2.2073  -23.1904  -52.7505 H   0  0  0  0  0
   -1.8112  -24.9676  -52.9142 H   0  0  0  0  0
   -3.2405  -24.9846  -51.1307 H   0  0  0  0  0
   -4.3811  -25.2102  -52.4983 H   0  0  0  0  0
   -4.6381  -22.6856  -52.4952 H   0  0  0  0  0
   -3.8189  -22.7406  -50.8652 H   0  0  0  0  0
   -7.6447  -24.9482  -49.3879 H   0  0  0  0  0
   -6.6864  -24.9744  -47.9219 H   0  0  0  0  0
   -6.4760  -22.4528  -48.0492 H   0  0  0  0  0
   -5.2931  -25.3469  -49.9656 H   0  0  0  0  0
   -4.8176  -23.8310  -49.0799 H   0  0  0  0  0
   -8.0726  -21.3447  -49.6924 H   0  0  0  0  0
   -8.4007  -22.9452  -50.3828 H   0  0  0  0  0
   -6.3425  -24.1231  -51.5341 H   0  0  0  0  0
   -5.6879  -21.5799  -50.2069 H   0  0  0  0  0
   -6.6826  -21.8233  -51.6989 H   0  0  0  0  0
   -9.0679  -23.7175  -47.5429 H   0  0  0  0  0
  -12.9187  -21.5706  -43.5126 H   0  0  0  0  0
  -12.4246  -19.6995  -45.0877 H   0  0  0  0  0
  -10.4444  -19.8197  -46.5771 H   0  0  0  0  0
   -9.8745  -25.5747  -43.3696 H   0  0  0  0  0
  1  2  4  0  0  0
  1  3  4  0  0  0
  7  1  4  0  0  0
  2  4  4  0  0  0
  9  2  4  0  0  0
  3  5  4  0  0  0
  4  6  4  0  0  0
  5  6  4  0  0  0
  5 11  1  0  0  0
  7  8  4  0  0  0
 10  7  1  0  0  0
  8  9  4  0  0  0
 13 10  1  0  0  0
 11 12  3  0  0  0
 14 13  1  0  0  0
 15 14  1  0  0  0
 20 15  1  0  0  0
 17 16  1  0  0  0
 16 18  1  0  0  0
 17 19  1  0  0  0
 22 17  1  0  0  0
 18 20  1  0  0  0
 19 21  1  0  0  0
 21 20  1  0  0  0
 23 22  1  0  0  0
 24 23  1  0  0  0
 23 35  2  0  0  0
 28 24  4  0  0  0
 24 29  4  0  0  0
 26 25  4  0  0  0
 25 27  4  0  0  0
 26 28  4  0  0  0
 26 30  4  0  0  0
 27 29  4  0  0  0
 28 32  4  0  0  0
 30 31  4  0  0  0
 30 33  1  0  0  0
 31 32  4  0  0  0
 33 34  3  0  0  0
  3 36  1  0  0  0
  4 37  1  0  0  0
  6 38  1  0  0  0
  8 39  1  0  0  0
 10 40  1  0  0  0
 10 41  1  0  0  0
 13 42  1  0  0  0
 13 43  1  0  0  0
 14 44  1  0  0  0
 14 45  1  0  0  0
 15 46  1  0  0  0
 15 47  1  0  0  0
 16 48  1  0  0  0
 16 49  1  0  0  0
 17 50  1  0  0  0
 18 51  1  0  0  0
 18 52  1  0  0  0
 19 53  1  0  0  0
 19 54  1  0  0  0
 20 55  1  0  0  0
 21 56  1  0  0  0
 21 57  1  0  0  0
 22 58  1  0  0  0
 25 59  1  0  0  0
 27 60  1  0  0  0
 29 61  1  0  0  0
 31 62  1  0  0  0
M  END
$$$$
