2x97_ligand
  -I-interpret- 

 65 65  0  0  0  0  0  0  0  0999 V2000
   28.1710    3.2650   44.7320 C   0  0  0  0  0
   28.0420    4.6420   44.6150 C   0  0  0  0  0
   27.3230    5.0650   43.4740 C   0  0  0  0  0
   26.7730    4.1780   42.5190 C   0  0  0  0  0
   26.9370    2.7910   42.6680 C   0  0  0  0  0
   27.6600    2.3520   43.7750 C   0  0  0  0  0
   27.8500    0.8490   44.1030 C   0  0  0  0  0
   26.5070    0.3890   44.7880 C   0  0  0  0  0
   26.2730    1.1280   46.0250 N   0  0  0  0  0
   25.1810    1.8950   46.0910 C   0  0  0  0  0
   24.3460    1.9450   45.1700 O   0  0  0  0  0
   25.0390    2.9090   47.2380 C   0  0  0  0  0
   24.4600    2.2840   48.4670 C   0  0  0  0  0
   24.8140    3.2310   49.6380 C   0  0  0  0  0
   26.0220    3.3730   49.9820 O   0  0  0  0  0
   23.8730    3.8480   50.1300 O   0  0  0  0  0
   24.1720    3.9980   46.6650 N   0  0  0  0  0
   24.6000    5.2640   46.5060 C   0  0  0  0  0
   23.5820    6.2410   45.8480 C   0  0  0  0  0
   25.7340    5.6680   46.8590 O   0  0  0  0  0
   26.5190   -1.3530   45.2660 P   0  0  0  0  0
   25.1720   -1.7630   45.8360 O   0  0  0  0  0
   27.4350   -1.6580   46.4300 O   0  0  0  0  0
   26.9060   -2.3000   43.8010 C   0  0  0  0  0
   27.3550   -3.7500   44.0110 C   0  0  0  0  0
   27.0550   -4.6990   42.7460 C   0  0  0  0  0
   28.9300   -3.7150   44.0870 C   0  0  0  0  0
   29.5620   -2.7930   43.5480 O   0  0  0  0  0
   29.5320   -4.7480   44.6610 N   0  0  0  0  0
   31.0420   -4.7760   44.6880 C   0  0  0  0  0
   31.5230   -5.9830   45.5060 C   0  0  0  0  0
   31.4750   -4.9500   43.1920 C   0  0  0  0  0
   30.6480   -5.4480   42.3560 O   0  0  0  0  0
   32.6800   -4.5350   42.8430 N   0  0  0  0  0
   28.6909    2.8656   45.6028 H   0  0  0  0  0
   28.4600    5.3385   45.3418 H   0  0  0  0  0
   27.1844    6.1353   43.3213 H   0  0  0  0  0
   26.2208    4.5718   41.6657 H   0  0  0  0  0
   26.5167    2.0883   41.9485 H   0  0  0  0  0
   28.7057    0.6904   44.7593 H   0  0  0  0  0
   28.0566    0.2688   43.2037 H   0  0  0  0  0
   25.7358    0.5726   44.0399 H   0  0  0  0  0
   26.9200    1.0612   46.8107 H   0  0  0  0  0
   25.9995    3.2995   47.5742 H   0  0  0  0  0
   24.8674    1.2863   48.6306 H   0  0  0  0  0
   23.3812    2.1589   48.3742 H   0  0  0  0  0
   26.5735    2.7867   49.4589 H   0  0  0  0  0
   23.2189    3.7664   46.3851 H   0  0  0  0  0
   23.3633    7.0553   46.5388 H   0  0  0  0  0
   24.0097    6.6459   44.9308 H   0  0  0  0  0
   22.6628    5.7034   45.6153 H   0  0  0  0  0
   24.4888   -1.6146   45.1781 H   0  0  0  0  0
   27.7482   -1.7920   43.3312 H   0  0  0  0  0
   25.9805   -2.3543   43.2278 H   0  0  0  0  0
   26.8336   -4.1304   44.8894 H   0  0  0  0  0
   25.9830   -4.7119   42.5492 H   0  0  0  0  0
   27.5815   -4.3149   41.8723 H   0  0  0  0  0
   27.3981   -5.7106   42.9629 H   0  0  0  0  0
   28.9883   -5.5055   45.0744 H   0  0  0  0  0
   31.4618   -3.8765   45.1382 H   0  0  0  0  0
   31.1443   -5.9039   46.5250 H   0  0  0  0  0
   31.1522   -6.9007   45.0495 H   0  0  0  0  0
   32.6128   -5.9983   45.5222 H   0  0  0  0  0
   32.9824   -4.6061   41.8714 H   0  0  0  0  0
   33.3078   -4.1436   43.5452 H   0  0  0  0  0
  1  2  4  0  0  0
  1  6  4  0  0  0
  2  3  4  0  0  0
  3  4  4  0  0  0
  4  5  4  0  0  0
  5  6  4  0  0  0
  6  7  1  0  0  0
  7  8  1  0  0  0
  8  9  1  0  0  0
  8 21  1  0  0  0
  9 10  1  0  0  0
 10 11  2  0  0  0
 10 12  1  0  0  0
 12 13  1  0  0  0
 12 17  1  0  0  0
 13 14  1  0  0  0
 14 15  1  0  0  0
 14 16  2  0  0  0
 17 18  1  0  0  0
 18 19  1  0  0  0
 18 20  2  0  0  0
 21 22  1  0  0  0
 21 23  2  0  0  0
 21 24  1  0  0  0
 24 25  1  0  0  0
 25 26  1  0  0  0
 25 27  1  0  0  0
 27 28  2  0  0  0
 27 29  1  0  0  0
 29 30  1  0  0  0
 30 31  1  0  0  0
 30 32  1  0  0  0
 32 33  2  0  0  0
 32 34  1  0  0  0
  1 35  1  0  0  0
  2 36  1  0  0  0
  3 37  1  0  0  0
  4 38  1  0  0  0
  5 39  1  0  0  0
  7 40  1  0  0  0
  7 41  1  0  0  0
  8 42  1  0  0  0
  9 43  1  0  0  0
 12 44  1  0  0  0
 13 45  1  0  0  0
 13 46  1  0  0  0
 15 47  1  0  0  0
 17 48  1  0  0  0
 19 49  1  0  0  0
 19 50  1  0  0  0
 19 51  1  0  0  0
 22 52  1  0  0  0
 24 53  1  0  0  0
 24 54  1  0  0  0
 25 55  1  0  0  0
 26 56  1  0  0  0
 26 57  1  0  0  0
 26 58  1  0  0  0
 29 59  1  0  0  0
 30 60  1  0  0  0
 31 61  1  0  0  0
 31 62  1  0  0  0
 31 63  1  0  0  0
 34 64  1  0  0  0
 34 65  1  0  0  0
M  END
$$$$
