### 
### Created by X-TOOL on Mon Sep 10 21:13:32 2018
### 

@<TRIPOS>MOLECULE
5wir_ligand
  242   242     1     0     0
SMALL
GAST_HUCK


@<TRIPOS>ATOM
      1 N         -75.8260   27.0670   -3.5670 N.4       1 LYS         0.2379
      2 CA        -75.2140   28.3900   -3.5530 C.3       1 LYS         0.0650
      3 C         -73.7350   28.3390   -3.9430 C.2       1 LYS         0.2267
      4 O         -72.9700   27.4980   -3.4530 O.2       1 LYS        -0.3907
      5 CB        -75.3690   29.0430   -2.1750 C.3       1 LYS         0.0080
      6 CG        -74.1790   29.9170   -1.7690 C.3       1 LYS        -0.0410
      7 CD        -74.5910   31.1920   -1.0460 C.3       1 LYS        -0.0123
      8 CE        -73.3870   32.1290   -0.8920 C.3       1 LYS        -0.0354
      9 NZ        -73.7630   33.4520   -0.3190 N.4       1 LYS         0.2185
     10 N         -73.3410   29.2520   -4.8290 N.am      1 ILE        -0.2608
     11 CA        -71.9540   29.3640   -5.2660 C.3       1 ILE         0.1336
     12 C         -71.0730   29.9380   -4.1520 C.2       1 ILE         0.2042
     13 O         -71.2500   31.0810   -3.7090 O.2       1 ILE        -0.3944
     14 CB        -71.8400   30.2390   -6.5240 C.3       1 ILE        -0.0037
     15 CG1       -72.7090   29.6570   -7.6510 C.3       1 ILE        -0.0491
     16 CG2       -70.3800   30.3700   -6.9390 C.3       1 ILE        -0.0582
     17 CD1       -72.8240   30.5380   -8.9140 C.3       1 ILE        -0.0648
     18 N         -70.1140   29.1440   -3.6980 N.am      1 LEU        -0.2637
     19 CA        -69.3060   29.5600   -2.5670 C.3       1 LEU         0.1312
     20 C         -67.9840   30.2200   -2.9880 C.2       1 LEU         0.2039
     21 O         -67.9100   31.4420   -3.0810 O.2       1 LEU        -0.3944
     22 CB        -69.0460   28.3630   -1.6630 C.3       1 LEU        -0.0101
     23 CG        -68.4950   28.6790   -0.2770 C.3       1 LEU        -0.0425
     24 CD1       -69.3700   29.7140    0.4200 C.3       1 LEU        -0.0625
     25 CD2       -68.4390   27.3820    0.5070 C.3       1 LEU        -0.0625
     26 N         -66.9480   29.4120   -3.2300 N.am      1 LEU        -0.2637
     27 CA        -65.6330   29.9260   -3.6210 C.3       1 LEU         0.1312
     28 C         -65.2950   29.6300   -5.0790 C.2       1 LEU         0.2040
     29 O         -64.5350   30.3740   -5.7000 O.2       1 LEU        -0.3944
     30 CB        -64.5350   29.3540   -2.7150 C.3       1 LEU        -0.0101
     31 CG        -64.6370   29.6110   -1.2120 C.3       1 LEU        -0.0425
     32 CD1       -63.3780   29.1260   -0.5090 C.3       1 LEU        -0.0625
     33 CD2       -64.8370   31.0960   -0.9370 C.3       1 LEU        -0.0625
     34 N         -65.8460   28.5500   -5.6320 N.am      1 THR        -0.2613
     35 CA        -65.5710   28.2090   -7.0340 C.3       1 THR         0.1567
     36 C         -66.7820   28.5130   -7.9190 C.2       1 THR         0.2090
     37 O         -67.9100   28.1780   -7.5690 O.2       1 THR        -0.3941
     38 CB        -65.1700   26.7120   -7.2110 C.3       1 THR         0.0924
     39 OG1       -66.3100   25.8800   -7.0070 O.3       1 THR        -0.3874
     40 CG2       -64.1110   26.3220   -6.2180 C.3       1 THR        -0.0346
     41 N         -66.5400   29.1550   -9.0720 N.am      1 PRO        -0.2498
     42 CA        -67.5290   29.6430  -10.0430 C.3       1 PRO         0.1338
     43 C         -67.9830   28.6190  -11.1040 C.2       1 PRO         0.2041
     44 O         -67.3290   27.5870  -11.2510 O.2       1 PRO        -0.3944
     45 CB        -66.7790   30.7770  -10.7300 C.3       1 PRO        -0.0104
     46 CG        -65.3470   30.2620  -10.7660 C.3       1 PRO        -0.0281
     47 CD        -65.1620   29.5180   -9.4620 C.3       1 PRO         0.0369
     48 N         -69.0690   28.9290  -11.8240 N.am      1 ARG        -0.2637
     49 CA        -69.5010   28.1940  -13.0200 C.3       1 ARG         0.1311
     50 C         -69.0730   28.9370  -14.2940 C.2       1 ARG         0.2039
     51 O         -68.4940   30.0270  -14.2140 O.2       1 ARG        -0.3944
     52 CB        -71.0300   27.9790  -13.0140 C.3       1 ARG        -0.0092
     53 CG        -71.6390   27.7900  -11.6230 C.3       1 ARG        -0.0156
     54 CD        -73.1220   27.3010  -11.5600 C.3       1 ARG         0.0627
     55 NE        -74.0110   27.8340  -12.5990 N.pl3     1 ARG        -0.2723
     56 CZ        -75.3400   27.8550  -12.4860 C.cat     1 ARG         0.2882
     57 NH1       -75.9410   27.3880  -11.4000 N.pl3     1 ARG        -0.2849
     58 NH2       -76.0820   28.3640  -13.4360 N.pl3     1 ARG        -0.2849
     59 N         -69.3530   28.3460  -15.4600 N.am      1 ARG        -0.2637
     60 CA        -68.9600   28.9200  -16.7550 C.3       1 ARG         0.1311
     61 C         -70.1370   29.5570  -17.5030 C.2       1 ARG         0.2039
     62 O         -71.0980   28.8610  -17.8260 O.2       1 ARG        -0.3944
     63 CB        -68.3270   27.8370  -17.6450 C.3       1 ARG        -0.0092
     64 CG        -67.1700   27.0690  -17.0120 C.3       1 ARG        -0.0156
     65 CD        -66.7280   25.8880  -17.8880 C.3       1 ARG         0.0627
     66 NE        -66.4030   26.2870  -19.2620 N.pl3     1 ARG        -0.2723
     67 CZ        -67.0490   25.8520  -20.3410 C.cat     1 ARG         0.2882
     68 NH1       -66.6900   26.2750  -21.5490 N.pl3     1 ARG        -0.2849
     69 NH2       -68.0550   24.9910  -20.2140 N.pl3     1 ARG        -0.2849
     70 N         -70.0590   30.8580  -17.7990 N.am      1 ARG        -0.2637
     71 CA        -71.1430   31.5460  -18.5230 C.3       1 ARG         0.1311
     72 C         -71.2650   31.0380  -19.9640 C.2       1 ARG         0.2039
     73 O         -72.3740   30.9570  -20.5300 O.2       1 ARG        -0.3944
     74 CB        -70.9340   33.0690  -18.5260 C.3       1 ARG        -0.0092
     75 CG        -70.9980   33.7280  -17.1500 C.3       1 ARG        -0.0156
     76 CD        -70.6890   35.2310  -17.2240 C.3       1 ARG         0.0627
     77 NE        -71.7120   35.9630  -17.9760 N.pl3     1 ARG        -0.2723
     78 CZ        -71.6660   37.2680  -18.2470 C.cat     1 ARG         0.2882
     79 NH1       -70.6290   38.0050  -17.8490 N.pl3     1 ARG        -0.2849
     80 NH2       -72.6570   37.8320  -18.9390 N.pl3     1 ARG        -0.2849
     81 N         -70.1260   30.6670  -20.5470 N.am      1 GLN        -0.2636
     82 CA        -70.1040   30.1550  -21.9150 C.3       1 GLN         0.1330
     83 C         -70.3410   28.6490  -22.0250 C.2       1 GLN         0.2040
     84 O         -69.5070   27.9250  -22.5660 O.2       1 GLN        -0.3944
     85 CB        -68.7730   30.5130  -22.5850 C.3       1 GLN         0.0045
     86 CG        -67.5270   30.0310  -21.8580 C.3       1 GLN         0.0412
     87 CD        -66.2610   30.2980  -22.6520 C.2       1 GLN         0.1737
     88 OE1       -65.9120   31.4490  -22.9260 O.2       1 GLN        -0.3973
     89 NE2       -65.5760   29.2230  -23.0520 N.am      1 GLN        -0.3009
     90 N         -71.4920   28.1800  -21.5480 N.am      1 ARG        -0.2637
     91 CA        -71.8090   26.7450  -21.5730 C.3       1 ARG         0.1310
     92 C         -73.1060   26.4930  -22.3530 C.2       1 ARG         0.2033
     93 O         -73.4490   27.2740  -23.2450 O.2       1 ARG        -0.3944
     94 CB        -71.9440   26.2060  -20.1450 C.3       1 ARG        -0.0092
     95 CG        -73.0350   26.9710  -19.3730 C.3       1 ARG        -0.0156
     96 CD        -73.3370   26.3710  -17.9920 C.3       1 ARG         0.0627
     97 NE        -74.5220   26.9940  -17.3920 N.pl3     1 ARG        -0.2723
     98 CZ        -74.5110   28.1810  -16.7780 C.cat     1 ARG         0.2882
     99 NH1       -73.4040   28.9180  -16.7480 N.pl3     1 ARG        -0.2849
    100 NH2       -75.6180   28.6780  -16.2450 N.pl3     1 ARG        -0.2849
    101 N         -73.8240   25.4290  -21.9640 N.am      1 LEU        -0.2695
    102 CA        -75.0920   24.9500  -22.5580 C.3       1 LEU         0.0946
    103 C         -75.5870   25.7600  -23.7510 C.2       1 LEU         0.0601
    104 O         -75.5330   25.2990  -24.8850 O.co2     1 LEU        -0.5666
    105 CB        -76.2150   24.9160  -21.5080 C.3       1 LEU        -0.0156
    106 CG        -75.9700   24.7410  -20.0040 C.3       1 LEU        -0.0431
    107 CD1       -77.3190   24.5380  -19.3410 C.3       1 LEU        -0.0625
    108 CD2       -75.0080   23.5980  -19.6530 C.3       1 LEU        -0.0625
    109 OXT       -76.0470   26.8850  -23.5950 O.co2     1 LEU        -0.5666
    110 H1        -76.7965   27.1430   -3.3055 H         1 LYS         0.2015
    111 H2        -75.3475   26.4685   -2.9121 H         1 LYS         0.2015
    112 H3        -75.7573   26.6747   -4.4930 H         1 LYS         0.2015
    113 H4        -75.7396   29.0134   -4.2913 H         1 LYS         0.1098
    114 H5        -75.4867   28.2470   -1.4250 H         1 LYS         0.0346
    115 H6        -76.2721   29.6709   -2.1881 H         1 LYS         0.0346
    116 H7        -73.6227   30.1939   -2.6766 H         1 LYS         0.0270
    117 H8        -73.5269   29.3326   -1.1032 H         1 LYS         0.0270
    118 H9        -74.9803   30.9347   -0.0499 H         1 LYS         0.0317
    119 H10       -75.3750   31.7009   -1.6259 H         1 LYS         0.0317
    120 H11       -72.9356   32.2890   -1.8823 H         1 LYS         0.0813
    121 H12       -72.6520   31.6525   -0.2266 H         1 LYS         0.0813
    122 H13       -72.9405   34.0291   -0.2380 H         1 LYS         0.1994
    123 H14       -74.1715   33.3194    0.5929 H         1 LYS         0.1994
    124 H15       -74.4313   33.9026   -0.9242 H         1 LYS         0.1994
    125 H16       -74.0191   29.8821   -5.2074 H         1 ILE         0.1885
    126 H17       -71.5898   28.3555   -5.5114 H         1 ILE         0.0803
    127 H18       -72.2185   31.2438   -6.2851 H         1 ILE         0.0345
    128 H19       -73.7221   29.4993   -7.2527 H         1 ILE         0.0267
    129 H20       -72.2774   28.6900   -7.9488 H         1 ILE         0.0267
    130 H21       -69.7979   30.7889   -6.1049 H         1 ILE         0.0235
    131 H22       -70.3049   31.0374   -7.8101 H         1 ILE         0.0235
    132 H23       -69.9830   29.3783   -7.2015 H         1 ILE         0.0235
    133 H24       -73.4627   30.0350   -9.6550 H         1 ILE         0.0230
    134 H25       -71.8233   30.6986   -9.3414 H         1 ILE         0.0230
    135 H26       -73.2680   31.5079   -8.6454 H         1 ILE         0.0230
    136 H27       -69.9475   28.2597   -4.1342 H         1 LEU         0.1883
    137 H28       -69.8820   30.3038   -1.9970 H         1 LEU         0.0800
    138 H29       -68.3229   27.7082   -2.1713 H         1 LEU         0.0315
    139 H30       -69.9976   27.8269   -1.5325 H         1 LEU         0.0315
    140 H31       -67.4778   29.0864   -0.3733 H         1 LEU         0.0298
    141 H32       -68.9588   29.9300    1.4171 H         1 LEU         0.0232
    142 H33       -70.3922   29.3209    0.5223 H         1 LEU         0.0232
    143 H34       -69.3905   30.6381   -0.1762 H         1 LEU         0.0232
    144 H35       -67.8008   26.6601   -0.0236 H         1 LEU         0.0232
    145 H36       -69.4539   26.9698    0.6070 H         1 LEU         0.0232
    146 H37       -68.0216   27.5752    1.5062 H         1 LEU         0.0232
    147 H38       -67.0742   28.4240   -3.1414 H         1 LEU         0.1883
    148 H39       -65.6508   31.0184   -3.4935 H         1 LEU         0.0800
    149 H40       -63.5779   29.7767   -3.0546 H         1 LEU         0.0315
    150 H41       -64.5265   28.2637   -2.8602 H         1 LEU         0.0315
    151 H42       -65.5014   29.0571   -0.8170 H         1 LEU         0.0298
    152 H43       -63.4645   29.3168    0.5709 H         1 LEU         0.0232
    153 H44       -62.5052   29.6638   -0.9076 H         1 LEU         0.0232
    154 H45       -63.2541   28.0468   -0.6819 H         1 LEU         0.0232
    155 H46       -65.7478   31.4438   -1.4464 H         1 LEU         0.0232
    156 H47       -63.9695   31.6585   -1.3124 H         1 LEU         0.0232
    157 H48       -64.9383   31.2579    0.1463 H         1 LEU         0.0232
    158 H49       -66.4508   27.9677   -5.0888 H         1 THR         0.1884
    159 H50       -64.7291   28.8310   -7.3721 H         1 THR         0.0826
    160 H51       -64.7844   26.5623   -8.2303 H         1 THR         0.0639
    161 H52       -66.9812   26.1033   -7.6412 H         1 THR         0.2101
    162 H53       -63.8451   25.2644   -6.3620 H         1 THR         0.0257
    163 H54       -64.4939   26.4681   -5.1972 H         1 THR         0.0257
    164 H55       -63.2191   26.9480   -6.3682 H         1 THR         0.0257
    165 H56       -68.4183   30.0170   -9.5146 H         1 PRO         0.0802
    166 H57       -66.8505   31.7083  -10.1491 H         1 PRO         0.0313
    167 H58       -67.1640   30.9482  -11.7461 H         1 PRO         0.0313
    168 H59       -64.6372   31.0994  -10.8367 H         1 PRO         0.0287
    169 H60       -65.2016   29.5850  -11.6207 H         1 PRO         0.0287
    170 H61       -64.5448   28.6190   -9.6067 H         1 PRO         0.0524
    171 H62       -64.6963   30.1644   -8.7035 H         1 PRO         0.0524
    172 H63       -69.6201   29.7095  -11.5289 H         1 ARG         0.1883
    173 H64       -69.0135   27.2080  -13.0131 H         1 ARG         0.0800
    174 H65       -71.2532   27.0827  -13.6114 H         1 ARG         0.0313
    175 H66       -71.5022   28.8568  -13.4793 H         1 ARG         0.0313
    176 H67       -71.5861   28.7578  -11.1029 H         1 ARG         0.0301
    177 H68       -71.0230   27.0521  -11.0882 H         1 ARG         0.0301
    178 H69       -73.5327   27.5915  -10.5818 H         1 ARG         0.0689
    179 H70       -73.1206   26.2044  -11.6461 H         1 ARG         0.0689
    180 H71       -73.5873   28.2109  -13.4589 H         1 ARG         0.2642
    181 H72       -76.9683   27.4119  -11.3293 H         1 ARG         0.2615
    182 H73       -75.3805   27.0014  -10.6272 H         1 ARG         0.2615
    183 H74       -75.6421   28.7341  -14.2906 H         1 ARG         0.2615
    184 H75       -77.1060   28.3945  -13.3292 H         1 ARG         0.2615
    185 H76       -69.8499   27.4783  -15.4509 H         1 ARG         0.1883
    186 H77       -68.2105   29.7024  -16.5653 H         1 ARG         0.0800
    187 H78       -67.9533   28.3229  -18.5584 H         1 ARG         0.0313
    188 H79       -69.1115   27.1128  -17.9096 H         1 ARG         0.0313
    189 H80       -67.4899   26.6860  -16.0317 H         1 ARG         0.0301
    190 H81       -66.3186   27.7525  -16.8786 H         1 ARG         0.0301
    191 H82       -67.5433   25.1503  -17.9203 H         1 ARG         0.0689
    192 H83       -65.8364   25.4295  -17.4354 H         1 ARG         0.0689
    193 H84       -65.6242   26.9467  -19.4004 H         1 ARG         0.2642
    194 H85       -67.1912   25.9372  -22.3830 H         1 ARG         0.2615
    195 H86       -65.9106   26.9406  -21.6510 H         1 ARG         0.2615
    196 H87       -68.3357   24.6612  -19.2795 H         1 ARG         0.2615
    197 H88       -68.5532   24.6541  -21.0502 H         1 ARG         0.2615
    198 H89       -69.2486   31.3752  -17.5237 H         1 ARG         0.1883
    199 H90       -72.0872   31.3298  -18.0018 H         1 ARG         0.0800
    200 H91       -71.7135   33.5199  -19.1577 H         1 ARG         0.0313
    201 H92       -69.9447   33.2776  -18.9593 H         1 ARG         0.0313
    202 H93       -70.2630   33.2453  -16.4892 H         1 ARG         0.0301
    203 H94       -72.0081   33.5919  -16.7363 H         1 ARG         0.0301
    204 H95       -69.7164   35.3702  -17.7187 H         1 ARG         0.0689
    205 H96       -70.6418   35.6351  -16.2020 H         1 ARG         0.0689
    206 H97       -72.5246   35.4316  -18.3198 H         1 ARG         0.2642
    207 H98       -70.6010   39.0123  -18.0623 H         1 ARG         0.2615
    208 H99       -69.8557   37.5672  -17.3282 H         1 ARG         0.2615
    209 H100      -73.4587   37.2634  -19.2470 H         1 ARG         0.2615
    210 H101      -72.6206   38.8362  -19.1654 H         1 ARG         0.2615
    211 H102      -69.2685   30.7405  -20.0377 H         1 GLN         0.1883
    212 H103      -70.9133   30.6567  -22.4657 H         1 GLN         0.0801
    213 H104      -68.7169   31.6087  -22.6648 H         1 GLN         0.0337
    214 H105      -68.7704   30.0713  -23.5924 H         1 GLN         0.0337
    215 H106      -67.6146   28.9483  -21.6844 H         1 GLN         0.0504
    216 H107      -67.4561   30.5527  -20.8922 H         1 GLN         0.0504
    217 H108      -64.7334   29.3346  -23.5789 H         1 GLN         0.1814
    218 H109      -65.9059   28.3068  -22.8246 H         1 GLN         0.1814
    219 H110      -72.1573   28.8198  -21.1632 H         1 ARG         0.1883
    220 H111      -70.9874   26.2129  -22.0749 H         1 ARG         0.0800
    221 H112      -70.9830   26.3235  -19.6228 H         1 ARG         0.0313
    222 H113      -72.2113   25.1398  -20.1857 H         1 ARG         0.0313
    223 H114      -73.9593   26.9571  -19.9692 H         1 ARG         0.0301
    224 H115      -72.7022   28.0105  -19.2366 H         1 ARG         0.0301
    225 H116      -72.4722   26.5351  -17.3323 H         1 ARG         0.0689
    226 H117      -73.5154   25.2911  -18.1009 H         1 ARG         0.0689
    227 H118      -75.4163   26.4860  -17.4473 H         1 ARG         0.2642
    228 H119      -73.4062   29.8315  -16.2721 H         1 ARG         0.2615
    229 H120      -72.5447   28.5752  -17.2007 H         1 ARG         0.2615
    230 H121      -76.4877   28.1262  -16.2561 H         1 ARG         0.2615
    231 H122      -75.6086   29.6160  -15.8196 H         1 ARG         0.2615
    232 H123      -73.4650   24.9046  -21.1919 H         1 LEU         0.1875
    233 H124      -74.9143   23.9220  -22.9066 H         1 LEU         0.0726
    234 H125      -76.8751   24.0868  -21.8023 H         1 LEU         0.0308
    235 H126      -76.7537   25.8691  -21.6147 H         1 LEU         0.0308
    236 H127      -75.5265   25.6720  -19.6212 H         1 LEU         0.0297
    237 H128      -77.1793   24.4088  -18.2576 H         1 LEU         0.0232
    238 H129      -77.8013   23.6416  -19.7580 H         1 LEU         0.0232
    239 H130      -77.9546   25.4164  -19.5265 H         1 LEU         0.0232
    240 H131      -74.0395   23.7696  -20.1455 H         1 LEU         0.0232
    241 H132      -75.4311   22.6433  -19.9988 H         1 LEU         0.0232
    242 H133      -74.8637   23.5618  -18.5631 H         1 LEU         0.0232
@<TRIPOS>BOND
     1    1    2 1  
     2    2    3 1  
     3    2    5 1  
     4    3    4 2  
     5    3   10 am 
     6    5    6 1  
     7    6    7 1  
     8    7    8 1  
     9    8    9 1  
    10   10   11 1  
    11   11   12 1  
    12   11   14 1  
    13   12   13 2  
    14   12   18 am 
    15   14   15 1  
    16   14   16 1  
    17   15   17 1  
    18   18   19 1  
    19   19   20 1  
    20   19   22 1  
    21   20   21 2  
    22   20   26 am 
    23   22   23 1  
    24   23   24 1  
    25   23   25 1  
    26   26   27 1  
    27   27   28 1  
    28   27   30 1  
    29   28   29 2  
    30   28   34 am 
    31   30   31 1  
    32   31   32 1  
    33   31   33 1  
    34   34   35 1  
    35   35   36 1  
    36   35   38 1  
    37   36   37 2  
    38   36   41 am 
    39   38   39 1  
    40   38   40 1  
    41   41   42 1  
    42   41   47 1  
    43   42   43 1  
    44   42   45 1  
    45   43   44 2  
    46   43   48 am 
    47   45   46 1  
    48   46   47 1  
    49   48   49 1  
    50   49   50 1  
    51   49   52 1  
    52   50   51 2  
    53   50   59 am 
    54   52   53 1  
    55   53   54 1  
    56   54   55 1  
    57   55   56 ar 
    58   56   57 ar 
    59   56   58 ar 
    60   59   60 1  
    61   60   61 1  
    62   60   63 1  
    63   61   62 2  
    64   61   70 am 
    65   63   64 1  
    66   64   65 1  
    67   65   66 1  
    68   66   67 ar 
    69   67   68 ar 
    70   67   69 ar 
    71   70   71 1  
    72   71   72 1  
    73   71   74 1  
    74   72   73 2  
    75   72   81 am 
    76   74   75 1  
    77   75   76 1  
    78   76   77 1  
    79   77   78 ar 
    80   78   79 ar 
    81   78   80 ar 
    82   81   82 1  
    83   82   83 1  
    84   82   85 1  
    85   83   84 2  
    86   83   90 am 
    87   85   86 1  
    88   86   87 1  
    89   87   88 2  
    90   87   89 am 
    91   90   91 1  
    92   91   92 1  
    93   91   94 1  
    94   92   93 2  
    95   92  101 am 
    96   94   95 1  
    97   95   96 1  
    98   96   97 1  
    99   97   98 ar 
   100   98   99 ar 
   101   98  100 ar 
   102  101  102 1  
   103  102  103 1  
   104  102  105 1  
   105  103  104 ar 
   106  103  109 ar 
   107  105  106 1  
   108  106  107 1  
   109  106  108 1  
   110    1  110 1  
   111    1  111 1  
   112    1  112 1  
   113    2  113 1  
   114    5  114 1  
   115    5  115 1  
   116    6  116 1  
   117    6  117 1  
   118    7  118 1  
   119    7  119 1  
   120    8  120 1  
   121    8  121 1  
   122    9  122 1  
   123    9  123 1  
   124    9  124 1  
   125   10  125 1  
   126   11  126 1  
   127   14  127 1  
   128   15  128 1  
   129   15  129 1  
   130   16  130 1  
   131   16  131 1  
   132   16  132 1  
   133   17  133 1  
   134   17  134 1  
   135   17  135 1  
   136   18  136 1  
   137   19  137 1  
   138   22  138 1  
   139   22  139 1  
   140   23  140 1  
   141   24  141 1  
   142   24  142 1  
   143   24  143 1  
   144   25  144 1  
   145   25  145 1  
   146   25  146 1  
   147   26  147 1  
   148   27  148 1  
   149   30  149 1  
   150   30  150 1  
   151   31  151 1  
   152   32  152 1  
   153   32  153 1  
   154   32  154 1  
   155   33  155 1  
   156   33  156 1  
   157   33  157 1  
   158   34  158 1  
   159   35  159 1  
   160   38  160 1  
   161   39  161 1  
   162   40  162 1  
   163   40  163 1  
   164   40  164 1  
   165   42  165 1  
   166   45  166 1  
   167   45  167 1  
   168   46  168 1  
   169   46  169 1  
   170   47  170 1  
   171   47  171 1  
   172   48  172 1  
   173   49  173 1  
   174   52  174 1  
   175   52  175 1  
   176   53  176 1  
   177   53  177 1  
   178   54  178 1  
   179   54  179 1  
   180   55  180 1  
   181   57  181 1  
   182   57  182 1  
   183   58  183 1  
   184   58  184 1  
   185   59  185 1  
   186   60  186 1  
   187   63  187 1  
   188   63  188 1  
   189   64  189 1  
   190   64  190 1  
   191   65  191 1  
   192   65  192 1  
   193   66  193 1  
   194   68  194 1  
   195   68  195 1  
   196   69  196 1  
   197   69  197 1  
   198   70  198 1  
   199   71  199 1  
   200   74  200 1  
   201   74  201 1  
   202   75  202 1  
   203   75  203 1  
   204   76  204 1  
   205   76  205 1  
   206   77  206 1  
   207   79  207 1  
   208   79  208 1  
   209   80  209 1  
   210   80  210 1  
   211   81  211 1  
   212   82  212 1  
   213   85  213 1  
   214   85  214 1  
   215   86  215 1  
   216   86  216 1  
   217   89  217 1  
   218   89  218 1  
   219   90  219 1  
   220   91  220 1  
   221   94  221 1  
   222   94  222 1  
   223   95  223 1  
   224   95  224 1  
   225   96  225 1  
   226   96  226 1  
   227   97  227 1  
   228   99  228 1  
   229   99  229 1  
   230  100  230 1  
   231  100  231 1  
   232  101  232 1  
   233  102  233 1  
   234  105  234 1  
   235  105  235 1  
   236  106  236 1  
   237  107  237 1  
   238  107  238 1  
   239  107  239 1  
   240  108  240 1  
   241  108  241 1  
   242  108  242 1  
@<TRIPOS>SUBSTRUCTURE
     1 LYS         1

