5wir_ligand
  -I-interpret- 

239239  0  0  0  0  0  0  0  0999 V2000
  -75.8260   27.0670   -3.5670 N   0  3  0  0  0
  -75.2140   28.3900   -3.5530 C   0  0  0  0  0
  -73.7350   28.3390   -3.9430 C   0  0  0  0  0
  -72.9700   27.4980   -3.4530 O   0  0  0  0  0
  -75.3690   29.0430   -2.1750 C   0  0  0  0  0
  -74.1790   29.9170   -1.7690 C   0  0  0  0  0
  -74.5910   31.1920   -1.0460 C   0  0  0  0  0
  -73.3870   32.1290   -0.8920 C   0  0  0  0  0
  -73.7630   33.4520   -0.3190 N   0  3  0  0  0
  -73.3410   29.2520   -4.8290 N   0  0  0  0  0
  -71.9540   29.3640   -5.2660 C   0  0  0  0  0
  -71.0730   29.9380   -4.1520 C   0  0  0  0  0
  -71.2500   31.0810   -3.7090 O   0  0  0  0  0
  -71.8400   30.2390   -6.5240 C   0  0  0  0  0
  -72.7090   29.6570   -7.6510 C   0  0  0  0  0
  -70.3800   30.3700   -6.9390 C   0  0  0  0  0
  -72.8240   30.5380   -8.9140 C   0  0  0  0  0
  -70.1140   29.1440   -3.6980 N   0  0  0  0  0
  -69.3060   29.5600   -2.5670 C   0  0  0  0  0
  -67.9840   30.2200   -2.9880 C   0  0  0  0  0
  -67.9100   31.4420   -3.0810 O   0  0  0  0  0
  -69.0460   28.3630   -1.6630 C   0  0  0  0  0
  -68.4950   28.6790   -0.2770 C   0  0  0  0  0
  -69.3700   29.7140    0.4200 C   0  0  0  0  0
  -68.4390   27.3820    0.5070 C   0  0  0  0  0
  -66.9480   29.4120   -3.2300 N   0  0  0  0  0
  -65.6330   29.9260   -3.6210 C   0  0  0  0  0
  -65.2950   29.6300   -5.0790 C   0  0  0  0  0
  -64.5350   30.3740   -5.7000 O   0  0  0  0  0
  -64.5350   29.3540   -2.7150 C   0  0  0  0  0
  -64.6370   29.6110   -1.2120 C   0  0  0  0  0
  -63.3780   29.1260   -0.5090 C   0  0  0  0  0
  -64.8370   31.0960   -0.9370 C   0  0  0  0  0
  -65.8460   28.5500   -5.6320 N   0  0  0  0  0
  -65.5710   28.2090   -7.0340 C   0  0  0  0  0
  -66.7820   28.5130   -7.9190 C   0  0  0  0  0
  -67.9100   28.1780   -7.5690 O   0  0  0  0  0
  -65.1700   26.7120   -7.2110 C   0  0  0  0  0
  -66.3100   25.8800   -7.0070 O   0  0  0  0  0
  -64.1110   26.3220   -6.2180 C   0  0  0  0  0
  -66.5400   29.1550   -9.0720 N   0  0  0  0  0
  -67.5290   29.6430  -10.0430 C   0  0  0  0  0
  -67.9830   28.6190  -11.1040 C   0  0  0  0  0
  -67.3290   27.5870  -11.2510 O   0  0  0  0  0
  -66.7790   30.7770  -10.7300 C   0  0  0  0  0
  -65.3470   30.2620  -10.7660 C   0  0  0  0  0
  -65.1620   29.5180   -9.4620 C   0  0  0  0  0
  -69.0690   28.9290  -11.8240 N   0  0  0  0  0
  -69.5010   28.1940  -13.0200 C   0  0  0  0  0
  -69.0730   28.9370  -14.2940 C   0  0  0  0  0
  -68.4940   30.0270  -14.2140 O   0  0  0  0  0
  -71.0300   27.9790  -13.0140 C   0  0  0  0  0
  -71.6390   27.7900  -11.6230 C   0  0  0  0  0
  -73.1220   27.3010  -11.5600 C   0  0  0  0  0
  -74.0110   27.8340  -12.5990 N   0  0  0  0  0
  -75.3400   27.8550  -12.4860 C   0  0  0  0  0
  -75.9410   27.3880  -11.4000 N   0  0  0  0  0
  -76.0820   28.3640  -13.4360 N   0  0  0  0  0
  -69.3530   28.3460  -15.4600 N   0  0  0  0  0
  -68.9600   28.9200  -16.7550 C   0  0  0  0  0
  -70.1370   29.5570  -17.5030 C   0  0  0  0  0
  -71.0980   28.8610  -17.8260 O   0  0  0  0  0
  -68.3270   27.8370  -17.6450 C   0  0  0  0  0
  -67.1700   27.0690  -17.0120 C   0  0  0  0  0
  -66.7280   25.8880  -17.8880 C   0  0  0  0  0
  -66.4030   26.2870  -19.2620 N   0  0  0  0  0
  -67.0490   25.8520  -20.3410 C   0  0  0  0  0
  -66.6900   26.2750  -21.5490 N   0  0  0  0  0
  -68.0550   24.9910  -20.2140 N   0  0  0  0  0
  -70.0590   30.8580  -17.7990 N   0  0  0  0  0
  -71.1430   31.5460  -18.5230 C   0  0  0  0  0
  -71.2650   31.0380  -19.9640 C   0  0  0  0  0
  -72.3740   30.9570  -20.5300 O   0  0  0  0  0
  -70.9340   33.0690  -18.5260 C   0  0  0  0  0
  -70.9980   33.7280  -17.1500 C   0  0  0  0  0
  -70.6890   35.2310  -17.2240 C   0  0  0  0  0
  -71.7120   35.9630  -17.9760 N   0  0  0  0  0
  -71.6660   37.2680  -18.2470 C   0  0  0  0  0
  -70.6290   38.0050  -17.8490 N   0  0  0  0  0
  -72.6570   37.8320  -18.9390 N   0  0  0  0  0
  -70.1260   30.6670  -20.5470 N   0  0  0  0  0
  -70.1040   30.1550  -21.9150 C   0  0  0  0  0
  -70.3410   28.6490  -22.0250 C   0  0  0  0  0
  -69.5070   27.9250  -22.5660 O   0  0  0  0  0
  -68.7730   30.5130  -22.5850 C   0  0  0  0  0
  -67.5270   30.0310  -21.8580 C   0  0  0  0  0
  -66.2610   30.2980  -22.6520 C   0  0  0  0  0
  -65.9120   31.4490  -22.9260 O   0  0  0  0  0
  -65.5760   29.2230  -23.0520 N   0  0  0  0  0
  -71.4920   28.1800  -21.5480 N   0  0  0  0  0
  -71.8090   26.7450  -21.5730 C   0  0  0  0  0
  -73.1060   26.4930  -22.3530 C   0  0  0  0  0
  -73.4490   27.2740  -23.2450 O   0  0  0  0  0
  -71.9440   26.2060  -20.1450 C   0  0  0  0  0
  -73.0350   26.9710  -19.3730 C   0  0  0  0  0
  -73.3370   26.3710  -17.9920 C   0  0  0  0  0
  -74.5220   26.9940  -17.3920 N   0  0  0  0  0
  -74.5110   28.1810  -16.7780 C   0  0  0  0  0
  -73.4040   28.9180  -16.7480 N   0  0  0  0  0
  -75.6180   28.6780  -16.2450 N   0  0  0  0  0
  -73.8240   25.4290  -21.9640 N   0  0  0  0  0
  -75.0920   24.9500  -22.5580 C   0  0  0  0  0
  -75.5870   25.7600  -23.7510 C   0  0  0  0  0
  -75.5330   25.2990  -24.8850 O   0  0  0  0  0
  -76.2150   24.9160  -21.5080 C   0  0  0  0  0
  -75.9700   24.7410  -20.0040 C   0  0  0  0  0
  -77.3190   24.5380  -19.3410 C   0  0  0  0  0
  -75.0080   23.5980  -19.6530 C   0  0  0  0  0
  -76.0470   26.8850  -23.5950 O   0  0  0  0  0
  -75.7120   26.6507   -4.4912 H   0  0  0  0  0
  -75.3735   26.4770   -2.8688 H   0  0  0  0  0
  -76.8193   27.1509   -3.3508 H   0  0  0  0  0
  -75.7357   28.9930   -4.2962 H   0  0  0  0  0
  -75.4485   28.2405   -1.4417 H   0  0  0  0  0
  -76.2468   29.6878   -2.2173 H   0  0  0  0  0
  -73.6565   30.2079   -2.6803 H   0  0  0  0  0
  -73.5595   29.3354   -1.0863 H   0  0  0  0  0
  -74.9699   30.9338   -0.0571 H   0  0  0  0  0
  -75.3629   31.6969   -1.6268 H   0  0  0  0  0
  -72.9646   32.2993   -1.8823 H   0  0  0  0  0
  -72.6785   31.6569   -0.2114 H   0  0  0  0  0
  -72.9300   34.0350   -0.2375 H   0  0  0  0  0
  -74.4393   33.9070   -0.9322 H   0  0  0  0  0
  -74.1762   33.3165    0.6037 H   0  0  0  0  0
  -74.0327   29.8947   -5.2150 H   0  0  0  0  0
  -71.6048   28.3600   -5.5070 H   0  0  0  0  0
  -72.2107   31.2408   -6.3070 H   0  0  0  0  0
  -73.7166   29.5544   -7.2481 H   0  0  0  0  0
  -72.2363   28.7252   -7.9613 H   0  0  0  0  0
  -69.8134   30.8302   -6.1295 H   0  0  0  0  0
  -69.9740   29.3811   -7.1520 H   0  0  0  0  0
  -70.3117   30.9921   -7.8314 H   0  0  0  0  0
  -73.2640   31.4987   -8.6465 H   0  0  0  0  0
  -71.8318   30.6964   -9.3365 H   0  0  0  0  0
  -73.4571   30.0386   -9.6474 H   0  0  0  0  0
  -69.9442   28.2420   -4.1429 H   0  0  0  0  0
  -69.8667   30.3205   -2.0236 H   0  0  0  0  0
  -68.2880   27.7605   -2.1635 H   0  0  0  0  0
  -70.0117   27.8826   -1.5061 H   0  0  0  0  0
  -67.4946   29.1058   -0.3496 H   0  0  0  0  0
  -69.3895   30.6292   -0.1718 H   0  0  0  0  0
  -70.3826   29.3233    0.5207 H   0  0  0  0  0
  -68.9615   29.9272    1.4078 H   0  0  0  0  0
  -69.4420   26.9625    0.5849 H   0  0  0  0  0
  -67.7873   26.6758   -0.0075 H   0  0  0  0  0
  -68.0475   27.5788    1.5051 H   0  0  0  0  0
  -67.0768   28.4042   -3.1396 H   0  0  0  0  0
  -65.6798   31.0088   -3.5051 H   0  0  0  0  0
  -63.6150   29.8463   -3.0303 H   0  0  0  0  0
  -64.6021   28.2720   -2.8280 H   0  0  0  0  0
  -65.4965   29.0615   -0.8280 H   0  0  0  0  0
  -63.2564   28.0566   -0.6811 H   0  0  0  0  0
  -62.5139   29.6596   -0.9048 H   0  0  0  0  0
  -63.4649   29.3155    0.5609 H   0  0  0  0  0
  -63.9907   31.6553   -1.3358 H   0  0  0  0  0
  -65.7556   31.4327   -1.4176 H   0  0  0  0  0
  -64.9073   31.2588    0.1385 H   0  0  0  0  0
  -66.4629   27.9561   -5.0779 H   0  0  0  0  0
  -64.7276   28.8274   -7.3412 H   0  0  0  0  0
  -64.7821   26.5833   -8.2215 H   0  0  0  0  0
  -66.0574   24.9604   -7.1171 H   0  0  0  0  0
  -63.2278   26.9430   -6.3679 H   0  0  0  0  0
  -64.4916   26.4673   -5.2070 H   0  0  0  0  0
  -63.8484   25.2739   -6.3616 H   0  0  0  0  0
  -68.4555   29.9103   -9.5348 H   0  0  0  0  0
  -66.8747   31.7277  -10.2054 H   0  0  0  0  0
  -67.1721   31.0066  -11.7204 H   0  0  0  0  0
  -64.6290   31.0754  -10.8709 H   0  0  0  0  0
  -65.1729   29.6160  -11.6265 H   0  0  0  0  0
  -64.5148   28.6472   -9.5666 H   0  0  0  0  0
  -64.6592   30.1205   -8.7055 H   0  0  0  0  0
  -69.6311   29.7251  -11.5230 H   0  0  0  0  0
  -69.0183   27.2168  -13.0068 H   0  0  0  0  0
  -71.2257   27.0650  -13.5747 H   0  0  0  0  0
  -71.4798   28.8759  -13.4399 H   0  0  0  0  0
  -71.6300   28.7754  -11.1572 H   0  0  0  0  0
  -71.0475   27.0110  -11.1419 H   0  0  0  0  0
  -73.5207   27.6449  -10.6056 H   0  0  0  0  0
  -73.0974   26.2202  -11.6988 H   0  0  0  0  0
  -73.5915   28.2072  -13.4505 H   0  0  0  0  0
  -76.9570   27.4311  -11.3210 H   0  0  0  0  0
  -75.3872   26.9857  -10.6437 H   0  0  0  0  0
  -75.6450   28.7497  -14.2731 H   0  0  0  0  0
  -69.8599   27.4609  -15.4507 H   0  0  0  0  0
  -68.2373   29.7071  -16.5399 H   0  0  0  0  0
  -67.9224   28.3476  -18.5189 H   0  0  0  0  0
  -69.1094   27.1074  -17.8540 H   0  0  0  0  0
  -67.5017   26.6786  -16.0499 H   0  0  0  0  0
  -66.3258   27.7493  -16.9001 H   0  0  0  0  0
  -67.5550   25.1794  -17.9337 H   0  0  0  0  0
  -65.8287   25.4618  -17.4434 H   0  0  0  0  0
  -65.6317   26.9403  -19.3990 H   0  0  0  0  0
  -65.9182   26.9341  -21.6500 H   0  0  0  0  0
  -68.5484   24.6574  -21.0421 H   0  0  0  0  0
  -68.3330   24.6644  -19.2886 H   0  0  0  0  0
  -69.2324   31.3856  -17.5181 H   0  0  0  0  0
  -72.0697   31.3207  -17.9953 H   0  0  0  0  0
  -71.7415   33.4976  -19.1196 H   0  0  0  0  0
  -69.9326   33.2498  -18.9168 H   0  0  0  0  0
  -70.2539   33.2559  -16.5085 H   0  0  0  0  0
  -72.0070   33.6041  -16.7568 H   0  0  0  0  0
  -69.7337   35.3588  -17.7331 H   0  0  0  0  0
  -70.6642   35.6252  -16.2081 H   0  0  0  0  0
  -72.5167   35.4367  -18.3164 H   0  0  0  0  0
  -69.8632   37.5714  -17.3333 H   0  0  0  0  0
  -72.6209   38.8264  -19.1632 H   0  0  0  0  0
  -73.4509   37.2689  -19.2440 H   0  0  0  0  0
  -69.2514   30.7420  -20.0275 H   0  0  0  0  0
  -70.9389   30.6346  -22.4258 H   0  0  0  0  0
  -68.7187   31.6014  -22.6081 H   0  0  0  0  0
  -68.7735   30.0246  -23.5595 H   0  0  0  0  0
  -67.6148   28.9545  -21.7114 H   0  0  0  0  0
  -67.4552   30.5704  -20.9135 H   0  0  0  0  0
  -64.7277   29.3362  -23.6070 H   0  0  0  0  0
  -65.9013   28.2890  -22.8024 H   0  0  0  0  0
  -72.1706   28.8326  -21.1555 H   0  0  0  0  0
  -70.9939   26.2222  -22.0734 H   0  0  0  0  0
  -70.9924   26.3347  -19.6292 H   0  0  0  0  0
  -72.2194   25.1524  -20.1914 H   0  0  0  0  0
  -73.9512   26.9206  -19.9613 H   0  0  0  0  0
  -72.6766   27.9887  -19.2185 H   0  0  0  0  0
  -72.4818   26.5493  -17.3401 H   0  0  0  0  0
  -73.5261   25.3040  -18.1095 H   0  0  0  0  0
  -75.4076   26.4909  -17.4468 H   0  0  0  0  0
  -73.4194   29.8443  -16.3211 H   0  0  0  0  0
  -72.5398   28.5569  -17.1519 H   0  0  0  0  0
  -76.4910   28.1534  -16.3009 H   0  0  0  0  0
  -73.4578   24.8941  -21.1765 H   0  0  0  0  0
  -74.8541   23.9499  -22.9203 H   0  0  0  0  0
  -76.7650   24.0124  -21.7707 H   0  0  0  0  0
  -76.6351   25.9199  -21.5699 H   0  0  0  0  0
  -75.4742   25.6387  -19.6345 H   0  0  0  0  0
  -77.9479   25.4090  -19.5256 H   0  0  0  0  0
  -77.7959   23.6496  -19.7550 H   0  0  0  0  0
  -77.1793   24.4101  -18.2676 H   0  0  0  0  0
  -75.4137   22.6566  -20.0236 H   0  0  0  0  0
  -74.0392   23.7850  -20.1162 H   0  0  0  0  0
  -74.8902   23.5434  -18.5708 H   0  0  0  0  0
  -76.0263   27.1115  -22.6623 H   0  0  0  0  0
  1  2  1  0  0  0
  2  3  1  0  0  0
  2  5  1  0  0  0
  3  4  2  0  0  0
  3 10  1  0  0  0
  5  6  1  0  0  0
  6  7  1  0  0  0
  7  8  1  0  0  0
  8  9  1  0  0  0
 10 11  1  0  0  0
 11 12  1  0  0  0
 11 14  1  0  0  0
 12 13  2  0  0  0
 12 18  1  0  0  0
 14 15  1  0  0  0
 14 16  1  0  0  0
 15 17  1  0  0  0
 18 19  1  0  0  0
 19 20  1  0  0  0
 19 22  1  0  0  0
 20 21  2  0  0  0
 20 26  1  0  0  0
 22 23  1  0  0  0
 23 24  1  0  0  0
 23 25  1  0  0  0
 26 27  1  0  0  0
 27 28  1  0  0  0
 27 30  1  0  0  0
 28 29  2  0  0  0
 28 34  1  0  0  0
 30 31  1  0  0  0
 31 32  1  0  0  0
 31 33  1  0  0  0
 34 35  1  0  0  0
 35 36  1  0  0  0
 35 38  1  0  0  0
 36 37  2  0  0  0
 36 41  1  0  0  0
 38 39  1  0  0  0
 38 40  1  0  0  0
 41 42  1  0  0  0
 41 47  1  0  0  0
 42 43  1  0  0  0
 42 45  1  0  0  0
 43 44  2  0  0  0
 43 48  1  0  0  0
 45 46  1  0  0  0
 46 47  1  0  0  0
 48 49  1  0  0  0
 49 50  1  0  0  0
 49 52  1  0  0  0
 50 51  2  0  0  0
 50 59  1  0  0  0
 52 53  1  0  0  0
 53 54  1  0  0  0
 54 55  1  0  0  0
 55 56  1  0  0  0
 56 57  1  0  0  0
 56 58  2  0  0  0
 59 60  1  0  0  0
 60 61  1  0  0  0
 60 63  1  0  0  0
 61 62  2  0  0  0
 61 70  1  0  0  0
 63 64  1  0  0  0
 64 65  1  0  0  0
 65 66  1  0  0  0
 66 67  1  0  0  0
 67 68  2  0  0  0
 67 69  1  0  0  0
 70 71  1  0  0  0
 71 72  1  0  0  0
 71 74  1  0  0  0
 72 73  2  0  0  0
 72 81  1  0  0  0
 74 75  1  0  0  0
 75 76  1  0  0  0
 76 77  1  0  0  0
 77 78  1  0  0  0
 78 79  2  0  0  0
 78 80  1  0  0  0
 81 82  1  0  0  0
 82 83  1  0  0  0
 82 85  1  0  0  0
 83 84  2  0  0  0
 83 90  1  0  0  0
 85 86  1  0  0  0
 86 87  1  0  0  0
 87 88  2  0  0  0
 87 89  1  0  0  0
 90 91  1  0  0  0
 91 92  1  0  0  0
 91 94  1  0  0  0
 92 93  2  0  0  0
 92101  1  0  0  0
 94 95  1  0  0  0
 95 96  1  0  0  0
 96 97  1  0  0  0
 97 98  1  0  0  0
 98 99  1  0  0  0
 98100  2  0  0  0
101102  1  0  0  0
102103  1  0  0  0
102105  1  0  0  0
103104  2  0  0  0
103109  1  0  0  0
105106  1  0  0  0
106107  1  0  0  0
106108  1  0  0  0
  1110  1  0  0  0
  1111  1  0  0  0
  1112  1  0  0  0
  2113  1  0  0  0
  5114  1  0  0  0
  5115  1  0  0  0
  6116  1  0  0  0
  6117  1  0  0  0
  7118  1  0  0  0
  7119  1  0  0  0
  8120  1  0  0  0
  8121  1  0  0  0
  9122  1  0  0  0
  9123  1  0  0  0
  9124  1  0  0  0
 10125  1  0  0  0
 11126  1  0  0  0
 14127  1  0  0  0
 15128  1  0  0  0
 15129  1  0  0  0
 16130  1  0  0  0
 16131  1  0  0  0
 16132  1  0  0  0
 17133  1  0  0  0
 17134  1  0  0  0
 17135  1  0  0  0
 18136  1  0  0  0
 19137  1  0  0  0
 22138  1  0  0  0
 22139  1  0  0  0
 23140  1  0  0  0
 24141  1  0  0  0
 24142  1  0  0  0
 24143  1  0  0  0
 25144  1  0  0  0
 25145  1  0  0  0
 25146  1  0  0  0
 26147  1  0  0  0
 27148  1  0  0  0
 30149  1  0  0  0
 30150  1  0  0  0
 31151  1  0  0  0
 32152  1  0  0  0
 32153  1  0  0  0
 32154  1  0  0  0
 33155  1  0  0  0
 33156  1  0  0  0
 33157  1  0  0  0
 34158  1  0  0  0
 35159  1  0  0  0
 38160  1  0  0  0
 39161  1  0  0  0
 40162  1  0  0  0
 40163  1  0  0  0
 40164  1  0  0  0
 42165  1  0  0  0
 45166  1  0  0  0
 45167  1  0  0  0
 46168  1  0  0  0
 46169  1  0  0  0
 47170  1  0  0  0
 47171  1  0  0  0
 48172  1  0  0  0
 49173  1  0  0  0
 52174  1  0  0  0
 52175  1  0  0  0
 53176  1  0  0  0
 53177  1  0  0  0
 54178  1  0  0  0
 54179  1  0  0  0
 55180  1  0  0  0
 57181  1  0  0  0
 57182  1  0  0  0
 58183  1  0  0  0
 59184  1  0  0  0
 60185  1  0  0  0
 63186  1  0  0  0
 63187  1  0  0  0
 64188  1  0  0  0
 64189  1  0  0  0
 65190  1  0  0  0
 65191  1  0  0  0
 66192  1  0  0  0
 68193  1  0  0  0
 69194  1  0  0  0
 69195  1  0  0  0
 70196  1  0  0  0
 71197  1  0  0  0
 74198  1  0  0  0
 74199  1  0  0  0
 75200  1  0  0  0
 75201  1  0  0  0
 76202  1  0  0  0
 76203  1  0  0  0
 77204  1  0  0  0
 79205  1  0  0  0
 80206  1  0  0  0
 80207  1  0  0  0
 81208  1  0  0  0
 82209  1  0  0  0
 85210  1  0  0  0
 85211  1  0  0  0
 86212  1  0  0  0
 86213  1  0  0  0
 89214  1  0  0  0
 89215  1  0  0  0
 90216  1  0  0  0
 91217  1  0  0  0
 94218  1  0  0  0
 94219  1  0  0  0
 95220  1  0  0  0
 95221  1  0  0  0
 96222  1  0  0  0
 96223  1  0  0  0
 97224  1  0  0  0
 99225  1  0  0  0
 99226  1  0  0  0
100227  1  0  0  0
101228  1  0  0  0
102229  1  0  0  0
105230  1  0  0  0
105231  1  0  0  0
106232  1  0  0  0
107233  1  0  0  0
107234  1  0  0  0
107235  1  0  0  0
108236  1  0  0  0
108237  1  0  0  0
108238  1  0  0  0
109239  1  0  0  0
M  END
$$$$
