6dlx_ligand
  -I-interpret- 

 22 22  0  0  0  0  0  0  0  0999 V2000
   46.8410   20.7850   47.3440 C   0  0  0  0  0
   45.9030   20.5210   45.2700 C   0  0  0  0  0
   46.7220   20.7950   44.1800 C   0  0  0  0  0
   46.1950   21.4800   43.0880 C   0  0  0  0  0
   44.8620   21.8800   43.1030 C   0  0  0  0  0
   44.0400   21.6050   44.1910 C   0  0  0  0  0
   44.5730   20.9220   45.2750 C   0  0  0  0  0
   44.1620   23.9190   42.3050 C   0  0  0  0  0
   43.8570   20.6200   46.3540 N   0  0  0  0  0
   46.3460   19.8570   46.3720 O   0  0  0  0  0
   44.4160   22.5430   42.0010 O   0  0  0  0  0
   47.2770   21.8650   41.6020 Br  0  0  0  0  0
   47.6656   21.3539   46.9144 H   0  0  0  0  0
   46.0410   21.4658   47.6349 H   0  0  0  0  0
   47.1918   20.2392   48.2199 H   0  0  0  0  0
   47.7646   20.4772   44.1804 H   0  0  0  0  0
   42.9966   21.9202   44.1920 H   0  0  0  0  0
   43.4041   23.9834   43.0858 H   0  0  0  0  0
   45.0825   24.3893   42.6507 H   0  0  0  0  0
   43.8066   24.4281   41.4091 H   0  0  0  0  0
   44.2894   20.1162   47.1284 H   0  0  0  0  0
   42.8754   20.8921   46.4073 H   0  0  0  0  0
 10  1  1  0  0  0
  2  3  4  0  0  0
  2  7  4  0  0  0
  2 10  1  0  0  0
  3  4  4  0  0  0
  4  5  4  0  0  0
  4 12  1  0  0  0
  5  6  4  0  0  0
  5 11  1  0  0  0
  6  7  4  0  0  0
  7  9  1  0  0  0
 11  8  1  0  0  0
  1 13  1  0  0  0
  1 14  1  0  0  0
  1 15  1  0  0  0
  3 16  1  0  0  0
  6 17  1  0  0  0
  8 18  1  0  0  0
  8 19  1  0  0  0
  8 20  1  0  0  0
  9 21  1  0  0  0
  9 22  1  0  0  0
M  END
$$$$
