6ew6_ligand
  -I-interpret- 

 23 24  0  0  0  0  0  0  0  0999 V2000
   12.0060    2.6370  -11.3560 C   0  0  0  0  0
   11.0540    3.0480  -12.2740 C   0  0  0  0  0
   11.1020    2.5490  -13.5650 C   0  0  0  0  0
   14.2160    0.3180  -17.9790 C   0  0  0  0  0
   15.4870    1.2900  -16.4060 C   0  0  0  0  0
    9.9990    3.1900  -14.7320 Cl  0  0  0  0  0
   12.1270    1.7100  -13.9790 C   0  0  0  0  0
   13.0220    1.2370  -13.0160 C   0  0  0  0  0
   12.9160    1.6610  -11.6990 C   0  0  0  0  0
   12.1730    1.2760  -15.3260 N   0  0  0  0  0
   13.2540    1.1320  -16.1420 C   0  0  0  0  0
   14.4150    1.6010  -15.6500 N   0  0  0  0  0
   16.6820    1.6820  -15.9500 N   0  0  0  0  0
   15.4460    0.6910  -17.6240 N   0  0  0  0  0
   13.0610    0.5890  -17.3620 N   0  0  0  0  0
   12.0353    3.0853  -10.3629 H   0  0  0  0  0
   10.2769    3.7552  -11.9841 H   0  0  0  0  0
   14.1429   -0.2829  -18.8854 H   0  0  0  0  0
   13.8049    0.5337  -13.2998 H   0  0  0  0  0
   13.5547    1.2205  -10.9334 H   0  0  0  0  0
   11.2727    1.0385  -15.7426 H   0  0  0  0  0
   16.7497    2.1908  -15.0686 H   0  0  0  0  0
   17.5255    1.4720  -16.4837 H   0  0  0  0  0
  2  1  4  0  0  0
  9  1  4  0  0  0
  3  2  4  0  0  0
  3  6  1  0  0  0
  7  3  4  0  0  0
 14  4  4  0  0  0
  4 15  4  0  0  0
 12  5  4  0  0  0
  5 13  1  0  0  0
  5 14  4  0  0  0
  7  8  4  0  0  0
 10  7  1  0  0  0
  8  9  4  0  0  0
 11 10  1  0  0  0
 11 12  4  0  0  0
 11 15  4  0  0  0
  1 16  1  0  0  0
  2 17  1  0  0  0
  4 18  1  0  0  0
  8 19  1  0  0  0
  9 20  1  0  0  0
 10 21  1  0  0  0
 13 22  1  0  0  0
 13 23  1  0  0  0
M  END
$$$$
