3m3o_ligand
  -I-interpret- 

 63 65  0  0  0  0  0  0  0  0999 V2000
    1.8920  -19.5680   -0.2800 C   0  0  0  0  0
    0.9340  -18.3750   -0.3250 C   0  0  0  0  0
    1.7030  -17.0600   -0.4630 C   0  0  0  0  0
    2.7380  -16.9750    0.6580 C   0  0  0  0  0
    3.6330  -18.2160    0.6100 C   0  0  0  0  0
    4.7100  -18.1320    1.6950 C   0  0  0  0  0
    0.0200  -18.5290   -1.4130 O   0  0  0  0  0
    0.7940  -15.9610   -0.3600 O   0  0  0  0  0
    2.0570  -16.9250    1.9150 O   0  0  0  0  0
    2.8400  -19.4000    0.7870 O   0  0  0  0  0
    5.6120  -19.2360    1.5730 O   0  0  0  0  0
    2.5570  -24.6460   -0.0040 O   0  0  0  0  0
    1.4050  -24.4010   -0.8250 C   0  0  0  0  0
    0.7490  -23.0950   -0.3700 C   0  0  0  0  0
   -0.4560  -22.8180   -1.1660 N   0  0  0  0  0
    1.7250  -21.9260   -0.5060 C   0  0  0  0  0
    1.0930  -20.7320   -0.0230 O   0  0  0  0  0
    2.9950  -22.2740    0.2740 C   0  0  0  0  0
    2.7070  -22.3510    1.6720 O   0  0  0  0  0
    3.5440  -23.6210   -0.2010 C   0  0  0  0  0
    4.8050  -23.9650    0.5930 C   0  0  0  0  0
    5.3390  -25.2020    0.1160 O   0  0  0  0  0
   -1.6480  -23.2930   -0.8160 C   0  0  0  0  0
   -1.7670  -24.0560    0.3030 O   0  0  0  0  0
   -2.7680  -23.0030   -1.5860 C   0  0  0  0  0
   -1.0690  -25.2350   -4.9730 C   0  0  0  0  0
   -0.0370  -24.3650   -5.3070 C   0  0  0  0  0
    0.9210  -24.0270   -4.3570 C   0  0  0  0  0
    0.8500  -24.5620   -3.0750 C   0  0  0  0  0
   -0.1860  -25.4260   -2.7410 C   0  0  0  0  0
   -1.1470  -25.7620   -3.6880 C   0  0  0  0  0
    1.8440  -24.2900   -2.1870 O   0  0  0  0  0
   -1.9800  -25.5620   -5.8840 N   0  0  0  0  0
   -3.0570  -26.4230   -5.5370 O   0  0  0  0  0
   -1.8870  -25.0320   -7.1990 O   0  0  0  0  0
    2.4414  -19.6575   -1.2172 H   0  0  0  0  0
    0.3769  -18.3438    0.6113 H   0  0  0  0  0
    2.2016  -17.0216   -1.4315 H   0  0  0  0  0
    3.3495  -16.0810    0.5357 H   0  0  0  0  0
    4.1217  -18.2622   -0.3632 H   0  0  0  0  0
    4.2352  -18.1626    2.6757 H   0  0  0  0  0
    5.2644  -17.2006    1.5797 H   0  0  0  0  0
   -0.4559  -19.3570   -1.3149 H   0  0  0  0  0
    0.1450  -16.0168   -1.0652 H   0  0  0  0  0
    1.4964  -16.1462    1.9432 H   0  0  0  0  0
    6.2836  -19.1760    2.2563 H   0  0  0  0  0
    0.6805  -25.2109   -0.7399 H   0  0  0  0  0
    0.4695  -23.2076    0.6775 H   0  0  0  0  0
   -0.3757  -22.2473   -2.0076 H   0  0  0  0  0
    2.0018  -21.7485   -1.5452 H   0  0  0  0  0
    3.7367  -21.4945    0.0998 H   0  0  0  0  0
    3.5095  -22.5696    2.1513 H   0  0  0  0  0
    3.7868  -23.5572   -1.2617 H   0  0  0  0  0
    4.5572  -24.0575    1.6504 H   0  0  0  0  0
    5.5443  -23.1743    0.4653 H   0  0  0  0  0
    6.1308  -25.4202    0.6129 H   0  0  0  0  0
   -3.2093  -23.9318   -1.9474 H   0  0  0  0  0
   -3.4960  -22.4657   -0.9782 H   0  0  0  0  0
   -2.4740  -22.3848   -2.4342 H   0  0  0  0  0
    0.0212  -23.9482   -6.3125 H   0  0  0  0  0
    1.7281  -23.3423   -4.6173 H   0  0  0  0  0
   -0.2453  -25.8410   -1.7348 H   0  0  0  0  0
   -1.9606  -26.4376   -3.4238 H   0  0  0  0  0
  1  2  1  0  0  0
  1 10  1  0  0  0
 17  1  1  0  0  0
  2  3  1  0  0  0
  2  7  1  0  0  0
  3  4  1  0  0  0
  3  8  1  0  0  0
  5  4  1  0  0  0
  4  9  1  0  0  0
  5  6  1  0  0  0
 10  5  1  0  0  0
  6 11  1  0  0  0
 13 12  1  0  0  0
 12 20  1  0  0  0
 13 14  1  0  0  0
 32 13  1  0  0  0
 14 15  1  0  0  0
 14 16  1  0  0  0
 15 23  1  0  0  0
 16 17  1  0  0  0
 16 18  1  0  0  0
 18 19  1  0  0  0
 20 18  1  0  0  0
 20 21  1  0  0  0
 21 22  1  0  0  0
 23 24  2  0  0  0
 23 25  1  0  0  0
 27 26  4  0  0  0
 26 31  4  0  0  0
 26 33  1  0  0  0
 28 27  4  0  0  0
 29 28  4  0  0  0
 29 30  4  0  0  0
 29 32  1  0  0  0
 30 31  4  0  0  0
 33 34  2  0  0  0
 33 35  2  0  0  0
  1 36  1  0  0  0
  2 37  1  0  0  0
  3 38  1  0  0  0
  4 39  1  0  0  0
  5 40  1  0  0  0
  6 41  1  0  0  0
  6 42  1  0  0  0
  7 43  1  0  0  0
  8 44  1  0  0  0
  9 45  1  0  0  0
 11 46  1  0  0  0
 13 47  1  0  0  0
 14 48  1  0  0  0
 15 49  1  0  0  0
 16 50  1  0  0  0
 18 51  1  0  0  0
 19 52  1  0  0  0
 20 53  1  0  0  0
 21 54  1  0  0  0
 21 55  1  0  0  0
 22 56  1  0  0  0
 25 57  1  0  0  0
 25 58  1  0  0  0
 25 59  1  0  0  0
 27 60  1  0  0  0
 28 61  1  0  0  0
 30 62  1  0  0  0
 31 63  1  0  0  0
M  END
$$$$
