4x5r_ligand
  -I-interpret- 

 60 63  0  0  0  0  0  0  0  0999 V2000
   11.7080   14.0570  -14.9790 O   0  0  0  0  0
    9.7170   18.4140  -16.1470 C   0  0  0  0  0
    9.3980   17.1920  -15.5730 C   0  0  0  0  0
   11.1630   13.9260  -11.3500 O   0  0  0  0  0
   10.4530   20.8560  -17.7390 C   0  0  0  0  0
   11.7140   22.5450  -19.2510 N   0  0  0  0  0
   10.7900   22.0870  -18.3770 C   0  0  0  0  0
    9.6950   22.8070  -17.6730 C   0  0  0  0  0
   14.1550   23.8070  -19.9970 N   0  3  0  0  0
    9.3220   21.4820  -16.9940 C   0  0  0  0  0
    9.2670   12.0520  -12.2640 O   0  0  0  0  0
   12.8400   21.7490  -19.8080 C   0  0  0  0  0
   10.5300   11.4200  -14.7460 O   0  0  0  0  0
   14.1560   22.4320  -19.5130 C   0  0  0  0  0
   13.0430   24.5410  -19.3930 C   0  0  0  0  0
   11.7180   23.9140  -19.7680 C   0  0  0  0  0
   14.0330   13.6380  -13.4710 O   0  0  0  0  0
   15.4690   24.4870  -19.6750 C   0  0  0  0  0
   10.4130   13.7300  -15.4390 C   0  0  0  0  0
    8.4910   21.1830  -16.2180 O   0  0  0  0  0
    9.3210   23.9240  -17.6500 O   0  0  0  0  0
   11.0350   19.6070  -17.8250 N   0  0  0  0  0
   10.6680   18.4410  -17.1610 C   0  0  0  0  0
   11.2820   17.2490  -17.5960 C   0  0  0  0  0
   10.9200   16.0290  -16.9910 C   0  0  0  0  0
    8.2250   17.1580  -14.3290 Cl  0  0  0  0  0
    9.9710   16.0190  -15.9710 C   0  0  0  0  0
    9.5640   14.8510  -15.3610 O   0  0  0  0  0
    9.7900   12.6380  -14.5780 C   0  0  0  0  0
    9.7760   13.0750  -13.1150 C   0  0  0  0  0
   11.1840   13.4360  -12.6840 C   0  0  0  0  0
   11.7660   14.4990  -13.6080 C   0  0  0  0  0
   13.2160   14.7910  -13.2910 C   0  0  0  0  0
    9.2335   19.3313  -15.8110 H   0  0  0  0  0
   12.0556   14.1537  -11.0799 H   0  0  0  0  0
   14.0403   23.7990  -21.0105 H   0  0  0  0  0
    9.2730   12.3610  -11.3551 H   0  0  0  0  0
   12.7166   21.6620  -20.8875 H   0  0  0  0  0
   12.8398   20.7601  -19.3495 H   0  0  0  0  0
   10.1381   10.7314  -14.2039 H   0  0  0  0  0
   14.3087   22.4427  -18.4338 H   0  0  0  0  0
   14.9529   21.8856  -20.0176 H   0  0  0  0  0
   13.0611   25.5682  -19.7571 H   0  0  0  0  0
   13.1509   24.5123  -18.3087 H   0  0  0  0  0
   10.8931   24.4842  -19.3406 H   0  0  0  0  0
   11.5913   23.9119  -20.8506 H   0  0  0  0  0
   14.9441   13.8570  -13.2622 H   0  0  0  0  0
   15.6188   24.4924  -18.5954 H   0  0  0  0  0
   16.2843   23.9444  -20.1535 H   0  0  0  0  0
   15.4465   25.5120  -20.0451 H   0  0  0  0  0
   10.5165   13.3913  -16.4699 H   0  0  0  0  0
   11.8341   19.5295  -18.4542 H   0  0  0  0  0
   12.0277   17.2708  -18.3907 H   0  0  0  0  0
   11.3804   15.0972  -17.3195 H   0  0  0  0  0
    8.7597   12.4646  -14.8887 H   0  0  0  0  0
    9.1197   13.9410  -13.0285 H   0  0  0  0  0
   11.8073   12.5434  -12.7373 H   0  0  0  0  0
   11.1704   15.3995  -13.4580 H   0  0  0  0  0
   13.5665   15.5711  -13.9668 H   0  0  0  0  0
   13.2852   15.1035  -12.2491 H   0  0  0  0  0
  1 19  1  0  0  0
 32  1  1  0  0  0
  3  2  4  0  0  0
  2 23  4  0  0  0
  3 26  1  0  0  0
 27  3  4  0  0  0
 31  4  1  0  0  0
  5  7  2  0  0  0
  5 10  1  0  0  0
 22  5  1  0  0  0
  7  6  1  0  0  0
  6 12  1  0  0  0
  6 16  1  0  0  0
  7  8  1  0  0  0
 10  8  1  0  0  0
  8 21  2  0  0  0
 14  9  1  0  0  0
 15  9  1  0  0  0
  9 18  1  0  0  0
 10 20  2  0  0  0
 30 11  1  0  0  0
 12 14  1  0  0  0
 29 13  1  0  0  0
 16 15  1  0  0  0
 33 17  1  0  0  0
 19 28  1  0  0  0
 19 29  1  0  0  0
 23 22  1  0  0  0
 24 23  4  0  0  0
 25 24  4  0  0  0
 27 25  4  0  0  0
 28 27  1  0  0  0
 30 29  1  0  0  0
 31 30  1  0  0  0
 32 31  1  0  0  0
 32 33  1  0  0  0
  2 34  1  0  0  0
  4 35  1  0  0  0
  9 36  1  0  0  0
 11 37  1  0  0  0
 12 38  1  0  0  0
 12 39  1  0  0  0
 13 40  1  0  0  0
 14 41  1  0  0  0
 14 42  1  0  0  0
 15 43  1  0  0  0
 15 44  1  0  0  0
 16 45  1  0  0  0
 16 46  1  0  0  0
 17 47  1  0  0  0
 18 48  1  0  0  0
 18 49  1  0  0  0
 18 50  1  0  0  0
 19 51  1  0  0  0
 22 52  1  0  0  0
 24 53  1  0  0  0
 25 54  1  0  0  0
 29 55  1  0  0  0
 30 56  1  0  0  0
 31 57  1  0  0  0
 32 58  1  0  0  0
 33 59  1  0  0  0
 33 60  1  0  0  0
M  END
$$$$
