2xdx_ligand
  -I-interpret- 

 26 27  0  0  0  0  0  0  0  0999 V2000
    7.8430    1.1960   11.3880 C   0  0  0  0  0
    7.1520    0.0690   10.8440 O   0  0  0  0  0
    6.6110    0.1980    9.5910 C   0  0  0  0  0
    6.0840    1.3720    9.0780 C   0  0  0  0  0
    5.5590    1.3950    7.8060 C   0  0  0  0  0
    5.5890    0.2530    7.0220 C   0  0  0  0  0
    6.1200   -0.9240    7.5200 C   0  0  0  0  0
    6.6510   -0.9650    8.8020 C   0  0  0  0  0
    7.2110   -2.2400    9.3090 C   0  0  0  0  0
    8.1140   -2.9860    8.5920 C   0  0  0  0  0
    8.5540   -4.1750    9.1470 C   0  0  0  0  0
    9.6710   -5.1730    8.2680 Cl  0  0  0  0  0
    8.1690   -4.6230   10.3490 N   0  0  0  0  0
    7.2720   -3.8210   11.0000 C   0  0  0  0  0
    6.8410   -4.2230   12.2520 N   0  0  0  0  0
    6.7980   -2.6350   10.5260 N   0  0  0  0  0
    8.6797    1.4554   10.7393 H   0  0  0  0  0
    7.1588    2.0418   11.4563 H   0  0  0  0  0
    8.2155    0.9472   12.3817 H   0  0  0  0  0
    6.0851    2.2789    9.6827 H   0  0  0  0  0
    5.1192    2.3125    7.4150 H   0  0  0  0  0
    5.1921    0.2818    6.0072 H   0  0  0  0  0
    6.1213   -1.8226    6.9030 H   0  0  0  0  0
    8.4723   -2.6527    7.6180 H   0  0  0  0  0
    7.1919   -5.0905   12.6579 H   0  0  0  0  0
    6.1724   -3.6518   12.7689 H   0  0  0  0  0
  1  2  1  0  0  0
  2  3  1  0  0  0
  3  4  4  0  0  0
  3  8  4  0  0  0
  4  5  4  0  0  0
  5  6  4  0  0  0
  6  7  4  0  0  0
  7  8  4  0  0  0
  8  9  1  0  0  0
  9 10  4  0  0  0
  9 16  4  0  0  0
 10 11  4  0  0  0
 11 12  1  0  0  0
 11 13  4  0  0  0
 13 14  4  0  0  0
 14 15  1  0  0  0
 14 16  4  0  0  0
  1 17  1  0  0  0
  1 18  1  0  0  0
  1 19  1  0  0  0
  4 20  1  0  0  0
  5 21  1  0  0  0
  6 22  1  0  0  0
  7 23  1  0  0  0
 10 24  1  0  0  0
 15 25  1  0  0  0
 15 26  1  0  0  0
M  END
$$$$
