5c0k_ligand
  -I-interpret- 

 31 30  0  0  0  0  0  0  0  0999 V2000
  -16.2450  -16.0970   -3.1380 C   0  0  0  0  0
  -15.4860  -16.8460   -4.2280 C   0  0  0  0  0
  -13.9760  -16.6390   -4.0710 C   0  0  0  0  0
  -16.3400  -19.3000   -2.0540 C   0  0  0  0  0
  -15.7340  -20.0450   -0.8680 C   0  0  0  0  0
  -15.2750  -19.0550   -5.4510 C   0  0  0  0  0
  -15.8860  -18.3360   -4.2580 C   0  0  0  0  0
  -15.4870  -19.0210   -3.0400 N   0  0  0  0  0
  -17.5330  -18.9900   -2.0740 O   0  0  0  0  0
  -15.4760  -21.5100   -1.1870 C   0  0  0  0  0
  -16.6680  -19.9360    0.2850 N   0  3  0  0  0
  -14.1680  -19.5940   -5.3460 O   0  0  0  0  0
  -15.9910  -19.0550   -6.5650 N   0  0  0  0  0
  -17.3159  -16.1678   -3.3285 H   0  0  0  0  0
  -16.0171  -16.5399   -2.1685 H   0  0  0  0  0
  -15.9427  -15.0498   -3.1406 H   0  0  0  0  0
  -15.7638  -16.4335   -5.1979 H   0  0  0  0  0
  -13.6436  -17.0923   -3.1371 H   0  0  0  0  0
  -13.4575  -17.1066   -4.9080 H   0  0  0  0  0
  -13.7565  -15.5714   -4.0566 H   0  0  0  0  0
  -14.7712  -19.5930   -0.6295 H   0  0  0  0  0
  -16.9724  -18.3610   -4.3430 H   0  0  0  0  0
  -14.5117  -19.3006   -2.9348 H   0  0  0  0  0
  -15.0344  -21.9975   -0.3178 H   0  0  0  0  0
  -16.4181  -21.9971   -1.4388 H   0  0  0  0  0
  -14.7914  -21.5814   -2.0322 H   0  0  0  0  0
  -16.8362  -18.9517    0.4929 H   0  0  0  0  0
  -17.5504  -20.3907    0.0504 H   0  0  0  0  0
  -16.2555  -20.3911    1.0993 H   0  0  0  0  0
  -15.6342  -19.5185   -7.4006 H   0  0  0  0  0
  -16.8993  -18.5915   -6.5874 H   0  0  0  0  0
  2  1  1  0  0  0
  2  3  1  0  0  0
  7  2  1  0  0  0
  4  5  1  0  0  0
  8  4  1  0  0  0
  4  9  2  0  0  0
  5 10  1  0  0  0
  5 11  1  0  0  0
  7  6  1  0  0  0
  6 12  2  0  0  0
  6 13  1  0  0  0
  7  8  1  0  0  0
  1 14  1  0  0  0
  1 15  1  0  0  0
  1 16  1  0  0  0
  2 17  1  0  0  0
  3 18  1  0  0  0
  3 19  1  0  0  0
  3 20  1  0  0  0
  5 21  1  0  0  0
  7 22  1  0  0  0
  8 23  1  0  0  0
 10 24  1  0  0  0
 10 25  1  0  0  0
 10 26  1  0  0  0
 11 27  1  0  0  0
 11 28  1  0  0  0
 11 29  1  0  0  0
 13 30  1  0  0  0
 13 31  1  0  0  0
M  END
$$$$
