4dko_ligand
  -I-interpret- 

 51 52  0  0  0  0  0  0  0  0999 V2000
   28.1020  -15.4540   37.4700 C   0  0  0  0  0
   28.4590  -15.3320   34.9130 C   0  0  0  0  0
   28.2240  -13.3160   33.4590 C   0  0  0  0  0
   30.3380  -13.6710   34.7480 C   0  0  0  0  0
   31.7850  -13.6890   34.3800 C   0  0  0  0  0
   27.3240  -12.3480   34.1470 C   0  0  0  0  0
   27.9760  -13.1160   31.9980 C   0  0  0  0  0
   27.2230  -14.7080   43.5510 C   0  0  0  0  0
   25.8460  -14.5560   43.6230 C   0  0  0  0  0
   25.0720  -14.7230   42.4840 C   0  0  0  0  0
   25.6730  -15.0430   41.2750 C   0  0  0  0  0
   27.0540  -15.1890   41.1960 C   0  0  0  0  0
   27.8230  -15.0280   42.3400 C   0  0  0  0  0
   27.7050  -15.5290   39.9590 N   0  0  0  0  0
   27.3400  -15.0090   38.6740 C   0  0  0  0  0
   26.4280  -14.2070   38.5420 O   0  0  0  0  0
   27.7540  -14.9350   36.1830 N   0  0  0  0  0
   29.0140  -16.2570   37.6060 O   0  0  0  0  0
   27.8110  -14.7220   33.7860 C   0  0  0  0  0
   29.6200  -12.9590   33.7090 N   0  3  0  0  0
   29.9160  -15.0810   34.9430 C   0  0  0  0  0
   30.2240  -12.9400   36.0450 C   0  0  0  0  0
   30.1050  -11.6550   33.3590 C   0  0  0  0  0
   25.0910  -14.1580   45.1260 Cl  0  0  0  0  0
   23.7520  -14.5770   42.5560 F   0  0  0  0  0
   28.3760  -16.4143   34.8135 H   0  0  0  0  0
   31.9087  -14.1944   33.4222 H   0  0  0  0  0
   32.1515  -12.6654   34.3022 H   0  0  0  0  0
   32.3473  -14.2203   35.1479 H   0  0  0  0  0
   27.5166  -12.3739   35.2195 H   0  0  0  0  0
   27.5134  -11.3442   33.7667 H   0  0  0  0  0
   26.2859  -12.6203   33.9563 H   0  0  0  0  0
   28.5668  -13.8338   31.4289 H   0  0  0  0  0
   26.9173  -13.2661   31.7866 H   0  0  0  0  0
   28.2638  -12.1029   31.7173 H   0  0  0  0  0
   27.8337  -14.5764   44.4442 H   0  0  0  0  0
   25.0606  -15.1805   40.3838 H   0  0  0  0  0
   28.9045  -15.1535   42.2878 H   0  0  0  0  0
   28.4826  -16.1878   39.9992 H   0  0  0  0  0
   26.9898  -14.2621   36.1226 H   0  0  0  0  0
   26.7508  -14.6759   34.0348 H   0  0  0  0  0
   28.0795  -15.3257   32.9191 H   0  0  0  0  0
   29.9555  -13.4397   32.8743 H   0  0  0  0  0
   30.3408  -15.6451   34.1127 H   0  0  0  0  0
   30.2553  -15.3670   35.9386 H   0  0  0  0  0
   30.6481  -11.9418   35.9365 H   0  0  0  0  0
   29.1736  -12.8614   36.3252 H   0  0  0  0  0
   30.7674  -13.4851   36.8168 H   0  0  0  0  0
   30.0704  -11.0085   34.2359 H   0  0  0  0  0
   31.1327  -11.7341   33.0046 H   0  0  0  0  0
   29.4790  -11.2352   32.5716 H   0  0  0  0  0
 15  1  1  0  0  0
  1 17  1  0  0  0
  1 18  2  0  0  0
 17  2  1  0  0  0
  2 19  1  0  0  0
  2 21  1  0  0  0
  3  6  1  0  0  0
  3  7  1  0  0  0
 19  3  1  0  0  0
  3 20  1  0  0  0
  4  5  1  0  0  0
  4 20  1  0  0  0
 21  4  1  0  0  0
  4 22  1  0  0  0
  8  9  4  0  0  0
 13  8  4  0  0  0
 10  9  4  0  0  0
  9 24  1  0  0  0
 11 10  4  0  0  0
 10 25  1  0  0  0
 12 11  4  0  0  0
 12 13  4  0  0  0
 14 12  1  0  0  0
 14 15  1  0  0  0
 15 16  2  0  0  0
 20 23  1  0  0  0
  2 26  1  0  0  0
  5 27  1  0  0  0
  5 28  1  0  0  0
  5 29  1  0  0  0
  6 30  1  0  0  0
  6 31  1  0  0  0
  6 32  1  0  0  0
  7 33  1  0  0  0
  7 34  1  0  0  0
  7 35  1  0  0  0
  8 36  1  0  0  0
 11 37  1  0  0  0
 13 38  1  0  0  0
 14 39  1  0  0  0
 17 40  1  0  0  0
 19 41  1  0  0  0
 19 42  1  0  0  0
 20 43  1  0  0  0
 21 44  1  0  0  0
 21 45  1  0  0  0
 22 46  1  0  0  0
 22 47  1  0  0  0
 22 48  1  0  0  0
 23 49  1  0  0  0
 23 50  1  0  0  0
 23 51  1  0  0  0
M  END
$$$$
