4qxj_ligand
  -I-interpret- 

 87 89  0  0  0  0  0  0  0  0999 V2000
   59.8840 -134.6610   34.6460 C   0  0  0  0  0
   60.0050 -135.8730   34.8260 O   0  0  0  0  0
   58.7140 -134.1040   33.8180 C   0  0  0  0  0
   57.6790 -133.7480   34.7880 N   0  3  0  0  0
   55.0410 -133.1120   35.3720 O   0  0  0  0  0
   56.6980 -134.8450   34.9450 C   0  0  0  0  0
   57.0220 -132.5050   34.3720 C   0  0  0  0  0
   55.5850 -134.3710   35.8000 C   0  0  0  0  0
   56.0280 -132.0710   35.3800 C   0  0  0  0  0
   60.7240 -133.7380   35.1400 N   0  0  0  0  0
   61.8810 -134.1180   35.9640 C   0  0  0  0  0
   61.4410 -134.2220   37.4270 C   0  0  0  0  0
   60.6040 -133.4530   37.9040 O   0  0  0  0  0
   63.0000 -133.0830   35.8240 C   0  0  0  0  0
   62.0330 -135.2130   38.1030 N   0  0  0  0  0
   61.7320 -135.4760   39.5080 C   0  0  0  0  0
   61.1920 -136.8720   39.6350 C   0  0  0  0  0
   59.8070 -136.8050   39.4810 C   0  0  0  0  0
   59.2160 -137.0090   38.2370 C   0  0  0  0  0
   57.8310 -136.9560   38.0960 C   0  0  0  0  0
   57.0180 -136.6960   39.2080 C   0  0  0  0  0
   55.6460 -136.6300   39.1870 O   0  0  0  0  0
   54.9250 -136.5930   37.9520 C   0  0  0  0  0
   57.6190 -136.5030   40.4470 C   0  0  0  0  0
   58.9990 -136.5560   40.5870 C   0  0  0  0  0
   63.0350 -135.3950   40.2950 C   0  0  0  0  0
   64.1230 -135.5500   39.7370 O   0  0  0  0  0
   62.8610 -135.1690   41.6050 N   0  0  0  0  0
   63.9750 -135.0530   42.5460 C   0  0  0  0  0
   63.8100 -136.0960   43.6720 C   0  0  0  0  0
   62.4620 -136.0380   44.1460 O   0  0  0  0  0
   64.1900 -137.6090   43.3140 C   0  0  0  0  0
   65.3180 -137.6760   42.2190 C   0  0  0  0  0
   62.9240 -138.2580   42.7510 C   0  0  0  0  0
   63.3330 -139.3740   41.9450 O   0  0  0  0  0
   63.9190 -133.6810   43.2030 C   0  0  0  0  0
   64.6550 -132.6780   42.5320 C   0  0  0  0  0
   65.5000 -132.8850   41.4320 C   0  0  0  0  0
   66.1710 -131.8070   40.8550 C   0  0  0  0  0
   66.0120 -130.5170   41.3600 C   0  0  0  0  0
   65.1760 -130.2970   42.4470 C   0  0  0  0  0
   64.5110 -131.3770   43.0220 C   0  0  0  0  0
   58.3502 -134.8380   33.0989 H   0  0  0  0  0
   59.0199 -133.2406   33.2272 H   0  0  0  0  0
   58.1154 -133.5999   35.6980 H   0  0  0  0  0
   57.1785 -135.7069   35.4081 H   0  0  0  0  0
   56.3140 -135.1398   33.9684 H   0  0  0  0  0
   56.5094 -132.6787   33.4259 H   0  0  0  0  0
   57.7779 -131.7267   34.2669 H   0  0  0  0  0
   54.7873 -135.1118   35.7455 H   0  0  0  0  0
   55.9765 -134.2366   36.8084 H   0  0  0  0  0
   56.4740 -131.9347   36.3652 H   0  0  0  0  0
   55.6003 -131.0969   35.1429 H   0  0  0  0  0
   60.5562 -132.7521   34.9396 H   0  0  0  0  0
   62.2626 -135.0816   35.6265 H   0  0  0  0  0
   63.3107 -133.0245   34.7808 H   0  0  0  0  0
   62.6355 -132.1092   36.1510 H   0  0  0  0  0
   63.8479 -133.3808   36.4408 H   0  0  0  0  0
   62.7141 -135.8018   37.6236 H   0  0  0  0  0
   61.0054 -134.7548   39.8820 H   0  0  0  0  0
   61.4462 -137.2905   40.6088 H   0  0  0  0  0
   61.6281 -137.5188   38.8737 H   0  0  0  0  0
   59.8412 -137.2116   37.3674 H   0  0  0  0  0
   57.3780 -137.1172   37.1178 H   0  0  0  0  0
   55.2286 -135.7151   37.3817 H   0  0  0  0  0
   55.1431 -137.4938   37.3783 H   0  0  0  0  0
   53.8559 -136.5420   38.1583 H   0  0  0  0  0
   56.9975 -136.3073   41.3208 H   0  0  0  0  0
   59.4517 -136.4021   41.5665 H   0  0  0  0  0
   61.9100 -135.0737   41.9612 H   0  0  0  0  0
   64.9120 -135.2045   42.0101 H   0  0  0  0  0
   64.5405 -135.8163   44.4311 H   0  0  0  0  0
   62.3428 -136.6819   44.8480 H   0  0  0  0  0
   64.5591 -138.1166   44.2052 H   0  0  0  0  0
   64.9711 -137.1825   41.3111 H   0  0  0  0  0
   66.2117 -137.1732   42.5886 H   0  0  0  0  0
   65.5499 -138.7186   42.0014 H   0  0  0  0  0
   62.3620 -137.5411   42.1524 H   0  0  0  0  0
   62.2737 -138.5902   43.5602 H   0  0  0  0  0
   62.5570 -139.8028   41.5768 H   0  0  0  0  0
   64.3553 -133.7855   44.1964 H   0  0  0  0  0
   62.8751 -133.3676   43.1975 H   0  0  0  0  0
   65.6324 -133.8886   41.0279 H   0  0  0  0  0
   66.8265 -131.9746   40.0004 H   0  0  0  0  0
   66.5431 -129.6824   40.9023 H   0  0  0  0  0
   65.0420 -129.2912   42.8452 H   0  0  0  0  0
   63.8597 -131.2028   43.8785 H   0  0  0  0  0
  1  2  2  0  0  0
  3  1  1  0  0  0
  1 10  1  0  0  0
  4  3  1  0  0  0
  6  4  1  0  0  0
  4  7  1  0  0  0
  8  5  1  0  0  0
  5  9  1  0  0  0
  6  8  1  0  0  0
  7  9  1  0  0  0
 10 11  1  0  0  0
 11 12  1  0  0  0
 11 14  1  0  0  0
 12 13  2  0  0  0
 12 15  1  0  0  0
 15 16  1  0  0  0
 16 17  1  0  0  0
 16 26  1  0  0  0
 17 18  1  0  0  0
 18 19  4  0  0  0
 18 25  4  0  0  0
 19 20  4  0  0  0
 20 21  4  0  0  0
 21 22  1  0  0  0
 21 24  4  0  0  0
 22 23  1  0  0  0
 24 25  4  0  0  0
 26 27  2  0  0  0
 26 28  1  0  0  0
 28 29  1  0  0  0
 29 30  1  0  0  0
 29 36  1  0  0  0
 30 31  1  0  0  0
 30 32  1  0  0  0
 32 33  1  0  0  0
 32 34  1  0  0  0
 34 35  1  0  0  0
 36 37  1  0  0  0
 37 38  4  0  0  0
 37 42  4  0  0  0
 38 39  4  0  0  0
 39 40  4  0  0  0
 40 41  4  0  0  0
 41 42  4  0  0  0
  3 43  1  0  0  0
  3 44  1  0  0  0
  4 45  1  0  0  0
  6 46  1  0  0  0
  6 47  1  0  0  0
  7 48  1  0  0  0
  7 49  1  0  0  0
  8 50  1  0  0  0
  8 51  1  0  0  0
  9 52  1  0  0  0
  9 53  1  0  0  0
 10 54  1  0  0  0
 11 55  1  0  0  0
 14 56  1  0  0  0
 14 57  1  0  0  0
 14 58  1  0  0  0
 15 59  1  0  0  0
 16 60  1  0  0  0
 17 61  1  0  0  0
 17 62  1  0  0  0
 19 63  1  0  0  0
 20 64  1  0  0  0
 23 65  1  0  0  0
 23 66  1  0  0  0
 23 67  1  0  0  0
 24 68  1  0  0  0
 25 69  1  0  0  0
 28 70  1  0  0  0
 29 71  1  0  0  0
 30 72  1  0  0  0
 31 73  1  0  0  0
 32 74  1  0  0  0
 33 75  1  0  0  0
 33 76  1  0  0  0
 33 77  1  0  0  0
 34 78  1  0  0  0
 34 79  1  0  0  0
 35 80  1  0  0  0
 36 81  1  0  0  0
 36 82  1  0  0  0
 38 83  1  0  0  0
 39 84  1  0  0  0
 40 85  1  0  0  0
 41 86  1  0  0  0
 42 87  1  0  0  0
M  END
$$$$
