4ufm_ligand
  -I-interpret- 

 25 25  0  0  0  0  0  0  0  0999 V2000
   76.8880   88.6370   18.1940 C   0  0  0  0  0
   76.3420   89.1330   19.5230 C   0  0  0  0  0
   75.4120   90.1940   19.3010 O   0  0  0  0  0
   77.4770   89.6060   20.4170 C   0  0  0  0  0
   77.0760   89.5820   21.7820 O   0  0  0  0  0
   78.7170   88.7490   20.2140 C   0  0  0  0  0
   78.4300   87.3890   20.5220 O   0  0  0  0  0
   79.2400   88.8820   18.7840 C   0  0  0  0  0
   78.1820   89.2180   17.8210 N   0  3  0  0  0
   80.0190   87.6670   18.3130 C   0  0  0  0  0
   80.6990   87.9630   17.1010 O   0  0  0  0  0
   76.1721   88.9257   17.4244 H   0  0  0  0  0
   77.0338   87.5609   18.2878 H   0  0  0  0  0
   75.8285   88.3111   20.0219 H   0  0  0  0  0
   74.7014   89.8822   18.7358 H   0  0  0  0  0
   77.7223   90.6322   20.1433 H   0  0  0  0  0
   76.2934   90.1266   21.8941 H   0  0  0  0  0
   79.4960   89.1009   20.8903 H   0  0  0  0  0
   78.1036   87.3281   21.4227 H   0  0  0  0  0
   79.9375   89.7188   18.8220 H   0  0  0  0  0
   78.0806   90.2328   17.8024 H   0  0  0  0  0
   78.4490   88.8405   16.9118 H   0  0  0  0  0
   79.3270   86.8422   18.1428 H   0  0  0  0  0
   80.7486   87.3924   19.0748 H   0  0  0  0  0
   81.1878   87.1888   16.8124 H   0  0  0  0  0
  1  2  1  0  0  0
  1  9  1  0  0  0
  2  3  1  0  0  0
  2  4  1  0  0  0
  4  5  1  0  0  0
  4  6  1  0  0  0
  6  7  1  0  0  0
  6  8  1  0  0  0
  8  9  1  0  0  0
  8 10  1  0  0  0
 10 11  1  0  0  0
  1 12  1  0  0  0
  1 13  1  0  0  0
  2 14  1  0  0  0
  3 15  1  0  0  0
  4 16  1  0  0  0
  5 17  1  0  0  0
  6 18  1  0  0  0
  7 19  1  0  0  0
  8 20  1  0  0  0
  9 21  1  0  0  0
  9 22  1  0  0  0
 10 23  1  0  0  0
 10 24  1  0  0  0
 11 25  1  0  0  0
M  END
$$$$
