2hfp_ligand
  -I-interpret- 

 63 67  0  0  0  0  0  0  0  0999 V2000
   18.6300  -12.1930    2.2430 O   0  0  0  0  0
   19.8850  -12.8410    2.3100 S   0  0  0  0  0
   19.6860  -14.1030    2.9310 O   0  0  0  0  0
   20.3800  -12.9830    0.7680 C   0  0  0  0  0
   20.0170  -12.0190   -0.1920 C   0  0  0  0  0
   20.4520  -12.1560   -1.5110 C   0  0  0  0  0
   21.2590  -13.2390   -1.9100 C   0  0  0  0  0
   21.6340  -14.1850   -0.9550 C   0  0  0  0  0
   21.1880  -14.0430    0.3650 C   0  0  0  0  0
   21.0210  -12.0120    2.9340 N   0  0  0  0  0
   21.2540  -11.9070    4.2260 C   0  0  0  0  0
   20.3150  -11.8370    5.0300 O   0  0  0  0  0
   22.5620  -11.3060    4.6190 C   0  0  0  0  0
   22.7430  -10.3940    5.6120 N   0  0  0  0  0
   21.6530   -9.7380    6.3450 C   0  0  0  0  0
   21.4350   -8.3340    5.8210 C   0  0  0  0  0
   22.1530   -7.8060    4.7660 C   0  0  0  0  0
   21.9180   -6.4880    4.3520 C   0  0  0  0  0
   20.4830   -7.5450    6.4930 C   0  0  0  0  0
   20.2240   -6.2510    6.0640 C   0  0  0  0  0
   19.2010   -5.4210    6.7960 C   0  0  0  0  0
   18.1640   -6.0570    7.2290 F   0  0  0  0  0
   19.7160   -4.9140    7.8500 F   0  0  0  0  0
   18.8200   -4.4300    6.0920 F   0  0  0  0  0
   20.9260   -5.7280    4.9950 C   0  0  0  0  0
   24.0480  -10.1710    5.7600 C   0  0  0  0  0
   24.7620   -9.3550    6.6540 C   0  0  0  0  0
   26.1510   -9.3320    6.6300 C   0  0  0  0  0
   26.8200  -10.1560    5.7320 C   0  0  0  0  0
   26.1190  -10.9990    4.8420 C   0  0  0  0  0
   23.7910  -11.7290    4.1010 C   0  0  0  0  0
   24.7210  -10.9780    4.8370 C   0  0  0  0  0
   24.0360  -12.7150    3.0990 C   0  0  0  0  0
   24.6700  -12.3090    1.9430 C   0  0  0  0  0
   25.0560  -13.2180    0.9460 C   0  0  0  0  0
   23.7830  -14.1030    3.2470 C   0  0  0  0  0
   24.1610  -15.0320    2.2410 C   0  0  0  0  0
   24.8180  -14.5680    1.0780 C   0  0  0  0  0
   25.2390  -15.3930    0.0480 O   0  0  0  0  0
   25.0830  -16.7950    0.2370 C   0  0  0  0  0
   19.3982  -11.1685    0.0941 H   0  0  0  0  0
   20.1607  -11.4083   -2.2486 H   0  0  0  0  0
   21.5847  -13.3365   -2.9456 H   0  0  0  0  0
   22.2681  -15.0266   -1.2338 H   0  0  0  0  0
   21.4839  -14.7886    1.1030 H   0  0  0  0  0
   21.6396  -11.5062    2.3000 H   0  0  0  0  0
   21.9164   -9.6859    7.4014 H   0  0  0  0  0
   20.7373  -10.3137    6.2099 H   0  0  0  0  0
   22.9010   -8.4133    4.2563 H   0  0  0  0  0
   22.4999   -6.0558    3.5379 H   0  0  0  0  0
   19.9483   -7.9509    7.3517 H   0  0  0  0  0
   20.7087   -4.7179    4.6476 H   0  0  0  0  0
   24.2226   -8.7361    7.3710 H   0  0  0  0  0
   26.7065   -8.6793    7.3035 H   0  0  0  0  0
   27.9098  -10.1512    5.7145 H   0  0  0  0  0
   26.6622  -11.6593    4.1659 H   0  0  0  0  0
   24.8777  -11.2486    1.7995 H   0  0  0  0  0
   25.5539  -12.8483    0.0496 H   0  0  0  0  0
   23.2893  -14.4634    4.1495 H   0  0  0  0  0
   23.9464  -16.0935    2.3645 H   0  0  0  0  0
   25.6504  -17.1075    1.1136 H   0  0  0  0  0
   24.0279  -17.0253    0.3845 H   0  0  0  0  0
   25.4517  -17.3222   -0.6429 H   0  0  0  0  0
  1  2  2  0  0  0
  2  3  2  0  0  0
  2  4  1  0  0  0
  2 10  1  0  0  0
  4  5  4  0  0  0
  4  9  4  0  0  0
  5  6  4  0  0  0
  6  7  4  0  0  0
  7  8  4  0  0  0
  8  9  4  0  0  0
 10 11  1  0  0  0
 11 12  2  0  0  0
 11 13  1  0  0  0
 13 14  4  0  0  0
 13 31  4  0  0  0
 14 15  1  0  0  0
 14 26  4  0  0  0
 15 16  1  0  0  0
 16 17  4  0  0  0
 16 19  4  0  0  0
 17 18  4  0  0  0
 18 25  4  0  0  0
 19 20  4  0  0  0
 20 21  1  0  0  0
 20 25  4  0  0  0
 21 22  1  0  0  0
 21 23  1  0  0  0
 21 24  1  0  0  0
 26 27  4  0  0  0
 26 32  4  0  0  0
 27 28  4  0  0  0
 28 29  4  0  0  0
 29 30  4  0  0  0
 30 32  4  0  0  0
 31 32  4  0  0  0
 31 33  1  0  0  0
 33 34  4  0  0  0
 33 36  4  0  0  0
 34 35  4  0  0  0
 35 38  4  0  0  0
 36 37  4  0  0  0
 37 38  4  0  0  0
 38 39  1  0  0  0
 39 40  1  0  0  0
  5 41  1  0  0  0
  6 42  1  0  0  0
  7 43  1  0  0  0
  8 44  1  0  0  0
  9 45  1  0  0  0
 10 46  1  0  0  0
 15 47  1  0  0  0
 15 48  1  0  0  0
 17 49  1  0  0  0
 18 50  1  0  0  0
 19 51  1  0  0  0
 25 52  1  0  0  0
 27 53  1  0  0  0
 28 54  1  0  0  0
 29 55  1  0  0  0
 30 56  1  0  0  0
 34 57  1  0  0  0
 35 58  1  0  0  0
 36 59  1  0  0  0
 37 60  1  0  0  0
 40 61  1  0  0  0
 40 62  1  0  0  0
 40 63  1  0  0  0
M  END
$$$$
