3gdt_ligand
  -I-interpret- 

 33 34  0  0  0  0  0  0  0  0999 V2000
   58.9610   58.4800   23.7810 N   0  0  0  0  0
   58.6240   59.3730   22.7520 C   0  0  0  0  0
   57.4620   60.0850   22.9900 N   0  0  0  0  0
   56.5610   59.8590   24.0400 C   0  0  0  0  0
   56.9410   58.8650   25.0070 C   0  0  0  0  0
   58.0980   58.2220   24.8670 N   0  0  0  0  0
   59.2690   59.5060   21.7570 O   0  0  0  0  0
   55.5420   60.5090   24.0630 O   0  0  0  0  0
   60.2230   57.7690   23.7680 C   0  0  0  0  0
   60.8840   57.3630   25.0840 C   0  0  0  0  0
   61.7720   56.2290   24.6310 C   0  0  0  0  0
   60.9310   55.5560   23.5420 C   0  0  0  0  0
   61.6480   58.4450   25.6420 O   0  0  0  0  0
   62.9780   56.7220   24.0520 O   0  0  0  0  0
   60.0700   56.5790   23.0150 O   0  0  0  0  0
   60.0480   54.3990   23.9590 C   0  0  0  0  0
   59.6330   53.7800   22.7480 O   0  0  0  0  0
   59.3600   52.1860   22.6720 P   0  0  0  0  0
   60.6240   51.4440   23.0150 O   0  0  0  0  0
   58.9000   51.9950   21.2580 O   0  0  0  0  0
   58.1530   51.8850   23.6720 O   0  0  0  0  0
   57.2410   60.8424   22.3435 H   0  0  0  0  0
   56.2862   58.6396   25.8488 H   0  0  0  0  0
   60.8925   58.5224   23.3529 H   0  0  0  0  0
   60.1831   57.0901   25.8729 H   0  0  0  0  0
   62.0637   55.5706   25.4492 H   0  0  0  0  0
   61.6449   55.1197   22.8433 H   0  0  0  0  0
   62.0499   58.1599   26.4659 H   0  0  0  0  0
   63.5233   55.9827   23.7731 H   0  0  0  0  0
   59.1947   54.7397   24.5455 H   0  0  0  0  0
   60.5837   53.6998   24.6011 H   0  0  0  0  0
   60.8548   51.6138   23.9312 H   0  0  0  0  0
   58.4501   52.0080   24.5766 H   0  0  0  0  0
  1  2  1  0  0  0
  1  6  1  0  0  0
  1  9  1  0  0  0
  2  3  1  0  0  0
  2  7  2  0  0  0
  3  4  1  0  0  0
  4  5  1  0  0  0
  4  8  2  0  0  0
  5  6  2  0  0  0
  9 10  1  0  0  0
  9 15  1  0  0  0
 10 11  1  0  0  0
 10 13  1  0  0  0
 11 12  1  0  0  0
 11 14  1  0  0  0
 12 15  1  0  0  0
 12 16  1  0  0  0
 16 17  1  0  0  0
 17 18  1  0  0  0
 18 19  1  0  0  0
 18 20  2  0  0  0
 18 21  1  0  0  0
  3 22  1  0  0  0
  5 23  1  0  0  0
  9 24  1  0  0  0
 10 25  1  0  0  0
 11 26  1  0  0  0
 12 27  1  0  0  0
 13 28  1  0  0  0
 14 29  1  0  0  0
 16 30  1  0  0  0
 16 31  1  0  0  0
 19 32  1  0  0  0
 21 33  1  0  0  0
M  END
$$$$
