2q2y_ligand
  -I-interpret- 

 68 72  0  0  0  0  0  0  0  0999 V2000
   21.9000   16.5170  106.1240 C   0  0  0  0  0
   20.6630   16.6840  106.8450 C   0  0  0  0  0
   20.3150   15.5360  107.6560 C   0  0  0  0  0
   21.1400   14.3930  107.6850 C   0  0  0  0  0
   22.3140   14.2460  106.9980 C   0  0  0  0  0
   22.6750   15.3540  106.1700 C   0  0  0  0  0
   19.1170   15.4520  108.4270 N   0  3  0  0  0
   18.5790   16.4330  109.0100 N   0  0  0  0  0
   17.6140   16.1840  109.8890 C   0  0  0  0  0
   17.4540   14.5950  109.9210 C   0  0  0  0  0
   18.4700   14.1970  108.8090 C   0  0  0  0  0
   17.6410   14.0660  111.3530 C   0  0  0  0  0
   16.8730   17.2660  110.6740 C   0  0  0  0  0
   17.4730   18.6260  110.6720 C   0  0  0  0  0
   15.7920   17.0400  111.2440 O   0  0  0  0  0
   18.6610   14.6870  112.1340 C   0  0  0  0  0
   18.9970   14.3450  113.4740 C   0  0  0  0  0
   18.2150   13.3290  114.0090 C   0  0  0  0  0
   17.1740   12.6650  113.2940 C   0  0  0  0  0
   16.8900   13.0590  111.9240 C   0  0  0  0  0
   20.7560   13.2880  108.4210 O   0  0  0  0  0
   22.3890   17.5020  105.3880 F   0  0  0  0  0
   19.6320   13.3380  109.2680 C   0  0  0  0  0
   16.0120   14.3640  109.4640 C   0  0  0  0  0
   15.6410   14.2560  107.9870 C   0  0  0  0  0
   14.3280   15.0800  107.6970 C   0  0  0  0  0
   13.9080   15.0860  106.2690 N   0  3  0  0  0
   13.9750   16.3670  105.5640 C   0  0  0  0  0
   13.1720   14.0160  105.6240 C   0  0  0  0  0
   12.5210   16.8970  105.7600 C   0  0  0  0  0
   11.6500   14.3800  105.6820 C   0  0  0  0  0
   11.4400   15.8630  105.3840 N   0  0  0  0  0
   10.3150   16.3480  104.8040 C   0  0  0  0  0
    9.6020   15.2390  103.9500 C   0  0  0  0  0
    9.9870   17.5290  104.9460 O   0  0  0  0  0
   20.0510   17.5841  106.7857 H   0  0  0  0  0
   22.9291   13.3496  107.0763 H   0  0  0  0  0
   23.5760   15.2908  105.5599 H   0  0  0  0  0
   16.8977   16.6885  110.5374 H   0  0  0  0  0
   17.9114   13.6481  108.0509 H   0  0  0  0  0
   16.7855   19.3243  110.1947 H   0  0  0  0  0
   17.6586   18.9413  111.6987 H   0  0  0  0  0
   18.4133   18.6061  110.1211 H   0  0  0  0  0
   19.2301   15.4899  111.6654 H   0  0  0  0  0
   19.7956   14.8358  114.0302 H   0  0  0  0  0
   18.4083   13.0207  115.0365 H   0  0  0  0  0
   16.5982   11.8712  113.7698 H   0  0  0  0  0
   16.0983   12.5680  111.3581 H   0  0  0  0  0
   19.2495   12.3186  109.3192 H   0  0  0  0  0
   19.9799   13.7786  110.2023 H   0  0  0  0  0
   15.4906   15.2622  109.7948 H   0  0  0  0  0
   15.7711   13.3783  109.8621 H   0  0  0  0  0
   15.4692   13.2091  107.7367 H   0  0  0  0  0
   16.4554   14.6562  107.3832 H   0  0  0  0  0
   14.5317   16.1142  107.9746 H   0  0  0  0  0
   13.5243   14.6110  108.2646 H   0  0  0  0  0
   14.7185   14.4848  106.1206 H   0  0  0  0  0
   14.2730   16.2783  104.5193 H   0  0  0  0  0
   14.7428   17.0393  105.9468 H   0  0  0  0  0
   13.3547   13.0700  106.1337 H   0  0  0  0  0
   13.4954   13.9043  104.5891 H   0  0  0  0  0
   12.3936   17.7599  105.1063 H   0  0  0  0  0
   12.3964   17.1352  106.8163 H   0  0  0  0  0
   11.2731   14.1639  106.6817 H   0  0  0  0  0
   11.1174   13.7910  104.9354 H   0  0  0  0  0
    8.5836   15.1012  104.3132 H   0  0  0  0  0
    9.5778   15.5467  102.9046 H   0  0  0  0  0
   10.1516   14.3022  104.0417 H   0  0  0  0  0
  1  2  4  0  0  0
  1  6  4  0  0  0
  1 22  1  0  0  0
  2  3  4  0  0  0
  3  4  4  0  0  0
  3  7  1  0  0  0
  4  5  4  0  0  0
  4 21  1  0  0  0
  5  6  4  0  0  0
  7  8  2  0  0  0
  7 11  1  0  0  0
  8  9  1  0  0  0
  9 10  1  0  0  0
  9 13  1  0  0  0
 10 11  1  0  0  0
 10 12  1  0  0  0
 10 24  1  0  0  0
 11 23  1  0  0  0
 12 16  4  0  0  0
 12 20  4  0  0  0
 13 14  1  0  0  0
 13 15  2  0  0  0
 16 17  4  0  0  0
 17 18  4  0  0  0
 18 19  4  0  0  0
 19 20  4  0  0  0
 21 23  1  0  0  0
 24 25  1  0  0  0
 25 26  1  0  0  0
 26 27  1  0  0  0
 27 28  1  0  0  0
 27 29  1  0  0  0
 28 30  1  0  0  0
 29 31  1  0  0  0
 30 32  1  0  0  0
 31 32  1  0  0  0
 32 33  1  0  0  0
 33 34  1  0  0  0
 33 35  2  0  0  0
  2 36  1  0  0  0
  5 37  1  0  0  0
  6 38  1  0  0  0
  9 39  1  0  0  0
 11 40  1  0  0  0
 14 41  1  0  0  0
 14 42  1  0  0  0
 14 43  1  0  0  0
 16 44  1  0  0  0
 17 45  1  0  0  0
 18 46  1  0  0  0
 19 47  1  0  0  0
 20 48  1  0  0  0
 23 49  1  0  0  0
 23 50  1  0  0  0
 24 51  1  0  0  0
 24 52  1  0  0  0
 25 53  1  0  0  0
 25 54  1  0  0  0
 26 55  1  0  0  0
 26 56  1  0  0  0
 27 57  1  0  0  0
 28 58  1  0  0  0
 28 59  1  0  0  0
 29 60  1  0  0  0
 29 61  1  0  0  0
 30 62  1  0  0  0
 30 63  1  0  0  0
 31 64  1  0  0  0
 31 65  1  0  0  0
 34 66  1  0  0  0
 34 67  1  0  0  0
 34 68  1  0  0  0
M  END
$$$$
