5h8g_ligand
  -I-interpret- 

 61 64  0  0  0  0  0  0  0  0999 V2000
   10.9590   -1.0890   28.6040 C   0  0  0  0  0
   10.4880   -1.5870   31.0590 C   0  0  0  0  0
   10.5550   -2.9780   31.0930 C   0  0  0  0  0
   11.9780   -8.7570   28.6930 N   0  0  0  0  0
    9.9960   -0.8920   32.1740 C   0  0  0  0  0
    8.9920    1.2510   31.3370 C   0  0  0  0  0
   10.1750    1.1880   33.5520 C   0  0  0  0  0
   10.9040    2.5710   33.5020 C   0  0  0  0  0
   12.4400    4.0350   32.3570 C   0  0  0  0  0
   13.2620    2.0490   33.4000 C   0  0  0  0  0
   10.6140   -6.0350   31.3590 C   0  0  0  0  0
   10.6640   -7.3510   31.8150 C   0  0  0  0  0
   11.0180   -8.3910   30.9550 C   0  0  0  0  0
   11.4560   -6.6370   29.3140 C   0  0  0  0  0
   12.0960   -5.4250   27.1570 C   0  0  0  0  0
   10.8140  -10.2600   32.6340 C   0  0  0  0  0
    9.4120  -10.4770   33.0300 C   0  0  0  0  0
   10.2890  -11.6320   32.7480 C   0  0  0  0  0
   12.2670   -4.5600   26.4250 N   0  0  0  0  0
   11.9400   -6.5770   27.9980 C   0  0  0  0  0
   12.2460   -7.9080   27.6840 C   0  0  0  0  0
   11.4840   -7.9770   29.6880 N   0  0  0  0  0
   11.0970   -9.7400   31.2990 N   0  0  0  0  0
   11.0120   -5.6680   30.1290 N   0  0  0  0  0
   10.2510   -5.0810   32.2940 N   0  0  0  0  0
   10.1600   -3.6760   32.2260 C   0  0  0  0  0
    9.6770   -2.9820   33.3290 C   0  0  0  0  0
    9.6260   -1.6010   33.3170 C   0  0  0  0  0
   10.9500   -0.8370   29.9410 N   0  0  0  0  0
   11.5280   -0.3650   27.8000 O   0  0  0  0  0
   10.0700   -2.2160   28.1550 C   0  0  0  0  0
    9.9710    0.5770   32.1870 N   0  0  0  0  0
   12.1320    2.6470   32.6960 N   0  3  0  0  0
   10.9207   -3.5229   30.2227 H   0  0  0  0  0
    8.0188    1.2414   31.8278 H   0  0  0  0  0
    9.3060    2.2814   31.1700 H   0  0  0  0  0
    8.9235    0.7312   30.3814 H   0  0  0  0  0
    9.1915    1.3476   33.9939 H   0  0  0  0  0
   10.7978    0.5059   34.1307 H   0  0  0  0  0
   11.2059    2.7865   34.5270 H   0  0  0  0  0
   10.2001    3.2629   33.0395 H   0  0  0  0  0
   11.6149    4.4597   31.7853 H   0  0  0  0  0
   12.5821    4.6084   33.2730 H   0  0  0  0  0
   13.3519    4.0683   31.7608 H   0  0  0  0  0
   13.4267    2.5802   34.3374 H   0  0  0  0  0
   13.0456    1.0011   33.6079 H   0  0  0  0  0
   14.1547    2.1206   32.7786 H   0  0  0  0  0
   10.4238   -7.5702   32.8554 H   0  0  0  0  0
   11.6550   -9.7148   33.0626 H   0  0  0  0  0
    8.4398  -10.0779   33.3192 H   0  0  0  0  0
   10.4383  -12.7094   32.6766 H   0  0  0  0  0
   12.6573   -8.2221   26.7247 H   0  0  0  0  0
   11.3690  -10.4040   30.5741 H   0  0  0  0  0
   10.0023   -5.4679   33.2044 H   0  0  0  0  0
    9.3367   -3.5296   34.2079 H   0  0  0  0  0
    9.2949   -1.0630   34.2053 H   0  0  0  0  0
   11.3532    0.0660   30.1910 H   0  0  0  0  0
    9.2511   -1.8152   27.5576 H   0  0  0  0  0
   10.6497   -2.9174   27.5550 H   0  0  0  0  0
    9.6672   -2.7293   29.0281 H   0  0  0  0  0
   11.9705    2.1216   31.8368 H   0  0  0  0  0
 29  1  1  0  0  0
  1 30  2  0  0  0
  1 31  1  0  0  0
  3  2  4  0  0  0
  2  5  4  0  0  0
  2 29  1  0  0  0
 26  3  4  0  0  0
  4 21  4  0  0  0
 22  4  4  0  0  0
  5 28  4  0  0  0
  5 32  1  0  0  0
 32  6  1  0  0  0
  7  8  1  0  0  0
 32  7  1  0  0  0
  8 33  1  0  0  0
 33  9  1  0  0  0
 33 10  1  0  0  0
 11 12  4  0  0  0
 11 24  4  0  0  0
 25 11  1  0  0  0
 12 13  4  0  0  0
 13 22  4  0  0  0
 13 23  1  0  0  0
 14 20  4  0  0  0
 14 22  4  0  0  0
 24 14  4  0  0  0
 15 19  3  0  0  0
 20 15  1  0  0  0
 16 17  1  0  0  0
 16 18  1  0  0  0
 23 16  1  0  0  0
 18 17  2  0  0  0
 20 21  4  0  0  0
 25 26  1  0  0  0
 26 27  4  0  0  0
 27 28  4  0  0  0
  3 34  1  0  0  0
  6 35  1  0  0  0
  6 36  1  0  0  0
  6 37  1  0  0  0
  7 38  1  0  0  0
  7 39  1  0  0  0
  8 40  1  0  0  0
  8 41  1  0  0  0
  9 42  1  0  0  0
  9 43  1  0  0  0
  9 44  1  0  0  0
 10 45  1  0  0  0
 10 46  1  0  0  0
 10 47  1  0  0  0
 12 48  1  0  0  0
 16 49  1  0  0  0
 17 50  1  0  0  0
 18 51  1  0  0  0
 21 52  1  0  0  0
 23 53  1  0  0  0
 25 54  1  0  0  0
 27 55  1  0  0  0
 28 56  1  0  0  0
 29 57  1  0  0  0
 31 58  1  0  0  0
 31 59  1  0  0  0
 31 60  1  0  0  0
 33 61  1  0  0  0
M  END
$$$$
