3nw7_ligand
  -I-interpret- 

 45 49  0  0  0  0  0  0  0  0999 V2000
  -17.4570    8.9330   11.3080 C   0  0  0  0  0
  -12.8690    2.0720   11.7070 C   0  0  0  0  0
  -17.9820    7.8730   12.0950 C   0  0  0  0  0
  -11.9540    1.5210   12.6090 C   0  0  0  0  0
  -18.4740    2.4290   12.7460 C   0  0  0  0  0
  -14.4440    0.4060   12.4090 C   0  0  0  0  0
  -16.7490    8.3690   10.2640 C   0  0  0  0  0
  -14.1460    1.4960   11.6000 C   0  0  0  0  0
  -17.5770    6.6970   11.5070 C   0  0  0  0  0
  -18.9330    1.4430   13.6050 C   0  0  0  0  0
  -18.7850    3.6650   13.3880 C   0  0  0  0  0
  -12.3630    0.4360   13.3540 C   0  0  0  0  0
  -17.7880    5.3070   11.8330 C   0  0  0  0  0
  -16.4970    4.8650    9.9180 C   0  0  0  0  0
  -15.2270    1.9800   10.7030 C   0  0  0  0  0
  -18.3440   -0.7040   12.1660 C   0  0  0  0  0
  -19.8180   -0.7170   12.4470 C   0  0  0  0  0
  -18.8680   -0.0760   13.4280 C   0  0  0  0  0
  -15.9320    3.7260    9.1060 C   0  0  0  0  0
  -13.5820   -0.1380   13.2800 N   0  0  0  0  0
  -19.3920    3.4250   14.5620 N   0  0  0  0  0
  -17.2260    4.4570   11.0090 N   0  0  0  0  0
  -16.2630    6.0910    9.5670 N   0  0  0  0  0
  -19.4720    2.0820   14.6740 N   0  0  0  0  0
  -16.8270    7.0110   10.3940 N   0  0  0  0  0
  -18.5370    4.9380   12.9470 N   0  0  0  0  0
  -14.9470    3.1040    9.9670 N   0  0  0  0  0
  -16.3050    1.3970   10.6820 O   0  0  0  0  0
  -11.5100   -0.1090   14.2230 F   0  0  0  0  0
  -17.5889    9.9988   11.4942 H   0  0  0  0  0
  -12.5964    2.9335   11.0974 H   0  0  0  0  0
  -18.5902    7.9726   12.9940 H   0  0  0  0  0
  -10.9518    1.9352   12.7193 H   0  0  0  0  0
  -17.9803    2.2899   11.7842 H   0  0  0  0  0
  -15.4385   -0.0332   12.3307 H   0  0  0  0  0
  -16.2227    8.9103    9.4778 H   0  0  0  0  0
  -17.6726   -0.4485   11.3462 H   0  0  0  0  0
  -17.5649   -1.4052   11.8670 H   0  0  0  0  0
  -20.6429   -1.4294   12.4538 H   0  0  0  0  0
  -20.7502   -0.4772   11.9355 H   0  0  0  0  0
  -18.6194   -0.1911   14.4830 H   0  0  0  0  0
  -15.4898    4.0755    8.1731 H   0  0  0  0  0
  -16.7072    3.0216    8.8044 H   0  0  0  0  0
  -18.9448    5.6967   13.4933 H   0  0  0  0  0
  -14.0153    3.5146   10.0282 H   0  0  0  0  0
  3  1  4  0  0  0
  7  1  4  0  0  0
  2  4  4  0  0  0
  8  2  4  0  0  0
  9  3  4  0  0  0
  4 12  4  0  0  0
  5 10  4  0  0  0
 11  5  4  0  0  0
  8  6  4  0  0  0
  6 20  4  0  0  0
 25  7  4  0  0  0
 15  8  1  0  0  0
 13  9  4  0  0  0
  9 25  4  0  0  0
 10 18  1  0  0  0
 10 24  4  0  0  0
 11 21  4  0  0  0
 26 11  1  0  0  0
 20 12  4  0  0  0
 12 29  1  0  0  0
 22 13  4  0  0  0
 13 26  1  0  0  0
 19 14  1  0  0  0
 14 22  4  0  0  0
 14 23  4  0  0  0
 27 15  1  0  0  0
 15 28  2  0  0  0
 17 16  1  0  0  0
 18 16  1  0  0  0
 18 17  1  0  0  0
 19 27  1  0  0  0
 21 24  4  0  0  0
 23 25  4  0  0  0
  1 30  1  0  0  0
  2 31  1  0  0  0
  3 32  1  0  0  0
  4 33  1  0  0  0
  5 34  1  0  0  0
  6 35  1  0  0  0
  7 36  1  0  0  0
 16 37  1  0  0  0
 16 38  1  0  0  0
 17 39  1  0  0  0
 17 40  1  0  0  0
 18 41  1  0  0  0
 19 42  1  0  0  0
 19 43  1  0  0  0
 26 44  1  0  0  0
 27 45  1  0  0  0
M  END
$$$$
