5i38_ligand
  -I-interpret- 

 18 18  0  0  0  0  0  0  0  0999 V2000
    2.9290  101.9800   24.1180 C   0  0  0  0  0
    3.2640  101.0300   25.0850 C   0  0  0  0  0
    2.2950  100.7330   26.0710 C   0  0  0  0  0
    1.0310  101.3950   26.0400 C   0  0  0  0  0
    0.8330  102.3070   25.0490 C   0  0  0  0  0
   -0.4820  103.0220   24.9850 C   0  0  0  0  0
    4.5880  100.3280   25.1350 O   0  0  0  0  0
    2.6080   99.7740   27.0740 O   0  0  0  0  0
    1.7600  102.5690   24.1510 O   0  0  0  0  0
   -0.2450  104.2180   24.2480 O   0  0  0  0  0
    3.6426  102.2320   23.3335 H   0  0  0  0  0
    0.2579  101.1797   26.7776 H   0  0  0  0  0
    1.8905  102.0752   24.9220 H   0  0  0  0  0
   -0.8598  103.2425   25.9834 H   0  0  0  0  0
   -1.2423  102.4066   24.5039 H   0  0  0  0  0
    4.5991   99.7208   25.8785 H   0  0  0  0  0
    3.4968   99.4407   26.9303 H   0  0  0  0  0
   -1.0624  104.7165   24.1777 H   0  0  0  0  0
  1  2  2  0  0  0
  1  9  1  0  0  0
  2  3  1  0  0  0
  2  7  1  0  0  0
  3  4  2  0  0  0
  3  8  1  0  0  0
  4  5  1  0  0  0
  5  6  1  0  0  0
  5  9  1  0  0  0
  6 10  1  0  0  0
  1 11  1  0  0  0
  4 12  1  0  0  0
  5 13  1  0  0  0
  6 14  1  0  0  0
  6 15  1  0  0  0
  7 16  1  0  0  0
  8 17  1  0  0  0
 10 18  1  0  0  0
M  END
$$$$
