6me3_ligand
  -I-interpret- 

 42 44  0  0  0  0  0  0  0  0999 V2000
   24.4340  -22.9840   46.3040 C   0  0  0  0  0
   24.6290  -21.8660   47.3190 C   0  0  0  0  0
   23.9300  -19.5140   47.4540 C   0  0  0  0  0
   23.6710  -19.5560   48.6630 O   0  0  0  0  0
   23.7150  -18.2450   46.6640 C   0  0  0  0  0
   29.4080  -24.4240   48.1630 O   0  0  0  0  0
   24.3720  -20.5620   46.7360 N   0  0  0  0  0
   28.1350  -24.9280   48.1920 C   0  0  0  0  0
   27.0870  -24.2700   47.5360 C   0  0  0  0  0
   25.7850  -24.7740   47.5510 C   0  0  0  0  0
   29.5200  -23.0770   47.6730 C   0  0  0  0  0
   21.3360  -24.0760   47.1360 C   0  0  0  0  0
   20.0070  -24.1070   46.6700 C   0  0  0  0  0
   19.4850  -25.2600   46.0520 C   0  0  0  0  0
   20.3020  -26.3910   45.8950 C   0  0  0  0  0
   21.6400  -26.3490   46.3350 C   0  0  0  0  0
   22.1650  -25.1990   46.9570 C   0  0  0  0  0
   24.1710  -26.2520   48.0470 N   0  0  0  0  0
   24.5770  -24.3060   47.0130 C   0  0  0  0  0
   23.5730  -25.2040   47.3850 C   0  0  0  0  0
   25.5190  -25.9680   48.2140 C   0  0  0  0  0
   26.5640  -26.6360   48.8660 C   0  0  0  0  0
   27.8740  -26.1400   48.8380 C   0  0  0  0  0
   25.1810  -22.9033   45.5143 H   0  0  0  0  0
   23.4440  -22.9089   45.8542 H   0  0  0  0  0
   25.6629  -21.8909   47.6634 H   0  0  0  0  0
   23.9277  -22.0201   48.1391 H   0  0  0  0  0
   22.6634  -17.9624   46.7121 H   0  0  0  0  0
   24.3265  -17.4476   47.0863 H   0  0  0  0  0
   24.0004  -18.4123   45.6254 H   0  0  0  0  0
   24.5338  -20.4346   45.7370 H   0  0  0  0  0
   27.2926  -23.3427   47.0012 H   0  0  0  0  0
   29.1431  -23.0309   46.6513 H   0  0  0  0  0
   28.9354  -22.4111   48.3077 H   0  0  0  0  0
   30.5662  -22.7714   47.6898 H   0  0  0  0  0
   21.7208  -23.1856   47.6333 H   0  0  0  0  0
   19.3745  -23.2274   46.7892 H   0  0  0  0  0
   18.4541  -25.2741   45.6982 H   0  0  0  0  0
   19.9038  -27.2958   45.4357 H   0  0  0  0  0
   22.2791  -27.2203   46.1918 H   0  0  0  0  0
   26.3536  -27.5595   49.4055 H   0  0  0  0  0
   28.6822  -26.6940   49.3155 H   0  0  0  0  0
  1  2  1  0  0  0
 19  1  1  0  0  0
  2  7  1  0  0  0
  3  4  2  0  0  0
  3  5  1  0  0  0
  7  3  1  0  0  0
  8  6  1  0  0  0
  6 11  1  0  0  0
  9  8  4  0  0  0
  8 23  4  0  0  0
 10  9  4  0  0  0
 10 19  4  0  0  0
 21 10  4  0  0  0
 12 13  4  0  0  0
 17 12  4  0  0  0
 13 14  4  0  0  0
 15 14  4  0  0  0
 16 15  4  0  0  0
 17 16  4  0  0  0
 20 17  1  0  0  0
 18 20  4  0  0  0
 18 21  4  0  0  0
 19 20  4  0  0  0
 21 22  4  0  0  0
 22 23  4  0  0  0
  1 24  1  0  0  0
  1 25  1  0  0  0
  2 26  1  0  0  0
  2 27  1  0  0  0
  5 28  1  0  0  0
  5 29  1  0  0  0
  5 30  1  0  0  0
  7 31  1  0  0  0
  9 32  1  0  0  0
 11 33  1  0  0  0
 11 34  1  0  0  0
 11 35  1  0  0  0
 12 36  1  0  0  0
 13 37  1  0  0  0
 14 38  1  0  0  0
 15 39  1  0  0  0
 16 40  1  0  0  0
 22 41  1  0  0  0
 23 42  1  0  0  0
M  END
$$$$
