4xrq_ligand
  -I-interpret- 

 58 61  0  0  0  0  0  0  0  0999 V2000
   31.1810   -0.6890   -0.2870 O   0  0  0  0  0
   29.9940   -0.4930   -0.0820 C   0  0  0  0  0
   29.0250   -1.0570   -0.8020 N   0  0  0  0  0
   29.2610   -1.9510   -1.9220 C   0  0  0  0  0
   29.3670   -1.1050   -3.1740 C   0  0  0  0  0
   30.2220   -1.4220   -4.1550 N   0  0  0  0  0
   31.0420   -2.5510   -4.0110 C   0  0  0  0  0
   30.6540   -3.7770   -4.5560 C   0  0  0  0  0
   31.4730   -4.8970   -4.4080 C   0  0  0  0  0
   32.6790   -4.7950   -3.7110 C   0  0  0  0  0
   33.0670   -3.5700   -3.1660 C   0  0  0  0  0
   32.2530   -2.4450   -3.3190 C   0  0  0  0  0
   30.3710   -0.6520   -5.3870 C   0  0  0  0  0
   28.6440   -0.1250   -3.2690 O   0  0  0  0  0
   28.0660   -2.9020   -2.0280 C   0  0  0  0  0
   28.0420   -3.8810   -0.8700 C   0  0  0  0  0
   28.7000   -5.1010   -0.9780 C   0  0  0  0  0
   28.6760   -5.9980    0.0890 C   0  0  0  0  0
   28.0070   -5.6770    1.2660 C   0  0  0  0  0
   27.3560   -4.4530    1.3810 C   0  0  0  0  0
   27.3730   -3.5640    0.3110 C   0  0  0  0  0
   29.5300    0.4510    1.0090 C   0  0  0  0  0
   30.0490    0.1200    2.3830 C   0  0  0  0  0
   31.3190    0.5600    2.9920 C   0  0  0  0  0
   32.3390    1.3430    2.4650 C   0  0  0  0  0
   33.4540    1.6080    3.2570 C   0  0  0  0  0
   33.5300    1.0870    4.5500 C   0  0  0  0  0
   32.5010    0.2960    5.0610 C   0  0  0  0  0
   31.3790    0.0250    4.2750 C   0  0  0  0  0
   30.2480   -0.6970    4.5140 N   0  0  0  0  0
   29.4050   -0.6910    3.4480 C   0  0  0  0  0
   28.0710   -1.3830    3.3610 C   0  0  0  0  0
   28.0586   -0.8482   -0.5513 H   0  0  0  0  0
   30.1753   -2.5299   -1.7915 H   0  0  0  0  0
   29.7113   -3.8589   -5.0970 H   0  0  0  0  0
   31.1712   -5.8526   -4.8368 H   0  0  0  0  0
   33.3166   -5.6711   -3.5928 H   0  0  0  0  0
   34.0070   -3.4910   -2.6199 H   0  0  0  0  0
   32.5608   -1.4869   -2.9001 H   0  0  0  0  0
   31.3946   -0.2852   -5.4632 H   0  0  0  0  0
   30.1478   -1.2901   -6.2420 H   0  0  0  0  0
   29.6814    0.1920   -5.3721 H   0  0  0  0  0
   28.1494   -3.4642   -2.9581 H   0  0  0  0  0
   27.1490   -2.3132   -2.0057 H   0  0  0  0  0
   29.2330   -5.3554   -1.8941 H   0  0  0  0  0
   29.1850   -6.9578    0.0005 H   0  0  0  0  0
   27.9930   -6.3831    2.0962 H   0  0  0  0  0
   26.8362   -4.1923    2.3029 H   0  0  0  0  0
   26.8568   -2.6079    0.3973 H   0  0  0  0  0
   28.4433    0.3789    1.0525 H   0  0  0  0  0
   29.9073    1.4417    0.7555 H   0  0  0  0  0
   32.2681    1.7415    1.4530 H   0  0  0  0  0
   34.2664    2.2216    2.8675 H   0  0  0  0  0
   34.4029    1.3007    5.1669 H   0  0  0  0  0
   32.5724   -0.1092    6.0704 H   0  0  0  0  0
   27.2914   -0.6443    3.1750 H   0  0  0  0  0
   28.0906   -2.1058    2.5453 H   0  0  0  0  0
   27.8685   -1.8983    4.2999 H   0  0  0  0  0
  1  2  2  0  0  0
  2  3  1  0  0  0
  2 22  1  0  0  0
  3  4  1  0  0  0
  4  5  1  0  0  0
  4 15  1  0  0  0
  5  6  1  0  0  0
  5 14  2  0  0  0
  6  7  1  0  0  0
  6 13  1  0  0  0
  7  8  4  0  0  0
  7 12  4  0  0  0
  8  9  4  0  0  0
  9 10  4  0  0  0
 10 11  4  0  0  0
 11 12  4  0  0  0
 15 16  1  0  0  0
 16 17  4  0  0  0
 16 21  4  0  0  0
 17 18  4  0  0  0
 18 19  4  0  0  0
 19 20  4  0  0  0
 20 21  4  0  0  0
 22 23  1  0  0  0
 23 24  4  0  0  0
 23 31  4  0  0  0
 24 25  4  0  0  0
 24 29  4  0  0  0
 25 26  4  0  0  0
 26 27  4  0  0  0
 27 28  4  0  0  0
 28 29  4  0  0  0
 29 30  4  0  0  0
 30 31  4  0  0  0
 31 32  1  0  0  0
  3 33  1  0  0  0
  4 34  1  0  0  0
  8 35  1  0  0  0
  9 36  1  0  0  0
 10 37  1  0  0  0
 11 38  1  0  0  0
 12 39  1  0  0  0
 13 40  1  0  0  0
 13 41  1  0  0  0
 13 42  1  0  0  0
 15 43  1  0  0  0
 15 44  1  0  0  0
 17 45  1  0  0  0
 18 46  1  0  0  0
 19 47  1  0  0  0
 20 48  1  0  0  0
 21 49  1  0  0  0
 22 50  1  0  0  0
 22 51  1  0  0  0
 25 52  1  0  0  0
 26 53  1  0  0  0
 27 54  1  0  0  0
 28 55  1  0  0  0
 32 56  1  0  0  0
 32 57  1  0  0  0
 32 58  1  0  0  0
M  END
$$$$
