1gno_ligand
  -I-interpret- 

 94 94  0  0  0  0  0  0  0  0999 V2000
  -10.6580   15.8380   32.1840 C   0  0  0  0  0
  -10.2920   15.5260   30.7320 C   0  0  0  0  0
  -10.8580   15.9720   28.3960 C   0  0  0  0  0
  -12.1480   15.7030   27.6380 C   0  0  0  0  0
  -13.0410   14.5040   28.0270 C   0  0  0  0  0
  -12.1770   13.2660   28.2840 C   0  0  0  0  0
  -13.0650   12.0760   28.6400 C   0  0  0  0  0
  -13.9120   12.3800   29.8790 C   0  0  0  0  0
  -14.7710   13.6310   29.6580 C   0  0  0  0  0
  -13.8950   14.8270   29.2670 C   0  0  0  0  0
  -10.4060   17.2960   27.7610 C   0  0  0  0  0
   -8.9050   17.5510   27.8090 C   0  0  0  0  0
   -8.1610   18.2170   26.6510 C   0  0  0  0  0
   -6.8790   18.8810   27.1530 C   0  0  0  0  0
   -5.6790   17.9340   27.1520 C   0  0  0  0  0
   -6.4590   20.0850   26.3060 C   0  0  0  0  0
   -7.7980   17.1670   25.6040 C   0  0  0  0  0
   -7.5590   16.7590   23.1990 C   0  0  0  0  0
   -8.8370   16.3650   22.4540 C   0  0  0  0  0
   -9.2150   17.3510   21.3470 C   0  0  0  0  0
   -8.7320   16.9150   19.9610 C   0  0  0  0  0
   -6.6430   17.5360   22.2540 C   0  0  0  0  0
   -4.6500   17.3860   20.8390 C   0  0  0  0  0
   -4.5800   16.5400   19.5670 C   0  0  0  0  0
   -3.2730   17.4010   21.5050 C   0  0  0  0  0
   -3.0540   18.6220   22.4000 C   0  0  0  0  0
   -1.5900   18.8180   22.7970 C   0  0  0  0  0
    0.3210   20.2910   22.2100 C   0  0  0  0  0
  -11.0620   16.1200   29.8420 N   0  0  0  0  0
   -7.8840   17.5980   24.3610 N   0  0  0  0  0
   -8.2410   15.7020   19.7840 N   0  0  0  0  0
   -5.6480   16.8260   21.7620 N   0  0  0  0  0
   -3.9870   17.0080   18.4600 N   0  0  0  0  0
   -0.9940   20.0310   22.2160 N   0  0  0  0  0
    1.1270   19.7980   23.1610 N   0  0  0  0  0
    0.9310   21.0430   21.2850 N   0  0  0  0  0
   -9.3530   14.7650   30.4570 O   0  0  0  0  0
  -11.0340   18.3910   28.4100 O   0  0  0  0  0
   -7.4630   16.0230   25.9400 O   0  0  0  0  0
   -8.8020   17.6930   19.0110 O   0  0  0  0  0
   -6.8540   18.7320   22.0030 O   0  0  0  0  0
   -5.0700   15.4020   19.5300 O   0  0  0  0  0
  -10.9232   14.9136   32.6972 H   0  0  0  0  0
   -9.8048   16.2993   32.6813 H   0  0  0  0  0
  -11.5059   16.5226   32.2046 H   0  0  0  0  0
  -10.1385   15.1567   28.3200 H   0  0  0  0  0
  -11.8239   15.4812   26.6212 H   0  0  0  0  0
  -12.7669   16.5779   27.8368 H   0  0  0  0  0
  -13.7173   14.2997   27.1970 H   0  0  0  0  0
  -11.4978   13.4677   29.1123 H   0  0  0  0  0
  -11.6073   13.0326   27.3845 H   0  0  0  0  0
  -12.4306   11.2151   28.8509 H   0  0  0  0  0
  -13.7304   11.8710   27.8014 H   0  0  0  0  0
  -13.2472   12.5551   30.7249 H   0  0  0  0  0
  -14.5691   11.5321   30.0722 H   0  0  0  0  0
  -15.2960   13.8662   30.5838 H   0  0  0  0  0
  -15.4793   13.4347   28.8531 H   0  0  0  0  0
  -14.5419   15.6731   29.0352 H   0  0  0  0  0
  -13.2299   15.0598   30.0986 H   0  0  0  0  0
  -10.6948   17.2065   26.7138 H   0  0  0  0  0
   -8.4754   16.5500   27.8486 H   0  0  0  0  0
   -8.7909   18.2597   28.6292 H   0  0  0  0  0
   -8.8097   18.9746   26.2113 H   0  0  0  0  0
   -7.1327   19.1884   28.1675 H   0  0  0  0  0
   -5.8887   17.0831   27.8001 H   0  0  0  0  0
   -5.4960   17.5825   26.1366 H   0  0  0  0  0
   -4.7996   18.4635   27.5186 H   0  0  0  0  0
   -6.2860   19.7627   25.2792 H   0  0  0  0  0
   -7.2503   20.8344   26.3245 H   0  0  0  0  0
   -5.5427   20.5123   26.7133 H   0  0  0  0  0
   -7.0570   15.8553   23.5446 H   0  0  0  0  0
   -9.6516   16.3519   23.1781 H   0  0  0  0  0
   -8.6630   15.3950   21.9882 H   0  0  0  0  0
   -8.7403   18.3047   21.5776 H   0  0  0  0  0
  -10.3029   17.4102   21.3144 H   0  0  0  0  0
   -4.9443   18.4041   20.5841 H   0  0  0  0  0
   -2.5227   17.4301   20.7149 H   0  0  0  0  0
   -3.1981   16.5125   22.1320 H   0  0  0  0  0
   -3.6282   18.4707   23.3140 H   0  0  0  0  0
   -3.3670   19.5037   21.8408 H   0  0  0  0  0
   -1.0278   17.9613   22.4255 H   0  0  0  0  0
   -1.5505   18.9157   23.8819 H   0  0  0  0  0
  -11.8297   16.7054   30.1711 H   0  0  0  0  0
   -8.1900   18.5573   24.1985 H   0  0  0  0  0
   -7.9204   15.4113   18.8603 H   0  0  0  0  0
   -8.1823   15.0557   20.5709 H   0  0  0  0  0
   -5.5667   15.8460   22.0331 H   0  0  0  0  0
   -3.9485   16.4315   17.6194 H   0  0  0  0  0
   -3.5741   17.9407   18.4580 H   0  0  0  0  0
   -1.6195   20.7160   21.7919 H   0  0  0  0  0
    2.1253   20.0063   23.1418 H   0  0  0  0  0
    0.7419   19.2146   23.9038 H   0  0  0  0  0
    1.9370   21.2023   21.3396 H   0  0  0  0  0
  -11.9856   18.2649   28.3994 H   0  0  0  0  0
  2  1  1  0  0  0
 29  2  1  0  0  0
  2 37  2  0  0  0
  3  4  1  0  0  0
 11  3  1  0  0  0
  3 29  1  0  0  0
  4  5  1  0  0  0
  5  6  1  0  0  0
  5 10  1  0  0  0
  6  7  1  0  0  0
  7  8  1  0  0  0
  9  8  1  0  0  0
 10  9  1  0  0  0
 12 11  1  0  0  0
 11 38  1  0  0  0
 13 12  1  0  0  0
 13 14  1  0  0  0
 17 13  1  0  0  0
 14 15  1  0  0  0
 14 16  1  0  0  0
 30 17  1  0  0  0
 17 39  2  0  0  0
 18 19  1  0  0  0
 22 18  1  0  0  0
 18 30  1  0  0  0
 19 20  1  0  0  0
 20 21  1  0  0  0
 21 31  1  0  0  0
 21 40  2  0  0  0
 32 22  1  0  0  0
 22 41  2  0  0  0
 23 24  1  0  0  0
 25 23  1  0  0  0
 23 32  1  0  0  0
 24 33  1  0  0  0
 24 42  2  0  0  0
 26 25  1  0  0  0
 27 26  1  0  0  0
 34 27  1  0  0  0
 28 36  2  0  0  0
 28 35  1  0  0  0
 34 28  1  0  0  0
  1 43  1  0  0  0
  1 44  1  0  0  0
  1 45  1  0  0  0
  3 46  1  0  0  0
  4 47  1  0  0  0
  4 48  1  0  0  0
  5 49  1  0  0  0
  6 50  1  0  0  0
  6 51  1  0  0  0
  7 52  1  0  0  0
  7 53  1  0  0  0
  8 54  1  0  0  0
  8 55  1  0  0  0
  9 56  1  0  0  0
  9 57  1  0  0  0
 10 58  1  0  0  0
 10 59  1  0  0  0
 11 60  1  0  0  0
 12 61  1  0  0  0
 12 62  1  0  0  0
 13 63  1  0  0  0
 14 64  1  0  0  0
 15 65  1  0  0  0
 15 66  1  0  0  0
 15 67  1  0  0  0
 16 68  1  0  0  0
 16 69  1  0  0  0
 16 70  1  0  0  0
 18 71  1  0  0  0
 19 72  1  0  0  0
 19 73  1  0  0  0
 20 74  1  0  0  0
 20 75  1  0  0  0
 23 76  1  0  0  0
 25 77  1  0  0  0
 25 78  1  0  0  0
 26 79  1  0  0  0
 26 80  1  0  0  0
 27 81  1  0  0  0
 27 82  1  0  0  0
 29 83  1  0  0  0
 30 84  1  0  0  0
 31 85  1  0  0  0
 31 86  1  0  0  0
 32 87  1  0  0  0
 33 88  1  0  0  0
 33 89  1  0  0  0
 34 90  1  0  0  0
 35 91  1  0  0  0
 35 92  1  0  0  0
 36 93  1  0  0  0
 38 94  1  0  0  0
M  END
$$$$
