3ccw_ligand
  -I-interpret- 

 68 70  0  0  0  0  0  0  0  0999 V2000
  -14.2130    7.4770   45.5500 N   0  0  0  0  0
  -15.7600    8.5480   46.7000 N   0  0  0  0  0
  -19.3110    6.9570   48.5760 C   0  0  0  0  0
  -14.5490    8.6500   46.1400 C   0  0  0  0  0
  -15.3620    5.2000   45.2940 C   0  0  0  0  0
  -12.9650    7.2210   44.8150 C   0  0  0  0  0
  -13.1670    7.7950   43.4070 C   0  0  0  0  0
  -12.5560    7.9950   40.9970 C   0  0  0  0  0
  -14.3070    4.3850   46.0420 C   0  0  0  0  0
  -11.8250   11.1370   46.9350 C   0  0  0  0  0
  -20.6090    4.9650   49.3150 C   0  0  0  0  0
  -20.7300    3.7310   49.9480 C   0  0  0  0  0
  -14.3100   11.0670   45.6570 C   0  0  0  0  0
  -13.5910   12.2590   45.7270 C   0  0  0  0  0
  -18.2710    5.0400   49.8760 C   0  0  0  0  0
  -18.1900    6.1200   46.0850 O   0  0  0  0  0
  -17.4980    6.7430   46.8860 C   0  0  0  0  0
  -17.9750    7.1730   48.0490 N   0  0  0  0  0
  -19.3870    5.6160   49.2710 C   0  0  0  0  0
  -18.3900    3.8070   50.5130 C   0  0  0  0  0
  -19.6170    3.1510   50.5480 C   0  0  0  0  0
  -16.1990    7.3140   46.4610 C   0  0  0  0  0
  -15.2460    6.6210   45.7200 C   0  0  0  0  0
  -15.2970    5.0090   43.7820 C   0  0  0  0  0
  -13.7730    9.9080   46.2130 C   0  0  0  0  0
  -12.3500   12.2960   46.3670 C   0  0  0  0  0
  -11.6550   13.4490   46.4290 F   0  0  0  0  0
  -12.5420    9.9450   46.8700 C   0  0  0  0  0
  -12.0800    7.5030   42.3610 C   0  0  0  0  0
  -11.8150    6.1130   42.2140 O   0  0  0  0  0
  -12.6680    9.5140   40.8890 C   0  0  0  0  0
  -11.4080   10.0990   41.1230 O   0  0  0  0  0
  -13.1250    9.8910   39.4840 C   0  0  0  0  0
  -13.5930   11.3300   39.4420 C   0  0  0  0  0
  -12.8540   12.1870   38.8910 O   0  0  0  0  0
  -14.7000   11.5990   39.9710 O   0  0  0  0  0
  -20.0263    6.9740   47.7537 H   0  0  0  0  0
  -19.5436    7.7444   49.2929 H   0  0  0  0  0
  -16.3551    4.8367   45.5581 H   0  0  0  0  0
  -12.7462    6.1539   44.7750 H   0  0  0  0  0
  -12.1154    7.6904   45.3109 H   0  0  0  0  0
  -13.1739    8.8781   43.5293 H   0  0  0  0  0
  -14.0747    7.3269   43.0262 H   0  0  0  0  0
  -13.5529    7.5850   40.8353 H   0  0  0  0  0
  -11.8191    7.6721   40.2616 H   0  0  0  0  0
  -13.3154    4.7678   45.8005 H   0  0  0  0  0
  -14.4787    4.4686   47.1151 H   0  0  0  0  0
  -14.3773    3.3395   45.7419 H   0  0  0  0  0
  -10.8541   11.1634   47.4297 H   0  0  0  0  0
  -21.4825    5.4225   48.8504 H   0  0  0  0  0
  -21.6931    3.2212   49.9734 H   0  0  0  0  0
  -15.2852   11.0418   45.1708 H   0  0  0  0  0
  -13.9988   13.1659   45.2805 H   0  0  0  0  0
  -17.3093    5.5523   49.8507 H   0  0  0  0  0
  -17.3356    7.7116   48.6333 H   0  0  0  0  0
  -17.5187    3.3541   50.9860 H   0  0  0  0  0
  -19.7057    2.1847   51.0445 H   0  0  0  0  0
  -14.3173    5.3203   43.4195 H   0  0  0  0  0
  -15.4572    3.9577   43.5426 H   0  0  0  0  0
  -16.0702    5.6130   43.3072 H   0  0  0  0  0
  -12.1425    9.0420   47.3316 H   0  0  0  0  0
  -11.1764    8.0070   42.7041 H   0  0  0  0  0
  -11.1316    5.9870   41.5517 H   0  0  0  0  0
  -13.3871    9.8717   41.6259 H   0  0  0  0  0
  -11.4820   11.0537   41.0544 H   0  0  0  0  0
  -13.9528    9.2426   39.1967 H   0  0  0  0  0
  -12.2869    9.7727   38.7971 H   0  0  0  0  0
  -12.0623   11.7584   38.5578 H   0  0  0  0  0
  4  1  4  0  0  0
  1  6  1  0  0  0
  1 23  4  0  0  0
  2  4  4  0  0  0
 22  2  4  0  0  0
 18  3  1  0  0  0
  3 19  1  0  0  0
  4 25  1  0  0  0
  5  9  1  0  0  0
 23  5  1  0  0  0
  5 24  1  0  0  0
  6  7  1  0  0  0
  7 29  1  0  0  0
 29  8  1  0  0  0
  8 31  1  0  0  0
 26 10  4  0  0  0
 10 28  4  0  0  0
 11 12  4  0  0  0
 19 11  4  0  0  0
 12 21  4  0  0  0
 13 14  4  0  0  0
 25 13  4  0  0  0
 14 26  4  0  0  0
 19 15  4  0  0  0
 15 20  4  0  0  0
 17 16  2  0  0  0
 17 18  1  0  0  0
 17 22  1  0  0  0
 20 21  4  0  0  0
 22 23  4  0  0  0
 25 28  4  0  0  0
 26 27  1  0  0  0
 29 30  1  0  0  0
 31 32  1  0  0  0
 31 33  1  0  0  0
 33 34  1  0  0  0
 34 35  1  0  0  0
 34 36  2  0  0  0
  3 37  1  0  0  0
  3 38  1  0  0  0
  5 39  1  0  0  0
  6 40  1  0  0  0
  6 41  1  0  0  0
  7 42  1  0  0  0
  7 43  1  0  0  0
  8 44  1  0  0  0
  8 45  1  0  0  0
  9 46  1  0  0  0
  9 47  1  0  0  0
  9 48  1  0  0  0
 10 49  1  0  0  0
 11 50  1  0  0  0
 12 51  1  0  0  0
 13 52  1  0  0  0
 14 53  1  0  0  0
 15 54  1  0  0  0
 18 55  1  0  0  0
 20 56  1  0  0  0
 21 57  1  0  0  0
 24 58  1  0  0  0
 24 59  1  0  0  0
 24 60  1  0  0  0
 28 61  1  0  0  0
 29 62  1  0  0  0
 30 63  1  0  0  0
 31 64  1  0  0  0
 32 65  1  0  0  0
 33 66  1  0  0  0
 33 67  1  0  0  0
 35 68  1  0  0  0
M  END
$$$$
