3e7o_ligand
  -I-interpret- 

 40 44  0  0  0  0  0  0  0  0999 V2000
  -27.9820  -32.4050   24.3930 C   0  0  0  0  0
  -28.6620  -31.8940   23.2910 C   0  0  0  0  0
  -28.1140  -30.8840   22.5090 C   0  0  0  0  0
  -30.9050  -33.2190   23.2570 C   0  0  0  0  0
  -32.9450  -34.9080   24.1430 C   0  0  0  0  0
  -30.5890  -34.3500   24.0150 C   0  0  0  0  0
  -25.9470  -32.3870   25.8510 C   0  0  0  0  0
  -25.3510  -33.5340   27.6250 C   0  0  0  0  0
  -35.6190  -33.5560   23.8200 C   0  0  0  0  0
  -36.7680  -33.0560   23.3660 C   0  0  0  0  0
  -38.1870  -32.0340   22.1410 C   0  0  0  0  0
  -35.6250  -34.1210   24.9110 O   0  0  0  0  0
  -38.0510  -33.2050   23.9920 O   0  0  0  0  0
  -38.9110  -32.4730   23.0820 C   0  0  0  0  0
  -36.9580  -32.3400   22.2520 C   0  0  0  0  0
  -34.5290  -33.4250   23.0470 N   0  0  0  0  0
  -33.2600  -33.7670   23.3990 C   0  0  0  0  0
  -32.2360  -32.9370   22.9610 C   0  0  0  0  0
  -31.6110  -35.1930   24.4530 C   0  0  0  0  0
  -29.9000  -32.2260   22.7580 C   0  0  0  0  0
  -30.0920  -31.4250   21.6840 N   0  0  0  0  0
  -28.9820  -30.5980   21.5310 N   0  0  0  0  0
  -26.8580  -30.3710   22.8140 C   0  0  0  0  0
  -26.1710  -30.8730   23.9100 C   0  0  0  0  0
  -26.7300  -31.8810   24.6920 C   0  0  0  0  0
  -26.3270  -33.3640   26.7050 N   0  0  0  0  0
  -24.3410  -32.6730   27.3470 N   0  0  0  0  0
  -24.7220  -31.9390   26.2120 N   0  0  0  0  0
  -28.4194  -33.1943   25.0044 H   0  0  0  0  0
  -33.7381  -35.5749   24.4812 H   0  0  0  0  0
  -29.5509  -34.5720   24.2624 H   0  0  0  0  0
  -25.3724  -34.2441   28.4516 H   0  0  0  0  0
  -38.5812  -31.4472   21.3113 H   0  0  0  0  0
  -39.9859  -32.3273   23.1890 H   0  0  0  0  0
  -36.1763  -32.0608   21.5455 H   0  0  0  0  0
  -34.6641  -33.0350   22.1143 H   0  0  0  0  0
  -32.4785  -32.0500   22.3757 H   0  0  0  0  0
  -31.3685  -36.0788   25.0401 H   0  0  0  0  0
  -26.4189  -29.5847   22.2000 H   0  0  0  0  0
  -25.1873  -30.4759   24.1607 H   0  0  0  0  0
  2  1  4  0  0  0
  1 25  4  0  0  0
  2  3  4  0  0  0
 20  2  4  0  0  0
  3 22  4  0  0  0
  3 23  4  0  0  0
  6  4  4  0  0  0
  4 18  4  0  0  0
  4 20  1  0  0  0
 17  5  4  0  0  0
  5 19  4  0  0  0
 19  6  4  0  0  0
 25  7  1  0  0  0
  7 26  4  0  0  0
  7 28  4  0  0  0
 26  8  4  0  0  0
  8 27  4  0  0  0
  9 10  1  0  0  0
  9 12  2  0  0  0
 16  9  1  0  0  0
 10 13  4  0  0  0
 10 15  4  0  0  0
 11 14  4  0  0  0
 15 11  4  0  0  0
 13 14  4  0  0  0
 16 17  1  0  0  0
 17 18  4  0  0  0
 20 21  4  0  0  0
 21 22  4  0  0  0
 23 24  4  0  0  0
 24 25  4  0  0  0
 27 28  4  0  0  0
  1 29  1  0  0  0
  5 30  1  0  0  0
  6 31  1  0  0  0
  8 32  1  0  0  0
 11 33  1  0  0  0
 14 34  1  0  0  0
 15 35  1  0  0  0
 16 36  1  0  0  0
 18 37  1  0  0  0
 19 38  1  0  0  0
 23 39  1  0  0  0
 24 40  1  0  0  0
M  END
$$$$
