3bcn_ligand
  -I-interpret- 

 54 53  0  0  0  0  0  0  0  0999 V2000
    1.1740   -8.6320   22.3530 C   0  0  0  0  0
    1.7820   -8.5140   21.2080 O   0  0  0  0  0
    1.2860   -9.6220   23.0690 O   0  0  0  0  0
    0.3120   -7.4730   22.7650 C   0  0  0  0  0
   -1.0960   -7.8990   23.1800 C   0  0  0  0  0
   -1.8670   -8.8310   22.4130 O   0  0  0  0  0
   -1.8320   -6.7020   23.7500 C   0  0  0  0  0
   -2.0740   -6.6030   24.9620 O   0  0  0  0  0
   -2.1640   -5.7930   22.8350 N   0  0  0  0  0
   -2.9030   -4.5760   23.1380 C   0  0  0  0  0
   -2.2520   -3.3850   22.4290 C   0  0  0  0  0
   -1.6420   -2.2600   23.2690 C   0  0  0  0  0
   -2.4820   -1.0090   23.0950 C   0  0  0  0  0
   -1.5660   -2.6640   24.7320 C   0  0  0  0  0
   -4.3540   -4.7190   22.6770 C   0  0  0  0  0
   -4.9590   -3.7650   22.1760 O   0  0  0  0  0
   -4.9040   -5.9160   22.8550 N   0  0  0  0  0
   -6.3190   -6.1970   22.6590 C   0  0  0  0  0
   -6.8290   -7.2840   23.5830 C   0  0  0  0  0
   -7.4250   -8.4460   22.7900 C   0  0  0  0  0
   -8.1720   -7.9670   21.5430 C   0  0  0  0  0
   -8.1010   -8.9270   20.4390 N   0  0  0  0  0
   -9.1230   -9.6890   20.0460 C   0  0  0  0  0
   -9.9940   -9.9390   21.0230 N   0  0  0  0  0
   -9.3350  -10.1980   18.8270 N   0  0  0  0  0
    1.5584   -7.6676   20.8139 H   0  0  0  0  0
    0.2195   -6.8051   21.9086 H   0  0  0  0  0
    0.7830   -6.9960   23.6245 H   0  0  0  0  0
   -0.9125   -8.6463   23.9520 H   0  0  0  0  0
   -1.2973   -9.5406   22.1072 H   0  0  0  0  0
   -1.8849   -5.9588   21.8680 H   0  0  0  0  0
   -2.8852   -4.4079   24.2148 H   0  0  0  0  0
   -3.0628   -2.9121   21.8749 H   0  0  0  0  0
   -1.4121   -3.8112   21.8803 H   0  0  0  0  0
   -0.6247   -2.0615   22.9316 H   0  0  0  0  0
   -2.4909   -0.7222   22.0434 H   0  0  0  0  0
   -3.5009   -1.2079   23.4273 H   0  0  0  0  0
   -2.0557   -0.2011   23.6897 H   0  0  0  0  0
   -2.5692   -2.8766   25.1015 H   0  0  0  0  0
   -0.9451   -3.5545   24.8299 H   0  0  0  0  0
   -1.1294   -1.8497   25.3103 H   0  0  0  0  0
   -4.2985   -6.6834   23.1463 H   0  0  0  0  0
   -6.4549   -6.5375   21.6325 H   0  0  0  0  0
   -6.8756   -5.2848   22.8740 H   0  0  0  0  0
   -7.6058   -6.8628   24.2212 H   0  0  0  0  0
   -5.9939   -7.6582   24.1753 H   0  0  0  0  0
   -8.1343   -8.9682   23.4322 H   0  0  0  0  0
   -6.6090   -9.0940   22.4702 H   0  0  0  0  0
   -7.7076   -7.0388   21.2102 H   0  0  0  0  0
   -9.2213   -7.8397   21.8093 H   0  0  0  0  0
   -7.2160   -9.0185   19.9402 H   0  0  0  0  0
   -9.8377   -9.5568   21.9557 H   0  0  0  0  0
  -10.1588  -10.7730   18.6506 H   0  0  0  0  0
   -8.6728  -10.0111   18.0740 H   0  0  0  0  0
  1  2  1  0  0  0
  1  3  2  0  0  0
  1  4  1  0  0  0
  4  5  1  0  0  0
  5  6  1  0  0  0
  5  7  1  0  0  0
  7  8  2  0  0  0
  7  9  1  0  0  0
  9 10  1  0  0  0
 10 11  1  0  0  0
 10 15  1  0  0  0
 11 12  1  0  0  0
 12 13  1  0  0  0
 12 14  1  0  0  0
 15 16  2  0  0  0
 15 17  1  0  0  0
 17 18  1  0  0  0
 18 19  1  0  0  0
 19 20  1  0  0  0
 20 21  1  0  0  0
 21 22  1  0  0  0
 22 23  1  0  0  0
 23 24  2  0  0  0
 23 25  1  0  0  0
  2 26  1  0  0  0
  4 27  1  0  0  0
  4 28  1  0  0  0
  5 29  1  0  0  0
  6 30  1  0  0  0
  9 31  1  0  0  0
 10 32  1  0  0  0
 11 33  1  0  0  0
 11 34  1  0  0  0
 12 35  1  0  0  0
 13 36  1  0  0  0
 13 37  1  0  0  0
 13 38  1  0  0  0
 14 39  1  0  0  0
 14 40  1  0  0  0
 14 41  1  0  0  0
 17 42  1  0  0  0
 18 43  1  0  0  0
 18 44  1  0  0  0
 19 45  1  0  0  0
 19 46  1  0  0  0
 20 47  1  0  0  0
 20 48  1  0  0  0
 21 49  1  0  0  0
 21 50  1  0  0  0
 22 51  1  0  0  0
 24 52  1  0  0  0
 25 53  1  0  0  0
 25 54  1  0  0  0
M  END
$$$$
