1ke0_ligand
  -I-interpret- 

 23 23  0  0  0  0  0  0  0  0999 V2000
   26.7830    5.2470   16.5060 B   0  0  0  0  0
   25.8040    4.1980   16.8610 O   0  0  0  0  0
   26.9610    6.1880   17.6600 O   0  0  0  0  0
   26.2480    6.0170   15.2510 C   0  0  0  0  0
   25.8420    5.3060   14.1270 C   0  0  0  0  0
   25.3330    5.9500   12.9990 C   0  0  0  0  0
   25.2360    7.3750   13.0170 C   0  0  0  0  0
   24.7100    8.1480   11.8870 C   0  0  0  0  0
   24.2680    7.5960   10.7340 C   0  0  0  0  0
   23.7670    8.4730    9.6810 C   0  0  0  0  0
   24.4540    8.6260    8.5410 O   0  0  0  0  0
   22.7100    9.0930    9.8470 O   0  0  0  0  0
   25.6640    8.0650   14.1790 C   0  0  0  0  0
   26.1540    7.3880   15.2580 C   0  0  0  0  0
   26.1177    3.7161   17.6297 H   0  0  0  0  0
   27.2888    5.7019   18.4202 H   0  0  0  0  0
   25.9234    4.2190   14.1273 H   0  0  0  0  0
   25.0171    5.3798   12.1254 H   0  0  0  0  0
   24.6730    9.2332   11.9821 H   0  0  0  0  0
   24.2858    6.5152   10.5940 H   0  0  0  0  0
   25.2437    8.0809    8.5690 H   0  0  0  0  0
   25.6008    9.1527   14.2112 H   0  0  0  0  0
   26.4758    7.9434   16.1390 H   0  0  0  0  0
  1  2  1  0  0  0
  1  3  1  0  0  0
  1  4  1  0  0  0
  4  5  4  0  0  0
  4 14  4  0  0  0
  5  6  4  0  0  0
  6  7  4  0  0  0
  7  8  1  0  0  0
  7 13  4  0  0  0
  8  9  2  0  0  0
  9 10  1  0  0  0
 10 11  1  0  0  0
 10 12  2  0  0  0
 13 14  4  0  0  0
  2 15  1  0  0  0
  3 16  1  0  0  0
  5 17  1  0  0  0
  6 18  1  0  0  0
  8 19  1  0  0  0
  9 20  1  0  0  0
 11 21  1  0  0  0
 13 22  1  0  0  0
 14 23  1  0  0  0
M  END
$$$$
