### 
### Created by X-TOOL on Mon Sep 10 21:12:49 2018
### 

@<TRIPOS>MOLECULE
1ke0_ligand
   22    22     1     0     0
SMALL
GAST_HUCK


@<TRIPOS>ATOM
      1 B          26.7830    5.2470   16.5060 B         1 CVB         0.7324
      2 OB1        25.8040    4.1980   16.8610 O.3       1 CVB        -0.4938
      3 OB2        26.9610    6.1880   17.6600 O.3       1 CVB        -0.4938
      4 CP1        26.2480    6.0170   15.2510 C.ar      1 CVB        -0.0515
      5 CP2        25.8420    5.3060   14.1270 C.ar      1 CVB        -0.0689
      6 CP3        25.3330    5.9500   12.9990 C.ar      1 CVB        -0.0531
      7 CP4        25.2360    7.3750   13.0170 C.ar      1 CVB        -0.0190
      8 CX1        24.7100    8.1480   11.8870 C.2       1 CVB        -0.0453
      9 CX2        24.2680    7.5960   10.7340 C.2       1 CVB        -0.0276
     10 CX3        23.7670    8.4730    9.6810 C.2       1 CVB         0.0524
     11 OX1        24.4540    8.6260    8.5410 O.co2     1 CVB        -0.5634
     12 OX2        22.7100    9.0930    9.8470 O.co2     1 CVB        -0.5634
     13 CP5        25.6640    8.0650   14.1790 C.ar      1 CVB        -0.0531
     14 CP6        26.1540    7.3880   15.2580 C.ar      1 CVB        -0.0689
     15 H1         25.6959    3.6056   16.1262 H         1 CVB         0.1669
     16 H2         27.2770    5.7054   18.4149 H         1 CVB         0.1669
     17 H3         25.9230    4.2250   14.1273 H         1 CVB         0.0610
     18 H4         25.0188    5.3829   12.1302 H         1 CVB         0.0639
     19 H5         24.6731    9.2322   11.9821 H         1 CVB         0.0697
     20 H6         24.2857    6.5162   10.5941 H         1 CVB         0.0637
     21 H7         25.6011    9.1467   14.2110 H         1 CVB         0.0639
     22 H8         26.4740    7.9403   16.1341 H         1 CVB         0.0610
@<TRIPOS>BOND
     1    1    2 1  
     2    1    3 1  
     3    1    4 1  
     4    4    5 ar 
     5    4   14 ar 
     6    5    6 ar 
     7    6    7 ar 
     8    7    8 1  
     9    7   13 ar 
    10    8    9 2  
    11    9   10 1  
    12   10   11 ar 
    13   10   12 ar 
    14   13   14 ar 
    15    2   15 1  
    16    3   16 1  
    17    5   17 1  
    18    6   18 1  
    19    8   19 1  
    20    9   20 1  
    21   13   21 1  
    22   14   22 1  
@<TRIPOS>SUBSTRUCTURE
     1 CVB         1

