6s89_ligand
  -I-interpret- 

 71 75  0  0  0  0  0  0  0  0999 V2000
    2.1550   52.0060  -21.1560 C   0  0  0  0  0
    1.7280   50.8760  -21.7700 C   0  0  0  0  0
    1.7510   50.8400  -23.1150 C   0  0  0  0  0
    2.1690   51.8900  -23.8400 N   0  0  0  0  0
    2.5800   53.0860  -21.8310 N   0  0  0  0  0
   -0.3480   48.2580  -14.1040 C   0  0  0  0  0
   -0.8960   48.5430  -12.7190 C   0  0  0  0  0
    0.2020   48.4860  -11.7290 N   0  3  0  0  0
   -0.3150   48.6800  -10.3620 C   0  0  0  0  0
    1.2830   49.4560  -12.0410 C   0  0  0  0  0
    1.8490   49.2050  -13.4410 C   0  0  0  0  0
    0.7150   49.2430  -14.3860 N   0  0  0  0  0
    0.9350   49.5550  -15.6760 C   0  0  0  0  0
    1.9420   50.4560  -16.0250 C   0  0  0  0  0
    2.1480   50.8050  -17.3520 C   0  0  0  0  0
    0.1230   49.0020  -16.6660 C   0  0  0  0  0
    0.3390   49.3590  -17.9890 C   0  0  0  0  0
    1.3660   50.2370  -18.3490 C   0  0  0  0  0
    1.5830   50.6210  -19.6180 C   0  0  0  0  0
    2.0610   51.8410  -19.8450 N   0  0  0  0  0
    2.6010   53.0600  -23.2180 C   0  0  0  0  0
    1.3330   49.7020  -23.7520 O   0  0  0  0  0
    1.3180   49.8500  -25.2020 C   0  0  0  0  0
    2.7450   49.7200  -25.7700 C   0  0  0  0  0
    0.4150   48.7860  -25.8470 C   0  0  0  0  0
    1.3430   50.0040  -20.8000 C   0  0  0  0  0
    0.9020   48.7260  -20.9620 C   0  0  0  0  0
   -0.1560   48.3160  -21.7950 C   0  0  0  0  0
    1.5830   47.7260  -20.2630 C   0  0  0  0  0
    1.2230   46.3820  -20.3630 C   0  0  0  0  0
    0.1710   45.9970  -21.1890 C   0  0  0  0  0
   -0.5280   46.9540  -21.9180 C   0  0  0  0  0
   -1.5460   46.4780  -22.6770 N   0  0  0  0  0
   -2.4710   47.2640  -23.3050 C   0  0  0  0  0
   -2.5060   48.5030  -23.3200 O   0  0  0  0  0
   -3.5480   46.4580  -24.0570 C   0  0  0  0  0
   -3.5000   44.9480  -23.8220 C   0  0  0  0  0
   -1.1418   48.3378  -14.8467 H   0  0  0  0  0
    0.0549   47.2462  -14.1486 H   0  0  0  0  0
   -1.6496   47.7968  -12.4672 H   0  0  0  0  0
   -1.3452   49.5360  -12.7047 H   0  0  0  0  0
    0.6150   47.5549  -11.7833 H   0  0  0  0  0
   -0.8007   49.6534  -10.2933 H   0  0  0  0  0
   -1.0364   47.8956  -10.1331 H   0  0  0  0  0
    0.5112   48.6339   -9.6525 H   0  0  0  0  0
    2.0838   49.3375  -11.3111 H   0  0  0  0  0
    0.8724   50.4650  -12.0030 H   0  0  0  0  0
    2.3509   48.2384  -13.4836 H   0  0  0  0  0
    2.5872   49.9648  -13.6977 H   0  0  0  0  0
    2.5722   50.8893  -15.2483 H   0  0  0  0  0
    2.9238   51.5252  -17.6119 H   0  0  0  0  0
   -0.6689   48.3003  -16.4043 H   0  0  0  0  0
   -0.3059   48.9461  -18.7647 H   0  0  0  0  0
    2.9411   53.9186  -23.7970 H   0  0  0  0  0
    0.9249   50.8396  -25.4350 H   0  0  0  0  0
    3.3780   50.4961  -25.3398 H   0  0  0  0  0
    3.1475   48.7392  -25.5167 H   0  0  0  0  0
    2.7150   49.8331  -26.8537 H   0  0  0  0  0
    0.7898   47.7934  -25.5973 H   0  0  0  0  0
   -0.6017   48.8973  -25.4702 H   0  0  0  0  0
    0.4190   48.9156  -26.9293 H   0  0  0  0  0
   -0.7051   49.0678  -22.3619 H   0  0  0  0  0
    2.4192   48.0039  -19.6214 H   0  0  0  0  0
    1.7678   45.6302  -19.7919 H   0  0  0  0  0
   -0.1054   44.9453  -21.2648 H   0  0  0  0  0
   -1.6266   45.4671  -22.7864 H   0  0  0  0  0
   -3.3771   46.6181  -25.1216 H   0  0  0  0  0
   -4.5148   46.8044  -23.6918 H   0  0  0  0  0
   -2.5339   44.5616  -24.1466 H   0  0  0  0  0
   -3.6370   44.7423  -22.7604 H   0  0  0  0  0
   -4.2951   44.4674  -24.3921 H   0  0  0  0  0
  1  2  4  0  0  0
  1  5  4  0  0  0
 20  1  4  0  0  0
  2  3  4  0  0  0
  2 26  4  0  0  0
  3  4  4  0  0  0
  3 22  1  0  0  0
 21  4  4  0  0  0
  5 21  4  0  0  0
  6  7  1  0  0  0
 12  6  1  0  0  0
  7  8  1  0  0  0
  8  9  1  0  0  0
 10  8  1  0  0  0
 11 10  1  0  0  0
 12 11  1  0  0  0
 13 12  1  0  0  0
 14 13  4  0  0  0
 16 13  4  0  0  0
 15 14  4  0  0  0
 18 15  4  0  0  0
 17 16  4  0  0  0
 18 17  4  0  0  0
 19 18  1  0  0  0
 19 20  4  0  0  0
 19 26  4  0  0  0
 22 23  1  0  0  0
 23 24  1  0  0  0
 23 25  1  0  0  0
 26 27  1  0  0  0
 27 28  4  0  0  0
 27 29  4  0  0  0
 28 32  4  0  0  0
 29 30  4  0  0  0
 30 31  4  0  0  0
 31 32  4  0  0  0
 32 33  1  0  0  0
 33 34  1  0  0  0
 34 35  2  0  0  0
 34 36  1  0  0  0
 36 37  1  0  0  0
  6 38  1  0  0  0
  6 39  1  0  0  0
  7 40  1  0  0  0
  7 41  1  0  0  0
  8 42  1  0  0  0
  9 43  1  0  0  0
  9 44  1  0  0  0
  9 45  1  0  0  0
 10 46  1  0  0  0
 10 47  1  0  0  0
 11 48  1  0  0  0
 11 49  1  0  0  0
 14 50  1  0  0  0
 15 51  1  0  0  0
 16 52  1  0  0  0
 17 53  1  0  0  0
 21 54  1  0  0  0
 23 55  1  0  0  0
 24 56  1  0  0  0
 24 57  1  0  0  0
 24 58  1  0  0  0
 25 59  1  0  0  0
 25 60  1  0  0  0
 25 61  1  0  0  0
 28 62  1  0  0  0
 29 63  1  0  0  0
 30 64  1  0  0  0
 31 65  1  0  0  0
 33 66  1  0  0  0
 36 67  1  0  0  0
 36 68  1  0  0  0
 37 69  1  0  0  0
 37 70  1  0  0  0
 37 71  1  0  0  0
M  END
$$$$
