5ism_ligand
  -I-interpret- 

 48 52  0  0  0  0  0  0  0  0999 V2000
   34.5310   50.7790   36.2780 C   0  0  0  0  0
   36.6630   49.0460   36.0390 C   0  0  0  0  0
   43.3480   51.4920   35.8190 C   0  0  0  0  0
   40.4440   51.4590   35.5250 C   0  0  0  0  0
   48.6790   50.9020   38.3390 C   0  0  0  0  0
   48.1200   51.3930   37.2040 C   0  0  0  0  0
   36.0260   52.4310   36.9120 F   0  0  0  0  0
   35.8240   51.1870   36.5340 C   0  0  0  0  0
   36.8930   50.3480   36.4160 C   0  0  0  0  0
   35.3430   48.6150   35.7710 C   0  0  0  0  0
   35.1310   47.3660   35.3510 F   0  0  0  0  0
   34.2660   49.4670   35.8910 C   0  0  0  0  0
   38.2740   50.8760   36.6510 C   0  0  0  0  0
   39.0100   51.0000   35.2650 C   0  0  0  0  0
   38.2610   51.9190   34.3550 N   0  3  0  0  0
   38.9720   49.9110   37.4110 O   0  0  0  0  0
   40.2380   50.3710   37.8290 C   0  0  0  0  0
   41.1550   50.5310   36.5570 C   0  0  0  0  0
   42.4300   51.2000   36.9810 N   0  3  0  0  0
   43.2360   50.3890   38.0000 C   0  0  0  0  0
   44.7060   51.3530   36.3850 C   0  0  0  0  0
   45.9750   51.6860   35.9970 N   0  0  0  0  0
   46.7130   51.2820   37.0890 N   0  0  0  0  0
   45.9190   50.6970   38.1200 C   0  0  0  0  0
   44.6420   50.7520   37.6590 C   0  0  0  0  0
   46.5000   50.1990   39.2740 N   0  0  0  0  0
   47.8430   50.3100   39.3600 C   0  0  0  0  0
   33.7101   51.4889   36.3794 H   0  0  0  0  0
   37.4953   48.3482   35.9470 H   0  0  0  0  0
   43.1771   52.4833   35.3992 H   0  0  0  0  0
   43.1801   50.8141   34.9821 H   0  0  0  0  0
   40.4175   52.4714   35.9280 H   0  0  0  0  0
   40.9965   51.4227   34.5861 H   0  0  0  0  0
   49.7584   50.9538   38.4812 H   0  0  0  0  0
   48.7239   51.8500   36.4201 H   0  0  0  0  0
   33.2493   49.1284   35.6914 H   0  0  0  0  0
   38.2345   51.8417   37.1550 H   0  0  0  0  0
   39.0448   50.0366   34.7563 H   0  0  0  0  0
   38.7517   51.9870   33.4634 H   0  0  0  0  0
   37.3220   51.5517   34.2005 H   0  0  0  0  0
   38.1999   52.8432   34.7822 H   0  0  0  0  0
   40.6835   49.6576   38.5223 H   0  0  0  0  0
   40.1368   51.3293   38.3384 H   0  0  0  0  0
   41.3506   49.5551   36.1127 H   0  0  0  0  0
   42.1132   52.0689   37.4111 H   0  0  0  0  0
   43.0446   49.3175   37.9416 H   0  0  0  0  0
   42.9735   50.6180   39.0328 H   0  0  0  0  0
   48.3290   49.9284   40.2579 H   0  0  0  0  0
  8  1  4  0  0  0
  1 12  4  0  0  0
  9  2  4  0  0  0
  2 10  4  0  0  0
  3 19  1  0  0  0
 21  3  1  0  0  0
  4 14  1  0  0  0
 18  4  1  0  0  0
  6  5  4  0  0  0
  5 27  4  0  0  0
 23  6  4  0  0  0
  8  7  1  0  0  0
  9  8  4  0  0  0
 13  9  1  0  0  0
 10 11  1  0  0  0
 10 12  4  0  0  0
 14 13  1  0  0  0
 16 13  1  0  0  0
 14 15  1  0  0  0
 17 16  1  0  0  0
 18 17  1  0  0  0
 19 18  1  0  0  0
 20 19  1  0  0  0
 25 20  1  0  0  0
 22 21  4  0  0  0
 21 25  4  0  0  0
 22 23  4  0  0  0
 23 24  4  0  0  0
 24 25  4  0  0  0
 24 26  4  0  0  0
 26 27  4  0  0  0
  1 28  1  0  0  0
  2 29  1  0  0  0
  3 30  1  0  0  0
  3 31  1  0  0  0
  4 32  1  0  0  0
  4 33  1  0  0  0
  5 34  1  0  0  0
  6 35  1  0  0  0
 12 36  1  0  0  0
 13 37  1  0  0  0
 14 38  1  0  0  0
 15 39  1  0  0  0
 15 40  1  0  0  0
 15 41  1  0  0  0
 17 42  1  0  0  0
 17 43  1  0  0  0
 18 44  1  0  0  0
 19 45  1  0  0  0
 20 46  1  0  0  0
 20 47  1  0  0  0
 27 48  1  0  0  0
M  END
$$$$
