5wfw_ligand
  -I-interpret- 

 69 73  0  0  0  0  0  0  0  0999 V2000
  400.8890  105.8150  553.7650 C   0  0  0  0  0
  404.4110   99.6350  546.2230 C   0  0  0  0  0
  405.9310   99.7080  549.5370 C   0  0  0  0  0
  407.1990   97.6950  549.5870 C   0  0  0  0  0
  406.3970  100.5950  550.4970 C   0  0  0  0  0
  406.3250  101.9560  550.2360 C   0  0  0  0  0
  406.7550  103.1220  551.0870 C   0  0  0  0  0
  400.7660  103.8030  552.4650 C   0  0  0  0  0
  400.0280  102.5660  552.0020 C   0  0  0  0  0
  400.8420  102.0340  549.7180 C   0  0  0  0  0
  401.6940  101.1460  548.8340 C   0  0  0  0  0
  402.1710  105.9910  553.2530 C   0  0  0  0  0
  401.9290  102.8490  546.5380 C   0  0  0  0  0
  402.6170  103.6870  547.4160 C   0  0  0  0  0
  403.0820  104.9140  546.9760 C   0  0  0  0  0
  402.8710  105.3120  545.6740 C   0  0  0  0  0
  402.1970  104.4950  544.7940 C   0  0  0  0  0
  401.7300  103.2700  545.2280 C   0  0  0  0  0
  401.5270  100.6730  551.6960 C   0  0  0  0  0
  401.2260  100.8900  553.1640 C   0  0  0  0  0
  399.8420  101.5190  553.1110 C   0  0  0  0  0
  402.6890  105.0750  552.3880 C   0  0  0  0  0
  404.0730  105.2540  551.8320 C   0  0  0  0  0
  405.8900  104.2710  550.5340 C   0  0  0  0  0
  405.8410  103.9330  549.0310 C   0  0  0  0  0
  405.7870  102.4290  549.0450 C   0  0  0  0  0
  405.3200  101.5510  548.0760 C   0  0  0  0  0
  405.3810  100.1890  548.3270 C   0  0  0  0  0
  404.5570  104.2350  551.1070 N   0  0  0  0  0
  402.0010  103.9940  551.9950 N   0  0  0  0  0
  400.8150  101.7780  551.0370 N   0  0  0  0  0
  400.2060  104.6940  553.3430 N   0  0  0  0  0
  400.3510  106.6020  554.5590 O   0  0  0  0  0
  402.8330  107.0810  553.6660 O   0  0  0  0  0
  404.9570   99.2100  547.4670 O   0  0  0  0  0
  405.9330   98.3440  549.6550 O   0  0  0  0  0
  404.7220  106.2770  552.0420 O   0  0  0  0  0
  400.1680  102.9390  549.2350 O   0  0  0  0  0
  401.3220  101.2740  547.0610 S   0  0  0  0  0
  400.8840  102.2620  544.1030 Cl  0  0  0  0  0
  403.5391  100.2631  546.4060 H   0  0  0  0  0
  405.1613  100.2038  545.6737 H   0  0  0  0  0
  404.1160   98.7625  545.6401 H   0  0  0  0  0
  407.6643   97.9090  548.6248 H   0  0  0  0  0
  407.8376   98.0620  550.3905 H   0  0  0  0  0
  407.0605   96.6191  549.6938 H   0  0  0  0  0
  406.8112  100.2301  551.4369 H   0  0  0  0  0
  407.8244  103.3242  551.0276 H   0  0  0  0  0
  406.6086  102.9508  552.1535 H   0  0  0  0  0
  399.0958  102.9785  551.6160 H   0  0  0  0  0
  401.4951  100.1157  549.1290 H   0  0  0  0  0
  402.7291  101.4607  548.9672 H   0  0  0  0  0
  402.7880  103.3759  548.4466 H   0  0  0  0  0
  403.6179  105.5689  547.6631 H   0  0  0  0  0
  403.2404  106.2809  545.3380 H   0  0  0  0  0
  402.0336  104.8123  543.7641 H   0  0  0  0  0
  401.2026   99.6946  551.3416 H   0  0  0  0  0
  402.5958  100.6761  551.4821 H   0  0  0  0  0
  401.9647  101.5119  553.6697 H   0  0  0  0  0
  401.2624   99.9736  553.7531 H   0  0  0  0  0
  399.0439  100.8046  552.9091 H   0  0  0  0  0
  399.5164  101.9414  554.0616 H   0  0  0  0  0
  406.2802  105.2642  550.7562 H   0  0  0  0  0
  406.6907  104.3275  548.4737 H   0  0  0  0  0
  404.9958  104.3887  548.5152 H   0  0  0  0  0
  404.9134  101.9253  547.1365 H   0  0  0  0  0
  403.9729  103.4129  550.9542 H   0  0  0  0  0
  399.2628  104.5240  553.6921 H   0  0  0  0  0
  402.2786  107.5813  554.2693 H   0  0  0  0  0
 12  1  1  0  0  0
  1 32  1  0  0  0
  1 33  2  0  0  0
 35  2  1  0  0  0
  3  5  4  0  0  0
 28  3  4  0  0  0
  3 36  1  0  0  0
 36  4  1  0  0  0
  5  6  4  0  0  0
  6  7  1  0  0  0
 26  6  4  0  0  0
 24  7  1  0  0  0
  8  9  1  0  0  0
 30  8  2  0  0  0
  8 32  1  0  0  0
  9 21  1  0  0  0
  9 31  1  0  0  0
 10 11  1  0  0  0
 31 10  1  0  0  0
 10 38  2  0  0  0
 11 39  1  0  0  0
 22 12  2  0  0  0
 12 34  1  0  0  0
 13 14  4  0  0  0
 13 18  4  0  0  0
 39 13  1  0  0  0
 14 15  4  0  0  0
 15 16  4  0  0  0
 17 16  4  0  0  0
 18 17  4  0  0  0
 18 40  1  0  0  0
 19 20  1  0  0  0
 31 19  1  0  0  0
 21 20  1  0  0  0
 23 22  1  0  0  0
 22 30  1  0  0  0
 29 23  1  0  0  0
 23 37  2  0  0  0
 25 24  1  0  0  0
 24 29  1  0  0  0
 26 25  1  0  0  0
 27 26  4  0  0  0
 28 27  4  0  0  0
 28 35  1  0  0  0
  2 41  1  0  0  0
  2 42  1  0  0  0
  2 43  1  0  0  0
  4 44  1  0  0  0
  4 45  1  0  0  0
  4 46  1  0  0  0
  5 47  1  0  0  0
  7 48  1  0  0  0
  7 49  1  0  0  0
  9 50  1  0  0  0
 11 51  1  0  0  0
 11 52  1  0  0  0
 14 53  1  0  0  0
 15 54  1  0  0  0
 16 55  1  0  0  0
 17 56  1  0  0  0
 19 57  1  0  0  0
 19 58  1  0  0  0
 20 59  1  0  0  0
 20 60  1  0  0  0
 21 61  1  0  0  0
 21 62  1  0  0  0
 24 63  1  0  0  0
 25 64  1  0  0  0
 25 65  1  0  0  0
 27 66  1  0  0  0
 29 67  1  0  0  0
 32 68  1  0  0  0
 34 69  1  0  0  0
M  END
$$$$
