6euc_ligand
  -I-interpret- 

 48 49  0  0  0  0  0  0  0  0999 V2000
   61.5690  160.7880  188.2960 O   0  0  0  0  0
   61.4670  162.1570  188.4440 C   0  0  0  0  0
   60.8430  162.8340  187.2180 C   0  0  0  0  0
   59.6430  162.2700  186.8260 N   0  3  0  0  0
   59.6960  160.8870  186.7640 C   0  0  0  0  0
   60.3360  160.2380  187.9990 C   0  0  0  0  0
   59.3060  162.7260  185.6830 C   0  0  0  0  0
   57.7790  162.7210  185.4970 C   0  0  0  0  0
   57.3990  163.3920  184.1740 C   0  0  0  0  0
   55.9050  163.5950  183.9020 C   0  0  0  0  0
   55.7930  164.7660  182.9030 C   0  0  0  0  0
   54.5830  164.7820  181.9430 C   0  0  0  0  0
   54.7620  164.4110  180.6740 N   0  0  0  0  0
   53.7700  164.4220  179.7900 C   0  0  0  0  0
   52.5060  164.8280  180.1920 C   0  0  0  0  0
   52.2650  165.2310  181.5090 C   0  0  0  0  0
   53.3400  165.2080  182.4090 C   0  0  0  0  0
   51.4630  164.8290  179.2580 O   0  0  0  0  0
   54.0150  163.9870  178.3410 C   0  0  0  0  0
   52.7820  164.1060  177.5690 N   0  3  0  0  0
   52.9890  164.2750  176.1630 O   0  0  0  0  0
   62.4724  162.5574  188.5745 H   0  0  0  0  0
   60.8247  162.3560  189.3019 H   0  0  0  0  0
   61.5432  162.7213  186.3903 H   0  0  0  0  0
   60.6452  163.8726  187.4831 H   0  0  0  0  0
   58.9520  162.5207  187.5332 H   0  0  0  0  0
   60.3090  160.6227  185.9024 H   0  0  0  0  0
   58.6702  160.5241  186.6998 H   0  0  0  0  0
   59.6760  160.4038  188.8505 H   0  0  0  0  0
   60.4783  159.1777  187.7904 H   0  0  0  0  0
   59.7478  162.0905  184.9155 H   0  0  0  0  0
   59.6583  163.7546  185.6058 H   0  0  0  0  0
   57.3199  163.2712  186.3183 H   0  0  0  0  0
   57.4266  161.6896  185.4856 H   0  0  0  0  0
   57.7570  162.7262  183.3887 H   0  0  0  0  0
   57.8335  164.3910  184.2111 H   0  0  0  0  0
   55.3684  163.8178  184.8243 H   0  0  0  0  0
   55.4577  162.6896  183.4918 H   0  0  0  0  0
   56.6711  164.6862  182.2622 H   0  0  0  0  0
   55.6896  165.6616  183.5156 H   0  0  0  0  0
   51.2730  165.5528  181.8260 H   0  0  0  0  0
   53.2072  165.5153  183.4463 H   0  0  0  0  0
   50.6563  165.1321  179.6811 H   0  0  0  0  0
   54.3467  162.9487  178.3294 H   0  0  0  0  0
   54.7784  164.6270  177.8986 H   0  0  0  0  0
   52.2939  164.9363  177.9048 H   0  0  0  0  0
   52.2609  163.2384  177.6958 H   0  0  0  0  0
   52.1393  164.3458  175.7218 H   0  0  0  0  0
  1  2  1  0  0  0
  1  6  1  0  0  0
  2  3  1  0  0  0
  3  4  1  0  0  0
  4  5  1  0  0  0
  4  7  1  0  0  0
  5  6  1  0  0  0
  7  8  1  0  0  0
  8  9  1  0  0  0
  9 10  1  0  0  0
 10 11  1  0  0  0
 11 12  1  0  0  0
 12 13  4  0  0  0
 12 17  4  0  0  0
 13 14  4  0  0  0
 14 15  4  0  0  0
 14 19  1  0  0  0
 15 16  4  0  0  0
 15 18  1  0  0  0
 16 17  4  0  0  0
 19 20  1  0  0  0
 20 21  1  0  0  0
  2 22  1  0  0  0
  2 23  1  0  0  0
  3 24  1  0  0  0
  3 25  1  0  0  0
  4 26  1  0  0  0
  5 27  1  0  0  0
  5 28  1  0  0  0
  6 29  1  0  0  0
  6 30  1  0  0  0
  7 31  1  0  0  0
  7 32  1  0  0  0
  8 33  1  0  0  0
  8 34  1  0  0  0
  9 35  1  0  0  0
  9 36  1  0  0  0
 10 37  1  0  0  0
 10 38  1  0  0  0
 11 39  1  0  0  0
 11 40  1  0  0  0
 16 41  1  0  0  0
 17 42  1  0  0  0
 18 43  1  0  0  0
 19 44  1  0  0  0
 19 45  1  0  0  0
 20 46  1  0  0  0
 20 47  1  0  0  0
 21 48  1  0  0  0
M  END
$$$$
