4ydg_ligand
  -I-interpret- 

 75 79  0  0  0  0  0  0  0  0999 V2000
    2.7790   71.5850  186.4760 C   0  0  0  0  0
    3.9230   71.7740  185.7080 C   0  0  0  0  0
    4.6080   70.6750  185.2040 C   0  0  0  0  0
    4.1490   69.3880  185.4650 C   0  0  0  0  0
    3.0000   69.1980  186.2270 C   0  0  0  0  0
    2.3220   70.2980  186.7390 C   0  0  0  0  0
    2.4760   67.7210  186.5390 S   0  0  0  0  0
    3.5880   66.9600  187.0290 O   0  0  0  0  0
    1.4560   67.7810  187.5470 O   0  0  0  0  0
    1.9100   67.0640  185.2810 N   0  0  0  0  0
    2.6750   66.0830  184.5090 C   0  0  0  0  0
    2.4500   64.6440  184.9390 C   0  0  0  0  0
    2.6060   64.2640  186.2670 C   0  0  0  0  0
    2.3930   62.9460  186.6510 C   0  0  0  0  0
    2.0150   62.0010  185.7060 C   0  0  0  0  0
    1.8530   62.3760  184.3770 C   0  0  0  0  0
    2.0670   63.6960  183.9960 C   0  0  0  0  0
    0.5810   67.4280  184.7760 C   0  0  0  0  0
    0.7650   67.8730  183.3280 C   0  0  0  0  0
    0.0920   66.8600  182.5390 N   0  3  0  0  0
   -0.7630   65.9770  183.3070 C   0  0  0  0  0
   -0.3400   66.2030  184.7550 C   0  0  0  0  0
   -1.5700   66.4520  185.5130 N   0  0  0  0  0
   -2.4130   67.5680  185.0770 C   0  0  0  0  0
   -2.1350   68.8830  185.7840 C   0  0  0  0  0
   -1.7470   69.9950  185.0430 C   0  0  0  0  0
   -1.4900   71.2060  185.6760 C   0  0  0  0  0
   -1.6280   71.3120  187.0550 C   0  0  0  0  0
   -2.0210   70.2050  187.7980 C   0  0  0  0  0
   -2.2770   68.9970  187.1620 C   0  0  0  0  0
   -1.9610   65.5320  186.6670 S   0  0  0  0  0
   -2.5090   64.1390  186.1110 C   0  0  0  0  0
   -3.8650   63.9850  185.8460 C   0  0  0  0  0
   -4.3510   62.7730  185.3670 C   0  0  0  0  0
   -3.4800   61.7110  185.1570 C   0  0  0  0  0
   -2.1250   61.8610  185.4250 C   0  0  0  0  0
   -1.6390   63.0730  185.9050 C   0  0  0  0  0
   -0.8100   65.2840  187.4890 O   0  0  0  0  0
   -2.9950   66.1250  187.4660 O   0  0  0  0  0
   -3.9530   60.5300  184.6900 N   0  0  0  0  0
    4.3690   73.0290  185.4530 N   0  0  0  0  0
    2.2403   72.4459  186.8720 H   0  0  0  0  0
    5.5058   70.8215  184.6036 H   0  0  0  0  0
    4.6900   68.5271  185.0722 H   0  0  0  0  0
    1.4300   70.1517  187.3481 H   0  0  0  0  0
    3.7312   66.3042  184.6628 H   0  0  0  0  0
    2.3499   66.1643  183.4718 H   0  0  0  0  0
    2.8973   65.0048  187.0117 H   0  0  0  0  0
    2.5224   62.6538  187.6931 H   0  0  0  0  0
    1.8456   60.9668  186.0058 H   0  0  0  0  0
    1.5582   61.6352  183.6338 H   0  0  0  0  0
    1.9341   63.9889  182.9545 H   0  0  0  0  0
    0.1458   68.2013  185.4090 H   0  0  0  0  0
    1.8184   67.9603  183.0618 H   0  0  0  0  0
    0.3491   68.8652  183.1532 H   0  0  0  0  0
    0.8158   66.2813  182.1128 H   0  0  0  0  0
   -0.5036   67.3474  181.8696 H   0  0  0  0  0
   -0.6514   64.9354  183.0059 H   0  0  0  0  0
   -1.8199   66.1930  183.1510 H   0  0  0  0  0
    0.1921   65.3555  185.1871 H   0  0  0  0  0
   -3.4438   67.2961  185.3041 H   0  0  0  0  0
   -2.2089   67.7264  184.0181 H   0  0  0  0  0
   -1.6440   69.9163  183.9607 H   0  0  0  0  0
   -1.1804   72.0720  185.0910 H   0  0  0  0  0
   -1.4285   72.2610  187.5526 H   0  0  0  0  0
   -2.1283   70.2849  188.8798 H   0  0  0  0  0
   -2.5913   68.1328  187.7473 H   0  0  0  0  0
   -4.5494   64.8166  186.0141 H   0  0  0  0  0
   -5.4141   62.6564  185.1566 H   0  0  0  0  0
   -1.4418   61.0280  185.2590 H   0  0  0  0  0
   -0.5765   63.1874  186.1197 H   0  0  0  0  0
   -4.9478   60.4212  184.4929 H   0  0  0  0  0
   -3.3142   59.7500  184.5356 H   0  0  0  0  0
    3.8654   73.8345  185.8245 H   0  0  0  0  0
    5.2080   73.1675  184.8897 H   0  0  0  0  0
  1  2  4  0  0  0
  1  6  4  0  0  0
  2  3  4  0  0  0
  2 41  1  0  0  0
  3  4  4  0  0  0
  4  5  4  0  0  0
  5  6  4  0  0  0
  5  7  1  0  0  0
  7  8  2  0  0  0
  7  9  2  0  0  0
  7 10  1  0  0  0
 10 11  1  0  0  0
 10 18  1  0  0  0
 11 12  1  0  0  0
 12 13  4  0  0  0
 12 17  4  0  0  0
 13 14  4  0  0  0
 14 15  4  0  0  0
 15 16  4  0  0  0
 16 17  4  0  0  0
 18 19  1  0  0  0
 18 22  1  0  0  0
 19 20  1  0  0  0
 20 21  1  0  0  0
 21 22  1  0  0  0
 22 23  1  0  0  0
 23 24  1  0  0  0
 23 31  1  0  0  0
 24 25  1  0  0  0
 25 26  4  0  0  0
 25 30  4  0  0  0
 26 27  4  0  0  0
 27 28  4  0  0  0
 28 29  4  0  0  0
 29 30  4  0  0  0
 31 32  1  0  0  0
 31 38  2  0  0  0
 31 39  2  0  0  0
 32 33  4  0  0  0
 32 37  4  0  0  0
 33 34  4  0  0  0
 34 35  4  0  0  0
 35 36  4  0  0  0
 35 40  1  0  0  0
 36 37  4  0  0  0
  1 42  1  0  0  0
  3 43  1  0  0  0
  4 44  1  0  0  0
  6 45  1  0  0  0
 11 46  1  0  0  0
 11 47  1  0  0  0
 13 48  1  0  0  0
 14 49  1  0  0  0
 15 50  1  0  0  0
 16 51  1  0  0  0
 17 52  1  0  0  0
 18 53  1  0  0  0
 19 54  1  0  0  0
 19 55  1  0  0  0
 20 56  1  0  0  0
 20 57  1  0  0  0
 21 58  1  0  0  0
 21 59  1  0  0  0
 22 60  1  0  0  0
 24 61  1  0  0  0
 24 62  1  0  0  0
 26 63  1  0  0  0
 27 64  1  0  0  0
 28 65  1  0  0  0
 29 66  1  0  0  0
 30 67  1  0  0  0
 33 68  1  0  0  0
 34 69  1  0  0  0
 36 70  1  0  0  0
 37 71  1  0  0  0
 40 72  1  0  0  0
 40 73  1  0  0  0
 41 74  1  0  0  0
 41 75  1  0  0  0
M  END
$$$$
