### 
### Created by X-TOOL on Mon Sep 10 21:13:12 2018
### 

@<TRIPOS>MOLECULE
4jn4_ligand
   43    45     1     0     0
SMALL
GAST_HUCK


@<TRIPOS>ATOM
      1 PG         13.1630   76.6180   28.2450 P.3       1 ATP         0.1879
      2 O1G        12.3930   77.1020   27.0380 O.co2     1 ATP        -0.6091
      3 O2G        12.9790   77.4850   29.4750 O.co2     1 ATP        -0.6091
      4 O3G        12.9910   75.1590   28.5400 O.co2     1 ATP        -0.6091
      5 PB         15.9000   75.9330   27.3100 P.3       1 ATP         0.3553
      6 O1B        15.4520   74.5120   27.1910 O.co2     1 ATP        -0.5652
      7 O2B        16.5310   76.6230   26.1180 O.co2     1 ATP        -0.5652
      8 O3B        14.7290   76.8880   27.8990 O.3       1 ATP        -0.1546
      9 PA         18.1810   75.0940   28.8420 P.3       1 ATP         0.3266
     10 O1A        19.0900   75.0040   27.6380 O.co2     1 ATP        -0.5692
     11 O2A        17.6530   73.8500   29.4890 O.co2     1 ATP        -0.5692
     12 O3A        16.9500   76.0840   28.5310 O.3       1 ATP        -0.1171
     13 O5'        18.9410   75.9510   29.9660 O.3       1 ATP        -0.2441
     14 C5'        19.4560   77.2300   29.6500 C.3       1 ATP         0.1131
     15 C4'        19.5140   78.0680   30.9230 C.3       1 ATP         0.1189
     16 O4'        20.2800   77.3720   31.9080 O.3       1 ATP        -0.3364
     17 C3'        20.2010   79.4060   30.6990 C.3       1 ATP         0.1149
     18 O3'        19.5170   80.3930   31.4810 O.3       1 ATP        -0.3864
     19 C2'        21.5990   79.2010   31.2420 C.3       1 ATP         0.1385
     20 O2'        22.1890   80.4060   31.7490 O.3       1 ATP        -0.3836
     21 C1'        21.3300   78.2200   32.3570 C.3       1 ATP         0.2010
     22 N9         22.5300   77.4390   32.7290 N.pl3     1 ATP        -0.1919
     23 C8         23.3320   76.7160   31.9290 C.2       1 ATP         0.1123
     24 N7         24.3350   76.1390   32.6460 N.2       1 ATP        -0.2958
     25 C5         24.1690   76.5090   33.9300 C.ar      1 ATP         0.1045
     26 C6         24.8650   76.2670   35.2110 C.ar      1 ATP         0.1298
     27 N6         25.9740   75.4930   35.2520 N.pl3     1 ATP        -0.3152
     28 N1         24.3540   76.8510   36.3200 N.ar      1 ATP        -0.2698
     29 C2         23.2540   77.6280   36.2880 C.ar      1 ATP         0.0533
     30 N3         22.5680   77.8880   35.1610 N.ar      1 ATP        -0.2714
     31 C4         22.9810   77.3690   33.9770 C.ar      1 ATP         0.1613
     32 H1         18.8011   77.7204   28.9148 H         1 ATP         0.0648
     33 H2         20.4672   77.1272   29.2293 H         1 ATP         0.0648
     34 H3         18.4904   78.2369   31.2887 H         1 ATP         0.0651
     35 H4         20.2159   79.6890   29.6362 H         1 ATP         0.0648
     36 H5         19.9317   81.2384   31.3549 H         1 ATP         0.2100
     37 H6         22.2613   78.7703   30.4766 H         1 ATP         0.0676
     38 H7         22.2423   81.0489   31.0517 H         1 ATP         0.2101
     39 H8         20.9940   78.7730   33.2465 H         1 ATP         0.0996
     40 H9         23.1978   76.6066   30.8538 H         1 ATP         0.1349
     41 H10        26.4543   75.3284   36.1482 H         1 ATP         0.1820
     42 H11        26.3380   75.0684   34.3870 H         1 ATP         0.1820
     43 H12        22.9047   78.0652   37.2164 H         1 ATP         0.0996
@<TRIPOS>BOND
     1    1    2 ar 
     2    1    3 ar 
     3    1    4 ar 
     4    8    1 1  
     5    5    6 ar 
     6    5    7 ar 
     7    5    8 1  
     8   12    5 1  
     9    9   10 ar 
    10    9   11 ar 
    11    9   12 1  
    12    9   13 1  
    13   13   14 1  
    14   14   15 1  
    15   15   16 1  
    16   15   17 1  
    17   16   21 1  
    18   17   18 1  
    19   17   19 1  
    20   19   20 1  
    21   19   21 1  
    22   21   22 1  
    23   22   23 1  
    24   22   31 1  
    25   23   24 2  
    26   24   25 1  
    27   25   26 ar 
    28   25   31 ar 
    29   26   27 1  
    30   26   28 ar 
    31   28   29 ar 
    32   29   30 ar 
    33   30   31 ar 
    34   14   32 1  
    35   14   33 1  
    36   15   34 1  
    37   17   35 1  
    38   18   36 1  
    39   19   37 1  
    40   20   38 1  
    41   21   39 1  
    42   23   40 1  
    43   27   41 1  
    44   27   42 1  
    45   29   43 1  
@<TRIPOS>SUBSTRUCTURE
     1 ATP         1

