4jn4_ligand
  -I-interpret- 

 47 49  0  0  0  0  0  0  0  0999 V2000
   13.1630   76.6180   28.2450 P   0  0  0  0  0
   12.3930   77.1020   27.0380 O   0  0  0  0  0
   12.9790   77.4850   29.4750 O   0  0  0  0  0
   12.9910   75.1590   28.5400 O   0  0  0  0  0
   15.9000   75.9330   27.3100 P   0  0  0  0  0
   15.4520   74.5120   27.1910 O   0  0  0  0  0
   16.5310   76.6230   26.1180 O   0  0  0  0  0
   14.7290   76.8880   27.8990 O   0  0  0  0  0
   18.1810   75.0940   28.8420 P   0  0  0  0  0
   19.0900   75.0040   27.6380 O   0  0  0  0  0
   17.6530   73.8500   29.4890 O   0  0  0  0  0
   16.9500   76.0840   28.5310 O   0  0  0  0  0
   18.9410   75.9510   29.9660 O   0  0  0  0  0
   19.4560   77.2300   29.6500 C   0  0  0  0  0
   19.5140   78.0680   30.9230 C   0  0  0  0  0
   20.2800   77.3720   31.9080 O   0  0  0  0  0
   20.2010   79.4060   30.6990 C   0  0  0  0  0
   19.5170   80.3930   31.4810 O   0  0  0  0  0
   21.5990   79.2010   31.2420 C   0  0  0  0  0
   22.1890   80.4060   31.7490 O   0  0  0  0  0
   21.3300   78.2200   32.3570 C   0  0  0  0  0
   22.5300   77.4390   32.7290 N   0  0  0  0  0
   23.3320   76.7160   31.9290 C   0  0  0  0  0
   24.3350   76.1390   32.6460 N   0  0  0  0  0
   24.1690   76.5090   33.9300 C   0  0  0  0  0
   24.8650   76.2670   35.2110 C   0  0  0  0  0
   25.9740   75.4930   35.2520 N   0  0  0  0  0
   24.3540   76.8510   36.3200 N   0  0  0  0  0
   23.2540   77.6280   36.2880 C   0  0  0  0  0
   22.5680   77.8880   35.1610 N   0  0  0  0  0
   22.9810   77.3690   33.9770 C   0  0  0  0  0
   12.5523   78.0405   26.9135 H   0  0  0  0  0
   13.0984   78.4071   29.2360 H   0  0  0  0  0
   16.7612   77.5240   26.3562 H   0  0  0  0  0
   19.3319   75.8886   27.3543 H   0  0  0  0  0
   18.8111   77.7162   28.9180 H   0  0  0  0  0
   20.4563   77.1305   29.2287 H   0  0  0  0  0
   18.4850   78.2377   31.2399 H   0  0  0  0  0
   20.2065   79.7292   29.6580 H   0  0  0  0  0
   19.9360   81.2473   31.3536 H   0  0  0  0  0
   22.3099   78.8658   30.4868 H   0  0  0  0  0
   23.0704   80.2155   32.0782 H   0  0  0  0  0
   21.0464   78.7552   33.2633 H   0  0  0  0  0
   23.1977   76.6065   30.8529 H   0  0  0  0  0
   26.3344   75.0725   34.3954 H   0  0  0  0  0
   26.4496   75.3300   36.1395 H   0  0  0  0  0
   22.9027   78.0676   37.2215 H   0  0  0  0  0
  1  2  1  0  0  0
  1  3  1  0  0  0
  1  4  2  0  0  0
  8  1  1  0  0  0
  5  6  2  0  0  0
  5  7  1  0  0  0
  5  8  1  0  0  0
 12  5  1  0  0  0
  9 10  1  0  0  0
  9 11  2  0  0  0
  9 12  1  0  0  0
  9 13  1  0  0  0
 13 14  1  0  0  0
 14 15  1  0  0  0
 15 16  1  0  0  0
 15 17  1  0  0  0
 16 21  1  0  0  0
 17 18  1  0  0  0
 17 19  1  0  0  0
 19 20  1  0  0  0
 19 21  1  0  0  0
 21 22  1  0  0  0
 22 23  4  0  0  0
 22 31  4  0  0  0
 23 24  4  0  0  0
 24 25  4  0  0  0
 25 26  4  0  0  0
 25 31  4  0  0  0
 26 27  1  0  0  0
 26 28  4  0  0  0
 28 29  4  0  0  0
 29 30  4  0  0  0
 30 31  4  0  0  0
  2 32  1  0  0  0
  3 33  1  0  0  0
  7 34  1  0  0  0
 10 35  1  0  0  0
 14 36  1  0  0  0
 14 37  1  0  0  0
 15 38  1  0  0  0
 17 39  1  0  0  0
 18 40  1  0  0  0
 19 41  1  0  0  0
 20 42  1  0  0  0
 21 43  1  0  0  0
 23 44  1  0  0  0
 27 45  1  0  0  0
 27 46  1  0  0  0
 29 47  1  0  0  0
M  END
$$$$
