3c6w_ligand
  -I-interpret- 

123122  0  0  0  0  0  0  0  0999 V2000
    2.5820   16.3080   19.6870 N   0  3  0  0  0
    2.2330   16.3120   18.2370 C   0  0  0  0  0
    1.9280   17.7290   17.7660 C   0  0  0  0  0
    1.5080   18.5760   18.5540 O   0  0  0  0  0
    1.0280   15.4100   17.9930 C   0  0  0  0  0
    2.1420   17.9810   16.4780 N   0  0  0  0  0
    1.8840   19.3000   15.9000 C   0  0  0  0  0
    0.4650   19.3200   15.3470 C   0  0  0  0  0
    0.0730   18.4380   14.5790 O   0  0  0  0  0
    2.8770   19.5890   14.7760 C   0  0  0  0  0
    4.3220   19.6580   15.2370 C   0  0  0  0  0
    5.2740   19.7300   14.0570 C   0  0  0  0  0
    5.1530   18.5500   13.2070 N   0  0  0  0  0
    4.5600   18.5370   12.0180 C   0  0  0  0  0
    4.0310   19.6470   11.5170 N   0  0  0  0  0
    4.4830   17.4060   11.3320 N   0  0  0  0  0
   -0.3020   20.3340   15.7290 N   0  0  0  0  0
   -1.6800   20.4480   15.2620 C   0  0  0  0  0
   -1.9540   21.8940   14.8810 C   0  0  0  0  0
   -1.1960   22.7970   15.2300 O   0  0  0  0  0
   -2.6780   20.0430   16.3600 C   0  0  0  0  0
   -2.5720   20.9560   17.4600 O   0  0  0  0  0
   -2.3830   18.6350   16.8530 C   0  0  0  0  0
   -3.0450   22.1070   14.1580 N   0  0  0  0  0
   -3.4220   23.4520   13.7470 C   0  0  0  0  0
   -2.7550   23.8600   12.4300 C   0  0  0  0  0
   -3.2860   23.0910   11.2170 C   0  0  0  0  0
   -2.6330   23.4890    9.8940 C   0  0  0  0  0
   -3.0080   22.5240    8.7620 C   0  0  0  0  0
   -2.9360   23.1280    7.3640 N   0  3  0  0  0
   -4.9350   23.5110   13.6100 C   0  0  0  0  0
   -5.5850   22.5050   13.3220 O   0  0  0  0  0
   -1.5290   23.4850    7.0110 C   0  0  0  0  0
   -3.6960   24.3950    7.1130 C   0  0  0  0  0
   -3.4110   22.1230    6.3700 C   0  0  0  0  0
   -5.4890   24.6950   13.8390 N   0  0  0  0  0
   -6.9250   24.9050   13.7220 C   0  0  0  0  0
   -7.1560   25.5720   12.3710 C   0  0  0  0  0
   -6.5670   26.6110   12.0800 O   0  0  0  0  0
   -7.4220   25.8110   14.8510 C   0  0  0  0  0
   -8.9270   26.0240   14.8630 C   0  0  0  0  0
   -9.6980   24.7270   15.0250 C   0  0  0  0  0
   -9.4880   23.9840   15.9840 O   0  0  0  0  0
  -10.5990   24.4520   14.0870 N   0  0  0  0  0
   -8.0020   24.9660   11.5470 N   0  0  0  0  0
   -8.2930   25.5080   10.2210 C   0  0  0  0  0
   -8.8720   26.9140   10.3780 C   0  0  0  0  0
   -9.8390   27.1170   11.1100 O   0  0  0  0  0
   -9.3090   24.6270    9.4730 C   0  0  0  0  0
   -8.7950   23.2930    9.3660 O   0  0  0  0  0
   -9.5650   25.1790    8.0760 C   0  0  0  0  0
   -8.2730   27.8770    9.6850 N   0  0  0  0  0
   -8.7300   29.2670    9.7520 C   0  0  0  0  0
   -9.7130   29.5200    8.6070 C   0  0  0  0  0
   -9.8470   28.6340    7.7360 O   0  0  0  0  0
   -7.5420   30.2140    9.6430 C   0  0  0  0  0
  -10.4064   30.6530    8.5405 O   0  0  0  0  0
    3.3883   16.9129   19.8431 H   0  0  0  0  0
    1.7881   16.6514   20.2275 H   0  0  0  0  0
    2.8075   15.3569   19.9786 H   0  0  0  0  0
    3.0843   15.9343   17.6707 H   0  0  0  0  0
    0.1701   15.7948   18.5445 H   0  0  0  0  0
    0.7986   15.3926   16.9276 H   0  0  0  0  0
    1.2569   14.4001   18.3332 H   0  0  0  0  0
    2.4950   17.2357   15.8777 H   0  0  0  0  0
    1.9989   20.0639   16.6690 H   0  0  0  0  0
    2.6219   20.5635   14.3597 H   0  0  0  0  0
    2.8034   18.7712   14.0592 H   0  0  0  0  0
    4.5469   18.7585   15.8101 H   0  0  0  0  0
    4.4508   20.5553   15.8422 H   0  0  0  0  0
    6.2945   19.7817   14.4365 H   0  0  0  0  0
    5.0275   20.6114   13.4650 H   0  0  0  0  0
    5.5509   17.6753   13.5490 H   0  0  0  0  0
    3.5682   19.6263   10.6083 H   0  0  0  0  0
    4.0874   20.5204   12.0408 H   0  0  0  0  0
    4.8784   16.5481   11.7169 H   0  0  0  0  0
    0.0768   21.0428   16.3572 H   0  0  0  0  0
   -1.8055   19.7829   14.4076 H   0  0  0  0  0
   -3.6855   20.0712   15.9450 H   0  0  0  0  0
   -3.1949   20.7032   18.1454 H   0  0  0  0  0
   -2.4666   17.9353   16.0214 H   0  0  0  0  0
   -1.3726   18.5983   17.2603 H   0  0  0  0  0
   -3.0991   18.3658   17.6294 H   0  0  0  0  0
   -3.6291   21.3164   13.8856 H   0  0  0  0  0
   -3.0800   24.1553   14.5063 H   0  0  0  0  0
   -1.6909   23.6408   12.5184 H   0  0  0  0  0
   -2.9664   24.9169   12.2678 H   0  0  0  0  0
   -4.3495   23.3146   11.1327 H   0  0  0  0  0
   -3.0663   22.0361   11.3815 H   0  0  0  0  0
   -1.5511   23.4618   10.0236 H   0  0  0  0  0
   -2.9827   24.4857    9.6250 H   0  0  0  0  0
   -4.0435   22.2264    8.9273 H   0  0  0  0  0
   -2.2904   21.7041    8.7919 H   0  0  0  0  0
   -1.1492   24.2125    7.7283 H   0  0  0  0  0
   -0.9101   22.5882    7.0388 H   0  0  0  0  0
   -1.5047   23.9138    6.0092 H   0  0  0  0  0
   -4.7565   24.2236    7.2973 H   0  0  0  0  0
   -3.3310   25.1746    7.7816 H   0  0  0  0  0
   -3.5513   24.7051    6.0781 H   0  0  0  0  0
   -2.7774   21.2374    6.4194 H   0  0  0  0  0
   -4.4408   21.8476    6.5974 H   0  0  0  0  0
   -3.3607   22.5519    5.3692 H   0  0  0  0  0
   -4.8928   25.4790   14.1041 H   0  0  0  0  0
   -7.4679   23.9626   13.7947 H   0  0  0  0  0
   -6.9603   26.7877   14.7061 H   0  0  0  0  0
   -7.1584   25.3268   15.7913 H   0  0  0  0  0
   -9.2110   26.4663   13.9081 H   0  0  0  0  0
   -9.1684   26.6660   15.7101 H   0  0  0  0  0
  -11.1501   23.5956   14.1446 H   0  0  0  0  0
  -10.7392   25.0974   13.3097 H   0  0  0  0  0
   -8.4586   24.1041   11.8453 H   0  0  0  0  0
   -7.3683   25.5339    9.6444 H   0  0  0  0  0
  -10.2461   24.6223   10.0296 H   0  0  0  0  0
   -9.4289   22.7435    8.8993 H   0  0  0  0  0
   -9.9619   26.1912    8.1538 H   0  0  0  0  0
   -8.6297   25.1961    7.5164 H   0  0  0  0  0
  -10.2859   24.5432    7.5620 H   0  0  0  0  0
   -7.4764   27.6426    9.0926 H   0  0  0  0  0
   -9.2256   29.4455   10.7063 H   0  0  0  0  0
   -6.8509   30.0239   10.4642 H   0  0  0  0  0
   -7.0336   30.0492    8.6930 H   0  0  0  0  0
   -7.8943   31.2442    9.6941 H   0  0  0  0  0
  -10.1772   31.2114    9.2870 H   0  0  0  0  0
  1  2  1  0  0  0
  2  3  1  0  0  0
  2  5  1  0  0  0
  3  4  2  0  0  0
  3  6  1  0  0  0
  6  7  1  0  0  0
  7  8  1  0  0  0
  7 10  1  0  0  0
  8  9  2  0  0  0
  8 17  1  0  0  0
 10 11  1  0  0  0
 11 12  1  0  0  0
 12 13  1  0  0  0
 13 14  1  0  0  0
 14 15  1  0  0  0
 14 16  2  0  0  0
 17 18  1  0  0  0
 18 19  1  0  0  0
 18 21  1  0  0  0
 19 20  2  0  0  0
 19 24  1  0  0  0
 21 22  1  0  0  0
 21 23  1  0  0  0
 24 25  1  0  0  0
 25 26  1  0  0  0
 25 31  1  0  0  0
 26 27  1  0  0  0
 27 28  1  0  0  0
 28 29  1  0  0  0
 29 30  1  0  0  0
 30 33  1  0  0  0
 30 34  1  0  0  0
 30 35  1  0  0  0
 31 32  2  0  0  0
 31 36  1  0  0  0
 36 37  1  0  0  0
 37 38  1  0  0  0
 37 40  1  0  0  0
 38 39  2  0  0  0
 38 45  1  0  0  0
 40 41  1  0  0  0
 41 42  1  0  0  0
 42 43  2  0  0  0
 42 44  1  0  0  0
 45 46  1  0  0  0
 46 47  1  0  0  0
 46 49  1  0  0  0
 47 48  2  0  0  0
 47 52  1  0  0  0
 49 50  1  0  0  0
 49 51  1  0  0  0
 52 53  1  0  0  0
 53 54  1  0  0  0
 53 56  1  0  0  0
 54 55  2  0  0  0
 54 57  1  0  0  0
  1 58  1  0  0  0
  1 59  1  0  0  0
  1 60  1  0  0  0
  2 61  1  0  0  0
  5 62  1  0  0  0
  5 63  1  0  0  0
  5 64  1  0  0  0
  6 65  1  0  0  0
  7 66  1  0  0  0
 10 67  1  0  0  0
 10 68  1  0  0  0
 11 69  1  0  0  0
 11 70  1  0  0  0
 12 71  1  0  0  0
 12 72  1  0  0  0
 13 73  1  0  0  0
 15 74  1  0  0  0
 15 75  1  0  0  0
 16 76  1  0  0  0
 17 77  1  0  0  0
 18 78  1  0  0  0
 21 79  1  0  0  0
 22 80  1  0  0  0
 23 81  1  0  0  0
 23 82  1  0  0  0
 23 83  1  0  0  0
 24 84  1  0  0  0
 25 85  1  0  0  0
 26 86  1  0  0  0
 26 87  1  0  0  0
 27 88  1  0  0  0
 27 89  1  0  0  0
 28 90  1  0  0  0
 28 91  1  0  0  0
 29 92  1  0  0  0
 29 93  1  0  0  0
 33 94  1  0  0  0
 33 95  1  0  0  0
 33 96  1  0  0  0
 34 97  1  0  0  0
 34 98  1  0  0  0
 34 99  1  0  0  0
 35100  1  0  0  0
 35101  1  0  0  0
 35102  1  0  0  0
 36103  1  0  0  0
 37104  1  0  0  0
 40105  1  0  0  0
 40106  1  0  0  0
 41107  1  0  0  0
 41108  1  0  0  0
 44109  1  0  0  0
 44110  1  0  0  0
 45111  1  0  0  0
 46112  1  0  0  0
 49113  1  0  0  0
 50114  1  0  0  0
 51115  1  0  0  0
 51116  1  0  0  0
 51117  1  0  0  0
 52118  1  0  0  0
 53119  1  0  0  0
 56120  1  0  0  0
 56121  1  0  0  0
 56122  1  0  0  0
 57123  1  0  0  0
M  END
$$$$
