### 
### Created by X-TOOL on Mon Sep 10 21:12:57 2018
### 

@<TRIPOS>MOLECULE
3c6w_ligand
  124   123     1     0     0
SMALL
GAST_HUCK


@<TRIPOS>ATOM
      1 N           2.5820   16.3080   19.6870 N.4       1 ALA         0.2377
      2 CA          2.2330   16.3120   18.2370 C.3       1 ALA         0.0621
      3 C           1.9280   17.7290   17.7660 C.2       1 ALA         0.2264
      4 O           1.5080   18.5760   18.5540 O.2       1 ALA        -0.3907
      5 CB          1.0280   15.4100   17.9930 C.3       1 ALA        -0.0040
      6 N           2.1420   17.9810   16.4780 N.am      1 ARG        -0.2610
      7 CA          1.8840   19.3000   15.9000 C.3       1 ARG         0.1312
      8 C           0.4650   19.3200   15.3470 C.2       1 ARG         0.2040
      9 O           0.0730   18.4380   14.5790 O.2       1 ARG        -0.3944
     10 CB          2.8770   19.5890   14.7760 C.3       1 ARG        -0.0092
     11 CG          4.3220   19.6580   15.2370 C.3       1 ARG        -0.0156
     12 CD          5.2740   19.7300   14.0570 C.3       1 ARG         0.0627
     13 NE          5.1530   18.5500   13.2070 N.pl3     1 ARG        -0.2723
     14 CZ          4.5600   18.5370   12.0180 C.cat     1 ARG         0.2882
     15 NH1         4.0310   19.6470   11.5170 N.pl3     1 ARG        -0.2849
     16 NH2         4.4830   17.4060   11.3320 N.pl3     1 ARG        -0.2849
     17 N          -0.3020   20.3340   15.7290 N.am      1 THR        -0.2613
     18 CA         -1.6800   20.4480   15.2620 C.3       1 THR         0.1565
     19 C          -1.9540   21.8940   14.8810 C.2       1 THR         0.2065
     20 O          -1.1960   22.7970   15.2300 O.2       1 THR        -0.3943
     21 CB         -2.6780   20.0430   16.3600 C.3       1 THR         0.0924
     22 OG1        -2.5720   20.9560   17.4600 O.3       1 THR        -0.3874
     23 CG2        -2.3830   18.6350   16.8530 C.3       1 THR        -0.0346
     24 N          -3.0450   22.1070   14.1580 N.am      1 M3L        -0.2637
     25 CA         -3.4220   23.4520   13.7470 C.3       1 M3L         0.1310
     26 CB         -2.7550   23.8600   12.4300 C.3       1 M3L        -0.0122
     27 CG         -3.2860   23.0910   11.2170 C.3       1 M3L        -0.0440
     28 CD         -2.6330   23.4890    9.8940 C.3       1 M3L        -0.0123
     29 CE         -3.0080   22.5240    8.7620 C.3       1 M3L        -0.0309
     30 NZ         -2.9360   23.1280    7.3640 N.4       1 M3L         0.2369
     31 C          -4.9350   23.5110   13.6100 C.2       1 M3L         0.2039
     32 O          -5.5850   22.5050   13.3220 O.2       1 M3L        -0.3944
     33 CM1        -1.5290   23.4850    7.0110 C.3       1 M3L        -0.0418
     34 CM2        -3.6960   24.3950    7.1130 C.3       1 M3L        -0.0418
     35 CM3        -3.4110   22.1230    6.3700 C.3       1 M3L        -0.0418
     36 N          -5.4890   24.6950   13.8390 N.am      1 GLN        -0.2636
     37 CA         -6.9250   24.9050   13.7220 C.3       1 GLN         0.1330
     38 C          -7.1560   25.5720   12.3710 C.2       1 GLN         0.2041
     39 O          -6.5670   26.6110   12.0800 O.2       1 GLN        -0.3944
     40 CB         -7.4220   25.8110   14.8510 C.3       1 GLN         0.0045
     41 CG         -8.9270   26.0240   14.8630 C.3       1 GLN         0.0412
     42 CD         -9.6980   24.7270   15.0250 C.2       1 GLN         0.1737
     43 OE1        -9.4880   23.9840   15.9840 O.2       1 GLN        -0.3973
     44 NE2       -10.5990   24.4520   14.0870 N.am      1 GLN        -0.3009
     45 N          -8.0020   24.9660   11.5470 N.am      1 THR        -0.2613
     46 CA         -8.2930   25.5080   10.2210 C.3       1 THR         0.1565
     47 C          -8.8720   26.9140   10.3780 C.2       1 THR         0.2065
     48 O          -9.8390   27.1170   11.1100 O.2       1 THR        -0.3943
     49 CB         -9.3090   24.6270    9.4730 C.3       1 THR         0.0924
     50 OG1        -8.7950   23.2930    9.3660 O.3       1 THR        -0.3874
     51 CG2        -9.5650   25.1790    8.0760 C.3       1 THR        -0.0346
     52 N          -8.2730   27.8770    9.6850 N.am      1 ALA        -0.2626
     53 CA         -8.7300   29.2670    9.7520 C.3       1 ALA         0.1392
     54 C          -9.7130   29.5200    8.6070 C.2       1 ALA         0.2568
     55 O          -9.8470   28.6340    7.7360 O.2       1 ALA        -0.3680
     56 CB         -7.5420   30.2140    9.6430 C.3       1 ALA        -0.0230
     57 O         -10.4064   30.6530    8.5405 O.3       1 ALA        -0.2910
     58 H1          2.7806   15.3649   19.9822 H         1 ALA         0.2015
     59 H2          1.8072   16.6708   20.2201 H         1 ALA         0.2015
     60 H3          3.3941   16.8856   19.8388 H         1 ALA         0.2015
     61 H4          3.0892   15.9253   17.6649 H         1 ALA         0.1095
     62 H5          0.7755   15.4171   16.9224 H         1 ALA         0.0310
     63 H6          0.1702   15.7788   18.5744 H         1 ALA         0.0310
     64 H7          1.2690   14.3834   18.3061 H         1 ALA         0.0310
     65 H8          2.4881   17.2503   15.8895 H         1 ARG         0.1884
     66 H9          1.9863   20.0683   16.6806 H         1 ARG         0.0800
     67 H10         2.6124   20.5540   14.3192 H         1 ARG         0.0313
     68 H11         2.7909   18.7912   14.0236 H         1 ARG         0.0313
     69 H12         4.5526   18.7602   15.8292 H         1 ARG         0.0301
     70 H13         4.4567   20.5536   15.8613 H         1 ARG         0.0301
     71 H14         6.3058   19.7972   14.4323 H         1 ARG         0.0689
     72 H15         5.0410   20.6256   13.4624 H         1 ARG         0.0689
     73 H16         5.5548   17.6667   13.5524 H         1 ARG         0.2642
     74 H17         3.5731   19.6285   10.5946 H         1 ARG         0.2615
     75 H18         4.0786   20.5266   12.0508 H         1 ARG         0.2615
     76 H19         4.8916   16.5420   11.7159 H         1 ARG         0.2615
     77 H20         4.0145   17.3908   10.4148 H         1 ARG         0.2615
     78 H21         0.0693   21.0289   16.3449 H         1 THR         0.1884
     79 H22        -1.8196   19.7984   14.3853 H         1 THR         0.0826
     80 H23        -3.6988   20.0779   15.9516 H         1 THR         0.0639
     81 H24        -3.1884   20.7059   18.1382 H         1 THR         0.2101
     82 H25        -3.1051   18.3621   17.6367 H         1 THR         0.0257
     83 H26        -1.3635   18.5966   17.2644 H         1 THR         0.0257
     84 H27        -2.4671   17.9278   16.0147 H         1 THR         0.0257
     85 H28        -3.6177   21.3319   13.8909 H         1 M3L         0.1883
     86 H29        -3.1056   24.1593   14.5278 H         1 M3L         0.0800
     87 H30        -1.6740   23.6750   12.5144 H         1 M3L         0.0312
     88 H31        -2.9318   24.9334   12.2672 H         1 M3L         0.0312
     89 H32        -4.3677   23.2743   11.1377 H         1 M3L         0.0269
     90 H33        -3.1070   22.0183   11.3821 H         1 M3L         0.0269
     91 H34        -1.5403   23.4829   10.0200 H         1 M3L         0.0317
     92 H35        -2.9653   24.5020    9.6232 H         1 M3L         0.0317
     93 H36        -4.0378   22.1774    8.9335 H         1 M3L         0.0815
     94 H37        -2.3210   21.6658    8.8008 H         1 M3L         0.0815
     95 H38        -1.5032   23.9179    6.0001 H         1 M3L         0.0778
     96 H39        -0.9033   22.5807    7.0387 H         1 M3L         0.0778
     97 H40        -1.1445   24.2193    7.7342 H         1 M3L         0.0778
     98 H41        -4.7594   24.2370    7.3460 H         1 M3L         0.0778
     99 H42        -3.5909   24.6824    6.0564 H         1 M3L         0.0778
    100 H43        -3.2956   25.1956    7.7524 H         1 M3L         0.0778
    101 H44        -2.8745   21.1749    6.5222 H         1 M3L         0.0778
    102 H45        -3.2183   22.4941    5.3526 H         1 M3L         0.0778
    103 H46        -4.4906   21.9586    6.5020 H         1 M3L         0.0778
    104 H47        -4.9045   25.4636   14.0989 H         1 GLN         0.1883
    105 H48        -7.4544   23.9418   13.7655 H         1 GLN         0.0801
    106 H49        -6.9358   26.7920   14.7453 H         1 GLN         0.0337
    107 H50        -7.1301   25.3585   15.8102 H         1 GLN         0.0337
    108 H51        -9.2240   26.4943   13.9140 H         1 GLN         0.0504
    109 H52        -9.1817   26.6921   15.6989 H         1 GLN         0.0504
    110 H53       -11.1371   23.6109   14.1418 H         1 GLN         0.1814
    111 H54       -10.7387   25.0862   13.3266 H         1 GLN         0.1814
    112 H55        -8.4496   24.1210   11.8395 H         1 THR         0.1884
    113 H56        -7.3611   25.5565    9.6386 H         1 THR         0.0826
    114 H57       -10.2548   24.6104   10.0344 H         1 THR         0.0639
    115 H58        -8.6486   22.9405   10.2359 H         1 THR         0.2101
    116 H59       -10.2924   24.5382    7.5562 H         1 THR         0.0257
    117 H60        -8.6219   25.1967    7.5102 H         1 THR         0.0257
    118 H61        -9.9656   26.2005    8.1531 H         1 THR         0.0257
    119 H62        -7.4920   27.6472    9.1042 H         1 ALA         0.1884
    120 H63        -9.2384   29.4373   10.7124 H         1 ALA         0.0813
    121 H64        -7.8963   31.2541    9.6944 H         1 ALA         0.0278
    122 H65        -7.0280   30.0487    8.6846 H         1 ALA         0.0278
    123 H66        -6.8438   30.0232   10.4713 H         1 ALA         0.0278
    124 H67       -11.3355   30.4562    8.5643 H         1 ALA         0.2540
@<TRIPOS>BOND
     1    1    2 1  
     2    2    3 1  
     3    2    5 1  
     4    3    4 2  
     5    3    6 am 
     6    6    7 1  
     7    7    8 1  
     8    7   10 1  
     9    8    9 2  
    10    8   17 am 
    11   10   11 1  
    12   11   12 1  
    13   12   13 1  
    14   13   14 ar 
    15   14   15 ar 
    16   14   16 ar 
    17   17   18 1  
    18   18   19 1  
    19   18   21 1  
    20   19   20 2  
    21   19   24 am 
    22   21   22 1  
    23   21   23 1  
    24   24   25 1  
    25   25   26 1  
    26   25   31 1  
    27   26   27 1  
    28   27   28 1  
    29   28   29 1  
    30   29   30 1  
    31   30   33 1  
    32   30   34 1  
    33   30   35 1  
    34   31   32 2  
    35   31   36 am 
    36   36   37 1  
    37   37   38 1  
    38   37   40 1  
    39   38   39 2  
    40   38   45 am 
    41   40   41 1  
    42   41   42 1  
    43   42   43 2  
    44   42   44 am 
    45   45   46 1  
    46   46   47 1  
    47   46   49 1  
    48   47   48 2  
    49   47   52 am 
    50   49   50 1  
    51   49   51 1  
    52   52   53 1  
    53   53   54 1  
    54   53   56 1  
    55   54   55 2  
    56   54   57 1  
    57    1   58 1  
    58    1   59 1  
    59    1   60 1  
    60    2   61 1  
    61    5   62 1  
    62    5   63 1  
    63    5   64 1  
    64    6   65 1  
    65    7   66 1  
    66   10   67 1  
    67   10   68 1  
    68   11   69 1  
    69   11   70 1  
    70   12   71 1  
    71   12   72 1  
    72   13   73 1  
    73   15   74 1  
    74   15   75 1  
    75   16   76 1  
    76   16   77 1  
    77   17   78 1  
    78   18   79 1  
    79   21   80 1  
    80   22   81 1  
    81   23   82 1  
    82   23   83 1  
    83   23   84 1  
    84   24   85 1  
    85   25   86 1  
    86   26   87 1  
    87   26   88 1  
    88   27   89 1  
    89   27   90 1  
    90   28   91 1  
    91   28   92 1  
    92   29   93 1  
    93   29   94 1  
    94   33   95 1  
    95   33   96 1  
    96   33   97 1  
    97   34   98 1  
    98   34   99 1  
    99   34  100 1  
   100   35  101 1  
   101   35  102 1  
   102   35  103 1  
   103   36  104 1  
   104   37  105 1  
   105   40  106 1  
   106   40  107 1  
   107   41  108 1  
   108   41  109 1  
   109   44  110 1  
   110   44  111 1  
   111   45  112 1  
   112   46  113 1  
   113   49  114 1  
   114   50  115 1  
   115   51  116 1  
   116   51  117 1  
   117   51  118 1  
   118   52  119 1  
   119   53  120 1  
   120   56  121 1  
   121   56  122 1  
   122   56  123 1  
   123   57  124 1  
@<TRIPOS>SUBSTRUCTURE
     1 ALA         1

