5zyg_ligand
  -I-interpret- 

 59 61  0  0  0  0  0  0  0  0999 V2000
  -34.7910    2.5880   -5.4120 C   0  0  0  0  0
  -32.7430    2.6740   -7.2900 C   0  0  0  0  0
  -33.9340    1.9440   -7.5680 C   0  0  0  0  0
  -34.9850    1.8980   -6.6190 C   0  0  0  0  0
  -32.5520    3.4250   -6.0640 C   0  0  0  0  0
  -30.6070    4.0510   -4.6310 C   0  0  0  0  0
  -31.2450    4.1010   -5.8730 C   0  0  0  0  0
  -33.5730    3.2800   -5.1030 C   0  0  0  0  0
  -29.2220    5.3580   -6.7720 C   0  0  0  0  0
  -29.3220    4.6270   -4.4750 C   0  0  0  0  0
  -26.5490    7.0680   -5.8420 O   0  0  0  0  0
  -26.9820    5.8740   -4.9930 S   0  0  0  0  0
  -26.8000    5.8890   -3.5370 O   0  0  0  0  0
  -26.2610    4.2110   -5.3260 C   0  0  0  0  0
  -26.7740    3.3150   -4.1850 C   0  0  0  0  0
  -26.4600    1.9070   -4.3200 O   0  0  0  0  0
  -28.6340    5.3130   -5.4830 C   0  0  0  0  0
  -30.5110    4.7670   -6.9320 C   0  0  0  0  0
  -35.8750    2.4920   -4.3400 C   0  0  0  0  0
  -36.8100    1.2500   -4.4480 C   0  0  0  0  0
  -35.0800    2.3300   -3.0300 C   0  0  0  0  0
  -36.7200    3.7600   -4.4030 C   0  0  0  0  0
  -34.1750    1.1890   -8.8790 C   0  0  0  0  0
  -34.7900    2.1420   -9.8760 C   0  0  0  0  0
  -36.2020    2.4850   -9.4960 C   0  0  0  0  0
  -36.4780    3.6890   -8.8130 C   0  0  0  0  0
  -37.8180    3.9110   -8.4660 C   0  0  0  0  0
  -37.1350    1.5580   -9.7740 N   0  0  0  0  0
  -38.4120    1.7920   -9.4530 C   0  0  0  0  0
  -38.7980    2.9630   -8.7880 C   0  0  0  0  0
  -31.9420    2.6680   -8.0292 H   0  0  0  0  0
  -35.9058    1.3497   -6.8178 H   0  0  0  0  0
  -31.0966    3.5701   -3.7842 H   0  0  0  0  0
  -33.4345    3.7012   -4.1073 H   0  0  0  0  0
  -28.7080    5.8272   -7.6109 H   0  0  0  0  0
  -28.8360    4.5294   -3.5042 H   0  0  0  0  0
  -25.1718    4.2426   -5.3546 H   0  0  0  0  0
  -26.5603    3.8305   -6.3026 H   0  0  0  0  0
  -27.8610    3.3956   -4.1875 H   0  0  0  0  0
  -26.2866    3.6590   -3.2727 H   0  0  0  0  0
  -26.8163    1.4274   -3.5686 H   0  0  0  0  0
  -30.9754    4.8196   -7.9167 H   0  0  0  0  0
  -36.2061    0.3428   -4.4683 H   0  0  0  0  0
  -37.4783    1.2240   -3.5873 H   0  0  0  0  0
  -37.3974    1.3175   -5.3637 H   0  0  0  0  0
  -35.7723    2.2891   -2.1891 H   0  0  0  0  0
  -34.5001    1.4079   -3.0701 H   0  0  0  0  0
  -34.4072    3.1788   -2.9074 H   0  0  0  0  0
  -37.2604    3.7883   -5.3492 H   0  0  0  0  0
  -37.4310    3.7627   -3.5768 H   0  0  0  0  0
  -36.0704    4.6321   -4.3278 H   0  0  0  0  0
  -34.8465    0.3481   -8.7056 H   0  0  0  0  0
  -33.2310    0.8048   -9.2656 H   0  0  0  0  0
  -34.7987    1.6642  -10.8557 H   0  0  0  0  0
  -34.2005    3.0587   -9.8917 H   0  0  0  0  0
  -35.6937    4.4056   -8.5692 H   0  0  0  0  0
  -38.0987    4.8254   -7.9433 H   0  0  0  0  0
  -39.1704    1.0542   -9.7150 H   0  0  0  0  0
  -39.8422    3.1335   -8.5258 H   0  0  0  0  0
  1  4  4  0  0  0
  8  1  4  0  0  0
  1 19  1  0  0  0
  2  3  4  0  0  0
  5  2  4  0  0  0
  3  4  4  0  0  0
  3 23  1  0  0  0
  7  5  1  0  0  0
  5  8  4  0  0  0
  6  7  4  0  0  0
 10  6  4  0  0  0
 18  7  4  0  0  0
 17  9  4  0  0  0
  9 18  4  0  0  0
 17 10  4  0  0  0
 12 11  2  0  0  0
 12 13  2  0  0  0
 12 14  1  0  0  0
 12 17  1  0  0  0
 14 15  1  0  0  0
 15 16  1  0  0  0
 19 20  1  0  0  0
 19 21  1  0  0  0
 19 22  1  0  0  0
 23 24  1  0  0  0
 24 25  1  0  0  0
 25 26  4  0  0  0
 25 28  4  0  0  0
 26 27  4  0  0  0
 27 30  4  0  0  0
 28 29  4  0  0  0
 29 30  4  0  0  0
  2 31  1  0  0  0
  4 32  1  0  0  0
  6 33  1  0  0  0
  8 34  1  0  0  0
  9 35  1  0  0  0
 10 36  1  0  0  0
 14 37  1  0  0  0
 14 38  1  0  0  0
 15 39  1  0  0  0
 15 40  1  0  0  0
 16 41  1  0  0  0
 18 42  1  0  0  0
 20 43  1  0  0  0
 20 44  1  0  0  0
 20 45  1  0  0  0
 21 46  1  0  0  0
 21 47  1  0  0  0
 21 48  1  0  0  0
 22 49  1  0  0  0
 22 50  1  0  0  0
 22 51  1  0  0  0
 23 52  1  0  0  0
 23 53  1  0  0  0
 24 54  1  0  0  0
 24 55  1  0  0  0
 26 56  1  0  0  0
 27 57  1  0  0  0
 29 58  1  0  0  0
 30 59  1  0  0  0
M  END
$$$$
