5lj1_ligand
  -I-interpret- 

 74 78  0  0  0  0  0  0  0  0999 V2000
  -23.5690   -4.4290    0.5420 C   0  0  0  0  0
  -26.9970   -2.5030    2.8570 C   0  0  0  0  0
  -27.4150   -1.2660    3.6250 C   0  0  0  0  0
  -27.8030   -6.3490   -0.6810 C   0  0  0  0  0
  -27.0140   -5.5810    0.2190 O   0  0  0  0  0
  -25.8650   -6.2690    0.7360 C   0  0  0  0  0
  -24.7800   -6.3220   -0.3300 C   0  0  0  0  0
  -24.2650   -4.9890   -0.6170 N   0  3  0  0  0
  -24.5860   -4.2680    1.6610 C   0  0  0  0  0
  -25.5450   -3.3450    1.1360 O   0  0  0  0  0
  -25.8440   -2.2090    1.9390 C   0  0  0  0  0
  -28.5140   -1.5980    4.6290 C   0  0  0  0  0
  -29.6840   -2.3190    4.0130 C   0  0  0  0  0
  -30.5290   -2.7590    4.9990 F   0  0  0  0  0
  -30.4400   -1.4430    3.2700 F   0  0  0  0  0
  -29.2510   -3.4740    3.1570 C   0  0  0  0  0
  -28.2060   -3.0420    2.1320 C   0  0  0  0  0
  -25.3830   -5.5250    1.9730 C   0  0  0  0  0
  -24.6530   -6.4500    2.8220 N   0  0  0  0  0
  -24.5260   -6.3100    4.1550 C   0  0  0  0  0
  -25.2770   -5.3410    4.7510 N   0  0  0  0  0
  -25.1860   -5.1460    6.0700 C   0  0  0  0  0
  -24.3810   -5.8710    6.9320 C   0  0  0  0  0
  -24.3740   -5.5480    8.3910 C   0  0  0  0  0
  -24.6180   -6.4960    9.3820 C   0  0  0  0  0
  -24.6410   -6.2150   10.6940 N   0  0  0  0  0
  -24.4200   -4.9430   11.0550 C   0  0  0  0  0
  -24.1740   -3.9160   10.1570 C   0  0  0  0  0
  -23.9200   -2.5040   10.6190 C   0  0  0  0  0
  -24.1600   -4.2440    8.8130 C   0  0  0  0  0
  -23.5730   -6.8720    6.3650 C   0  0  0  0  0
  -22.6710   -7.7070    7.1130 C   0  0  0  0  0
  -21.9360   -8.6870    6.5400 C   0  0  0  0  0
  -21.0020   -9.5350    7.3630 C   0  0  0  0  0
  -22.0120   -8.9110    5.0960 C   0  0  0  0  0
  -21.3890   -9.7830    4.4900 O   0  0  0  0  0
  -22.8790   -8.1070    4.4230 N   0  0  0  0  0
  -23.6560   -7.0990    4.9800 C   0  0  0  0  0
  -23.1282   -3.4647    0.2894 H   0  0  0  0  0
  -22.7624   -5.0916    0.8558 H   0  0  0  0  0
  -26.6342   -3.2701    3.5411 H   0  0  0  0  0
  -27.7944   -0.5261    2.9203 H   0  0  0  0  0
  -26.5509   -0.8786    4.1648 H   0  0  0  0  0
  -27.1948   -6.6411   -1.5370 H   0  0  0  0  0
  -28.1682   -7.2409   -0.1718 H   0  0  0  0  0
  -28.6487   -5.7515   -1.0215 H   0  0  0  0  0
  -26.1168   -7.2940    1.0081 H   0  0  0  0  0
  -25.2068   -6.7364   -1.2434 H   0  0  0  0  0
  -23.9613   -6.9424    0.0346 H   0  0  0  0  0
  -23.6052   -5.0550   -1.3921 H   0  0  0  0  0
  -25.0495   -4.3805   -0.8507 H   0  0  0  0  0
  -24.0552   -3.9777    2.5677 H   0  0  0  0  0
  -24.9688   -1.9584    2.5384 H   0  0  0  0  0
  -26.1120   -1.3761    1.2889 H   0  0  0  0  0
  -28.8838   -0.6571    5.0365 H   0  0  0  0  0
  -28.0829   -2.2544    5.3849 H   0  0  0  0  0
  -30.1216   -3.8576    2.6250 H   0  0  0  0  0
  -28.8124   -4.2374    3.7996 H   0  0  0  0  0
  -27.9163   -3.8968    1.5209 H   0  0  0  0  0
  -28.6225   -2.2679    1.4875 H   0  0  0  0  0
  -26.2584   -5.1561    2.5074 H   0  0  0  0  0
  -24.2091   -7.2555    2.3811 H   0  0  0  0  0
  -25.7949   -4.3519    6.5021 H   0  0  0  0  0
  -24.8008   -7.5255    9.0740 H   0  0  0  0  0
  -24.4346   -4.7019   12.1179 H   0  0  0  0  0
  -24.7854   -2.1439   11.1753 H   0  0  0  0  0
  -23.0400   -2.4862   11.2620 H   0  0  0  0  0
  -23.7515   -1.8644    9.7526 H   0  0  0  0  0
  -23.9777   -3.4646    8.0732 H   0  0  0  0  0
  -22.5761   -7.5428    8.1864 H   0  0  0  0  0
  -20.2540   -8.8972    7.8340 H   0  0  0  0  0
  -21.5707  -10.0586    8.1315 H   0  0  0  0  0
  -20.5078  -10.2607    6.7171 H   0  0  0  0  0
  -22.9665   -8.2581    3.4180 H   0  0  0  0  0
  1  8  1  0  0  0
  9  1  1  0  0  0
  2  3  1  0  0  0
 11  2  1  0  0  0
  2 17  1  0  0  0
  3 12  1  0  0  0
  5  4  1  0  0  0
  6  5  1  0  0  0
  6  7  1  0  0  0
 18  6  1  0  0  0
  8  7  1  0  0  0
 10  9  1  0  0  0
  9 18  1  0  0  0
 10 11  1  0  0  0
 12 13  1  0  0  0
 13 14  1  0  0  0
 13 15  1  0  0  0
 13 16  1  0  0  0
 16 17  1  0  0  0
 18 19  1  0  0  0
 19 20  1  0  0  0
 20 21  4  0  0  0
 20 38  4  0  0  0
 21 22  4  0  0  0
 22 23  4  0  0  0
 23 24  1  0  0  0
 23 31  4  0  0  0
 24 25  4  0  0  0
 24 30  4  0  0  0
 25 26  4  0  0  0
 26 27  4  0  0  0
 27 28  4  0  0  0
 28 29  1  0  0  0
 28 30  4  0  0  0
 31 32  1  0  0  0
 31 38  4  0  0  0
 32 33  2  0  0  0
 33 34  1  0  0  0
 33 35  1  0  0  0
 35 36  2  0  0  0
 35 37  1  0  0  0
 37 38  1  0  0  0
  1 39  1  0  0  0
  1 40  1  0  0  0
  2 41  1  0  0  0
  3 42  1  0  0  0
  3 43  1  0  0  0
  4 44  1  0  0  0
  4 45  1  0  0  0
  4 46  1  0  0  0
  6 47  1  0  0  0
  7 48  1  0  0  0
  7 49  1  0  0  0
  8 50  1  0  0  0
  8 51  1  0  0  0
  9 52  1  0  0  0
 11 53  1  0  0  0
 11 54  1  0  0  0
 12 55  1  0  0  0
 12 56  1  0  0  0
 16 57  1  0  0  0
 16 58  1  0  0  0
 17 59  1  0  0  0
 17 60  1  0  0  0
 18 61  1  0  0  0
 19 62  1  0  0  0
 22 63  1  0  0  0
 25 64  1  0  0  0
 27 65  1  0  0  0
 29 66  1  0  0  0
 29 67  1  0  0  0
 29 68  1  0  0  0
 30 69  1  0  0  0
 32 70  1  0  0  0
 34 71  1  0  0  0
 34 72  1  0  0  0
 34 73  1  0  0  0
 37 74  1  0  0  0
M  END
$$$$
