6do3_ligand
  -I-interpret- 

 87 89  0  0  0  0  0  0  0  0999 V2000
  164.2920    5.3250   12.0320 N   0  3  0  0  0
  163.2720    5.2440   10.9720 C   0  0  0  0  0
  161.9100    5.8070   11.4210 C   0  0  0  0  0
  161.5250    5.6120   12.5750 O   0  0  0  0  0
  163.1840    3.7410   10.6660 C   0  0  0  0  0
  163.8100    3.0560   11.8350 C   0  0  0  0  0
  164.8250    4.0030   12.4060 C   0  0  0  0  0
  161.2020    6.5010   10.5110 N   0  0  0  0  0
  159.9860    7.2910   10.7650 C   0  0  0  0  0
  158.8820    6.6380   11.6240 C   0  0  0  0  0
  158.2940    7.3820   12.4110 O   0  0  0  0  0
  159.4600    7.5730    9.3500 C   0  0  0  0  0
  160.6770    7.6300    8.5220 C   0  0  0  0  0
  161.5970    6.5630    9.0930 C   0  0  0  0  0
  158.5920    5.3200   11.4820 N   0  0  0  0  0
  157.5160    4.7720   12.3350 C   0  0  0  0  0
  157.7790    4.8340   13.8490 C   0  0  0  0  0
  156.8310    4.8440   14.6390 O   0  0  0  0  0
  157.4000    3.3050   11.8780 C   0  0  0  0  0
  158.6420    3.0160   11.0820 C   0  0  0  0  0
  159.0520    4.3330   10.4850 C   0  0  0  0  0
  159.0330    4.9050   14.2730 N   0  0  0  0  0
  159.2620    4.8370   15.7120 C   0  0  0  0  0
  159.6110    6.1960   16.3110 C   0  0  0  0  0
  159.7800    6.3120   17.5260 O   0  0  0  0  0
  160.3410    3.8100   16.0340 C   0  0  0  0  0
  161.7000    4.1280   15.4880 C   0  0  0  0  0
  162.5010    2.5540   15.1500 S   0  0  0  0  0
  161.3360    1.9680   13.9240 C   0  0  0  0  0
  159.6920    7.2180   15.4580 N   0  0  0  0  0
  159.8160    8.5940   15.9170 C   0  0  0  0  0
  158.6680    8.9640   16.8670 C   0  0  0  0  0
  157.5220    8.5710   16.6510 O   0  0  0  0  0
  159.8380    9.5390   14.7380 C   0  0  0  0  0
  158.9760    9.7140   17.9210 N   0  0  0  0  0
  157.9420   10.2210   18.8040 C   0  0  0  0  0
  157.5760    9.3080   19.9600 C   0  0  0  0  0
  156.8060    9.6900   20.8350 O   0  0  0  0  0
  158.1310    8.1010   19.9710 N   0  0  0  0  0
  157.9620    7.2140   21.1080 C   0  0  0  0  0
  159.1650    7.2240   22.0370 C   0  0  0  0  0
  160.1980    7.8620   21.7500 O   0  0  0  0  0
  159.1320    6.5840   23.1050 O   0  0  0  0  0
  163.8548    5.7329   12.8584 H   0  0  0  0  0
  165.0664    5.8882   11.6806 H   0  0  0  0  0
  163.5391    5.8425   10.1011 H   0  0  0  0  0
  163.6973    3.4928    9.7370 H   0  0  0  0  0
  162.1511    3.4231   10.5242 H   0  0  0  0  0
  164.2826    2.1230   11.5279 H   0  0  0  0  0
  163.0575    2.8010   12.5812 H   0  0  0  0  0
  164.9517    3.8877   13.4825 H   0  0  0  0  0
  165.8296    3.8281   12.0208 H   0  0  0  0  0
  160.2458    8.1612   11.3678 H   0  0  0  0  0
  158.8829    8.4963    9.3002 H   0  0  0  0  0
  158.7633    6.8076    9.0081 H   0  0  0  0  0
  161.1383    8.6171    8.5521 H   0  0  0  0  0
  160.4566    7.4501    7.4698 H   0  0  0  0  0
  161.4939    5.6038    8.5857 H   0  0  0  0  0
  162.6520    6.8030    8.9607 H   0  0  0  0  0
  156.6107    5.3667   12.2131 H   0  0  0  0  0
  156.5032    3.1493   11.2784 H   0  0  0  0  0
  157.3142    2.6325   12.7315 H   0  0  0  0  0
  158.4571    2.2682   10.3108 H   0  0  0  0  0
  159.4302    2.5991   11.7090 H   0  0  0  0  0
  160.1247    4.3930   10.3011 H   0  0  0  0  0
  158.6162    4.4994    9.4998 H   0  0  0  0  0
  159.8085    5.0035   13.6177 H   0  0  0  0  0
  158.3256    4.5205   16.1714 H   0  0  0  0  0
  160.0292    2.8714   15.5759 H   0  0  0  0  0
  160.4361    3.7828   17.1195 H   0  0  0  0  0
  162.2788    4.7133   16.2025 H   0  0  0  0  0
  161.6240    4.7282   14.5813 H   0  0  0  0  0
  160.3444    1.8981   14.3711 H   0  0  0  0  0
  161.3101    2.6654   13.0867 H   0  0  0  0  0
  161.6466    0.9849   13.5702 H   0  0  0  0  0
  159.6663    7.0303   14.4558 H   0  0  0  0  0
  160.7546    8.6844   16.4638 H   0  0  0  0  0
  160.6864    9.2987   14.0972 H   0  0  0  0  0
  158.9123    9.4336   14.1722 H   0  0  0  0  0
  159.9311   10.5639   15.0972 H   0  0  0  0  0
  159.9531    9.9361   18.1116 H   0  0  0  0  0
  157.0426   10.3368   18.1992 H   0  0  0  0  0
  158.3276   11.1417   19.2418 H   0  0  0  0  0
  158.6830    7.7934   19.1703 H   0  0  0  0  0
  157.8385    6.1998   20.7282 H   0  0  0  0  0
  157.0959    7.5551   21.6752 H   0  0  0  0  0
  160.0770    8.3014   20.9051 H   0  0  0  0  0
  1  2  1  0  0  0
  1  7  1  0  0  0
  2  3  1  0  0  0
  2  5  1  0  0  0
  3  4  2  0  0  0
  3  8  1  0  0  0
  5  6  1  0  0  0
  6  7  1  0  0  0
  8  9  1  0  0  0
  8 14  1  0  0  0
  9 10  1  0  0  0
  9 12  1  0  0  0
 10 11  2  0  0  0
 10 15  1  0  0  0
 12 13  1  0  0  0
 13 14  1  0  0  0
 15 16  1  0  0  0
 15 21  1  0  0  0
 16 17  1  0  0  0
 16 19  1  0  0  0
 17 18  2  0  0  0
 17 22  1  0  0  0
 19 20  1  0  0  0
 20 21  1  0  0  0
 22 23  1  0  0  0
 23 24  1  0  0  0
 23 26  1  0  0  0
 24 25  2  0  0  0
 24 30  1  0  0  0
 26 27  1  0  0  0
 27 28  1  0  0  0
 28 29  1  0  0  0
 30 31  1  0  0  0
 31 32  1  0  0  0
 31 34  1  0  0  0
 32 33  2  0  0  0
 32 35  1  0  0  0
 35 36  1  0  0  0
 36 37  1  0  0  0
 37 38  2  0  0  0
 37 39  1  0  0  0
 39 40  1  0  0  0
 40 41  1  0  0  0
 41 42  1  0  0  0
 41 43  2  0  0  0
  1 44  1  0  0  0
  1 45  1  0  0  0
  2 46  1  0  0  0
  5 47  1  0  0  0
  5 48  1  0  0  0
  6 49  1  0  0  0
  6 50  1  0  0  0
  7 51  1  0  0  0
  7 52  1  0  0  0
  9 53  1  0  0  0
 12 54  1  0  0  0
 12 55  1  0  0  0
 13 56  1  0  0  0
 13 57  1  0  0  0
 14 58  1  0  0  0
 14 59  1  0  0  0
 16 60  1  0  0  0
 19 61  1  0  0  0
 19 62  1  0  0  0
 20 63  1  0  0  0
 20 64  1  0  0  0
 21 65  1  0  0  0
 21 66  1  0  0  0
 22 67  1  0  0  0
 23 68  1  0  0  0
 26 69  1  0  0  0
 26 70  1  0  0  0
 27 71  1  0  0  0
 27 72  1  0  0  0
 29 73  1  0  0  0
 29 74  1  0  0  0
 29 75  1  0  0  0
 30 76  1  0  0  0
 31 77  1  0  0  0
 34 78  1  0  0  0
 34 79  1  0  0  0
 34 80  1  0  0  0
 35 81  1  0  0  0
 36 82  1  0  0  0
 36 83  1  0  0  0
 39 84  1  0  0  0
 40 85  1  0  0  0
 40 86  1  0  0  0
 42 87  1  0  0  0
M  END
$$$$
