2ltw_ligand
  -I-interpret- 

214220  0  0  0  0  0  0  0  0999 V2000
   -2.1770  -15.8380   -3.5890 N   0  3  0  0  0
   -3.6250  -15.6570   -3.8330 C   0  0  0  0  0
   -4.2230  -14.6290   -2.9030 C   0  0  0  0  0
   -4.7550  -14.9690   -1.8450 O   0  0  0  0  0
   -4.1370  -13.3680   -3.2980 N   0  0  0  0  0
   -4.6030  -12.2750   -2.4630 C   0  0  0  0  0
   -6.0300  -11.9200   -2.8490 C   0  0  0  0  0
   -6.4250  -12.0730   -4.0080 O   0  0  0  0  0
   -3.7240  -11.0260   -2.6280 C   0  0  0  0  0
   -2.2270  -11.2830   -2.8030 C   0  0  0  0  0
   -1.6460  -12.2780   -1.8190 C   0  0  0  0  0
   -1.3350  -11.8880   -0.6760 O   0  0  0  0  0
   -1.4560  -13.4530   -2.2040 O   0  0  0  0  0
   -6.7910  -11.4330   -1.8870 N   0  0  0  0  0
   -8.1220  -10.9200   -2.1530 C   0  0  0  0  0
   -8.0010   -9.4360   -2.4740 C   0  0  0  0  0
   -7.1250   -8.7750   -1.9300 O   0  0  0  0  0
   -9.0110  -11.1380   -0.9230 C   0  0  0  0  0
   -9.0600  -12.5130   -0.5720 O   0  0  0  0  0
   -8.8870   -8.8880   -3.3300 N   0  0  0  0  0
   -8.7470   -7.5230   -3.8640 C   0  0  0  0  0
   -8.4590   -6.5000   -2.7700 C   0  0  0  0  0
   -9.1240   -6.4850   -1.7310 O   0  0  0  0  0
  -10.1120   -7.2400   -4.5110 C   0  0  0  0  0
  -11.0000   -8.3720   -4.1060 C   0  0  0  0  0
  -10.0960   -9.5380   -3.8390 C   0  0  0  0  0
   -7.4870   -5.6060   -3.0060 N   0  0  0  0  0
   -6.9160   -4.7300   -2.0060 C   0  0  0  0  0
   -7.6580   -3.3840   -1.9970 C   0  0  0  0  0
   -8.6140   -3.1950   -2.7610 O   0  0  0  0  0
   -5.4440   -4.5950   -2.5160 C   0  0  0  0  0
   -5.4450   -5.2320   -3.8770 C   0  0  0  0  0
   -6.8770   -5.2390   -4.2700 C   0  0  0  0  0
   -7.2520   -2.4470   -1.1290 N   0  0  0  0  0
   -7.8710   -1.1150   -1.0150 C   0  0  0  0  0
   -8.0500   -0.4060   -2.3550 C   0  0  0  0  0
   -7.1700   -0.4580   -3.2190 O   0  0  0  0  0
   -6.8520   -0.3230   -0.1870 C   0  0  0  0  0
   -5.6460   -1.1890   -0.0990 C   0  0  0  0  0
   -6.1530   -2.5890   -0.1810 C   0  0  0  0  0
   -9.1880    0.2760   -2.5340 N   0  0  0  0  0
   -9.4000    1.1690   -3.6680 C   0  0  0  0  0
   -8.4800    2.3830   -3.5700 C   0  0  0  0  0
   -8.3250    2.9660   -2.4950 O   0  0  0  0  0
  -10.8700    1.5960   -3.5380 C   0  0  0  0  0
  -11.4760    0.6480   -2.5590 C   0  0  0  0  0
  -10.3590    0.2280   -1.6500 C   0  0  0  0  0
   -7.8970    2.7720   -4.6910 N   0  0  0  0  0
   -6.9100    3.8450   -4.7200 C   0  0  0  0  0
   -7.5150    5.2220   -4.4010 C   0  0  0  0  0
   -6.7780    6.1740   -4.1580 O   0  0  0  0  0
   -6.1630    3.8880   -6.0710 C   0  0  0  0  0
   -5.2100    5.0620   -6.1730 C   0  0  0  0  0
   -3.9410    4.9850   -5.6280 C   0  0  0  0  0
   -5.6000    6.2620   -6.7610 C   0  0  0  0  0
   -3.0850    6.0620   -5.6590 C   0  0  0  0  0
   -4.7430    7.3460   -6.8040 C   0  0  0  0  0
   -3.4880    7.2410   -6.2470 C   0  0  0  0  0
   -2.6310    8.3150   -6.2790 O   0  0  0  0  0
   -8.8410    5.3260   -4.3350 N   0  0  0  0  0
   -9.5020    6.6160   -4.5060 C   0  0  0  0  0
   -9.0240    7.6330   -3.4660 C   0  0  0  0  0
   -8.3510    8.5990   -3.8400 O   0  0  0  0  0
  -11.0200    6.4430   -4.4340 C   0  0  0  0  0
  -11.6950    7.5460   -5.0190 O   0  0  0  0  0
   -9.3480    7.4780   -2.1860 N   0  0  0  0  0
   -8.6870    8.3280   -1.2010 C   0  0  0  0  0
   -7.9070    7.5290   -0.1620 C   0  0  0  0  0
   -6.6780    7.5070   -0.1830 O   0  0  0  0  0
   -9.7060    9.2280   -0.4960 C   0  0  0  0  0
  -10.2640   10.3300   -1.3800 C   0  0  0  0  0
   -9.1660   11.2600   -1.8730 C   0  0  0  0  0
   -9.6850   12.2870   -2.7710 N   0  0  0  0  0
   -8.9220   13.1250   -3.4700 C   0  0  0  0  0
   -7.6010   13.1060   -3.3420 N   0  0  0  0  0
   -9.4870   13.9990   -4.2890 N   0  0  0  0  0
   -8.6250    6.8500    0.7280 N   0  0  0  0  0
   -7.9930    6.0670    1.7860 C   0  0  0  0  0
   -8.3950    4.5980    1.7100 C   0  0  0  0  0
   -9.5590    4.2910    1.4610 O   0  0  0  0  0
   -8.2990    6.6790    3.1610 C   0  0  0  0  0
   -7.3960    7.8550    3.4940 C   0  0  0  0  0
   -7.1930    8.8810    2.5790 C   0  0  0  0  0
   -6.7300    7.9310    4.7120 C   0  0  0  0  0
   -6.3580    9.9420    2.8590 C   0  0  0  0  0
   -5.8930    8.9960    5.0050 C   0  0  0  0  0
   -5.7110    9.9980    4.0710 C   0  0  0  0  0
   -4.8810   11.0640    4.3490 O   0  0  0  0  0
   -7.4450    3.6830    1.9580 N   0  0  0  0  0
   -7.7000    2.2370    1.9260 C   0  0  0  0  0
   -8.7430    1.7900    2.9480 C   0  0  0  0  0
   -9.8340    1.3540    2.5860 O   0  0  0  0  0
   -6.3350    1.6210    2.2550 C   0  0  0  0  0
   -5.3500    2.6900    1.9530 C   0  0  0  0  0
   -6.0400    3.9810    2.2700 C   0  0  0  0  0
   -8.4060    1.9150    4.2200 N   0  0  0  0  0
   -9.3000    1.4980    5.2880 C   0  0  0  0  0
   -9.5230    2.6610    6.2450 C   0  0  0  0  0
   -8.6350    3.4940    6.4280 O   0  0  0  0  0
   -8.7000    0.3030    6.0350 C   0  0  0  0  0
   -9.7280   -0.5190    6.7940 C   0  0  0  0  0
  -10.9010   -1.3360    5.6930 S   0  0  0  0  0
  -11.9790   -2.1400    6.8740 C   0  0  0  0  0
  -10.6910    2.7050    6.8700 N   0  0  0  0  0
  -11.0500    3.8220    7.7290 C   0  0  0  0  0
  -10.6100    3.5670    9.1650 C   0  0  0  0  0
   -9.7480    4.3230    9.6570 O   0  0  0  0  0
  -12.5580    4.1120    7.6550 C   0  0  0  0  0
  -13.4330    2.9860    8.1710 C   0  0  0  0  0
  -13.3510    1.8600    7.6350 O   0  0  0  0  0
  -14.2330    3.2370    9.1020 O   0  0  0  0  0
  -11.0900    2.5970    9.7890 O   0  0  0  0  0
   -1.8096  -16.5376   -4.2339 H   0  0  0  0  0
   -1.6951  -14.9513   -3.7368 H   0  0  0  0  0
   -2.0316  -16.1495   -2.6287 H   0  0  0  0  0
   -4.1246  -16.6100   -3.6588 H   0  0  0  0  0
   -3.7604  -15.3129   -4.8584 H   0  0  0  0  0
   -3.7335  -13.1592   -4.2112 H   0  0  0  0  0
   -4.5525  -12.6011   -1.4242 H   0  0  0  0  0
   -3.8317  -10.4506   -1.7086 H   0  0  0  0  0
   -4.0598  -10.5320   -3.5398 H   0  0  0  0  0
   -1.7172  -10.3338   -2.6381 H   0  0  0  0  0
   -2.0876  -11.6996   -3.8005 H   0  0  0  0  0
   -1.7632  -13.5457   -3.1088 H   0  0  0  0  0
   -6.4342  -11.4168   -0.9316 H   0  0  0  0  0
   -8.5757  -11.4408   -2.9962 H   0  0  0  0  0
  -10.0206  -10.7988   -1.1551 H   0  0  0  0  0
   -8.5958  -10.5767   -0.0860 H   0  0  0  0  0
   -9.6209  -12.6255    0.1989 H   0  0  0  0  0
   -7.9101   -7.4469   -4.5582 H   0  0  0  0  0
  -10.0290   -7.1709   -5.5956 H   0  0  0  0  0
  -10.5156   -6.2829   -4.1806 H   0  0  0  0  0
  -11.7212   -8.6053   -4.8893 H   0  0  0  0  0
  -11.5835   -8.1166   -3.2215 H   0  0  0  0  0
  -10.5214  -10.2582   -3.1401 H   0  0  0  0  0
   -9.9136  -10.1494   -4.7228 H   0  0  0  0  0
   -6.9809   -5.0918   -0.9798 H   0  0  0  0  0
   -4.7369   -5.0801   -1.8431 H   0  0  0  0  0
   -5.1243   -3.5538   -2.5572 H   0  0  0  0  0
   -5.0154   -6.2337   -3.8644 H   0  0  0  0  0
   -4.8242   -4.6872   -4.5883 H   0  0  0  0  0
   -7.2337   -4.2957   -4.6836 H   0  0  0  0  0
   -7.1131   -5.9117   -5.0946 H   0  0  0  0  0
   -8.8700   -1.1943   -0.5863 H   0  0  0  0  0
   -7.2429   -0.0837    0.8019 H   0  0  0  0  0
   -6.6205    0.6354   -0.6518 H   0  0  0  0  0
   -5.0977   -1.0167    0.8271 H   0  0  0  0  0
   -4.9399   -0.9726   -0.9007 H   0  0  0  0  0
   -5.3969   -3.3085   -0.4951 H   0  0  0  0  0
   -6.4583   -2.9989    0.7817 H   0  0  0  0  0
   -9.1844    0.6927   -4.6244 H   0  0  0  0  0
  -11.3828    1.5592   -4.4991 H   0  0  0  0  0
  -10.9573    2.6286   -3.2001 H   0  0  0  0  0
  -11.9212   -0.2103   -3.0622 H   0  0  0  0  0
  -12.2853    1.1186   -2.0008 H   0  0  0  0  0
  -10.2581    0.8707   -0.7754 H   0  0  0  0  0
  -10.5178   -0.7555   -1.2077 H   0  0  0  0  0
   -8.1457    2.3065   -5.5639 H   0  0  0  0  0
   -6.1944    3.6162   -3.9303 H   0  0  0  0  0
   -6.9060    3.9895   -6.8620 H   0  0  0  0  0
   -5.5781    2.9725   -6.1602 H   0  0  0  0  0
   -3.6130    4.0541   -5.1655 H   0  0  0  0  0
   -6.5965    6.3483   -7.1942 H   0  0  0  0  0
   -2.0907    5.9825   -5.2195 H   0  0  0  0  0
   -5.0584    8.2769   -7.2753 H   0  0  0  0  0
   -3.0600    9.0522   -6.7195 H   0  0  0  0  0
   -9.4027    4.4923   -4.1625 H   0  0  0  0  0
   -9.2368    7.0040   -5.4895 H   0  0  0  0  0
  -11.3114    6.3750   -3.3859 H   0  0  0  0  0
  -11.2920    5.5406   -4.9815 H   0  0  0  0  0
  -12.6431    7.4082   -4.9585 H   0  0  0  0  0
  -10.0392    6.7844   -1.9004 H   0  0  0  0  0
   -7.9716    8.9394   -1.7510 H   0  0  0  0  0
   -9.1942    9.7078    0.3382 H   0  0  0  0  0
  -10.5427    8.5980   -0.1941 H   0  0  0  0  0
  -10.9746   10.9145   -0.7956 H   0  0  0  0  0
  -10.7407    9.8698   -2.2455 H   0  0  0  0  0
   -8.4346   10.6653   -2.4203 H   0  0  0  0  0
   -8.7230   11.7542   -1.0084 H   0  0  0  0  0
  -10.6970   12.3679   -2.8694 H   0  0  0  0  0
   -7.0277   13.7619   -3.8726 H   0  0  0  0  0
   -7.1591   12.4355   -2.7130 H   0  0  0  0  0
  -10.5023   14.0281   -4.3822 H   0  0  0  0  0
   -9.6430    6.8769    0.6700 H   0  0  0  0  0
   -6.9133    6.1015    1.6404 H   0  0  0  0  0
   -8.1358    5.9081    3.9141 H   0  0  0  0  0
   -9.3271    7.0407    3.1449 H   0  0  0  0  0
   -7.7057    8.8463    1.6177 H   0  0  0  0  0
   -6.8685    7.1397    5.4488 H   0  0  0  0  0
   -6.2115   10.7326    2.1230 H   0  0  0  0  0
   -5.3814    9.0430    5.9663 H   0  0  0  0  0
   -4.5078   10.9570    5.2270 H   0  0  0  0  0
   -8.1053    1.9283    0.9624 H   0  0  0  0  0
   -6.1463    0.7203    1.6709 H   0  0  0  0  0
   -6.2765    1.2990    3.2947 H   0  0  0  0  0
   -5.0334    2.6548    0.9106 H   0  0  0  0  0
   -4.4413    2.5705    2.5430 H   0  0  0  0  0
   -5.8924    4.2992    3.3020 H   0  0  0  0  0
   -5.6478    4.8233    1.7001 H   0  0  0  0  0
   -7.4976    2.3133    4.4578 H   0  0  0  0  0
  -10.2576    1.1969    4.8631 H   0  0  0  0  0
   -7.9924    0.6960    6.7651 H   0  0  0  0  0
   -8.2431   -0.3507    5.2920 H   0  0  0  0  0
  -10.2870    0.1549    7.4432 H   0  0  0  0  0
   -9.1979   -1.2891    7.3544 H   0  0  0  0  0
  -11.3974   -2.8334    7.4815 H   0  0  0  0  0
  -12.4370   -1.3880    7.5166 H   0  0  0  0  0
  -12.7568   -2.6865    6.3407 H   0  0  0  0  0
  -11.3525    1.9386    6.7457 H   0  0  0  0  0
  -10.5232    4.7059    7.3695 H   0  0  0  0  0
  -12.8066    4.2569    6.6037 H   0  0  0  0  0
  -12.7496    4.9821    8.2830 H   0  0  0  0  0
  -14.1353    4.1543    9.3678 H   0  0  0  0  0
  -11.7326    2.1479    9.2350 H   0  0  0  0  0
  1  2  1  0  0  0
  2  3  1  0  0  0
  3  4  2  0  0  0
  3  5  1  0  0  0
  5  6  1  0  0  0
  6  7  1  0  0  0
  6  9  1  0  0  0
  7  8  2  0  0  0
  7 14  1  0  0  0
  9 10  1  0  0  0
 10 11  1  0  0  0
 11 12  2  0  0  0
 11 13  1  0  0  0
 14 15  1  0  0  0
 15 16  1  0  0  0
 15 18  1  0  0  0
 16 17  2  0  0  0
 16 20  1  0  0  0
 18 19  1  0  0  0
 20 21  1  0  0  0
 20 26  1  0  0  0
 21 22  1  0  0  0
 21 24  1  0  0  0
 22 23  2  0  0  0
 22 27  1  0  0  0
 24 25  1  0  0  0
 25 26  1  0  0  0
 27 28  1  0  0  0
 27 33  1  0  0  0
 28 29  1  0  0  0
 28 31  1  0  0  0
 29 30  2  0  0  0
 29 34  1  0  0  0
 31 32  1  0  0  0
 32 33  1  0  0  0
 34 35  1  0  0  0
 34 40  1  0  0  0
 35 36  1  0  0  0
 35 38  1  0  0  0
 36 37  2  0  0  0
 36 41  1  0  0  0
 38 39  1  0  0  0
 39 40  1  0  0  0
 41 42  1  0  0  0
 41 47  1  0  0  0
 42 43  1  0  0  0
 42 45  1  0  0  0
 43 44  2  0  0  0
 43 48  1  0  0  0
 45 46  1  0  0  0
 46 47  1  0  0  0
 48 49  1  0  0  0
 49 50  1  0  0  0
 49 52  1  0  0  0
 50 51  2  0  0  0
 50 60  1  0  0  0
 52 53  1  0  0  0
 53 54  4  0  0  0
 53 55  4  0  0  0
 54 56  4  0  0  0
 55 57  4  0  0  0
 56 58  4  0  0  0
 57 58  4  0  0  0
 58 59  1  0  0  0
 60 61  1  0  0  0
 61 62  1  0  0  0
 61 64  1  0  0  0
 62 63  2  0  0  0
 62 66  1  0  0  0
 64 65  1  0  0  0
 66 67  1  0  0  0
 67 68  1  0  0  0
 67 70  1  0  0  0
 68 69  2  0  0  0
 68 77  1  0  0  0
 70 71  1  0  0  0
 71 72  1  0  0  0
 72 73  1  0  0  0
 73 74  1  0  0  0
 74 75  1  0  0  0
 74 76  2  0  0  0
 77 78  1  0  0  0
 78 79  1  0  0  0
 78 81  1  0  0  0
 79 80  2  0  0  0
 79 89  1  0  0  0
 81 82  1  0  0  0
 82 83  4  0  0  0
 82 84  4  0  0  0
 83 85  4  0  0  0
 84 86  4  0  0  0
 85 87  4  0  0  0
 86 87  4  0  0  0
 87 88  1  0  0  0
 89 90  1  0  0  0
 89 95  1  0  0  0
 90 91  1  0  0  0
 90 93  1  0  0  0
 91 92  2  0  0  0
 91 96  1  0  0  0
 93 94  1  0  0  0
 94 95  1  0  0  0
 96 97  1  0  0  0
 97 98  1  0  0  0
 97100  1  0  0  0
 98 99  2  0  0  0
 98104  1  0  0  0
100101  1  0  0  0
101102  1  0  0  0
102103  1  0  0  0
104105  1  0  0  0
105106  1  0  0  0
105108  1  0  0  0
106107  2  0  0  0
106112  1  0  0  0
108109  1  0  0  0
109110  2  0  0  0
109111  1  0  0  0
  1113  1  0  0  0
  1114  1  0  0  0
  1115  1  0  0  0
  2116  1  0  0  0
  2117  1  0  0  0
  5118  1  0  0  0
  6119  1  0  0  0
  9120  1  0  0  0
  9121  1  0  0  0
 10122  1  0  0  0
 10123  1  0  0  0
 13124  1  0  0  0
 14125  1  0  0  0
 15126  1  0  0  0
 18127  1  0  0  0
 18128  1  0  0  0
 19129  1  0  0  0
 21130  1  0  0  0
 24131  1  0  0  0
 24132  1  0  0  0
 25133  1  0  0  0
 25134  1  0  0  0
 26135  1  0  0  0
 26136  1  0  0  0
 28137  1  0  0  0
 31138  1  0  0  0
 31139  1  0  0  0
 32140  1  0  0  0
 32141  1  0  0  0
 33142  1  0  0  0
 33143  1  0  0  0
 35144  1  0  0  0
 38145  1  0  0  0
 38146  1  0  0  0
 39147  1  0  0  0
 39148  1  0  0  0
 40149  1  0  0  0
 40150  1  0  0  0
 42151  1  0  0  0
 45152  1  0  0  0
 45153  1  0  0  0
 46154  1  0  0  0
 46155  1  0  0  0
 47156  1  0  0  0
 47157  1  0  0  0
 48158  1  0  0  0
 49159  1  0  0  0
 52160  1  0  0  0
 52161  1  0  0  0
 54162  1  0  0  0
 55163  1  0  0  0
 56164  1  0  0  0
 57165  1  0  0  0
 59166  1  0  0  0
 60167  1  0  0  0
 61168  1  0  0  0
 64169  1  0  0  0
 64170  1  0  0  0
 65171  1  0  0  0
 66172  1  0  0  0
 67173  1  0  0  0
 70174  1  0  0  0
 70175  1  0  0  0
 71176  1  0  0  0
 71177  1  0  0  0
 72178  1  0  0  0
 72179  1  0  0  0
 73180  1  0  0  0
 75181  1  0  0  0
 75182  1  0  0  0
 76183  1  0  0  0
 77184  1  0  0  0
 78185  1  0  0  0
 81186  1  0  0  0
 81187  1  0  0  0
 83188  1  0  0  0
 84189  1  0  0  0
 85190  1  0  0  0
 86191  1  0  0  0
 88192  1  0  0  0
 90193  1  0  0  0
 93194  1  0  0  0
 93195  1  0  0  0
 94196  1  0  0  0
 94197  1  0  0  0
 95198  1  0  0  0
 95199  1  0  0  0
 96200  1  0  0  0
 97201  1  0  0  0
100202  1  0  0  0
100203  1  0  0  0
101204  1  0  0  0
101205  1  0  0  0
103206  1  0  0  0
103207  1  0  0  0
103208  1  0  0  0
104209  1  0  0  0
105210  1  0  0  0
108211  1  0  0  0
108212  1  0  0  0
111213  1  0  0  0
112214  1  0  0  0
M  END
$$$$
