### 
### Created by X-TOOL on Mon Sep 10 21:13:12 2018
### 

@<TRIPOS>MOLECULE
2ltw_ligand
  212   218     1     0     0
SMALL
GAST_HUCK


@<TRIPOS>ATOM
      1 N          -2.1770  -15.8380   -3.5890 N.4       1 GLY         0.2357
      2 CA         -3.6250  -15.6570   -3.8330 C.3       1 GLY         0.0545
      3 C          -4.2230  -14.6290   -2.9030 C.2       1 GLY         0.2236
      4 O          -4.7550  -14.9690   -1.8450 O.2       1 GLY        -0.3910
      5 N          -4.1370  -13.3680   -3.2980 N.am      1 GLU        -0.2612
      6 CA         -4.6030  -12.2750   -2.4630 C.3       1 GLU         0.1326
      7 C          -6.0300  -11.9200   -2.8490 C.2       1 GLU         0.2041
      8 O          -6.4250  -12.0730   -4.0080 O.2       1 GLU        -0.3944
      9 CB         -3.7240  -11.0260   -2.6280 C.3       1 GLU        -0.0008
     10 CG         -2.2270  -11.2830   -2.8030 C.3       1 GLU         0.0044
     11 CD         -1.6460  -12.2780   -1.8190 C.2       1 GLU         0.0350
     12 OE1        -1.3350  -11.8880   -0.6760 O.co2     1 GLU        -0.5690
     13 OE2        -1.4560  -13.4530   -2.2040 O.co2     1 GLU        -0.5690
     14 N          -6.7910  -11.4330   -1.8870 N.am      1 SER        -0.2616
     15 CA         -8.1220  -10.9200   -2.1530 C.3       1 SER         0.1541
     16 C          -8.0010   -9.4360   -2.4740 C.2       1 SER         0.2087
     17 O          -7.1250   -8.7750   -1.9300 O.2       1 SER        -0.3941
     18 CB         -9.0110  -11.1380   -0.9230 C.3       1 SER         0.0843
     19 OG         -9.0600  -12.5130   -0.5720 O.3       1 SER        -0.3903
     20 N          -8.8870   -8.8880   -3.3300 N.am      1 PRO        -0.2498
     21 CA         -8.7470   -7.5230   -3.8640 C.3       1 PRO         0.1340
     22 C          -8.4590   -6.5000   -2.7700 C.2       1 PRO         0.2066
     23 O          -9.1240   -6.4850   -1.7310 O.2       1 PRO        -0.3942
     24 CB        -10.1120   -7.2400   -4.5110 C.3       1 PRO        -0.0104
     25 CG        -11.0000   -8.3720   -4.1060 C.3       1 PRO        -0.0281
     26 CD        -10.0960   -9.5380   -3.8390 C.3       1 PRO         0.0369
     27 N          -7.4870   -5.6060   -3.0060 N.am      1 PRO        -0.2498
     28 CA         -6.9160   -4.7300   -2.0060 C.3       1 PRO         0.1340
     29 C          -7.6580   -3.3840   -1.9970 C.2       1 PRO         0.2066
     30 O          -8.6140   -3.1950   -2.7610 O.2       1 PRO        -0.3942
     31 CB         -5.4440   -4.5950   -2.5160 C.3       1 PRO        -0.0104
     32 CG         -5.4450   -5.2320   -3.8770 C.3       1 PRO        -0.0281
     33 CD         -6.8770   -5.2390   -4.2700 C.3       1 PRO         0.0369
     34 N          -7.2520   -2.4470   -1.1290 N.am      1 PRO        -0.2498
     35 CA         -7.8710   -1.1150   -1.0150 C.3       1 PRO         0.1340
     36 C          -8.0500   -0.4060   -2.3550 C.2       1 PRO         0.2066
     37 O          -7.1700   -0.4580   -3.2190 O.2       1 PRO        -0.3942
     38 CB         -6.8520   -0.3230   -0.1870 C.3       1 PRO        -0.0104
     39 CG         -5.6460   -1.1890   -0.0990 C.3       1 PRO        -0.0281
     40 CD         -6.1530   -2.5890   -0.1810 C.3       1 PRO         0.0369
     41 N          -9.1880    0.2760   -2.5340 N.am      1 PRO        -0.2498
     42 CA         -9.4000    1.1690   -3.6680 C.3       1 PRO         0.1338
     43 C          -8.4800    2.3830   -3.5700 C.2       1 PRO         0.2042
     44 O          -8.3250    2.9660   -2.4950 O.2       1 PRO        -0.3944
     45 CB        -10.8700    1.5960   -3.5380 C.3       1 PRO        -0.0104
     46 CG        -11.4760    0.6480   -2.5590 C.3       1 PRO        -0.0281
     47 CD        -10.3590    0.2280   -1.6500 C.3       1 PRO         0.0369
     48 N          -7.8970    2.7720   -4.6910 N.am      1 TYR        -0.2621
     49 CA         -6.9100    3.8450   -4.7200 C.3       1 TYR         0.1390
     50 C          -7.5150    5.2220   -4.4010 C.2       1 TYR         0.2058
     51 O          -6.7780    6.1740   -4.1580 O.2       1 TYR        -0.3942
     52 CB         -6.1630    3.8880   -6.0710 C.3       1 TYR         0.0163
     53 CG         -5.2100    5.0620   -6.1730 C.ar      1 TYR        -0.0493
     54 CD1        -3.9410    4.9850   -5.6280 C.ar      1 TYR        -0.0685
     55 CD2        -5.6000    6.2620   -6.7610 C.ar      1 TYR        -0.0685
     56 CE1        -3.0850    6.0620   -5.6590 C.ar      1 TYR        -0.0398
     57 CE2        -4.7430    7.3460   -6.8040 C.ar      1 TYR        -0.0398
     58 CZ         -3.4880    7.2410   -6.2470 C.ar      1 TYR         0.0805
     59 OH         -2.6310    8.3150   -6.2790 O.3       1 TYR        -0.3376
     60 N          -8.8410    5.3260   -4.3350 N.am      1 SER        -0.2614
     61 CA         -9.5020    6.6160   -4.5060 C.3       1 SER         0.1539
     62 C          -9.0240    7.6330   -3.4660 C.2       1 SER         0.2062
     63 O          -8.3510    8.5990   -3.8400 O.2       1 SER        -0.3943
     64 CB        -11.0200    6.4430   -4.4340 C.3       1 SER         0.0843
     65 OG        -11.6950    7.5460   -5.0190 O.3       1 SER        -0.3903
     66 N          -9.3480    7.4780   -2.1860 N.am      1 ARG        -0.2637
     67 CA         -8.6870    8.3280   -1.2010 C.3       1 ARG         0.1311
     68 C          -7.9070    7.5290   -0.1620 C.2       1 ARG         0.2040
     69 O          -6.6780    7.5070   -0.1830 O.2       1 ARG        -0.3944
     70 CB         -9.7060    9.2280   -0.4960 C.3       1 ARG        -0.0092
     71 CG        -10.2640   10.3300   -1.3800 C.3       1 ARG        -0.0156
     72 CD         -9.1660   11.2600   -1.8730 C.3       1 ARG         0.0627
     73 NE         -9.6850   12.2870   -2.7710 N.pl3     1 ARG        -0.2723
     74 CZ         -8.9220   13.1250   -3.4700 C.cat     1 ARG         0.2882
     75 NH1        -7.6010   13.1060   -3.3420 N.pl3     1 ARG        -0.2849
     76 NH2        -9.4870   13.9990   -4.2890 N.pl3     1 ARG        -0.2849
     77 N          -8.6250    6.8500    0.7280 N.am      1 TYR        -0.2621
     78 CA         -7.9930    6.0670    1.7860 C.3       1 TYR         0.1392
     79 C          -8.3950    4.5980    1.7100 C.2       1 TYR         0.2082
     80 O          -9.5590    4.2910    1.4610 O.2       1 TYR        -0.3940
     81 CB         -8.2990    6.6790    3.1610 C.3       1 TYR         0.0164
     82 CG         -7.3960    7.8550    3.4940 C.ar      1 TYR        -0.0493
     83 CD1        -7.1930    8.8810    2.5790 C.ar      1 TYR        -0.0685
     84 CD2        -6.7300    7.9310    4.7120 C.ar      1 TYR        -0.0685
     85 CE1        -6.3580    9.9420    2.8590 C.ar      1 TYR        -0.0398
     86 CE2        -5.8930    8.9960    5.0050 C.ar      1 TYR        -0.0398
     87 CZ         -5.7110    9.9980    4.0710 C.ar      1 TYR         0.0805
     88 OH         -4.8810   11.0640    4.3490 O.3       1 TYR        -0.3376
     89 N          -7.4450    3.6830    1.9580 N.am      1 PRO        -0.2497
     90 CA         -7.7000    2.2370    1.9260 C.3       1 PRO         0.1338
     91 C          -8.7430    1.7900    2.9480 C.2       1 PRO         0.2041
     92 O          -9.8340    1.3540    2.5860 O.2       1 PRO        -0.3944
     93 CB         -6.3350    1.6210    2.2550 C.3       1 PRO        -0.0104
     94 CG         -5.3500    2.6900    1.9530 C.3       1 PRO        -0.0281
     95 CD         -6.0400    3.9810    2.2700 C.3       1 PRO         0.0369
     96 N          -8.4060    1.9150    4.2200 N.am      1 MET        -0.2637
     97 CA         -9.3000    1.4980    5.2880 C.3       1 MET         0.1317
     98 C          -9.5230    2.6610    6.2450 C.2       1 MET         0.2035
     99 O          -8.6350    3.4940    6.4280 O.2       1 MET        -0.3944
    100 CB         -8.7000    0.3030    6.0350 C.3       1 MET        -0.0034
    101 CG         -9.7280   -0.5190    6.7940 C.3       1 MET        -0.0024
    102 SD        -10.9010   -1.3360    5.6930 S.3       1 MET        -0.1639
    103 CE        -11.9790   -2.1400    6.8740 C.3       1 MET        -0.0181
    104 N         -10.6910    2.7050    6.8700 N.am      1 ASP        -0.2679
    105 CA        -11.0500    3.8220    7.7290 C.3       1 ASP         0.1057
    106 C         -10.6100    3.5670    9.1650 C.2       1 ASP         0.0618
    107 O          -9.7480    4.3230    9.6570 O.co2     1 ASP        -0.5665
    108 CB        -12.5580    4.1120    7.6550 C.3       1 ASP         0.0351
    109 CG        -13.4330    2.9860    8.1710 C.2       1 ASP         0.0387
    110 OD1       -13.3510    1.8600    7.6350 O.co2     1 ASP        -0.5688
    111 OD2       -14.2330    3.2370    9.1020 O.co2     1 ASP        -0.5688
    112 OXT       -11.0900    2.5970    9.7890 O.co2     1 ASP        -0.5665
    113 H          -1.8096  -16.5376   -4.2339 H         1 GLY         0.2012
    114 H          -1.6951  -14.9513   -3.7368 H         1 GLY         0.2012
    115 H          -2.0316  -16.1495   -2.6287 H         1 GLY         0.2012
    116 H          -4.1246  -16.6100   -3.6588 H         1 GLY         0.1061
    117 H          -3.7604  -15.3129   -4.8584 H         1 GLY         0.1061
    118 H          -3.7335  -13.1592   -4.2112 H         1 GLU         0.1884
    119 H          -4.5525  -12.6011   -1.4242 H         1 GLU         0.0801
    120 H          -3.8317  -10.4506   -1.7086 H         1 GLU         0.0330
    121 H          -4.0598  -10.5320   -3.5398 H         1 GLU         0.0330
    122 H          -1.7172  -10.3338   -2.6381 H         1 GLU         0.0433
    123 H          -2.0876  -11.6996   -3.8005 H         1 GLU         0.0433
    124 H          -6.4342  -11.4168   -0.9316 H         1 SER         0.1884
    125 H          -8.5757  -11.4408   -2.9962 H         1 SER         0.0823
    126 H         -10.0206  -10.7988   -1.1551 H         1 SER         0.0606
    127 H          -8.5958  -10.5767   -0.0860 H         1 SER         0.0606
    128 H          -9.6209  -12.6255    0.1989 H         1 SER         0.2097
    129 H          -7.9101   -7.4469   -4.5582 H         1 PRO         0.0802
    130 H         -10.0290   -7.1709   -5.5956 H         1 PRO         0.0313
    131 H         -10.5156   -6.2829   -4.1806 H         1 PRO         0.0313
    132 H         -11.7212   -8.6053   -4.8893 H         1 PRO         0.0287
    133 H         -11.5835   -8.1166   -3.2215 H         1 PRO         0.0287
    134 H         -10.5214  -10.2582   -3.1401 H         1 PRO         0.0524
    135 H          -9.9136  -10.1494   -4.7228 H         1 PRO         0.0524
    136 H          -6.9809   -5.0918   -0.9798 H         1 PRO         0.0802
    137 H          -4.7369   -5.0801   -1.8431 H         1 PRO         0.0313
    138 H          -5.1243   -3.5538   -2.5572 H         1 PRO         0.0313
    139 H          -5.0154   -6.2337   -3.8644 H         1 PRO         0.0287
    140 H          -4.8242   -4.6872   -4.5883 H         1 PRO         0.0287
    141 H          -7.2337   -4.2957   -4.6836 H         1 PRO         0.0524
    142 H          -7.1131   -5.9117   -5.0946 H         1 PRO         0.0524
    143 H          -8.8700   -1.1943   -0.5863 H         1 PRO         0.0802
    144 H          -7.2429   -0.0837    0.8019 H         1 PRO         0.0313
    145 H          -6.6205    0.6354   -0.6518 H         1 PRO         0.0313
    146 H          -5.0977   -1.0167    0.8271 H         1 PRO         0.0287
    147 H          -4.9399   -0.9726   -0.9007 H         1 PRO         0.0287
    148 H          -5.3969   -3.3085   -0.4951 H         1 PRO         0.0524
    149 H          -6.4583   -2.9989    0.7817 H         1 PRO         0.0524
    150 H          -9.1844    0.6927   -4.6244 H         1 PRO         0.0802
    151 H         -11.3828    1.5592   -4.4991 H         1 PRO         0.0313
    152 H         -10.9573    2.6286   -3.2001 H         1 PRO         0.0313
    153 H         -11.9212   -0.2103   -3.0622 H         1 PRO         0.0287
    154 H         -12.2853    1.1186   -2.0008 H         1 PRO         0.0287
    155 H         -10.2581    0.8707   -0.7754 H         1 PRO         0.0524
    156 H         -10.5178   -0.7555   -1.2077 H         1 PRO         0.0524
    157 H          -8.1457    2.3065   -5.5639 H         1 TYR         0.1885
    158 H          -6.1944    3.6162   -3.9303 H         1 TYR         0.0821
    159 H          -6.9060    3.9895   -6.8620 H         1 TYR         0.0453
    160 H          -5.5781    2.9725   -6.1602 H         1 TYR         0.0453
    161 H          -3.6130    4.0541   -5.1655 H         1 TYR         0.0530
    162 H          -6.5965    6.3483   -7.1942 H         1 TYR         0.0530
    163 H          -2.0907    5.9825   -5.2195 H         1 TYR         0.0525
    164 H          -5.0584    8.2769   -7.2753 H         1 TYR         0.0525
    165 H          -1.8051    8.0768   -5.8516 H         1 TYR         0.2458
    166 H          -9.4027    4.4923   -4.1625 H         1 SER         0.1884
    167 H          -9.2368    7.0040   -5.4895 H         1 SER         0.0823
    168 H         -11.3114    6.3750   -3.3859 H         1 SER         0.0606
    169 H         -11.2920    5.5406   -4.9815 H         1 SER         0.0606
    170 H         -12.6431    7.4082   -4.9585 H         1 SER         0.2097
    171 H         -10.0392    6.7844   -1.9004 H         1 ARG         0.1883
    172 H          -7.9716    8.9394   -1.7510 H         1 ARG         0.0800
    173 H          -9.1942    9.7078    0.3382 H         1 ARG         0.0313
    174 H         -10.5427    8.5980   -0.1941 H         1 ARG         0.0313
    175 H         -10.9746   10.9145   -0.7956 H         1 ARG         0.0301
    176 H         -10.7407    9.8698   -2.2455 H         1 ARG         0.0301
    177 H          -8.4346   10.6653   -2.4203 H         1 ARG         0.0689
    178 H          -8.7230   11.7542   -1.0084 H         1 ARG         0.0689
    179 H         -10.6970   12.3679   -2.8694 H         1 ARG         0.2642
    180 H          -7.1600   12.4446   -2.7029 H         1 ARG         0.2615
    181 H          -7.0269   13.7528   -3.8828 H         1 ARG         0.2615
    182 H         -10.5023   14.0281   -4.3822 H         1 ARG         0.2615
    183 H          -8.9068   14.6430   -4.8266 H         1 ARG         0.2615
    184 H          -9.6430    6.8769    0.6700 H         1 TYR         0.1885
    185 H          -6.9133    6.1015    1.6404 H         1 TYR         0.0821
    186 H          -8.1358    5.9081    3.9141 H         1 TYR         0.0453
    187 H          -9.3271    7.0407    3.1449 H         1 TYR         0.0453
    188 H          -7.7057    8.8463    1.6177 H         1 TYR         0.0530
    189 H          -6.8685    7.1397    5.4488 H         1 TYR         0.0530
    190 H          -6.2115   10.7326    2.1230 H         1 TYR         0.0525
    191 H          -5.3814    9.0430    5.9663 H         1 TYR         0.0525
    192 H          -4.8686   11.6626    3.5986 H         1 TYR         0.2458
    193 H          -8.1053    1.9283    0.9624 H         1 PRO         0.0802
    194 H          -6.1463    0.7203    1.6709 H         1 PRO         0.0313
    195 H          -6.2765    1.2990    3.2947 H         1 PRO         0.0313
    196 H          -5.0334    2.6548    0.9106 H         1 PRO         0.0287
    197 H          -4.4413    2.5705    2.5430 H         1 PRO         0.0287
    198 H          -5.8924    4.2992    3.3020 H         1 PRO         0.0524
    199 H          -5.6478    4.8233    1.7001 H         1 PRO         0.0524
    200 H          -7.4976    2.3133    4.4578 H         1 MET         0.1883
    201 H         -10.2576    1.1969    4.8631 H         1 MET         0.0800
    202 H          -7.9924    0.6960    6.7651 H         1 MET         0.0320
    203 H          -8.2431   -0.3507    5.2920 H         1 MET         0.0320
    204 H         -10.2870    0.1549    7.4432 H         1 MET         0.0378
    205 H          -9.1979   -1.2891    7.3544 H         1 MET         0.0378
    206 H         -11.3974   -2.8334    7.4815 H         1 MET         0.0340
    207 H         -12.4370   -1.3880    7.5166 H         1 MET         0.0340
    208 H         -12.7568   -2.6865    6.3407 H         1 MET         0.0340
    209 H         -11.3525    1.9386    6.7457 H         1 ASP         0.1876
    210 H         -10.5232    4.7059    7.3695 H         1 ASP         0.0745
    211 H         -12.8066    4.2569    6.6037 H         1 ASP         0.0471
    212 H         -12.7496    4.9821    8.2830 H         1 ASP         0.0471
@<TRIPOS>BOND
     1    1    2 1  
     2    2    3 1  
     3    3    4 2  
     4    3    5 am 
     5    5    6 1  
     6    6    7 1  
     7    6    9 1  
     8    7    8 2  
     9    7   14 am 
    10    9   10 1  
    11   10   11 1  
    12   11   12 ar 
    13   11   13 ar 
    14   14   15 1  
    15   15   16 1  
    16   15   18 1  
    17   16   17 2  
    18   16   20 am 
    19   18   19 1  
    20   20   21 1  
    21   20   26 1  
    22   21   22 1  
    23   21   24 1  
    24   22   23 2  
    25   22   27 am 
    26   24   25 1  
    27   25   26 1  
    28   27   28 1  
    29   27   33 1  
    30   28   29 1  
    31   28   31 1  
    32   29   30 2  
    33   29   34 am 
    34   31   32 1  
    35   32   33 1  
    36   34   35 1  
    37   34   40 1  
    38   35   36 1  
    39   35   38 1  
    40   36   37 2  
    41   36   41 am 
    42   38   39 1  
    43   39   40 1  
    44   41   42 1  
    45   41   47 1  
    46   42   43 1  
    47   42   45 1  
    48   43   44 2  
    49   43   48 am 
    50   45   46 1  
    51   46   47 1  
    52   48   49 1  
    53   49   50 1  
    54   49   52 1  
    55   50   51 2  
    56   50   60 am 
    57   52   53 1  
    58   53   54 ar 
    59   53   55 ar 
    60   54   56 ar 
    61   55   57 ar 
    62   56   58 ar 
    63   57   58 ar 
    64   58   59 1  
    65   60   61 1  
    66   61   62 1  
    67   61   64 1  
    68   62   63 2  
    69   62   66 am 
    70   64   65 1  
    71   66   67 1  
    72   67   68 1  
    73   67   70 1  
    74   68   69 2  
    75   68   77 am 
    76   70   71 1  
    77   71   72 1  
    78   72   73 1  
    79   73   74 ar 
    80   74   75 ar 
    81   74   76 ar 
    82   77   78 1  
    83   78   79 1  
    84   78   81 1  
    85   79   80 2  
    86   79   89 am 
    87   81   82 1  
    88   82   83 ar 
    89   82   84 ar 
    90   83   85 ar 
    91   84   86 ar 
    92   85   87 ar 
    93   86   87 ar 
    94   87   88 1  
    95   89   90 1  
    96   89   95 1  
    97   90   91 1  
    98   90   93 1  
    99   91   92 2  
   100   91   96 am 
   101   93   94 1  
   102   94   95 1  
   103   96   97 1  
   104   97   98 1  
   105   97  100 1  
   106   98   99 2  
   107   98  104 am 
   108  100  101 1  
   109  101  102 1  
   110  102  103 1  
   111  104  105 1  
   112  105  106 1  
   113  105  108 1  
   114  106  107 ar 
   115  106  112 ar 
   116  108  109 1  
   117  109  110 ar 
   118  109  111 ar 
   119    1  113 1  
   120    1  114 1  
   121    1  115 1  
   122    2  116 1  
   123    2  117 1  
   124    5  118 1  
   125    6  119 1  
   126    9  120 1  
   127    9  121 1  
   128   10  122 1  
   129   10  123 1  
   130   14  124 1  
   131   15  125 1  
   132   18  126 1  
   133   18  127 1  
   134   19  128 1  
   135   21  129 1  
   136   24  130 1  
   137   24  131 1  
   138   25  132 1  
   139   25  133 1  
   140   26  134 1  
   141   26  135 1  
   142   28  136 1  
   143   31  137 1  
   144   31  138 1  
   145   32  139 1  
   146   32  140 1  
   147   33  141 1  
   148   33  142 1  
   149   35  143 1  
   150   38  144 1  
   151   38  145 1  
   152   39  146 1  
   153   39  147 1  
   154   40  148 1  
   155   40  149 1  
   156   42  150 1  
   157   45  151 1  
   158   45  152 1  
   159   46  153 1  
   160   46  154 1  
   161   47  155 1  
   162   47  156 1  
   163   48  157 1  
   164   49  158 1  
   165   52  159 1  
   166   52  160 1  
   167   54  161 1  
   168   55  162 1  
   169   56  163 1  
   170   57  164 1  
   171   59  165 1  
   172   60  166 1  
   173   61  167 1  
   174   64  168 1  
   175   64  169 1  
   176   65  170 1  
   177   66  171 1  
   178   67  172 1  
   179   70  173 1  
   180   70  174 1  
   181   71  175 1  
   182   71  176 1  
   183   72  177 1  
   184   72  178 1  
   185   73  179 1  
   186   75  180 1  
   187   75  181 1  
   188   76  182 1  
   189   76  183 1  
   190   77  184 1  
   191   78  185 1  
   192   81  186 1  
   193   81  187 1  
   194   83  188 1  
   195   84  189 1  
   196   85  190 1  
   197   86  191 1  
   198   88  192 1  
   199   90  193 1  
   200   93  194 1  
   201   93  195 1  
   202   94  196 1  
   203   94  197 1  
   204   95  198 1  
   205   95  199 1  
   206   96  200 1  
   207   97  201 1  
   208  100  202 1  
   209  100  203 1  
   210  101  204 1  
   211  101  205 1  
   212  103  206 1  
   213  103  207 1  
   214  103  208 1  
   215  104  209 1  
   216  105  210 1  
   217  108  211 1  
   218  108  212 1  
@<TRIPOS>SUBSTRUCTURE
     1 GLY         1

