4qg7_ligand
  -I-interpret- 

 62 65  0  0  0  0  0  0  0  0999 V2000
   12.5830   -3.1460    0.9450 C   0  0  0  0  0
   11.9980   -1.7760    0.8430 C   0  0  0  0  0
   11.5450   -1.0620    1.8890 C   0  0  0  0  0
   10.9870    0.1960    1.7830 N   0  0  0  0  0
   10.9060    0.8450    0.5710 C   0  0  0  0  0
   10.4830    1.9880    0.4400 O   0  0  0  0  0
   11.3500    0.1070   -0.5080 N   0  0  0  0  0
   11.8940   -1.1580   -0.4950 C   0  0  0  0  0
   12.2770   -1.7400   -1.5110 O   0  0  0  0  0
   10.4350    0.8740    2.9410 C   0  0  0  0  0
    9.5780   -0.0170    3.8390 C   0  0  0  0  0
    9.0060    0.7870    4.9940 C   0  0  0  0  0
   10.1600    1.3970    5.7790 C   0  0  0  0  0
   10.9320    2.2800    4.8520 N   0  3  0  0  0
   11.5370    1.5370    3.7150 C   0  0  0  0  0
   11.9240    3.2130    5.4590 C   0  0  0  0  0
   13.1390    2.5400    6.0310 C   0  0  0  0  0
   13.0840    2.1400    7.3530 C   0  0  0  0  0
   14.1560    1.5020    7.9270 C   0  0  0  0  0
   15.3090    1.2720    7.2020 C   0  0  0  0  0
   15.3850    1.6940    5.8830 C   0  0  0  0  0
   14.3040    2.3370    5.2970 C   0  0  0  0  0
   14.3860    2.7700    3.9680 O   0  0  0  0  0
   15.0840    4.0310    3.9470 C   0  0  0  0  0
   16.5590    1.5200    5.1670 O   0  0  0  0  0
   16.6540    0.4670    4.2760 C   0  0  0  0  0
   15.8770   -0.6790    4.3480 C   0  0  0  0  0
   16.0580   -1.6990    3.4270 C   0  0  0  0  0
   17.0090   -1.5530    2.4360 C   0  0  0  0  0
   17.7830   -0.4090    2.3830 C   0  0  0  0  0
   17.6220    0.6060    3.3040 C   0  0  0  0  0
   18.9660   -0.1980    1.1470 Cl  0  0  0  0  0
   16.4250    0.5900    7.8690 C   0  0  0  0  0
   16.8930    1.1270    8.9040 O   0  0  0  0  0
   16.8280   -0.4820    7.3640 O   0  0  0  0  0
   13.4628   -3.1171    1.5878 H   0  0  0  0  0
   11.8434   -3.8248    1.3696 H   0  0  0  0  0
   12.8684   -3.4927   -0.0482 H   0  0  0  0  0
   11.6234   -1.5043    2.8821 H   0  0  0  0  0
   11.2651    0.5510   -1.4224 H   0  0  0  0  0
    9.7473    1.6299    2.5619 H   0  0  0  0  0
   10.1984   -0.8193    4.2384 H   0  0  0  0  0
    8.7567   -0.4272    3.2515 H   0  0  0  0  0
    8.4175    0.1382    5.6427 H   0  0  0  0  0
    8.3583    1.5762    4.6123 H   0  0  0  0  0
   10.8037    0.6114    6.1748 H   0  0  0  0  0
    9.7793    1.9753    6.6208 H   0  0  0  0  0
   10.1962    2.8950    4.5045 H   0  0  0  0  0
   12.0842    2.2243    3.0698 H   0  0  0  0  0
   12.2335    0.7865    4.0888 H   0  0  0  0  0
   11.4226    3.7218    6.2823 H   0  0  0  0  0
   12.2689    3.8746    4.6644 H   0  0  0  0  0
   12.1869    2.3316    7.9417 H   0  0  0  0  0
   14.0965    1.1739    8.9647 H   0  0  0  0  0
   14.5354    4.7585    4.5453 H   0  0  0  0  0
   16.0837    3.8984    4.3606 H   0  0  0  0  0
   15.1588    4.3863    2.9193 H   0  0  0  0  0
   15.1234   -0.7779    5.1293 H   0  0  0  0  0
   15.4565   -2.6062    3.4842 H   0  0  0  0  0
   17.1492   -2.3403    1.6954 H   0  0  0  0  0
   18.2466    1.4984    3.2639 H   0  0  0  0  0
   16.4152    1.9396    9.0856 H   0  0  0  0  0
  1  2  1  0  0  0
  2  3  2  0  0  0
  2  8  1  0  0  0
  3  4  1  0  0  0
  4  5  1  0  0  0
  4 10  1  0  0  0
  5  6  2  0  0  0
  5  7  1  0  0  0
  7  8  1  0  0  0
  8  9  2  0  0  0
 10 11  1  0  0  0
 10 15  1  0  0  0
 11 12  1  0  0  0
 12 13  1  0  0  0
 13 14  1  0  0  0
 14 15  1  0  0  0
 14 16  1  0  0  0
 16 17  1  0  0  0
 17 18  4  0  0  0
 17 22  4  0  0  0
 18 19  4  0  0  0
 19 20  4  0  0  0
 20 21  4  0  0  0
 20 33  1  0  0  0
 21 22  4  0  0  0
 21 25  1  0  0  0
 22 23  1  0  0  0
 23 24  1  0  0  0
 25 26  1  0  0  0
 26 27  4  0  0  0
 26 31  4  0  0  0
 27 28  4  0  0  0
 28 29  4  0  0  0
 29 30  4  0  0  0
 30 31  4  0  0  0
 30 32  1  0  0  0
 33 34  1  0  0  0
 33 35  2  0  0  0
  1 36  1  0  0  0
  1 37  1  0  0  0
  1 38  1  0  0  0
  3 39  1  0  0  0
  7 40  1  0  0  0
 10 41  1  0  0  0
 11 42  1  0  0  0
 11 43  1  0  0  0
 12 44  1  0  0  0
 12 45  1  0  0  0
 13 46  1  0  0  0
 13 47  1  0  0  0
 14 48  1  0  0  0
 15 49  1  0  0  0
 15 50  1  0  0  0
 16 51  1  0  0  0
 16 52  1  0  0  0
 18 53  1  0  0  0
 19 54  1  0  0  0
 24 55  1  0  0  0
 24 56  1  0  0  0
 24 57  1  0  0  0
 27 58  1  0  0  0
 28 59  1  0  0  0
 29 60  1  0  0  0
 31 61  1  0  0  0
 34 62  1  0  0  0
M  END
$$$$
