2xae_ligand
  -I-interpret- 

 48 50  0  0  0  0  0  0  0  0999 V2000
  -14.9870    6.6180  -42.8960 N   0  3  0  0  0
  -13.9470    5.7580  -43.4880 C   0  0  0  0  0
  -14.4380    4.2840  -43.4910 C   0  0  0  0  0
  -13.5650    6.2730  -44.9180 C   0  0  0  0  0
  -13.9290    7.4320  -45.2480 O   0  0  0  0  0
  -12.8860    5.5130  -45.6590 O   0  0  0  0  0
  -15.0550    3.4810  -41.9190 S   0  0  0  0  0
  -17.1340    2.7090  -44.6880 C   0  0  0  0  0
  -17.9730    3.3170  -45.6120 C   0  0  0  0  0
  -19.0510    4.0660  -45.1800 C   0  0  0  0  0
  -19.2770    4.2030  -43.8120 C   0  0  0  0  0
  -18.4140    3.6100  -42.8980 C   0  0  0  0  0
  -17.3430    2.8410  -43.3260 C   0  0  0  0  0
  -15.9920   -0.1590  -43.2170 C   0  0  0  0  0
  -15.1500   -1.1480  -43.7120 C   0  0  0  0  0
  -13.7900   -0.8910  -43.8560 C   0  0  0  0  0
  -13.2640    0.3510  -43.5240 C   0  0  0  0  0
  -14.1190    1.3180  -43.0260 C   0  0  0  0  0
  -15.4790    1.0870  -42.8730 C   0  0  0  0  0
  -18.2590    0.9410  -41.2190 C   0  0  0  0  0
  -18.9270    0.4850  -40.0800 C   0  0  0  0  0
  -18.4830    0.8270  -38.8050 C   0  0  0  0  0
  -17.3520    1.6250  -38.6590 C   0  0  0  0  0
  -16.6910    2.0690  -39.8000 C   0  0  0  0  0
  -17.1270    1.7420  -41.0870 C   0  0  0  0  0
  -20.0870    4.8080  -46.3730 Cl  0  0  0  0  0
  -16.3630    2.2190  -42.3320 C   0  0  0  0  0
  -15.2251    6.2710  -41.9668 H   0  0  0  0  0
  -14.6363    7.5731  -42.8240 H   0  0  0  0  0
  -15.8169    6.6030  -43.4888 H   0  0  0  0  0
  -13.0375    5.8007  -42.8887 H   0  0  0  0  0
  -13.5512    3.7077  -43.7549 H   0  0  0  0  0
  -15.3096    4.2942  -44.1455 H   0  0  0  0  0
  -12.7261    4.6831  -45.2036 H   0  0  0  0  0
  -16.2921    2.1146  -45.0429 H   0  0  0  0  0
  -17.7813    3.2035  -46.6790 H   0  0  0  0  0
  -20.1332    4.7769  -43.4575 H   0  0  0  0  0
  -18.5816    3.7515  -41.8303 H   0  0  0  0  0
  -17.0566   -0.3605  -43.0982 H   0  0  0  0  0
  -15.5540   -2.1224  -43.9867 H   0  0  0  0  0
  -13.1305   -1.6725  -44.2333 H   0  0  0  0  0
  -12.2018    0.5590  -43.6529 H   0  0  0  0  0
  -13.7126    2.2898  -42.7456 H   0  0  0  0  0
  -18.6232    0.6703  -42.2100 H   0  0  0  0  0
  -19.8080   -0.1473  -40.1907 H   0  0  0  0  0
  -19.0190    0.4712  -37.9251 H   0  0  0  0  0
  -16.9902    1.8975  -37.6676 H   0  0  0  0  0
  -15.8040    2.6923  -39.6864 H   0  0  0  0  0
  2  1  1  0  0  0
  3  2  1  0  0  0
  2  4  1  0  0  0
  7  3  1  0  0  0
  4  5  2  0  0  0
  4  6  1  0  0  0
 27  7  1  0  0  0
  8  9  4  0  0  0
 13  8  4  0  0  0
  9 10  4  0  0  0
 11 10  4  0  0  0
 10 26  1  0  0  0
 12 11  4  0  0  0
 13 12  4  0  0  0
 27 13  1  0  0  0
 14 15  4  0  0  0
 19 14  4  0  0  0
 15 16  4  0  0  0
 17 16  4  0  0  0
 18 17  4  0  0  0
 19 18  4  0  0  0
 27 19  1  0  0  0
 20 21  4  0  0  0
 25 20  4  0  0  0
 21 22  4  0  0  0
 23 22  4  0  0  0
 24 23  4  0  0  0
 25 24  4  0  0  0
 25 27  1  0  0  0
  1 28  1  0  0  0
  1 29  1  0  0  0
  1 30  1  0  0  0
  2 31  1  0  0  0
  3 32  1  0  0  0
  3 33  1  0  0  0
  6 34  1  0  0  0
  8 35  1  0  0  0
  9 36  1  0  0  0
 11 37  1  0  0  0
 12 38  1  0  0  0
 14 39  1  0  0  0
 15 40  1  0  0  0
 16 41  1  0  0  0
 17 42  1  0  0  0
 18 43  1  0  0  0
 20 44  1  0  0  0
 21 45  1  0  0  0
 22 46  1  0  0  0
 23 47  1  0  0  0
 24 48  1  0  0  0
M  END
$$$$
