3bux_ligand
  -I-interpret- 

133133  0  0  0  0  0  0  0  0999 V2000
  -14.0920   13.6970   25.8100 N   0  3  0  0  0
  -13.2450   12.5030   26.1110 C   0  0  0  0  0
  -12.1770   12.8300   27.1570 C   0  0  0  0  0
  -11.9190   12.0370   28.0740 O   0  0  0  0  0
  -12.5570   12.0250   24.8230 C   0  0  0  0  0
  -13.5310   11.7980   23.6860 C   0  0  0  0  0
  -14.4700   11.0090   23.8040 O   0  0  0  0  0
  -13.3060   12.4920   22.5660 N   0  0  0  0  0
  -11.5780   14.0090   27.0020 N   0  0  0  0  0
  -10.5110   14.4670   27.8720 C   0  0  0  0  0
  -10.6960   14.2650   29.3790 C   0  0  0  0  0
   -9.7590   14.4830   30.1420 O   0  0  0  0  0
  -10.1940   15.9440   27.5950 C   0  0  0  0  0
   -9.5610   16.1830   26.2410 C   0  0  0  0  0
   -9.3180   17.6570   25.9690 C   0  0  0  0  0
  -10.2990   18.4310   25.9320 O   0  0  0  0  0
   -8.1460   18.0420   25.7980 O   0  0  0  0  0
  -11.8820   13.8490   29.8130 N   0  0  0  0  0
  -12.1220   13.6530   31.2340 C   0  0  0  0  0
  -12.4850   12.2280   31.6450 C   0  0  0  0  0
  -12.6520   11.9420   32.8320 O   0  0  0  0  0
  -13.2200   14.6060   31.7110 C   0  0  0  0  0
  -14.4570   14.3260   31.0830 O   0  0  0  0  0
  -12.6110   11.3400   30.6660 N   0  0  0  0  0
  -12.9570    9.9600   30.9480 C   0  0  0  0  0
  -12.1980    8.9350   30.0920 C   0  0  0  0  0
  -12.1690    9.0330   28.8670 O   0  0  0  0  0
  -14.4820    9.7390   30.7810 C   0  0  0  0  0
  -14.8940    9.9920   29.3380 C   0  0  0  0  0
  -14.8540    8.3320   31.2160 C   0  0  0  0  0
  -11.5830    7.9610   30.7520 N   0  0  0  0  0
  -10.8190    6.9220   30.0720 C   0  0  0  0  0
  -11.6300    6.2050   28.9880 C   0  0  0  0  0
  -12.8190    5.9530   29.1860 O   0  0  0  0  0
  -10.3440    5.9050   31.1020 C   0  0  0  0  0
   -9.2500    5.0150   30.5780 C   0  0  0  0  0
   -8.0730    5.4380   30.6250 O   0  0  0  0  0
   -9.5670    3.8980   30.1160 O   0  0  0  0  0
  -11.0120    5.8600   27.8580 N   0  0  0  0  0
  -11.7860    5.1970   26.8170 C   0  0  0  0  0
  -12.1840    3.7470   27.0890 C   0  0  0  0  0
  -12.9990    3.1770   26.3550 O   0  0  0  0  0
  -11.1140    5.3640   25.4350 C   0  0  0  0  0
   -9.9170    4.4750   25.1010 C   0  0  0  0  0
   -8.5960    4.9080   25.3900 C   0  0  0  0  0
  -10.1110    3.2130   24.4680 C   0  0  0  0  0
   -7.5090    4.0770   25.0440 C   0  0  0  0  0
   -9.0290    2.3680   24.1160 C   0  0  0  0  0
   -7.7340    2.8330   24.4130 C   0  0  0  0  0
   -6.6130    1.9970   24.0530 O   0  0  0  0  0
   -6.6280    0.6160   23.1750 P   0  0  0  0  0
   -7.3070   -0.4200   23.9790 O   0  0  0  0  0
   -5.2240    0.2490   22.9050 O   0  0  0  0  0
   -7.3630    0.8100   21.8930 O   0  0  0  0  0
  -11.6250    3.1560   28.1380 N   0  0  0  0  0
  -11.9910    1.8030   28.5090 C   0  0  0  0  0
  -12.9800    1.7720   29.6800 C   0  0  0  0  0
  -13.3680    0.7000   30.1560 O   0  0  0  0  0
  -10.7560    0.9810   28.8760 C   0  0  0  0  0
   -9.8630    0.6230   27.6990 C   0  0  0  0  0
   -8.8610   -0.4400   28.1030 C   0  0  0  0  0
   -8.0000   -0.8380   26.9930 N   0  0  0  0  0
   -7.0920   -1.8040   27.0700 C   0  0  0  0  0
   -6.9260   -2.4700   28.2050 N   0  0  0  0  0
   -6.3470   -2.1030   26.0140 N   0  0  0  0  0
  -13.3770    2.9570   30.1350 N   0  0  0  0  0
  -14.3140    3.0790   31.2370 C   0  0  0  0  0
  -15.7800    3.1350   30.7950 C   0  0  0  0  0
  -16.1060    3.7220   29.7570 O   0  0  0  0  0
  -13.9770    4.3160   32.0680 C   0  0  0  0  0
  -16.7130    2.5450   31.5369 O   0  0  0  0  0
  -14.5481   14.0133   26.6658 H   0  0  0  0  0
  -13.5047   14.4444   25.4401 H   0  0  0  0  0
  -14.7992   13.4453   25.1194 H   0  0  0  0  0
  -13.8911   11.7202   26.5084 H   0  0  0  0  0
  -12.0687   11.0746   25.0387 H   0  0  0  0  0
  -11.8561   12.7997   24.5121 H   0  0  0  0  0
  -13.9249   12.3792   21.7631 H   0  0  0  0  0
  -12.5154   13.1343   22.5142 H   0  0  0  0  0
  -11.8818   14.6153   26.2401 H   0  0  0  0  0
   -9.6810   13.8102   27.6115 H   0  0  0  0  0
   -9.4821   16.2735   28.3518 H   0  0  0  0  0
  -11.1367   16.4907   27.6166 H   0  0  0  0  0
  -10.2429   15.8068   25.4783 H   0  0  0  0  0
   -8.5977   15.6732   26.2239 H   0  0  0  0  0
  -11.1045   17.9326   26.0879 H   0  0  0  0  0
  -12.6297   13.6658   29.1438 H   0  0  0  0  0
  -11.1663   13.8655   31.7131 H   0  0  0  0  0
  -12.9270   15.6251   31.4586 H   0  0  0  0  0
  -13.3425   14.4815   32.7869 H   0  0  0  0  0
  -15.1229   14.9392   31.4026 H   0  0  0  0  0
  -12.4621   11.6329   29.7004 H   0  0  0  0  0
  -12.6549    9.7898   31.9814 H   0  0  0  0  0
  -15.0178   10.4455   31.4150 H   0  0  0  0  0
  -14.6495   11.0189   29.0664 H   0  0  0  0  0
  -14.3591    9.3044   28.6829 H   0  0  0  0  0
  -15.9674    9.8332   29.2348 H   0  0  0  0  0
  -14.3170    7.6092   30.6017 H   0  0  0  0  0
  -14.5835    8.1932   32.2627 H   0  0  0  0  0
  -15.9275    8.1874   31.0946 H   0  0  0  0  0
  -11.6472    7.9388   31.7697 H   0  0  0  0  0
   -9.9753    7.4032   29.5772 H   0  0  0  0  0
  -11.1926    5.2731   31.3642 H   0  0  0  0  0
   -9.9482    6.4540   31.9564 H   0  0  0  0  0
   -8.0645    6.3145   31.0166 H   0  0  0  0  0
  -10.0198    6.0558   27.7254 H   0  0  0  0  0
  -12.7424    5.7199   26.8190 H   0  0  0  0  0
  -10.7266    6.3828   25.4253 H   0  0  0  0  0
  -11.8814    5.0972   24.7084 H   0  0  0  0  0
   -8.4236    5.8699   25.8729 H   0  0  0  0  0
  -11.1271    2.8862   24.2468 H   0  0  0  0  0
   -6.4905    4.3966   25.2647 H   0  0  0  0  0
   -9.1921    1.4024   23.6373 H   0  0  0  0  0
   -8.2158   -0.1551   24.1386 H   0  0  0  0  0
   -8.2739    1.0481   22.0806 H   0  0  0  0  0
  -10.9301    3.6595   28.6893 H   0  0  0  0  0
  -12.4757    1.3654   27.6362 H   0  0  0  0  0
  -11.1126    0.0433   29.3022 H   0  0  0  0  0
  -10.1589    1.5892   29.5555 H   0  0  0  0  0
   -9.3253    1.5145   27.3763 H   0  0  0  0  0
  -10.4810    0.2393   26.8873 H   0  0  0  0  0
   -9.4143   -1.3187   28.4345 H   0  0  0  0  0
   -8.2298   -0.0287   28.8907 H   0  0  0  0  0
   -8.1020   -0.3449   26.1059 H   0  0  0  0  0
   -7.4959   -2.2403   29.0192 H   0  0  0  0  0
   -5.6484   -2.8436   26.0759 H   0  0  0  0  0
   -6.4727   -1.5923   25.1401 H   0  0  0  0  0
  -13.0130    3.8035   29.6975 H   0  0  0  0  0
  -14.2063    2.1741   31.8351 H   0  0  0  0  0
  -12.9654    4.2223   32.4629 H   0  0  0  0  0
  -14.0420    5.2036   31.4387 H   0  0  0  0  0
  -14.6840    4.4014   32.8932 H   0  0  0  0  0
  -16.3012    2.1373   32.3022 H   0  0  0  0  0
  1  2  1  0  0  0
  2  3  1  0  0  0
  2  5  1  0  0  0
  3  4  2  0  0  0
  3  9  1  0  0  0
  5  6  1  0  0  0
  6  7  2  0  0  0
  6  8  1  0  0  0
  9 10  1  0  0  0
 10 11  1  0  0  0
 10 13  1  0  0  0
 11 12  2  0  0  0
 11 18  1  0  0  0
 13 14  1  0  0  0
 14 15  1  0  0  0
 15 16  1  0  0  0
 15 17  2  0  0  0
 18 19  1  0  0  0
 19 20  1  0  0  0
 19 22  1  0  0  0
 20 21  2  0  0  0
 20 24  1  0  0  0
 22 23  1  0  0  0
 24 25  1  0  0  0
 25 26  1  0  0  0
 25 28  1  0  0  0
 26 27  2  0  0  0
 26 31  1  0  0  0
 28 29  1  0  0  0
 28 30  1  0  0  0
 31 32  1  0  0  0
 32 33  1  0  0  0
 32 35  1  0  0  0
 33 34  2  0  0  0
 33 39  1  0  0  0
 35 36  1  0  0  0
 36 37  1  0  0  0
 36 38  2  0  0  0
 39 40  1  0  0  0
 40 41  1  0  0  0
 40 43  1  0  0  0
 41 42  2  0  0  0
 41 55  1  0  0  0
 43 44  1  0  0  0
 44 45  4  0  0  0
 44 46  4  0  0  0
 45 47  4  0  0  0
 46 48  4  0  0  0
 47 49  4  0  0  0
 48 49  4  0  0  0
 49 50  1  0  0  0
 50 51  1  0  0  0
 51 52  1  0  0  0
 51 53  2  0  0  0
 51 54  1  0  0  0
 55 56  1  0  0  0
 56 57  1  0  0  0
 56 59  1  0  0  0
 57 58  2  0  0  0
 57 66  1  0  0  0
 59 60  1  0  0  0
 60 61  1  0  0  0
 61 62  1  0  0  0
 62 63  1  0  0  0
 63 64  2  0  0  0
 63 65  1  0  0  0
 66 67  1  0  0  0
 67 68  1  0  0  0
 67 70  1  0  0  0
 68 69  2  0  0  0
 68 71  1  0  0  0
  1 72  1  0  0  0
  1 73  1  0  0  0
  1 74  1  0  0  0
  2 75  1  0  0  0
  5 76  1  0  0  0
  5 77  1  0  0  0
  8 78  1  0  0  0
  8 79  1  0  0  0
  9 80  1  0  0  0
 10 81  1  0  0  0
 13 82  1  0  0  0
 13 83  1  0  0  0
 14 84  1  0  0  0
 14 85  1  0  0  0
 16 86  1  0  0  0
 18 87  1  0  0  0
 19 88  1  0  0  0
 22 89  1  0  0  0
 22 90  1  0  0  0
 23 91  1  0  0  0
 24 92  1  0  0  0
 25 93  1  0  0  0
 28 94  1  0  0  0
 29 95  1  0  0  0
 29 96  1  0  0  0
 29 97  1  0  0  0
 30 98  1  0  0  0
 30 99  1  0  0  0
 30100  1  0  0  0
 31101  1  0  0  0
 32102  1  0  0  0
 35103  1  0  0  0
 35104  1  0  0  0
 37105  1  0  0  0
 39106  1  0  0  0
 40107  1  0  0  0
 43108  1  0  0  0
 43109  1  0  0  0
 45110  1  0  0  0
 46111  1  0  0  0
 47112  1  0  0  0
 48113  1  0  0  0
 52114  1  0  0  0
 54115  1  0  0  0
 55116  1  0  0  0
 56117  1  0  0  0
 59118  1  0  0  0
 59119  1  0  0  0
 60120  1  0  0  0
 60121  1  0  0  0
 61122  1  0  0  0
 61123  1  0  0  0
 62124  1  0  0  0
 64125  1  0  0  0
 65126  1  0  0  0
 65127  1  0  0  0
 66128  1  0  0  0
 67129  1  0  0  0
 70130  1  0  0  0
 70131  1  0  0  0
 70132  1  0  0  0
 71133  1  0  0  0
M  END
$$$$
