### 
### Created by X-TOOL on Mon Sep 10 21:12:59 2018
### 

@<TRIPOS>MOLECULE
3bux_ligand
  130   130     1     0     0
SMALL
GAST_HUCK


@<TRIPOS>ATOM
      1 N         -14.0920   13.6970   25.8100 N.4       1 ASN         0.2396
      2 CA        -13.2450   12.5030   26.1110 C.3       1 ASN         0.0818
      3 C         -12.1770   12.8300   27.1570 C.2       1 ASN         0.2291
      4 O         -11.9190   12.0370   28.0740 O.2       1 ASN        -0.3905
      5 CB        -12.5570   12.0250   24.8230 C.3       1 ASN         0.0972
      6 CG        -13.5310   11.7980   23.6860 C.2       1 ASN         0.1813
      7 OD1       -14.4700   11.0090   23.8040 O.2       1 ASN        -0.3969
      8 ND2       -13.3060   12.4920   22.5660 N.am      1 ASN        -0.3006
      9 N         -11.5780   14.0090   27.0020 N.am      1 GLU        -0.2608
     10 CA        -10.5110   14.4670   27.8720 C.3       1 GLU         0.1326
     11 C         -10.6960   14.2650   29.3790 C.2       1 GLU         0.2041
     12 O          -9.7590   14.4830   30.1420 O.2       1 GLU        -0.3944
     13 CB        -10.1940   15.9440   27.5950 C.3       1 GLU        -0.0008
     14 CG         -9.5610   16.1830   26.2410 C.3       1 GLU         0.0044
     15 CD         -9.3180   17.6570   25.9690 C.2       1 GLU         0.0350
     16 OE1       -10.2990   18.4310   25.9320 O.co2     1 GLU        -0.5690
     17 OE2        -8.1460   18.0420   25.7980 O.co2     1 GLU        -0.5690
     18 N         -11.8820   13.8490   29.8130 N.am      1 SER        -0.2616
     19 CA        -12.1220   13.6530   31.2340 C.3       1 SER         0.1539
     20 C         -12.4850   12.2280   31.6450 C.2       1 SER         0.2062
     21 O         -12.6520   11.9420   32.8320 O.2       1 SER        -0.3943
     22 CB        -13.2200   14.6060   31.7110 C.3       1 SER         0.0843
     23 OG        -14.4570   14.3260   31.0830 O.3       1 SER        -0.3903
     24 N         -12.6110   11.3400   30.6660 N.am      1 VAL        -0.2634
     25 CA        -12.9570    9.9600   30.9480 C.3       1 VAL         0.1333
     26 C         -12.1980    8.9350   30.0920 C.2       1 VAL         0.2042
     27 O         -12.1690    9.0330   28.8670 O.2       1 VAL        -0.3944
     28 CB        -14.4820    9.7390   30.7810 C.3       1 VAL        -0.0063
     29 CG1       -14.8940    9.9920   29.3380 C.3       1 VAL        -0.0584
     30 CG2       -14.8540    8.3320   31.2160 C.3       1 VAL        -0.0584
     31 N         -11.5830    7.9610   30.7520 N.am      1 ASP        -0.2622
     32 CA        -10.8190    6.9220   30.0720 C.3       1 ASP         0.1423
     33 C         -11.6300    6.2050   28.9880 C.2       1 ASP         0.2058
     34 O         -12.8190    5.9530   29.1860 O.2       1 ASP        -0.3942
     35 CB        -10.3440    5.9050   31.1020 C.3       1 ASP         0.0406
     36 CG         -9.2500    5.0150   30.5780 C.2       1 ASP         0.0393
     37 OD1        -8.0730    5.4380   30.6250 O.co2     1 ASP        -0.5688
     38 OD2        -9.5670    3.8980   30.1160 O.co2     1 ASP        -0.5688
     39 N         -11.0120    5.8600   27.8580 N.am      1 PTR        -0.2606
     40 CA        -11.7860    5.1970   26.8170 C.3       1 PTR         0.1468
     41 C         -12.1840    3.7470   27.0890 C.2       1 PTR         0.2074
     42 O         -12.9990    3.1770   26.3550 O.2       1 PTR        -0.3941
     43 CB        -11.1140    5.3640   25.4350 C.3       1 PTR         0.0400
     44 CG         -9.9170    4.4750   25.1010 C.ar      1 PTR        -0.0004
     45 CD1        -8.5960    4.9080   25.3900 C.ar      1 PTR        -0.0239
     46 CD2       -10.1110    3.2130   24.4680 C.ar      1 PTR        -0.0239
     47 CE1        -7.5090    4.0770   25.0440 C.ar      1 PTR         0.0115
     48 CE2        -9.0290    2.3680   24.1160 C.ar      1 PTR         0.0115
     49 CZ         -7.7340    2.8330   24.4130 C.ar      1 PTR         0.1728
     50 OH         -6.6130    1.9970   24.0530 O.3       1 PTR        -0.2040
     51 P          -6.6280    0.6160   23.1750 P.3       1 PTR         0.1348
     52 O1P        -7.3070   -0.4200   23.9790 O.co2     1 PTR        -0.6653
     53 O2P        -5.2240    0.2490   22.9050 O.co2     1 PTR        -0.6653
     54 O3P        -7.3630    0.8100   21.8930 O.co2     1 PTR        -0.6653
     55 N         -11.6250    3.1560   28.1380 N.am      1 ARG        -0.2635
     56 CA        -11.9910    1.8030   28.5090 C.3       1 ARG         0.1311
     57 C         -12.9800    1.7720   29.6800 C.2       1 ARG         0.2040
     58 O         -13.3680    0.7000   30.1560 O.2       1 ARG        -0.3944
     59 CB        -10.7560    0.9810   28.8760 C.3       1 ARG        -0.0092
     60 CG         -9.8630    0.6230   27.6990 C.3       1 ARG        -0.0156
     61 CD         -8.8610   -0.4400   28.1030 C.3       1 ARG         0.0627
     62 NE         -8.0000   -0.8380   26.9930 N.pl3     1 ARG        -0.2723
     63 CZ         -7.0920   -1.8040   27.0700 C.cat     1 ARG         0.2882
     64 NH1        -6.9260   -2.4700   28.2050 N.pl3     1 ARG        -0.2849
     65 NH2        -6.3470   -2.1030   26.0140 N.pl3     1 ARG        -0.2849
     66 N         -13.3770    2.9570   30.1350 N.am      1 ALA        -0.2626
     67 CA        -14.3140    3.0790   31.2370 C.3       1 ALA         0.1392
     68 C         -15.7800    3.1350   30.7950 C.2       1 ALA         0.2568
     69 O         -16.1060    3.7220   29.7570 O.2       1 ALA        -0.3680
     70 CB        -13.9770    4.3160   32.0680 C.3       1 ALA        -0.0230
     71 H1        -14.7846   13.4522   25.1198 H         1 ASN         0.2017
     72 H2        -13.5111   14.4400   25.4542 H         1 ASN         0.2017
     73 H3        -14.5516   14.0041   26.6529 H         1 ASN         0.2017
     74 H4        -13.8888   11.6995   26.4981 H         1 ASN         0.1125
     75 H5        -12.0359   11.0793   25.0332 H         1 ASN         0.0585
     76 H6        -11.8256   12.7856   24.5124 H         1 ASN         0.0585
     77 H7        -13.9152   12.3846   21.7803 H         1 ASN         0.1814
     78 H8        -12.5284   13.1186   22.5138 H         1 ASN         0.1814
     79 H9        -11.8759   14.6034   26.2550 H         1 GLU         0.1885
     80 H10        -9.6231   13.8807   27.5930 H         1 GLU         0.0801
     81 H11        -9.5018   16.3028   28.3709 H         1 GLU         0.0330
     82 H12       -11.1316   16.5168   27.6467 H         1 GLU         0.0330
     83 H13       -10.2295   15.7856   25.4631 H         1 GLU         0.0433
     84 H14        -8.5979   15.6530   26.2025 H         1 GLU         0.0433
     85 H15       -12.6150   13.6694   29.1569 H         1 SER         0.1884
     86 H16       -11.1896   13.9133   31.7563 H         1 SER         0.0823
     87 H17       -12.9247   15.6389   31.4746 H         1 SER         0.0606
     88 H18       -13.3390   14.4985   32.7992 H         1 SER         0.0606
     89 H19       -15.1159   14.9328   31.3993 H         1 SER         0.2097
     90 H20       -12.4650   11.6272   29.7193 H         1 VAL         0.1883
     91 H21       -12.6964    9.7680   31.9993 H         1 VAL         0.0802
     92 H22       -15.0137   10.4548   31.4252 H         1 VAL         0.0343
     93 H23       -15.9772    9.8321   29.2326 H         1 VAL         0.0234
     94 H24       -14.3549    9.2986   28.6758 H         1 VAL         0.0234
     95 H25       -14.6479   11.0281   29.0627 H         1 VAL         0.0234
     96 H26       -14.5452    8.1774   32.2604 H         1 VAL         0.0234
     97 H27       -14.3436    7.6017   30.5709 H         1 VAL         0.0234
     98 H28       -15.9425    8.1979   31.1319 H         1 VAL         0.0234
     99 H29       -11.6459    7.9392   31.7498 H         1 ASP         0.1884
    100 H30        -9.9435    7.3889   29.5971 H         1 ASP         0.0819
    101 H31       -11.1979    5.2770   31.3961 H         1 ASP         0.0478
    102 H32        -9.9662    6.4458   31.9822 H         1 ASP         0.0478
    103 H33       -10.0392    6.0520   27.7280 H         1 PTR         0.1886
    104 H34       -12.7354    5.7500   26.7644 H         1 PTR         0.0840
    105 H35       -10.7753    6.4079   25.3612 H         1 PTR         0.0584
    106 H36       -11.8841    5.1736   24.6729 H         1 PTR         0.0584
    107 H37        -8.4246    5.8646   25.8702 H         1 PTR         0.0703
    108 H38       -11.1215    2.8880   24.2481 H         1 PTR         0.0703
    109 H39        -6.4961    4.3948   25.2635 H         1 PTR         0.0736
    110 H40        -9.1912    1.4077   23.6399 H         1 PTR         0.0736
    111 H41       -10.9437    3.6496   28.6785 H         1 ARG         0.1883
    112 H42       -12.4741    1.3346   27.6389 H         1 ARG         0.0800
    113 H43       -11.0934    0.0463   29.3477 H         1 ARG         0.0313
    114 H44       -10.1593    1.5605   29.5958 H         1 ARG         0.0313
    115 H45        -9.3237    1.5220   27.3660 H         1 ARG         0.0301
    116 H46       -10.4841    0.2417   26.8751 H         1 ARG         0.0301
    117 H47        -9.4081   -1.3244   28.4614 H         1 ARG         0.0689
    118 H48        -8.2324   -0.0441   28.9142 H         1 ARG         0.0689
    119 H49        -8.1030   -0.3401   26.0972 H         1 ARG         0.2642
    120 H50        -6.2216   -3.2192   28.2642 H         1 ARG         0.2615
    121 H51        -7.5015   -2.2380   29.0271 H         1 ARG         0.2615
    122 H52        -6.4740   -1.5873   25.1315 H         1 ARG         0.2615
    123 H53        -5.6415   -2.8509   26.0765 H         1 ARG         0.2615
    124 H54       -13.0202    3.7869   29.7061 H         1 ALA         0.1884
    125 H55       -14.1935    2.1908   31.8746 H         1 ALA         0.0813
    126 O         -16.7130    2.5450   31.5369 O.3       1 ALA        -0.2910
    127 H56       -14.6899    4.4033   32.9012 H         1 ALA         0.0278
    128 H57       -14.0423    5.2126   31.4341 H         1 ALA         0.0278
    129 H58       -12.9562    4.2227   32.4671 H         1 ALA         0.0278
    130 H59       -17.3449    3.1938   31.8239 H         1 ALA         0.2540
@<TRIPOS>BOND
     1    1    2 1  
     2    2    3 1  
     3    2    5 1  
     4    3    4 2  
     5    3    9 am 
     6    5    6 1  
     7    6    7 2  
     8    6    8 am 
     9    9   10 1  
    10   10   11 1  
    11   10   13 1  
    12   11   12 2  
    13   11   18 am 
    14   13   14 1  
    15   14   15 1  
    16   15   16 ar 
    17   15   17 ar 
    18   18   19 1  
    19   19   20 1  
    20   19   22 1  
    21   20   21 2  
    22   20   24 am 
    23   22   23 1  
    24   24   25 1  
    25   25   26 1  
    26   25   28 1  
    27   26   27 2  
    28   26   31 am 
    29   28   29 1  
    30   28   30 1  
    31   31   32 1  
    32   32   33 1  
    33   32   35 1  
    34   33   34 2  
    35   33   39 am 
    36   35   36 1  
    37   36   37 ar 
    38   36   38 ar 
    39   39   40 1  
    40   40   41 1  
    41   40   43 1  
    42   41   42 2  
    43   41   55 am 
    44   43   44 1  
    45   44   45 ar 
    46   44   46 ar 
    47   45   47 ar 
    48   46   48 ar 
    49   47   49 ar 
    50   48   49 ar 
    51   49   50 1  
    52   50   51 1  
    53   51   52 ar 
    54   51   53 ar 
    55   51   54 ar 
    56   55   56 1  
    57   56   57 1  
    58   56   59 1  
    59   57   58 2  
    60   57   66 am 
    61   59   60 1  
    62   60   61 1  
    63   61   62 1  
    64   62   63 ar 
    65   63   64 ar 
    66   63   65 ar 
    67   66   67 1  
    68   67   68 1  
    69   67   70 1  
    70   68   69 2  
    71    1   71 1  
    72    1   72 1  
    73    1   73 1  
    74    2   74 1  
    75    5   75 1  
    76    5   76 1  
    77    8   77 1  
    78    8   78 1  
    79    9   79 1  
    80   10   80 1  
    81   13   81 1  
    82   13   82 1  
    83   14   83 1  
    84   14   84 1  
    85   18   85 1  
    86   19   86 1  
    87   22   87 1  
    88   22   88 1  
    89   23   89 1  
    90   24   90 1  
    91   25   91 1  
    92   28   92 1  
    93   29   93 1  
    94   29   94 1  
    95   29   95 1  
    96   30   96 1  
    97   30   97 1  
    98   30   98 1  
    99   31   99 1  
   100   32  100 1  
   101   35  101 1  
   102   35  102 1  
   103   39  103 1  
   104   40  104 1  
   105   43  105 1  
   106   43  106 1  
   107   45  107 1  
   108   46  108 1  
   109   47  109 1  
   110   48  110 1  
   111   55  111 1  
   112   56  112 1  
   113   59  113 1  
   114   59  114 1  
   115   60  115 1  
   116   60  116 1  
   117   61  117 1  
   118   61  118 1  
   119   62  119 1  
   120   64  120 1  
   121   64  121 1  
   122   65  122 1  
   123   65  123 1  
   124   66  124 1  
   125   67  125 1  
   126   68  126 1  
   127   70  127 1  
   128   70  128 1  
   129   70  129 1  
   130  126  130 1  
@<TRIPOS>SUBSTRUCTURE
     1 ASN         1

