2opy_ligand
  -I-interpret- 

 57 60  0  0  0  0  0  0  0  0999 V2000
  -16.0130  -21.6030   -0.5070 C   0  0  0  0  0
  -15.8870  -19.2000    0.0770 N   0  3  0  0  0
  -13.4710  -19.8500   -5.5660 O   0  0  0  0  0
  -15.3910  -20.2460   -0.8210 C   0  0  0  0  0
  -14.8290  -19.9790   -3.1910 N   0  0  0  0  0
  -13.6600  -17.0960   -7.4970 O   0  0  0  0  0
  -15.6800  -19.8770   -2.2450 C   0  0  0  0  0
  -15.2030  -19.3050   -6.8670 N   0  0  0  0  0
  -11.5850  -16.3600  -11.2160 O   0  0  0  0  0
  -15.3870  -19.5710   -4.3420 C   0  0  0  0  0
  -12.1310  -18.4170   -8.4490 N   0  0  0  0  0
  -11.8710  -18.5660  -11.2190 O   0  0  0  0  0
  -14.6560  -19.5700   -5.6260 C   0  0  0  0  0
   -8.2050  -20.5510  -10.3910 N   0  0  0  0  0
  -16.8310  -19.3990   -2.7340 O   0  0  0  0  0
  -16.6210  -19.0390   -7.2240 C   0  0  0  0  0
  -16.7400  -19.4340   -8.7130 C   0  0  0  0  0
  -15.3830  -18.9390   -9.2710 C   0  0  0  0  0
  -14.4180  -19.2460   -8.1150 C   0  0  0  0  0
  -13.3780  -18.1660   -8.0110 C   0  0  0  0  0
  -11.3170  -17.3860   -9.0940 C   0  0  0  0  0
   -9.8060  -17.6140   -8.7860 C   0  0  0  0  0
   -9.2850  -18.9840   -9.2280 C   0  0  0  0  0
   -8.4750  -19.2130  -10.2800 C   0  0  0  0  0
   -8.8410  -21.2490   -9.3960 C   0  0  0  0  0
   -8.8990  -22.6230   -9.0570 C   0  0  0  0  0
   -9.6530  -23.0390   -7.9540 C   0  0  0  0  0
  -10.3600  -22.0940   -7.1740 C   0  0  0  0  0
  -10.3150  -20.7400   -7.4940 C   0  0  0  0  0
   -9.5560  -20.2970   -8.6090 C   0  0  0  0  0
  -11.5980  -17.3970  -10.5920 C   0  0  0  0  0
  -16.6630  -19.2010   -4.0500 C   0  0  0  0  0
  -17.0915  -21.5502   -0.6562 H   0  0  0  0  0
  -15.5897  -22.3575   -1.1701 H   0  0  0  0  0
  -15.8007  -21.8676    0.5289 H   0  0  0  0  0
  -15.6862  -19.4594    1.0428 H   0  0  0  0  0
  -15.4246  -18.3177   -0.1425 H   0  0  0  0  0
  -16.8943  -19.0973   -0.0463 H   0  0  0  0  0
  -14.3144  -20.3268   -0.6707 H   0  0  0  0  0
  -11.7420  -19.3521   -8.3281 H   0  0  0  0  0
  -11.8403  -19.2840  -10.5825 H   0  0  0  0  0
  -16.8896  -17.9953   -7.0605 H   0  0  0  0  0
  -17.3084  -19.6089   -6.5989 H   0  0  0  0  0
  -17.6040  -18.9968   -9.2135 H   0  0  0  0  0
  -16.9152  -20.4983   -8.8702 H   0  0  0  0  0
  -15.3942  -17.8855   -9.5504 H   0  0  0  0  0
  -15.1010  -19.4264  -10.2043 H   0  0  0  0  0
  -13.9122  -20.1954   -8.2909 H   0  0  0  0  0
  -11.5787  -16.4041   -8.6997 H   0  0  0  0  0
   -9.6818  -17.5524   -7.7048 H   0  0  0  0  0
   -9.2446  -16.8596   -9.3371 H   0  0  0  0  0
   -8.0894  -18.4427  -10.9479 H   0  0  0  0  0
   -8.3568  -23.3557   -9.6547 H   0  0  0  0  0
   -9.6958  -24.0968   -7.6944 H   0  0  0  0  0
  -10.9440  -22.4284   -6.3165 H   0  0  0  0  0
  -10.8632  -20.0189   -6.8877 H   0  0  0  0  0
  -17.4054  -18.8177   -4.7500 H   0  0  0  0  0
  4  1  1  0  0  0
  4  2  1  0  0  0
 13  3  2  0  0  0
  7  4  1  0  0  0
  5  7  4  0  0  0
 10  5  4  0  0  0
 20  6  2  0  0  0
 15  7  4  0  0  0
  8 13  1  0  0  0
  8 16  1  0  0  0
 19  8  1  0  0  0
 31  9  2  0  0  0
 13 10  1  0  0  0
 10 32  4  0  0  0
 11 20  1  0  0  0
 21 11  1  0  0  0
 31 12  1  0  0  0
 24 14  4  0  0  0
 14 25  4  0  0  0
 32 15  4  0  0  0
 17 16  1  0  0  0
 18 17  1  0  0  0
 19 18  1  0  0  0
 20 19  1  0  0  0
 22 21  1  0  0  0
 21 31  1  0  0  0
 23 22  1  0  0  0
 23 24  4  0  0  0
 23 30  4  0  0  0
 25 26  4  0  0  0
 25 30  4  0  0  0
 26 27  4  0  0  0
 27 28  4  0  0  0
 28 29  4  0  0  0
 29 30  4  0  0  0
  1 33  1  0  0  0
  1 34  1  0  0  0
  1 35  1  0  0  0
  2 36  1  0  0  0
  2 37  1  0  0  0
  2 38  1  0  0  0
  4 39  1  0  0  0
 11 40  1  0  0  0
 12 41  1  0  0  0
 16 42  1  0  0  0
 16 43  1  0  0  0
 17 44  1  0  0  0
 17 45  1  0  0  0
 18 46  1  0  0  0
 18 47  1  0  0  0
 19 48  1  0  0  0
 21 49  1  0  0  0
 22 50  1  0  0  0
 22 51  1  0  0  0
 24 52  1  0  0  0
 26 53  1  0  0  0
 27 54  1  0  0  0
 28 55  1  0  0  0
 29 56  1  0  0  0
 32 57  1  0  0  0
M  END
$$$$
