4ztq_ligand
  -I-interpret- 

 49 51  0  0  0  0  0  0  0  0999 V2000
    4.3130  -28.2570   -2.8560 O   0  0  0  0  0
    4.7140  -27.9760   -3.9720 C   0  0  0  0  0
    5.9650  -27.0000   -4.2910 N   0  0  0  0  0
    6.7450  -26.3440   -3.3110 C   0  0  0  0  0
    5.9120  -25.1430   -2.7740 C   0  0  0  0  0
    6.0900  -24.0150   -3.6630 O   0  0  0  0  0
    7.2600  -23.2080   -3.3520 C   0  0  0  0  0
    6.1260  -26.9160   -5.8070 C   0  0  0  0  0
    4.9860  -27.8490   -6.5050 S   0  0  0  0  0
    4.1220  -28.4930   -5.3090 C   0  0  0  0  0
    3.0480  -29.3310   -5.3060 C   0  0  0  0  0
    2.4370  -30.1410   -6.4420 C   0  0  0  0  0
    1.6780  -31.2980   -6.1380 C   0  0  0  0  0
    1.1110  -32.0430   -7.1640 C   0  0  0  0  0
    1.2700  -31.6800   -8.4220 N   0  0  0  0  0
    1.9660  -30.6020   -8.7690 C   0  0  0  0  0
    2.5570  -29.7980   -7.7950 C   0  0  0  0  0
    7.0670  -26.1930   -6.3960 N   0  0  0  0  0
    7.2210  -26.1050   -7.8300 C   0  0  0  0  0
    6.3660  -25.2920   -8.5710 C   0  0  0  0  0
    6.5500  -25.2020   -9.9680 C   0  0  0  0  0
    7.5950  -25.9260  -10.5970 C   0  0  0  0  0
    7.8130  -25.8500  -12.1440 C   0  0  0  0  0
    7.8920  -24.3960  -12.6600 C   0  0  0  0  0
    8.4420  -26.7210   -9.8450 C   0  0  0  0  0
    8.2640  -26.8090   -8.4530 C   0  0  0  0  0
    7.6827  -25.9940   -3.7426 H   0  0  0  0  0
    6.9917  -27.0290   -2.4998 H   0  0  0  0  0
    6.2493  -24.8792   -1.7716 H   0  0  0  0  0
    4.8575  -25.4156   -2.7309 H   0  0  0  0  0
    7.1697  -22.8145   -2.3395 H   0  0  0  0  0
    8.1554  -23.8253   -3.4247 H   0  0  0  0  0
    7.3284  -22.3817   -4.0596 H   0  0  0  0  0
    3.4585  -29.0964   -5.9284 H   0  0  0  0  0
    2.2446  -28.6181   -5.1205 H   0  0  0  0  0
    3.4293  -30.1348   -4.6762 H   0  0  0  0  0
    1.5393  -31.6030   -5.1008 H   0  0  0  0  0
    0.5301  -32.9345   -6.9277 H   0  0  0  0  0
    2.0755  -30.3447   -9.8225 H   0  0  0  0  0
    3.1108  -28.9052   -8.0855 H   0  0  0  0  0
    5.5681  -24.7346   -8.0803 H   0  0  0  0  0
    5.8875  -24.5747  -10.5644 H   0  0  0  0  0
    6.9635  -26.3325  -12.6273 H   0  0  0  0  0
    8.7587  -26.3404  -12.3747 H   0  0  0  0  0
    6.9622  -23.8777  -12.4258 H   0  0  0  0  0
    8.7255  -23.8854  -12.1777 H   0  0  0  0  0
    8.0438  -24.4026  -13.7394 H   0  0  0  0  0
    9.2443  -27.2770  -10.3300 H   0  0  0  0  0
    8.9370  -27.4249   -7.8564 H   0  0  0  0  0
  1  2  2  0  0  0
  2  3  1  0  0  0
  2 10  1  0  0  0
  3  4  1  0  0  0
  3  8  1  0  0  0
  4  5  1  0  0  0
  5  6  1  0  0  0
  6  7  1  0  0  0
  8  9  1  0  0  0
  8 18  2  0  0  0
  9 10  1  0  0  0
 10 11  1  0  0  0
 11 12  1  0  0  0
 12 13  4  0  0  0
 12 17  4  0  0  0
 13 14  4  0  0  0
 14 15  4  0  0  0
 15 16  4  0  0  0
 16 17  4  0  0  0
 18 19  1  0  0  0
 19 20  4  0  0  0
 19 26  4  0  0  0
 20 21  4  0  0  0
 21 22  4  0  0  0
 22 23  1  0  0  0
 22 25  4  0  0  0
 23 24  1  0  0  0
 25 26  4  0  0  0
  4 27  1  0  0  0
  4 28  1  0  0  0
  5 29  1  0  0  0
  5 30  1  0  0  0
  7 31  1  0  0  0
  7 32  1  0  0  0
  7 33  1  0  0  0
 10 34  1  0  0  0
 11 35  1  0  0  0
 11 36  1  0  0  0
 13 37  1  0  0  0
 14 38  1  0  0  0
 16 39  1  0  0  0
 17 40  1  0  0  0
 20 41  1  0  0  0
 21 42  1  0  0  0
 23 43  1  0  0  0
 23 44  1  0  0  0
 24 45  1  0  0  0
 24 46  1  0  0  0
 24 47  1  0  0  0
 25 48  1  0  0  0
 26 49  1  0  0  0
M  END
$$$$
