### 
### Created by X-TOOL on Mon Sep 10 21:13:29 2018
### 

@<TRIPOS>MOLECULE
4ztq_ligand
   48    50     1     0     0
SMALL
GAST_HUCK


@<TRIPOS>ATOM
      1 O01         4.3130  -28.2570   -2.8560 O.2       1 4RM        -0.3990
      2 C02         4.7140  -27.9760   -3.9720 C.2       1 4RM         0.2393
      3 N03         5.9650  -27.0000   -4.2910 N.am      1 4RM        -0.1784
      4 C04         6.7450  -26.3440   -3.3110 C.3       1 4RM         0.0896
      5 C05         5.9120  -25.1430   -2.7740 C.3       1 4RM         0.0749
      6 O06         6.0900  -24.0150   -3.6630 O.3       1 4RM        -0.3803
      7 C07         7.2600  -23.2080   -3.3520 C.3       1 4RM         0.0366
      8 C08         6.1260  -26.9160   -5.8070 C.2       1 4RM         0.2160
      9 S09         4.9860  -27.8490   -6.5050 S.3       1 4RM         0.0486
     10 C10         4.1220  -28.4930   -5.3090 C.2       1 4RM         0.1214
     11 C11         3.0480  -29.3310   -5.3060 C.3       1 4RM         0.0428
     12 C12         2.4370  -30.1410   -6.4420 C.ar      1 4RM        -0.0080
     13 C13         1.6780  -31.2980   -6.1380 C.ar      1 4RM        -0.0300
     14 C14         1.1110  -32.0430   -7.1640 C.ar      1 4RM         0.0030
     15 N15         1.2700  -31.6800   -8.4220 N.ar      1 4RM        -0.3072
     16 C16         1.9660  -30.6020   -8.7690 C.ar      1 4RM         0.0030
     17 C17         2.5570  -29.7980   -7.7950 C.ar      1 4RM        -0.0300
     18 N18         7.0670  -26.1930   -6.3960 N.2       1 4RM        -0.3144
     19 C19         7.2210  -26.1050   -7.8300 C.ar      1 4RM        -0.0188
     20 C20         6.3660  -25.2920   -8.5710 C.ar      1 4RM        -0.0669
     21 C21         6.5500  -25.2020   -9.9680 C.ar      1 4RM        -0.0692
     22 C22         7.5950  -25.9260  -10.5970 C.ar      1 4RM        -0.0520
     23 C23         7.8130  -25.8500  -12.1440 C.3       1 4RM        -0.0261
     24 C24         7.8920  -24.3960  -12.6600 C.3       1 4RM        -0.0565
     25 C25         8.4420  -26.7210   -9.8450 C.ar      1 4RM        -0.0692
     26 C26         8.2640  -26.8090   -8.4530 C.ar      1 4RM        -0.0669
     27 H1          7.6818  -25.9806   -3.7585 H         1 4RM         0.0637
     28 H2          6.9761  -27.0377   -2.4892 H         1 4RM         0.0637
     29 H3          6.2576  -24.8757   -1.7645 H         1 4RM         0.0587
     30 H4          4.8479  -25.4191   -2.7362 H         1 4RM         0.0587
     31 H5          7.3301  -22.3737   -4.0654 H         1 4RM         0.0524
     32 H6          8.1644  -23.8299   -3.4251 H         1 4RM         0.0524
     33 H7          7.1701  -22.8102   -2.3304 H         1 4RM         0.0524
     34 H8          2.2187  -28.7039   -4.9468 H         1 4RM         0.0685
     35 H9          3.2961  -30.0833   -4.5428 H         1 4RM         0.0685
     36 H10         1.5400  -31.6013   -5.1065 H         1 4RM         0.0656
     37 H11         0.5333  -32.9296   -6.9290 H         1 4RM         0.0801
     38 H12         2.0749  -30.3461   -9.8167 H         1 4RM         0.0801
     39 H13         3.1077  -28.9101   -8.0839 H         1 4RM         0.0656
     40 H14         5.5725  -24.7376   -8.0830 H         1 4RM         0.0520
     41 H15         5.8911  -24.5782  -10.5612 H         1 4RM         0.0535
     42 H16         6.9741  -26.3564  -12.6437 H         1 4RM         0.0408
     43 H17         8.7528  -26.3643  -12.3934 H         1 4RM         0.0408
     44 H18         8.0452  -24.4013  -13.7493 H         1 4RM         0.0250
     45 H19         8.7329  -23.8796  -12.1740 H         1 4RM         0.0250
     46 H20         6.9541  -23.8718  -12.4243 H         1 4RM         0.0250
     47 H21         9.2399  -27.2740  -10.3274 H         1 4RM         0.0535
     48 H22         8.9333  -27.4215   -7.8597 H         1 4RM         0.0520
@<TRIPOS>BOND
     1    1    2 2  
     2    2    3 am 
     3    2   10 1  
     4    3    4 1  
     5    3    8 1  
     6    4    5 1  
     7    5    6 1  
     8    6    7 1  
     9    8    9 1  
    10    8   18 2  
    11    9   10 1  
    12   10   11 1  
    13   11   12 1  
    14   12   13 ar 
    15   12   17 ar 
    16   13   14 ar 
    17   14   15 ar 
    18   15   16 ar 
    19   16   17 ar 
    20   18   19 1  
    21   19   20 ar 
    22   19   26 ar 
    23   20   21 ar 
    24   21   22 ar 
    25   22   23 1  
    26   22   25 ar 
    27   23   24 1  
    28   25   26 ar 
    29    4   27 1  
    30    4   28 1  
    31    5   29 1  
    32    5   30 1  
    33    7   31 1  
    34    7   32 1  
    35    7   33 1  
    36   11   34 1  
    37   11   35 1  
    38   13   36 1  
    39   14   37 1  
    40   16   38 1  
    41   17   39 1  
    42   20   40 1  
    43   21   41 1  
    44   23   42 1  
    45   23   43 1  
    46   24   44 1  
    47   24   45 1  
    48   24   46 1  
    49   25   47 1  
    50   26   48 1  
@<TRIPOS>SUBSTRUCTURE
     1 4RM         1

