4pyo_ligand
  -I-interpret- 

 47 49  0  0  0  0  0  0  0  0999 V2000
   10.5970    0.5840  -31.7590 N   0  3  0  0  0
   11.6500    1.3370  -32.4040 C   0  0  0  0  0
   11.1380    2.0200  -33.6660 C   0  0  0  0  0
   10.4490    1.0600  -34.6240 C   0  0  0  0  0
   10.2770    1.7700  -36.2250 S   0  0  0  0  0
   12.1450    2.3840  -31.4550 C   0  0  0  0  0
   11.4170    2.7160  -30.5030 O   0  0  0  0  0
   13.2620    2.8920  -31.6530 O   0  0  0  0  0
    9.5010    0.4090  -37.0190 C   0  0  0  0  0
   10.5440   -0.6040  -37.4700 C   0  0  0  0  0
    9.9310   -1.8560  -37.7260 O   0  0  0  0  0
   11.2470   -0.2040  -38.7490 C   0  0  0  0  0
   12.6390   -0.2710  -38.4940 O   0  0  0  0  0
   10.8510   -1.2460  -39.7740 C   0  0  0  0  0
   11.9470   -1.5970  -40.6030 O   0  0  0  0  0
   10.4400   -2.4220  -38.9170 C   0  0  0  0  0
    9.3780   -3.2550  -39.5080 N   0  0  0  0  0
    8.3300   -2.8500  -40.2230 C   0  0  0  0  0
    7.5610   -3.8920  -40.5830 N   0  0  0  0  0
    8.1210   -4.9980  -40.0890 C   0  0  0  0  0
    7.8310   -6.4440  -40.0900 C   0  0  0  0  0
    6.7570   -6.9500  -40.7120 N   0  0  0  0  0
    8.6830   -7.2500  -39.4500 N   0  0  0  0  0
    9.7600   -6.7790  -38.8260 C   0  0  0  0  0
   10.0770   -5.4870  -38.7800 N   0  0  0  0  0
    9.3170   -4.5660  -39.3820 C   0  0  0  0  0
   10.2527   -0.1326  -32.3980 H   0  0  0  0  0
   10.9640    0.1418  -30.9163 H   0  0  0  0  0
    9.8343    1.2136  -31.5094 H   0  0  0  0  0
   12.4518    0.6517  -32.6789 H   0  0  0  0  0
   11.9968    2.4467  -34.1842 H   0  0  0  0  0
   10.4066    2.7698  -33.3642 H   0  0  0  0  0
    9.4559    0.8346  -34.2354 H   0  0  0  0  0
   11.0550    0.1578  -34.7074 H   0  0  0  0  0
   10.6034    2.2071  -30.5311 H   0  0  0  0  0
    8.9548    0.7696  -37.8906 H   0  0  0  0  0
    8.8189   -0.0709  -36.3172 H   0  0  0  0  0
   11.2702   -0.6556  -36.6588 H   0  0  0  0  0
   10.9903    0.7964  -39.0975 H   0  0  0  0  0
   13.1207   -0.0228  -39.2865 H   0  0  0  0  0
   10.0690   -0.9002  -40.4501 H   0  0  0  0  0
   11.6659   -2.2573  -41.2406 H   0  0  0  0  0
   11.3023   -3.0752  -38.7835 H   0  0  0  0  0
    8.1233   -1.8116  -40.4819 H   0  0  0  0  0
    6.1127   -6.3300  -41.2029 H   0  0  0  0  0
    6.5839   -7.9551  -40.6945 H   0  0  0  0  0
   10.4180   -7.4895  -38.3256 H   0  0  0  0  0
  1  2  1  0  0  0
  2  3  1  0  0  0
  2  6  1  0  0  0
  3  4  1  0  0  0
  4  5  1  0  0  0
  5  9  1  0  0  0
  6  7  1  0  0  0
  6  8  2  0  0  0
  9 10  1  0  0  0
 10 11  1  0  0  0
 10 12  1  0  0  0
 11 16  1  0  0  0
 12 13  1  0  0  0
 12 14  1  0  0  0
 14 15  1  0  0  0
 14 16  1  0  0  0
 16 17  1  0  0  0
 17 18  4  0  0  0
 17 26  4  0  0  0
 18 19  4  0  0  0
 19 20  4  0  0  0
 20 21  4  0  0  0
 20 26  4  0  0  0
 21 22  1  0  0  0
 21 23  4  0  0  0
 23 24  4  0  0  0
 24 25  4  0  0  0
 25 26  4  0  0  0
  1 27  1  0  0  0
  1 28  1  0  0  0
  1 29  1  0  0  0
  2 30  1  0  0  0
  3 31  1  0  0  0
  3 32  1  0  0  0
  4 33  1  0  0  0
  4 34  1  0  0  0
  7 35  1  0  0  0
  9 36  1  0  0  0
  9 37  1  0  0  0
 10 38  1  0  0  0
 12 39  1  0  0  0
 13 40  1  0  0  0
 14 41  1  0  0  0
 15 42  1  0  0  0
 16 43  1  0  0  0
 18 44  1  0  0  0
 22 45  1  0  0  0
 22 46  1  0  0  0
 24 47  1  0  0  0
M  END
$$$$
