5bwb_ligand
  -I-interpret- 

 45 46  0  0  0  0  0  0  0  0999 V2000
  -51.9430   31.9610   21.9220 C   0  0  0  0  0
  -52.8080   32.9280   22.7240 C   0  0  0  0  0
  -52.7600   34.3290   22.1260 C   0  0  0  0  0
  -53.7930   28.4780   23.7260 N   0  0  0  0  0
  -57.1280   35.8130   20.4910 C   0  0  0  0  0
  -59.3600   35.8320   22.5420 C   0  0  0  0  0
  -60.0070   36.7490   19.2510 C   0  0  0  0  0
  -58.9320   35.9760   19.0740 C   0  0  0  0  0
  -50.5230   31.4970   23.7490 C   0  0  0  0  0
  -52.1340   30.1060   23.4350 C   0  0  0  0  0
  -54.1400   34.9780   22.2520 C   0  0  0  0  0
  -54.8660   34.8790   20.9150 C   0  0  0  0  0
  -54.9190   27.5600   23.0630 O   0  0  0  0  0
  -53.0890   29.3190   22.9190 C   0  0  0  0  0
  -51.8310   30.1010   24.7430 N   0  0  0  0  0
  -50.8390   30.9650   24.9370 C   0  0  0  0  0
  -51.2950   30.9450   22.7910 N   0  0  0  0  0
  -56.3670   34.6560   21.1220 C   0  0  0  0  0
  -58.5450   35.4950   20.2730 N   0  0  0  0  0
  -60.2850   36.7790   20.5590 N   0  0  0  0  0
  -59.3750   36.0300   21.2010 C   0  0  0  0  0
  -60.2840   36.3540   23.4090 N   0  0  0  0  0
  -61.4140   37.1940   22.9270 O   0  0  0  0  0
  -51.1605   32.5344   21.4250 H   0  0  0  0  0
  -52.5828   31.4419   21.2083 H   0  0  0  0  0
  -52.4297   32.9707   23.7453 H   0  0  0  0  0
  -53.8388   32.5743   22.7035 H   0  0  0  0  0
  -52.4792   34.2683   21.0746 H   0  0  0  0  0
  -52.0235   34.9294   22.6600 H   0  0  0  0  0
  -56.6764   36.0265   19.5222 H   0  0  0  0  0
  -57.0729   36.6642   21.1696 H   0  0  0  0  0
  -58.5612   35.2178   22.9576 H   0  0  0  0  0
  -60.5608   37.2650   18.4667 H   0  0  0  0  0
  -58.4482   35.7686   18.1195 H   0  0  0  0  0
  -49.7604   32.2578   23.5825 H   0  0  0  0  0
  -54.0269   36.0260   22.5296 H   0  0  0  0  0
  -54.7171   34.4631   23.0201 H   0  0  0  0  0
  -54.4602   34.0346   20.3579 H   0  0  0  0  0
  -54.7226   35.8114   20.3689 H   0  0  0  0  0
  -55.3321   27.0216   23.7420 H   0  0  0  0  0
  -53.3024   29.3525   21.8506 H   0  0  0  0  0
  -50.3675   31.1985   25.8916 H   0  0  0  0  0
  -56.6683   33.7182   20.6553 H   0  0  0  0  0
  -56.5889   34.6064   22.1880 H   0  0  0  0  0
  -61.9511   37.4656   23.6749 H   0  0  0  0  0
  2  1  1  0  0  0
  1 17  1  0  0  0
  3  2  1  0  0  0
 11  3  1  0  0  0
  4 13  1  0  0  0
 14  4  2  0  0  0
  5 18  1  0  0  0
 19  5  1  0  0  0
 21  6  1  0  0  0
  6 22  2  0  0  0
  8  7  4  0  0  0
  7 20  4  0  0  0
 19  8  4  0  0  0
  9 16  4  0  0  0
 17  9  4  0  0  0
 10 14  1  0  0  0
 10 15  4  0  0  0
 17 10  4  0  0  0
 12 11  1  0  0  0
 18 12  1  0  0  0
 15 16  4  0  0  0
 19 21  4  0  0  0
 20 21  4  0  0  0
 22 23  1  0  0  0
  1 24  1  0  0  0
  1 25  1  0  0  0
  2 26  1  0  0  0
  2 27  1  0  0  0
  3 28  1  0  0  0
  3 29  1  0  0  0
  5 30  1  0  0  0
  5 31  1  0  0  0
  6 32  1  0  0  0
  7 33  1  0  0  0
  8 34  1  0  0  0
  9 35  1  0  0  0
 11 36  1  0  0  0
 11 37  1  0  0  0
 12 38  1  0  0  0
 12 39  1  0  0  0
 13 40  1  0  0  0
 14 41  1  0  0  0
 16 42  1  0  0  0
 18 43  1  0  0  0
 18 44  1  0  0  0
 23 45  1  0  0  0
M  END
$$$$
