3cde_ligand
  -I-interpret- 

 58 61  0  0  0  0  0  0  0  0999 V2000
   97.1910    8.4740   51.0050 C   0  0  0  0  0
   96.3130    8.3060   61.2490 C   0  0  0  0  0
   98.2970    6.4460   50.7650 C   0  0  0  0  0
   95.0690    9.0170   59.2540 C   0  0  0  0  0
   95.7890    9.4020   61.9650 C   0  0  0  0  0
   96.8340    7.8460   52.1800 C   0  0  0  0  0
   95.9190    7.7600   54.6240 C   0  0  0  0  0
   94.4130    9.6170   55.1680 C   0  0  0  0  0
   90.6100    9.2730   52.2970 C   0  0  0  0  0
   93.8660   11.2450   53.3870 C   0  0  0  0  0
   92.0860    9.6850   52.2840 C   0  0  0  0  0
   95.7360    7.1320   63.9560 O   0  0  0  0  0
   96.3040    8.3730   64.4700 S   0  0  0  0  0
   95.9180    8.8660   65.7720 O   0  0  0  0  0
   98.0750    8.2330   64.5250 C   0  0  0  0  0
   96.1250    9.6520   63.3340 N   0  0  0  0  0
   94.9260   10.2980   61.3320 C   0  0  0  0  0
   95.9390    8.1300   59.9030 C   0  0  0  0  0
   96.5580    6.7540   58.9890 S   0  0  0  0  0
   97.9620    6.6410   59.3120 O   0  0  0  0  0
   95.6570    5.6390   59.2310 O   0  0  0  0  0
   96.3390    7.2290   57.3820 N   0  0  0  0  0
   95.3970    8.2320   57.0430 C   0  0  0  0  0
   94.6760    8.8910   57.9120 N   0  0  0  0  0
   94.5690   10.1110   59.9900 C   0  0  0  0  0
   95.2850    8.4810   55.5880 C   0  0  0  0  0
   96.4070    6.4850   54.8110 O   0  0  0  0  0
   93.6570   10.1720   55.9750 O   0  0  0  0  0
   94.5550   10.0610   53.8660 N   0  0  0  0  0
   92.3820   10.9410   53.1360 C   0  0  0  0  0
   92.5560    9.9070   50.8370 C   0  0  0  0  0
   95.3460    9.4620   52.9410 N   0  0  0  0  0
   96.0010    8.3910   53.2630 C   0  0  0  0  0
   97.5260    6.2840   52.2880 S   0  0  0  0  0
   98.0280    7.6640   50.1840 C   0  0  0  0  0
   96.8684    9.4793   50.7342 H   0  0  0  0  0
   96.9966    7.6063   61.7298 H   0  0  0  0  0
   98.9238    5.6778   50.3123 H   0  0  0  0  0
   90.3042    9.0542   53.3201 H   0  0  0  0  0
   90.0033   10.0875   51.9014 H   0  0  0  0  0
   90.4764    8.3853   51.6788 H   0  0  0  0  0
   94.3241   11.5666   52.4517 H   0  0  0  0  0
   93.9438   12.0286   54.1407 H   0  0  0  0  0
   92.6416    8.8650   52.7390 H   0  0  0  0  0
   98.3527    7.4064   65.1790 H   0  0  0  0  0
   98.4548    8.0466   63.5205 H   0  0  0  0  0
   98.4997    9.1604   64.9091 H   0  0  0  0  0
   96.2619   10.6141   63.6439 H   0  0  0  0  0
   94.5273   11.1484   61.8851 H   0  0  0  0  0
   96.8918    6.7882   56.6468 H   0  0  0  0  0
   93.8959   10.8205   59.5086 H   0  0  0  0  0
   96.8126    6.1763   53.9975 H   0  0  0  0  0
   91.9839   11.7901   52.5805 H   0  0  0  0  0
   91.9353   10.7614   54.1139 H   0  0  0  0  0
   92.4355    8.9831   50.2714 H   0  0  0  0  0
   91.9585   10.6953   50.3792 H   0  0  0  0  0
   93.6060   10.1994   50.8382 H   0  0  0  0  0
   98.4099    7.9727   49.2109 H   0  0  0  0  0
  6  1  4  0  0  0
  1 35  4  0  0  0
  2  5  4  0  0  0
 18  2  4  0  0  0
 34  3  4  0  0  0
  3 35  4  0  0  0
  4 18  4  0  0  0
 24  4  1  0  0  0
  4 25  4  0  0  0
  5 16  1  0  0  0
 17  5  4  0  0  0
 33  6  1  0  0  0
  6 34  4  0  0  0
 26  7  2  0  0  0
  7 27  1  0  0  0
  7 33  1  0  0  0
 26  8  1  0  0  0
  8 28  2  0  0  0
  8 29  1  0  0  0
 11  9  1  0  0  0
 29 10  1  0  0  0
 10 30  1  0  0  0
 30 11  1  0  0  0
 11 31  1  0  0  0
 13 12  2  0  0  0
 13 14  2  0  0  0
 13 15  1  0  0  0
 16 13  1  0  0  0
 25 17  4  0  0  0
 19 18  1  0  0  0
 19 20  2  0  0  0
 19 21  2  0  0  0
 22 19  1  0  0  0
 23 22  1  0  0  0
 23 24  2  0  0  0
 23 26  1  0  0  0
 29 32  1  0  0  0
 32 33  2  0  0  0
  1 36  1  0  0  0
  2 37  1  0  0  0
  3 38  1  0  0  0
  9 39  1  0  0  0
  9 40  1  0  0  0
  9 41  1  0  0  0
 10 42  1  0  0  0
 10 43  1  0  0  0
 11 44  1  0  0  0
 15 45  1  0  0  0
 15 46  1  0  0  0
 15 47  1  0  0  0
 16 48  1  0  0  0
 17 49  1  0  0  0
 22 50  1  0  0  0
 25 51  1  0  0  0
 27 52  1  0  0  0
 30 53  1  0  0  0
 30 54  1  0  0  0
 31 55  1  0  0  0
 31 56  1  0  0  0
 31 57  1  0  0  0
 35 58  1  0  0  0
M  END
$$$$
