3t4n_ligand
  -I-interpret- 

 42 44  0  0  0  0  0  0  0  0999 V2000
  -29.1960   64.4980   -0.4530 P   0  0  0  0  0
  -30.3820   65.1050    0.2520 O   0  0  0  0  0
  -27.9540   64.3820    0.3990 O   0  0  0  0  0
  -29.5270   63.2880   -1.2910 O   0  0  0  0  0
  -27.5150   65.4970   -2.5280 P   0  0  0  0  0
  -28.0350   65.7100   -3.9250 O   0  0  0  0  0
  -26.6860   64.2710   -2.2520 O   0  0  0  0  0
  -28.7840   65.6090   -1.5410 O   0  0  0  0  0
  -26.6500   66.7880   -2.1040 O   0  0  0  0  0
  -26.1000   66.9940   -0.7990 C   0  0  0  0  0
  -25.7910   68.4850   -0.6070 C   0  0  0  0  0
  -25.2160   69.0370   -1.8000 O   0  0  0  0  0
  -27.0240   69.3280   -0.3150 C   0  0  0  0  0
  -26.6700   70.3960    0.5710 O   0  0  0  0  0
  -27.4140   69.9030   -1.6630 C   0  0  0  0  0
  -28.0380   71.1860   -1.5620 O   0  0  0  0  0
  -26.0870   70.0000   -2.4020 C   0  0  0  0  0
  -26.2120   69.7010   -3.8520 N   0  0  0  0  0
  -27.0320   68.8070   -4.4520 C   0  0  0  0  0
  -26.8590   68.8150   -5.7970 N   0  0  0  0  0
  -25.9090   69.7300   -6.0670 C   0  0  0  0  0
  -25.2310   70.2450   -7.2770 C   0  0  0  0  0
  -25.5590   69.7650   -8.4970 N   0  0  0  0  0
  -24.2830   71.2030   -7.1180 N   0  0  0  0  0
  -23.9510   71.6960   -5.9070 C   0  0  0  0  0
  -24.5190   71.2710   -4.7630 N   0  0  0  0  0
  -25.4830   70.3110   -4.7840 C   0  0  0  0  0
  -27.2478   63.9886   -0.1187 H   0  0  0  0  0
  -28.7264   62.9590   -1.7063 H   0  0  0  0  0
  -28.5429   66.5241   -3.9555 H   0  0  0  0  0
  -25.1822   66.4153   -0.6948 H   0  0  0  0  0
  -26.8183   66.6707   -0.0456 H   0  0  0  0  0
  -25.1112   68.5216    0.2442 H   0  0  0  0  0
  -27.8270   68.7550    0.1487 H   0  0  0  0  0
  -27.4474   70.9281    0.7556 H   0  0  0  0  0
  -28.1535   69.2822   -2.1689 H   0  0  0  0  0
  -28.2629   71.5013   -2.4404 H   0  0  0  0  0
  -25.7092   71.0196   -2.3262 H   0  0  0  0  0
  -27.7378   68.1656   -3.9242 H   0  0  0  0  0
  -26.2762   69.0452   -8.5859 H   0  0  0  0  0
  -25.0894   70.1225   -9.3289 H   0  0  0  0  0
  -23.1887   72.4732   -5.8524 H   0  0  0  0  0
  1  2  2  0  0  0
  1  3  1  0  0  0
  1  4  1  0  0  0
  8  1  1  0  0  0
  5  6  1  0  0  0
  5  7  2  0  0  0
  5  8  1  0  0  0
  5  9  1  0  0  0
  9 10  1  0  0  0
 10 11  1  0  0  0
 11 12  1  0  0  0
 11 13  1  0  0  0
 12 17  1  0  0  0
 13 14  1  0  0  0
 13 15  1  0  0  0
 15 16  1  0  0  0
 15 17  1  0  0  0
 17 18  1  0  0  0
 18 19  4  0  0  0
 18 27  4  0  0  0
 19 20  4  0  0  0
 20 21  4  0  0  0
 21 22  4  0  0  0
 21 27  4  0  0  0
 22 23  1  0  0  0
 22 24  4  0  0  0
 24 25  4  0  0  0
 25 26  4  0  0  0
 26 27  4  0  0  0
  3 28  1  0  0  0
  4 29  1  0  0  0
  6 30  1  0  0  0
 10 31  1  0  0  0
 10 32  1  0  0  0
 11 33  1  0  0  0
 13 34  1  0  0  0
 14 35  1  0  0  0
 15 36  1  0  0  0
 16 37  1  0  0  0
 17 38  1  0  0  0
 19 39  1  0  0  0
 23 40  1  0  0  0
 23 41  1  0  0  0
 25 42  1  0  0  0
M  END
$$$$
