### 
### Created by X-TOOL on Mon Sep 10 21:13:07 2018
### 

@<TRIPOS>MOLECULE
3t4n_ligand
   39    41     1     0     0
SMALL
GAST_HUCK


@<TRIPOS>ATOM
      1 PB        -29.1960   64.4980   -0.4530 P.3       1 ADP         0.2069
      2 O1B       -30.3820   65.1050    0.2520 O.co2     1 ADP        -0.5891
      3 O2B       -27.9540   64.3820    0.3990 O.co2     1 ADP        -0.5891
      4 O3B       -29.5270   63.2880   -1.2910 O.co2     1 ADP        -0.5891
      5 PA        -27.5150   65.4970   -2.5280 P.3       1 ADP         0.3276
      6 O1A       -28.0350   65.7100   -3.9250 O.co2     1 ADP        -0.5556
      7 O2A       -26.6860   64.2710   -2.2520 O.co2     1 ADP        -0.5556
      8 O3A       -28.7840   65.6090   -1.5410 O.3       1 ADP        -0.1548
      9 O5'       -26.6500   66.7880   -2.1040 O.3       1 ADP        -0.2436
     10 C5'       -26.1000   66.9940   -0.7990 C.3       1 ADP         0.1132
     11 C4'       -25.7910   68.4850   -0.6070 C.3       1 ADP         0.1189
     12 O4'       -25.2160   69.0370   -1.8000 O.3       1 ADP        -0.3364
     13 C3'       -27.0240   69.3280   -0.3150 C.3       1 ADP         0.1149
     14 O3'       -26.6700   70.3960    0.5710 O.3       1 ADP        -0.3864
     15 C2'       -27.4140   69.9030   -1.6630 C.3       1 ADP         0.1385
     16 O2'       -28.0380   71.1860   -1.5620 O.3       1 ADP        -0.3836
     17 C1'       -26.0870   70.0000   -2.4020 C.3       1 ADP         0.2010
     18 N9        -26.2120   69.7010   -3.8520 N.pl3     1 ADP        -0.1919
     19 C8        -27.0320   68.8070   -4.4520 C.2       1 ADP         0.1123
     20 N7        -26.8590   68.8150   -5.7970 N.2       1 ADP        -0.2958
     21 C5        -25.9090   69.7300   -6.0670 C.ar      1 ADP         0.1045
     22 C6        -25.2310   70.2450   -7.2770 C.ar      1 ADP         0.1298
     23 N6        -25.5590   69.7650   -8.4970 N.pl3     1 ADP        -0.3152
     24 N1        -24.2830   71.2030   -7.1180 N.ar      1 ADP        -0.2698
     25 C2        -23.9510   71.6960   -5.9070 C.ar      1 ADP         0.0533
     26 N3        -24.5190   71.2710   -4.7630 N.ar      1 ADP        -0.2714
     27 C4        -25.4830   70.3110   -4.7840 C.ar      1 ADP         0.1613
     28 H         -25.1822   66.4153   -0.6948 H         1 ADP         0.0648
     29 H         -26.8183   66.6707   -0.0456 H         1 ADP         0.0648
     30 H         -25.1112   68.5216    0.2442 H         1 ADP         0.0651
     31 H         -27.8270   68.7550    0.1487 H         1 ADP         0.0648
     32 H         -27.4474   70.9281    0.7556 H         1 ADP         0.2100
     33 H         -28.1535   69.2822   -2.1689 H         1 ADP         0.0676
     34 H         -28.8359   71.1118   -1.0334 H         1 ADP         0.2101
     35 H         -25.7092   71.0196   -2.3262 H         1 ADP         0.0996
     36 H         -27.7378   68.1656   -3.9242 H         1 ADP         0.1349
     37 H         -26.2762   69.0452   -8.5859 H         1 ADP         0.1820
     38 H         -25.0894   70.1225   -9.3289 H         1 ADP         0.1820
     39 H         -23.1887   72.4732   -5.8524 H         1 ADP         0.0996
@<TRIPOS>BOND
     1    1    2 ar 
     2    1    3 ar 
     3    1    4 ar 
     4    8    1 1  
     5    5    6 ar 
     6    5    7 ar 
     7    5    8 1  
     8    5    9 1  
     9    9   10 1  
    10   10   11 1  
    11   11   12 1  
    12   11   13 1  
    13   12   17 1  
    14   13   14 1  
    15   13   15 1  
    16   15   16 1  
    17   15   17 1  
    18   17   18 1  
    19   18   19 1  
    20   18   27 1  
    21   19   20 2  
    22   20   21 1  
    23   21   22 ar 
    24   21   27 ar 
    25   22   23 1  
    26   22   24 ar 
    27   24   25 ar 
    28   25   26 ar 
    29   26   27 ar 
    30   10   28 1  
    31   10   29 1  
    32   11   30 1  
    33   13   31 1  
    34   14   32 1  
    35   15   33 1  
    36   16   34 1  
    37   17   35 1  
    38   19   36 1  
    39   23   37 1  
    40   23   38 1  
    41   25   39 1  
@<TRIPOS>SUBSTRUCTURE
     1 ADP         1

