5U4G_LIGAND
  -I-interpret- 

 32 33  0  0  0  0  0  0  0  0999 V2000
  -21.4750    0.9290  -20.5340 C   0  0  0  0  0
  -21.4350    1.8760  -21.5920 C   0  0  0  0  0
  -21.5060    1.4930  -22.9550 C   0  0  0  0  0
  -21.5980    0.1440  -23.4090 C   0  0  0  0  0
  -21.6500   -0.8250  -22.3680 C   0  0  0  0  0
  -21.5920   -0.4110  -21.0060 C   0  0  0  0  0
  -21.6730   -0.0980  -24.9250 C   0  0  0  0  0
  -20.9850    0.4670  -25.8400 C   0  0  0  0  0
  -21.1080    0.2000  -27.3440 C   0  0  0  0  0
  -20.3760    0.8230  -28.3880 C   0  0  0  0  0
  -20.4930    0.5760  -29.7940 C   0  0  0  0  0
  -21.4650   -0.4020  -30.1270 C   0  0  0  0  0
  -22.2400   -1.0640  -29.1510 C   0  0  0  0  0
  -22.0640   -0.7590  -27.7910 C   0  0  0  0  0
  -20.1550    1.8260  -32.1570 O   0  0  0  0  0
  -18.1470    1.5760  -30.7570 O   0  0  0  0  0
  -20.7400    0.4380  -17.9580 O   0  0  0  0  0
  -21.7750   -2.5560  -22.7300 Cl  0  0  0  0  0
  -19.5610    1.3630  -30.9590 B   0  0  0  0  0
  -21.4420    1.2410  -18.8810 B   0  0  0  0  0
  -21.3466    2.9345  -21.3472 H   0  0  0  0  0
  -21.4892    2.2824  -23.7065 H   0  0  0  0  0
  -21.6420   -1.1956  -20.2510 H   0  0  0  0  0
  -22.3992   -0.8394  -25.2581 H   0  0  0  0  0
  -20.2459    1.2032  -25.5240 H   0  0  0  0  0
  -19.6439    1.5722  -28.0866 H   0  0  0  0  0
  -21.6192   -0.6517  -31.1768 H   0  0  0  0  0
  -22.9744   -1.8111  -29.4520 H   0  0  0  0  0
  -22.6791   -1.2729  -27.0523 H   0  0  0  0  0
  -19.4864    2.2464  -32.7027 H   0  0  0  0  0
  -17.7820    2.0354  -31.5168 H   0  0  0  0  0
  -20.8546    0.7940  -17.0738 H   0  0  0  0  0
  1  2  4  0  0  0
  1  6  4  0  0  0
  1 20  1  0  0  0
  2  3  4  0  0  0
  3  4  4  0  0  0
  4  5  4  0  0  0
  4  7  1  0  0  0
  5  6  4  0  0  0
  5 18  1  0  0  0
  7  8  2  0  0  0
  8  9  1  0  0  0
  9 10  4  0  0  0
  9 14  4  0  0  0
 10 11  4  0  0  0
 11 12  4  0  0  0
 11 19  1  0  0  0
 12 13  4  0  0  0
 13 14  4  0  0  0
 19 15  1  0  0  0
 19 16  1  0  0  0
 20 17  1  0  0  0
  2 21  1  0  0  0
  3 22  1  0  0  0
  6 23  1  0  0  0
  7 24  1  0  0  0
  8 25  1  0  0  0
 10 26  1  0  0  0
 12 27  1  0  0  0
 13 28  1  0  0  0
 14 29  1  0  0  0
 15 30  1  0  0  0
 16 31  1  0  0  0
 17 32  1  0  0  0
M  END
$$$$
