### 
### Created by X-TOOL on Mon Sep 10 21:13:32 2018
### 

@<TRIPOS>MOLECULE
5U4G_LIGAND
   32    33     1     0     0
SMALL
GAST_HUCK


@<TRIPOS>ATOM
      1 C01       -21.4750    0.9290  -20.5340 C.ar      1 7UV        -0.1158
      2 C02       -21.4350    1.8760  -21.5920 C.ar      1 7UV        -0.1260
      3 C03       -21.5060    1.4930  -22.9550 C.ar      1 7UV        -0.1356
      4 C04       -21.5980    0.1440  -23.4090 C.ar      1 7UV        -0.1624
      5 C05       -21.6500   -0.8250  -22.3680 C.ar      1 7UV        -0.0378
      6 C06       -21.5920   -0.4110  -21.0060 C.ar      1 7UV        -0.1133
      7 C07       -21.6730   -0.0980  -24.9250 C.2       1 7UV        -0.2459
      8 C08       -20.9850    0.4670  -25.8400 C.2       1 7UV        -0.2462
      9 C09       -21.1080    0.2000  -27.3440 C.ar      1 7UV        -0.1747
     10 C10       -20.3760    0.8230  -28.3880 C.ar      1 7UV        -0.1299
     11 C11       -20.4930    0.5760  -29.7940 C.ar      1 7UV        -0.0975
     12 C12       -21.4650   -0.4020  -30.1270 C.ar      1 7UV        -0.1196
     13 C13       -22.2400   -1.0640  -29.1510 C.ar      1 7UV        -0.1261
     14 C14       -22.0640   -0.7590  -27.7910 C.ar      1 7UV        -0.1359
     15 O01       -20.1550    1.8260  -32.1570 O.3       1 7UV        -0.8710
     16 O02       -18.1470    1.5760  -30.7570 O.3       1 7UV        -0.8710
     17 O04       -20.7400    0.4380  -17.9580 O.3       1 7UV        -0.8710
     18 CL01      -21.7750   -2.5560  -22.7300 Cl        1 7UV        -0.1185
     19 B01       -19.5610    1.3630  -30.9590 B         1 7UV         3.0000
     20 B02       -21.4420    1.2410  -18.8810 B         1 7UV         2.0000
     21 H         -21.3466    2.9345  -21.3472 H         1 7UV         0.0432
     22 H         -21.4892    2.2824  -23.7065 H         1 7UV         0.0181
     23 H         -21.6420   -1.1956  -20.2510 H         1 7UV         0.0443
     24 H         -22.3992   -0.8394  -25.2581 H         1 7UV        -0.0545
     25 H         -20.2459    1.2032  -25.5240 H         1 7UV        -0.0552
     26 H         -19.6439    1.5722  -28.0866 H         1 7UV         0.0180
     27 H         -21.6192   -0.6517  -31.1768 H         1 7UV         0.0105
     28 H         -22.9744   -1.8111  -29.4520 H         1 7UV         0.0434
     29 H         -22.6791   -1.2729  -27.0523 H         1 7UV         0.0174
     30 H         -20.0401    2.7768  -32.2232 H         1 7UV        -0.1290
     31 H         -17.9609    2.5176  -30.7729 H         1 7UV        -0.1290
     32 H         -20.8546    0.7940  -17.0738 H         1 7UV        -0.1290
@<TRIPOS>BOND
     1    1    2 ar 
     2    1    6 ar 
     3    1   20 1  
     4    2    3 ar 
     5    3    4 ar 
     6    4    5 ar 
     7    4    7 1  
     8    5    6 ar 
     9    5   18 1  
    10    7    8 2  
    11    8    9 1  
    12    9   10 ar 
    13    9   14 ar 
    14   10   11 ar 
    15   11   12 ar 
    16   11   19 1  
    17   12   13 ar 
    18   13   14 ar 
    19   19   15 1  
    20   19   16 1  
    21   20   17 1  
    22    2   21 1  
    23    3   22 1  
    24    6   23 1  
    25    7   24 1  
    26    8   25 1  
    27   10   26 1  
    28   12   27 1  
    29   13   28 1  
    30   14   29 1  
    31   15   30 1  
    32   16   31 1  
    33   17   32 1  
@<TRIPOS>SUBSTRUCTURE
     1 7UV         1

