3ezv_ligand
  -I-interpret- 

 56 61  0  0  0  0  0  0  0  0999 V2000
   -1.3570   30.1410   10.0370 C   0  0  0  0  0
   -1.8950   31.4030    9.9820 C   0  0  0  0  0
   -1.3610   32.3680    9.1600 C   0  0  0  0  0
   -0.2810   31.9710    8.4140 C   0  0  0  0  0
    0.2860   30.7150    8.4700 C   0  0  0  0  0
   -0.2600   29.7550    9.3020 C   0  0  0  0  0
    0.4700   32.6760    7.5210 N   0  0  0  0  0
    1.4840   31.9770    6.9900 N   0  0  0  0  0
    1.3760   30.7730    7.5670 C   0  0  0  0  0
    2.3430   29.6880    7.2960 C   0  0  0  0  0
    3.3510   29.7990    6.4670 N   0  0  0  0  0
    4.0040   28.5970    6.5060 C   0  0  0  0  0
    3.3820   27.7380    7.3830 C   0  0  0  0  0
    2.3320   28.4520    7.8750 N   0  0  0  0  0
    5.1290   28.1940    5.8110 C   0  0  0  0  0
    5.5590   26.9120    6.0560 C   0  0  0  0  0
    4.9190   26.0740    6.9370 C   0  0  0  0  0
    3.8010   26.4550    7.6380 C   0  0  0  0  0
   -2.9750   31.7610   10.8590 C   0  0  0  0  0
    3.1440   25.6050    8.5300 N   0  0  0  0  0
    2.9180   26.3300    9.7550 C   0  0  0  0  0
    2.0220   25.4640   10.6060 C   0  0  0  0  0
    2.7380   24.1820   10.8440 N   0  3  0  0  0
    3.1180   23.4600    9.6020 C   0  0  0  0  0
    3.9120   24.3960    8.7210 C   0  0  0  0  0
    1.9710   23.3080   11.7600 C   0  0  0  0  0
   -3.9780   30.8940   11.2230 C   0  0  0  0  0
   -4.9490   31.2940   12.1130 C   0  0  0  0  0
   -4.9360   32.5620   12.6500 C   0  0  0  0  0
   -3.9340   33.4320   12.2830 C   0  0  0  0  0
   -2.9620   33.0240   11.4020 C   0  0  0  0  0
   -5.9220   32.9760   13.5650 N   0  0  0  0  0
   -1.8224   29.4082   10.6961 H   0  0  0  0  0
   -1.7679   33.3777    9.1054 H   0  0  0  0  0
    0.1552   28.7496    9.3716 H   0  0  0  0  0
    5.6435   28.8528    5.1115 H   0  0  0  0  0
    6.4415   26.5459    5.5314 H   0  0  0  0  0
    5.3135   25.0688    7.0852 H   0  0  0  0  0
    2.4536   27.2960    9.5569 H   0  0  0  0  0
    3.8587   26.5378   10.2648 H   0  0  0  0  0
    1.0732   25.2836   10.1008 H   0  0  0  0  0
    1.7990   25.9583   11.5515 H   0  0  0  0  0
    3.6191   24.4361   11.2906 H   0  0  0  0  0
    2.2218   23.1289    9.0774 H   0  0  0  0  0
    3.7201   22.5863    9.8512 H   0  0  0  0  0
    4.8665   24.6312    9.1919 H   0  0  0  0  0
    4.1097   23.9241    7.7586 H   0  0  0  0  0
    1.8346   23.8154   12.7150 H   0  0  0  0  0
    0.9976   23.0891   11.3211 H   0  0  0  0  0
    2.5180   22.3782   11.9160 H   0  0  0  0  0
   -4.0044   29.8873   10.8058 H   0  0  0  0  0
   -5.7385   30.5980   12.3964 H   0  0  0  0  0
   -3.9120   34.4426   12.6907 H   0  0  0  0  0
   -2.1649   33.7152   11.1281 H   0  0  0  0  0
   -6.6636   32.3325   13.8415 H   0  0  0  0  0
   -5.8950   33.9195   13.9516 H   0  0  0  0  0
  1  2  4  0  0  0
  1  6  4  0  0  0
  2  3  4  0  0  0
  2 19  1  0  0  0
  3  4  4  0  0  0
  4  5  4  0  0  0
  4  7  4  0  0  0
  5  6  4  0  0  0
  5  9  4  0  0  0
  7  8  4  0  0  0
  8  9  4  0  0  0
  9 10  1  0  0  0
 10 11  4  0  0  0
 10 14  4  0  0  0
 11 12  4  0  0  0
 12 13  4  0  0  0
 12 15  4  0  0  0
 13 14  4  0  0  0
 13 18  4  0  0  0
 15 16  4  0  0  0
 16 17  4  0  0  0
 17 18  4  0  0  0
 18 20  1  0  0  0
 19 27  4  0  0  0
 19 31  4  0  0  0
 20 21  1  0  0  0
 20 25  1  0  0  0
 21 22  1  0  0  0
 22 23  1  0  0  0
 23 24  1  0  0  0
 23 26  1  0  0  0
 24 25  1  0  0  0
 27 28  4  0  0  0
 28 29  4  0  0  0
 29 30  4  0  0  0
 29 32  1  0  0  0
 30 31  4  0  0  0
  1 33  1  0  0  0
  3 34  1  0  0  0
  6 35  1  0  0  0
 15 36  1  0  0  0
 16 37  1  0  0  0
 17 38  1  0  0  0
 21 39  1  0  0  0
 21 40  1  0  0  0
 22 41  1  0  0  0
 22 42  1  0  0  0
 23 43  1  0  0  0
 24 44  1  0  0  0
 24 45  1  0  0  0
 25 46  1  0  0  0
 25 47  1  0  0  0
 26 48  1  0  0  0
 26 49  1  0  0  0
 26 50  1  0  0  0
 27 51  1  0  0  0
 28 52  1  0  0  0
 30 53  1  0  0  0
 31 54  1  0  0  0
 32 55  1  0  0  0
 32 56  1  0  0  0
M  END
$$$$
