4bs5_ligand
  -I-interpret- 

 45 47  0  0  0  0  0  0  0  0999 V2000
   -4.6520   -3.4170   24.2130 F   0  0  0  0  0
   -5.1890   -3.6500   25.3950 C   0  0  0  0  0
   -5.8490   -2.5660   25.7380 F   0  0  0  0  0
   -4.2190   -3.8010   26.2770 F   0  0  0  0  0
   -6.1340   -4.8380   25.3250 C   0  0  0  0  0
   -7.5470   -4.6330   25.3310 C   0  0  0  0  0
   -8.4250   -5.6890   25.2330 C   0  0  0  0  0
   -7.9930   -6.9780   25.1830 C   0  0  0  0  0
   -6.6190   -7.2120   25.1830 C   0  0  0  0  0
   -5.6400   -6.1850   25.2560 C   0  0  0  0  0
   -4.0460   -6.6840   25.1960 S   0  0  0  0  0
   -3.2770   -5.8010   24.3780 O   0  0  0  0  0
   -4.0890   -8.0490   24.7740 O   0  0  0  0  0
   -3.4650   -6.6810   26.8030 C   0  0  0  0  0
   -4.2380   -7.5480   27.8190 C   0  0  0  0  0
   -3.3030   -8.5670   28.2830 N   0  3  0  0  0
   -2.2050   -8.6850   27.3220 C   0  0  0  0  0
   -2.0450   -7.2620   26.8210 C   0  0  0  0  0
   -0.9380   -9.3090   27.8210 C   0  0  0  0  0
   -0.4980   -9.0400   28.9290 O   0  0  0  0  0
   -0.3970  -10.1650   26.9730 N   0  0  0  0  0
    0.8090  -10.9190   27.2620 C   0  0  0  0  0
    0.7280  -12.4140   27.0220 C   0  0  0  0  0
    0.7410  -11.8970   28.4590 C   0  0  0  0  0
    2.1390  -10.2010   27.0420 C   0  0  0  0  0
    3.2500  -10.7820   27.2300 N   0  0  0  0  0
   -7.9388   -3.6193   25.4149 H   0  0  0  0  0
   -9.4954   -5.4867   25.1944 H   0  0  0  0  0
   -8.7019   -7.8051   25.1440 H   0  0  0  0  0
   -6.2750   -8.2446   25.1234 H   0  0  0  0  0
   -3.5587   -5.6371   27.1025 H   0  0  0  0  0
   -5.1159   -8.0018   27.3592 H   0  0  0  0  0
   -4.6048   -6.9451   28.6498 H   0  0  0  0  0
   -3.7847   -9.4624   28.3644 H   0  0  0  0  0
   -2.9325   -8.3019   29.1956 H   0  0  0  0  0
   -2.4447   -9.4020   26.5367 H   0  0  0  0  0
   -1.3809   -6.6820   27.4618 H   0  0  0  0  0
   -1.5854   -7.2324   25.8331 H   0  0  0  0  0
   -0.8496  -10.3031   26.0694 H   0  0  0  0  0
    1.2475  -13.1668   26.4291 H   0  0  0  0  0
    0.1410  -13.1049   26.4168 H   0  0  0  0  0
    0.1850  -12.0270   29.3875 H   0  0  0  0  0
    1.2584  -12.0870   29.3994 H   0  0  0  0  0
    2.1328   -9.1613   26.7146 H   0  0  0  0  0
    3.2715  -11.7547   27.5364 H   0  0  0  0  0
  1  2  1  0  0  0
  2  3  1  0  0  0
  2  4  1  0  0  0
  2  5  1  0  0  0
  5  6  4  0  0  0
  5 10  4  0  0  0
  6  7  4  0  0  0
  7  8  4  0  0  0
  8  9  4  0  0  0
  9 10  4  0  0  0
 10 11  1  0  0  0
 11 12  2  0  0  0
 11 13  2  0  0  0
 11 14  1  0  0  0
 14 15  1  0  0  0
 14 18  1  0  0  0
 15 16  1  0  0  0
 16 17  1  0  0  0
 17 18  1  0  0  0
 17 19  1  0  0  0
 19 20  2  0  0  0
 19 21  1  0  0  0
 21 22  1  0  0  0
 22 23  1  0  0  0
 22 24  1  0  0  0
 22 25  1  0  0  0
 23 24  1  0  0  0
 25 26  2  0  0  0
  6 27  1  0  0  0
  7 28  1  0  0  0
  8 29  1  0  0  0
  9 30  1  0  0  0
 14 31  1  0  0  0
 15 32  1  0  0  0
 15 33  1  0  0  0
 16 34  1  0  0  0
 16 35  1  0  0  0
 17 36  1  0  0  0
 18 37  1  0  0  0
 18 38  1  0  0  0
 21 39  1  0  0  0
 23 40  1  0  0  0
 23 41  1  0  0  0
 24 42  1  0  0  0
 24 43  1  0  0  0
 25 44  1  0  0  0
 26 45  1  0  0  0
M  END
$$$$
