### 
### Created by X-TOOL on Mon Sep 10 21:13:14 2018
### 

@<TRIPOS>MOLECULE
4bs5_ligand
   45    47     1     0     0
SMALL
GAST_HUCK


@<TRIPOS>ATOM
      1 F22        -4.6520   -3.4170   24.2130 F         1 MG2        -0.2199
      2 C5         -5.1890   -3.6500   25.3950 C.3       1 MG2         0.3789
      3 F20        -5.8490   -2.5660   25.7380 F         1 MG2        -0.2199
      4 F21        -4.2190   -3.8010   26.2770 F         1 MG2        -0.2199
      5 C3         -6.1340   -4.8380   25.3250 C.ar      1 MG2         0.0731
      6 C23        -7.5470   -4.6330   25.3310 C.ar      1 MG2        -0.0296
      7 C25        -8.4250   -5.6890   25.2330 C.ar      1 MG2        -0.0320
      8 C26        -7.9930   -6.9780   25.1830 C.ar      1 MG2        -0.0321
      9 C24        -6.6190   -7.2120   25.1830 C.ar      1 MG2        -0.0071
     10 C4         -5.6400   -6.1850   25.2560 C.ar      1 MG2         0.1192
     11 S1         -4.0460   -6.6840   25.1960 S.o2      1 MG2         0.0167
     12 O14        -3.2770   -5.8010   24.3780 O.2       1 MG2        -0.1655
     13 O15        -4.0890   -8.0490   24.7740 O.2       1 MG2        -0.1655
     14 C2         -3.4650   -6.6810   26.8030 C.3       1 MG2         0.1320
     15 C16        -4.2380   -7.5480   27.8190 C.3       1 MG2        -0.0078
     16 N9         -3.3030   -8.5670   28.2830 N.4       1 MG2         0.2475
     17 C10        -2.2050   -8.6850   27.3220 C.3       1 MG2         0.0681
     18 C8         -2.0450   -7.2620   26.8210 C.3       1 MG2         0.0358
     19 C7         -0.9380   -9.3090   27.8210 C.2       1 MG2         0.2197
     20 O19        -0.4980   -9.0400   28.9290 O.2       1 MG2        -0.3914
     21 N11        -0.3970  -10.1650   26.9730 N.am      1 MG2        -0.2928
     22 C6          0.8090  -10.9190   27.2620 C.3       1 MG2         0.0784
     23 C18         0.7280  -12.4140   27.0220 C.3       1 MG2        -0.0407
     24 C17         0.7410  -11.8970   28.4590 C.3       1 MG2        -0.0407
     25 C12         2.1390  -10.2010   27.0420 C.2       1 MG2         0.0437
     26 N13         3.2500  -10.7820   27.2300 N.2       1 MG2        -0.2686
     27 H1         -7.9366   -3.6249   25.4145 H         1 MG2         0.0853
     28 H2         -9.4895   -5.4878   25.1946 H         1 MG2         0.0698
     29 H3         -8.6980   -7.8005   25.1442 H         1 MG2         0.0856
     30 H4         -6.2769   -8.2389   25.1238 H         1 MG2         0.0717
     31 H5         -3.4579   -5.6398   27.1579 H         1 MG2         0.0601
     32 H6         -5.1058   -8.0196   27.3348 H         1 MG2         0.0833
     33 H7         -4.5795   -6.9316   28.6637 H         1 MG2         0.0833
     34 H8         -3.7796   -9.4518   28.3608 H         1 MG2         0.2036
     35 H9         -2.9358   -8.3028   29.1838 H         1 MG2         0.2036
     36 H10        -2.5453   -9.3161   26.4878 H         1 MG2         0.1099
     37 H11        -1.4002   -6.6842   27.4995 H         1 MG2         0.0366
     38 H12        -1.6124   -7.2553   25.8097 H         1 MG2         0.0366
     39 H13        -0.8407  -10.3004   26.0871 H         1 MG2         0.1776
     40 H14         1.6019  -12.9526   26.6267 H         1 MG2         0.0220
     41 H15        -0.1915  -12.8522   26.6068 H         1 MG2         0.0220
     42 H16        -0.1686  -11.9540   29.0749 H         1 MG2         0.0220
     43 H17         1.6248  -12.0544   29.0948 H         1 MG2         0.0220
     44 H18         2.1328   -9.1623   26.7149 H         1 MG2         0.1090
     45 H19         4.1121  -10.2827   27.0767 H         1 MG2         0.2165
@<TRIPOS>BOND
     1    1    2 1  
     2    2    3 1  
     3    2    4 1  
     4    2    5 1  
     5    5    6 ar 
     6    5   10 ar 
     7    6    7 ar 
     8    7    8 ar 
     9    8    9 ar 
    10    9   10 ar 
    11   10   11 1  
    12   11   12 2  
    13   11   13 2  
    14   11   14 1  
    15   14   15 1  
    16   14   18 1  
    17   15   16 1  
    18   16   17 1  
    19   17   18 1  
    20   17   19 1  
    21   19   20 2  
    22   19   21 am 
    23   21   22 1  
    24   22   23 1  
    25   22   24 1  
    26   22   25 1  
    27   23   24 1  
    28   25   26 2  
    29    6   27 1  
    30    7   28 1  
    31    8   29 1  
    32    9   30 1  
    33   14   31 1  
    34   15   32 1  
    35   15   33 1  
    36   16   34 1  
    37   16   35 1  
    38   17   36 1  
    39   18   37 1  
    40   18   38 1  
    41   21   39 1  
    42   23   40 1  
    43   23   41 1  
    44   24   42 1  
    45   24   43 1  
    46   25   44 1  
    47   26   45 1  
@<TRIPOS>SUBSTRUCTURE
     1 MG2         1

