1olu_ligand
  -I-interpret- 

 45 46  0  0  0  0  0  0  0  0999 V2000
   77.0790    0.5310   11.4280 N   0  0  0  0  0
   77.3800    1.7710   11.9270 C   0  0  0  0  0
   77.5030    1.8960   13.4600 C   0  0  0  0  0
   77.5600    2.8440   11.1510 N   0  0  0  0  0
   77.4350    2.6700    9.7750 C   0  0  0  0  0
   77.6240    3.8330    9.0130 N   0  0  0  0  0
   77.1310    1.3890    9.1570 C   0  0  0  0  0
   76.9590    0.3330   10.0860 C   0  0  0  0  0
   77.0060    1.1980    7.6330 C   0  0  0  0  0
   75.7670    1.7700    7.1130 N   0  3  0  0  0
   75.7300    3.0240    6.5200 C   0  0  0  0  0
   74.0750    3.4240    6.0280 S   0  0  0  0  0
   73.4920    1.8830    6.6380 C   0  0  0  0  0
   74.4460    1.0630    7.1880 C   0  0  0  0  0
   74.2670   -0.3480    7.7960 C   0  0  0  0  0
   72.0000    1.7180    6.4750 C   0  0  0  0  0
   71.2530    2.7750    7.3400 C   0  0  0  0  0
   69.8500    2.4930    7.2950 O   0  0  0  0  0
   68.8300    3.5820    7.7370 P   0  0  0  0  0
   68.8400    4.7800    6.7130 O   0  0  0  0  0
   69.1910    4.0700    9.1150 O   0  0  0  0  0
   67.4920    2.9380    7.7290 O   0  0  0  0  0
   68.5510    4.9380    5.1320 P   0  0  0  0  0
   67.9730    6.3530    4.9750 O   0  0  0  0  0
   69.9150    4.8070    4.5000 O   0  0  0  0  0
   67.5900    3.9370    4.6300 O   0  0  0  0  0
   76.5576    1.6137   13.9233 H   0  0  0  0  0
   78.2944    1.2358   13.8148 H   0  0  0  0  0
   77.7436    2.9266   13.7211 H   0  0  0  0  0
   77.8353    4.7171    9.4757 H   0  0  0  0  0
   77.5501    3.7943    7.9964 H   0  0  0  0  0
   76.7242   -0.6652    9.7164 H   0  0  0  0  0
   77.0044    0.1288    7.4213 H   0  0  0  0  0
   77.8440    1.7052    7.1549 H   0  0  0  0  0
   76.5956    3.6709    6.3771 H   0  0  0  0  0
   74.8774   -1.0611    7.2420 H   0  0  0  0  0
   74.5794   -0.3346    8.8402 H   0  0  0  0  0
   73.2185   -0.6391    7.7328 H   0  0  0  0  0
   71.7111    0.7184    6.7996 H   0  0  0  0  0
   71.7349    1.8584    5.4271 H   0  0  0  0  0
   71.4433    3.7750    6.9503 H   0  0  0  0  0
   71.6078    2.7298    8.3696 H   0  0  0  0  0
   70.0584    4.4807    9.0908 H   0  0  0  0  0
   68.6065    6.9946    5.3046 H   0  0  0  0  0
   70.4990    5.4786    4.8599 H   0  0  0  0  0
  1  2  4  0  0  0
  1  8  4  0  0  0
  2  3  1  0  0  0
  2  4  4  0  0  0
  4  5  4  0  0  0
  5  6  1  0  0  0
  5  7  4  0  0  0
  7  8  4  0  0  0
  7  9  1  0  0  0
  9 10  1  0  0  0
 10 11  4  0  0  0
 10 14  4  0  0  0
 11 12  4  0  0  0
 12 13  4  0  0  0
 13 14  4  0  0  0
 13 16  1  0  0  0
 14 15  1  0  0  0
 16 17  1  0  0  0
 17 18  1  0  0  0
 18 19  1  0  0  0
 19 20  1  0  0  0
 19 21  1  0  0  0
 19 22  2  0  0  0
 20 23  1  0  0  0
 23 24  1  0  0  0
 23 25  1  0  0  0
 23 26  2  0  0  0
  3 27  1  0  0  0
  3 28  1  0  0  0
  3 29  1  0  0  0
  6 30  1  0  0  0
  6 31  1  0  0  0
  8 32  1  0  0  0
  9 33  1  0  0  0
  9 34  1  0  0  0
 11 35  1  0  0  0
 15 36  1  0  0  0
 15 37  1  0  0  0
 15 38  1  0  0  0
 16 39  1  0  0  0
 16 40  1  0  0  0
 17 41  1  0  0  0
 17 42  1  0  0  0
 21 43  1  0  0  0
 24 44  1  0  0  0
 25 45  1  0  0  0
M  END
$$$$
