1fki_ligand
  -I-interpret- 

 70 71  0  0  0  0  0  0  0  0999 V2000
    8.2000  -38.3720    0.8770 N   0  0  0  0  0
    8.7830  -39.3840    1.5490 C   0  0  0  0  0
    9.4950  -39.1460    2.5420 O   0  0  0  0  0
    8.5570  -40.8410    1.1260 C   0  0  0  0  0
    9.0030  -41.2190    0.0390 O   0  0  0  0  0
    7.7510  -41.8170    2.0150 C   0  0  0  0  0
    7.0980  -42.9360    1.2220 C   0  0  0  0  0
    6.3130  -42.2040    0.2750 O   0  0  0  0  0
    5.4490  -42.8090   -0.5010 C   0  0  0  0  0
    5.3030  -44.0240   -0.4610 O   0  0  0  0  0
    4.7200  -41.9230   -1.4770 C   0  0  0  0  0
    3.4010  -42.4600   -1.9570 C   0  0  0  0  0
    2.8310  -41.5560   -3.0580 C   0  0  0  0  0
    2.1900  -40.2620   -2.5340 C   0  0  0  0  0
    1.3740  -40.4380   -1.2610 C   0  0  0  0  0
    1.1280  -39.0910   -0.6270 C   0  0  0  0  0
    2.3130  -38.6720    0.2170 C   0  0  0  0  0
    2.0550  -37.2730    0.7520 C   0  0  0  0  0
    3.2960  -36.7250    1.4300 C   0  0  0  0  0
    3.6950  -37.5120    2.6810 C   0  0  0  0  0
    4.9390  -36.9370    3.3450 C   0  0  0  0  0
    6.0730  -37.3520    2.5180 O   0  0  0  0  0
    7.0910  -36.5260    2.2580 C   0  0  0  0  0
    7.1310  -35.3720    2.6740 O   0  0  0  0  0
    8.2580  -37.0160    1.4190 C   0  0  0  0  0
    8.4830  -36.0780    0.2490 C   0  0  0  0  0
    7.4650  -36.2330   -0.8490 C   0  0  0  0  0
    7.3910  -37.6910   -1.2560 C   0  0  0  0  0
    7.0810  -38.5700   -0.0560 C   0  0  0  0  0
    6.5810  -41.1270    2.7740 C   0  0  0  0  0
    8.6630  -42.4620    3.0960 C   0  0  0  0  0
    6.5108  -43.6178    1.8371 H   0  0  0  0  0
    7.8144  -43.6146    0.7590 H   0  0  0  0  0
    5.3596  -41.8273   -2.3544 H   0  0  0  0  0
    4.5096  -40.9881   -0.9577 H   0  0  0  0  0
    2.7018  -42.4892   -1.1213 H   0  0  0  0  0
    3.5484  -43.4625   -2.3587 H   0  0  0  0  0
    2.0502  -42.1203   -3.5679 H   0  0  0  0  0
    3.6617  -41.2677   -3.7021 H   0  0  0  0  0
    1.5074  -39.9068   -3.3060 H   0  0  0  0  0
    3.0021  -39.5730   -2.3017 H   0  0  0  0  0
    1.9225  -41.0716   -0.5640 H   0  0  0  0  0
    0.4189  -40.9035   -1.5045 H   0  0  0  0  0
    0.2470  -39.1577    0.0113 H   0  0  0  0  0
    0.9782  -38.3529   -1.4150 H   0  0  0  0  0
    3.2201  -38.6773   -0.3873 H   0  0  0  0  0
    2.4441  -39.3683    1.0453 H   0  0  0  0  0
    1.2445  -37.3165    1.4795 H   0  0  0  0  0
    1.7885  -36.6201   -0.0791 H   0  0  0  0  0
    3.0805  -35.7017    1.7375 H   0  0  0  0  0
    4.1193  -36.7941    0.7190 H   0  0  0  0  0
    3.9112  -38.5380    2.3833 H   0  0  0  0  0
    2.8724  -37.4579    3.3941 H   0  0  0  0  0
    5.0434  -37.3026    4.3665 H   0  0  0  0  0
    4.8805  -35.8508    3.4146 H   0  0  0  0  0
    9.0705  -37.0325    2.1454 H   0  0  0  0  0
    9.4599  -36.3110   -0.1746 H   0  0  0  0  0
    8.4050  -35.0585    0.6267 H   0  0  0  0  0
    7.7568  -35.6275   -1.7071 H   0  0  0  0  0
    6.4893  -35.9021   -0.4932 H   0  0  0  0  0
    8.3534  -37.9896   -1.6716 H   0  0  0  0  0
    6.5978  -37.8105   -1.9940 H   0  0  0  0  0
    6.1285  -38.3006    0.4004 H   0  0  0  0  0
    6.9815  -39.6167   -0.3433 H   0  0  0  0  0
    6.0335  -41.8728    3.3503 H   0  0  0  0  0
    6.9828  -40.3692    3.4467 H   0  0  0  0  0
    5.9100  -40.6573    2.0548 H   0  0  0  0  0
    9.0366  -41.6862    3.7643 H   0  0  0  0  0
    8.0874  -43.1898    3.6680 H   0  0  0  0  0
    9.5022  -42.9607    2.6111 H   0  0  0  0  0
  1 29  1  0  0  0
  1 25  1  0  0  0
  1  2  1  0  0  0
  2  4  1  0  0  0
  2  3  2  0  0  0
  4  6  1  0  0  0
  4  5  2  0  0  0
  6 31  1  0  0  0
  6 30  1  0  0  0
  6  7  1  0  0  0
  7  8  1  0  0  0
  8  9  1  0  0  0
  9 11  1  0  0  0
  9 10  2  0  0  0
 11 12  1  0  0  0
 12 13  1  0  0  0
 13 14  1  0  0  0
 14 15  1  0  0  0
 15 16  1  0  0  0
 16 17  1  0  0  0
 17 18  1  0  0  0
 18 19  1  0  0  0
 19 20  1  0  0  0
 20 21  1  0  0  0
 21 22  1  0  0  0
 22 23  1  0  0  0
 25 23  1  0  0  0
 23 24  2  0  0  0
 25 26  1  0  0  0
 26 27  1  0  0  0
 27 28  1  0  0  0
 28 29  1  0  0  0
  7 32  1  0  0  0
  7 33  1  0  0  0
 11 34  1  0  0  0
 11 35  1  0  0  0
 12 36  1  0  0  0
 12 37  1  0  0  0
 13 38  1  0  0  0
 13 39  1  0  0  0
 14 40  1  0  0  0
 14 41  1  0  0  0
 15 42  1  0  0  0
 15 43  1  0  0  0
 16 44  1  0  0  0
 16 45  1  0  0  0
 17 46  1  0  0  0
 17 47  1  0  0  0
 18 48  1  0  0  0
 18 49  1  0  0  0
 19 50  1  0  0  0
 19 51  1  0  0  0
 20 52  1  0  0  0
 20 53  1  0  0  0
 21 54  1  0  0  0
 21 55  1  0  0  0
 25 56  1  0  0  0
 26 57  1  0  0  0
 26 58  1  0  0  0
 27 59  1  0  0  0
 27 60  1  0  0  0
 28 61  1  0  0  0
 28 62  1  0  0  0
 29 63  1  0  0  0
 29 64  1  0  0  0
 30 65  1  0  0  0
 30 66  1  0  0  0
 30 67  1  0  0  0
 31 68  1  0  0  0
 31 69  1  0  0  0
 31 70  1  0  0  0
M  END
$$$$
