6fvn_ligand
  -I-interpret- 

103104  0  0  0  0  0  0  0  0999 V2000
  -23.7110  -10.2580   44.9520 C   0  0  0  0  0
  -24.7500   -9.7880   45.3020 O   0  0  0  0  0
  -22.4590   -9.4260   44.8960 C   0  0  0  0  0
  -23.5810  -11.5280   44.5850 N   0  0  0  0  0
  -24.7110  -12.4490   44.5890 C   0  0  0  0  0
  -25.1810  -12.7170   46.0160 C   0  0  0  0  0
  -24.4310  -13.2440   46.8380 O   0  0  0  0  0
  -24.3350  -13.7600   43.8960 C   0  0  0  0  0
  -25.4120  -14.8270   43.9500 C   0  0  0  0  0
  -26.6080  -14.4980   43.0760 C   0  0  0  0  0
  -26.5020  -14.4530   41.8510 O   0  0  0  0  0
  -27.7540  -14.2670   43.7050 N   0  0  0  0  0
  -26.4270  -12.3500   46.3020 N   0  0  0  0  0
  -26.9830  -12.4810   47.6620 C   0  0  0  0  0
  -27.3790  -13.9590   47.8410 C   0  0  0  0  0
  -27.3810  -14.7540   46.9240 O   0  0  0  0  0
  -28.2560  -11.6840   47.9510 C   0  0  0  0  0
  -28.0310  -10.2130   48.2980 C   0  0  0  0  0
  -26.9040  -10.0360   49.3090 C   0  0  0  0  0
  -26.6790   -8.5710   49.6680 C   0  0  0  0  0
  -26.4030   -7.7400   48.4290 C   0  0  0  0  0
  -27.5150   -7.9030   47.4110 C   0  0  0  0  0
  -27.7300   -9.3730   47.0640 C   0  0  0  0  0
  -27.7290  -14.2960   49.0800 N   0  0  0  0  0
  -28.1160  -15.6560   49.4370 C   0  0  0  0  0
  -29.5760  -15.7270   49.8700 C   0  0  0  0  0
  -30.1200  -14.7650   50.4120 O   0  0  0  0  0
  -27.2270  -16.1900   50.5640 C   0  0  0  0  0
  -25.7910  -16.3940   50.1300 C   0  0  0  0  0
  -25.5690  -16.8320   48.9820 O   0  0  0  0  0
  -24.8820  -16.1180   50.9410 O   0  0  0  0  0
  -30.2070  -16.8770   49.6300 N   0  0  0  0  0
  -31.5710  -17.0890   50.1010 C   0  0  0  0  0
  -31.6060  -17.3760   51.5960 C   0  0  0  0  0
  -32.5330  -16.9470   52.2930 O   0  0  0  0  0
  -32.2210  -18.2390   49.3340 C   0  0  0  0  0
  -33.0750  -17.8650   48.1300 C   0  0  0  0  0
  -33.6760  -19.1100   47.5100 C   0  0  0  0  0
  -34.1550  -16.9030   48.5770 C   0  0  0  0  0
  -30.6130  -18.1000   52.0990 N   0  0  0  0  0
  -30.5660  -18.4830   53.5020 C   0  0  0  0  0
  -29.1390  -18.8290   53.9130 C   0  0  0  0  0
  -28.8670  -19.1280   55.0760 O   0  0  0  0  0
  -31.5060  -19.6640   53.7710 C   0  0  0  0  0
  -31.3620  -20.7960   52.7900 C   0  0  0  0  0
  -30.4690  -21.8280   53.0250 C   0  0  0  0  0
  -32.1280  -20.8310   51.6350 C   0  0  0  0  0
  -30.3400  -22.8700   52.1260 C   0  0  0  0  0
  -32.0000  -21.8680   50.7300 C   0  0  0  0  0
  -31.1070  -22.8880   50.9760 C   0  0  0  0  0
  -28.2270  -18.8170   53.0870 O   0  0  0  0  0
  -22.6062   -8.5964   44.2045 H   0  0  0  0  0
  -22.2379   -9.0373   45.8900 H   0  0  0  0  0
  -21.6289  -10.0436   44.5530 H   0  0  0  0  0
  -22.6651  -11.8682   44.2923 H   0  0  0  0  0
  -25.5308  -11.9882   44.0379 H   0  0  0  0  0
  -23.4632  -14.1582   44.4151 H   0  0  0  0  0
  -24.1651  -13.5292   42.8443 H   0  0  0  0  0
  -25.7604  -14.8985   44.9803 H   0  0  0  0  0
  -24.9783  -15.7585   43.5863 H   0  0  0  0  0
  -28.5928  -14.0413   43.1703 H   0  0  0  0  0
  -27.7957  -14.3152   44.7230 H   0  0  0  0  0
  -27.0141  -11.9676   45.5607 H   0  0  0  0  0
  -26.2104  -12.1020   48.3309 H   0  0  0  0  0
  -28.7254  -12.1445   48.8203 H   0  0  0  0  0
  -28.8543  -11.7048   47.0401 H   0  0  0  0  0
  -28.9643   -9.8644   48.7402 H   0  0  0  0  0
  -25.9861  -10.4219   48.8655 H   0  0  0  0  0
  -27.1768  -10.5706   50.2188 H   0  0  0  0  0
  -25.8172   -8.5034   50.3319 H   0  0  0  0  0
  -27.5783   -8.1885   50.1508 H   0  0  0  0  0
  -25.4667   -8.0753   47.9828 H   0  0  0  0  0
  -26.3416   -6.6905   48.7168 H   0  0  0  0  0
  -27.2384   -7.3669   46.5031 H   0  0  0  0  0
  -28.4373   -7.5060   47.8350 H   0  0  0  0  0
  -28.5826   -9.4423   46.3885 H   0  0  0  0  0
  -26.8155   -9.7527   46.6083 H   0  0  0  0  0
  -27.7265  -13.5784   49.8049 H   0  0  0  0  0
  -27.9876  -16.2727   48.5474 H   0  0  0  0  0
  -27.6235  -17.1572   50.8728 H   0  0  0  0  0
  -27.2316  -15.4560   51.3698 H   0  0  0  0  0
  -25.2704  -15.7988   51.7588 H   0  0  0  0  0
  -29.7311  -17.6156   49.1120 H   0  0  0  0  0
  -32.1317  -16.1719   49.9204 H   0  0  0  0  0
  -32.8946  -18.7261   50.0391 H   0  0  0  0  0
  -31.3999  -18.8402   48.9435 H   0  0  0  0  0
  -32.4595  -17.3811   47.3717 H   0  0  0  0  0
  -32.8759  -19.7766   47.1882 H   0  0  0  0  0
  -34.2987  -19.6170   48.2470 H   0  0  0  0  0
  -34.2842  -18.8289   46.6503 H   0  0  0  0  0
  -34.7746  -17.3813   49.3355 H   0  0  0  0  0
  -33.6929  -16.0085   48.9947 H   0  0  0  0  0
  -34.7724  -16.6289   47.7216 H   0  0  0  0  0
  -29.8579  -18.3976   51.4812 H   0  0  0  0  0
  -30.9011  -17.6362   54.1010 H   0  0  0  0  0
  -29.6654  -19.0975   55.6082 H   0  0  0  0  0
  -32.5267  -19.2908   53.6868 H   0  0  0  0  0
  -31.2579  -20.0569   54.7570 H   0  0  0  0  0
  -29.8607  -21.8185   53.9294 H   0  0  0  0  0
  -32.8407  -20.0302   51.4379 H   0  0  0  0  0
  -29.6342  -23.6768   52.3236 H   0  0  0  0  0
  -32.6046  -21.8788   49.8231 H   0  0  0  0  0
  -31.0054  -23.7079   50.2650 H   0  0  0  0  0
  1  2  2  0  0  0
  1  3  1  0  0  0
  1  4  1  0  0  0
  4  5  1  0  0  0
  5  6  1  0  0  0
  5  8  1  0  0  0
  6  7  2  0  0  0
  6 13  1  0  0  0
  8  9  1  0  0  0
  9 10  1  0  0  0
 10 11  2  0  0  0
 10 12  1  0  0  0
 13 14  1  0  0  0
 14 15  1  0  0  0
 14 17  1  0  0  0
 15 16  2  0  0  0
 15 24  1  0  0  0
 17 18  1  0  0  0
 18 19  1  0  0  0
 18 23  1  0  0  0
 19 20  1  0  0  0
 20 21  1  0  0  0
 21 22  1  0  0  0
 22 23  1  0  0  0
 24 25  1  0  0  0
 25 26  1  0  0  0
 25 28  1  0  0  0
 26 27  2  0  0  0
 26 32  1  0  0  0
 28 29  1  0  0  0
 29 30  2  0  0  0
 29 31  1  0  0  0
 32 33  1  0  0  0
 33 34  1  0  0  0
 33 36  1  0  0  0
 34 35  2  0  0  0
 34 40  1  0  0  0
 36 37  1  0  0  0
 37 38  1  0  0  0
 37 39  1  0  0  0
 40 41  1  0  0  0
 41 42  1  0  0  0
 41 44  1  0  0  0
 42 43  1  0  0  0
 42 51  2  0  0  0
 44 45  1  0  0  0
 45 46  4  0  0  0
 45 47  4  0  0  0
 46 48  4  0  0  0
 47 49  4  0  0  0
 48 50  4  0  0  0
 49 50  4  0  0  0
  3 52  1  0  0  0
  3 53  1  0  0  0
  3 54  1  0  0  0
  4 55  1  0  0  0
  5 56  1  0  0  0
  8 57  1  0  0  0
  8 58  1  0  0  0
  9 59  1  0  0  0
  9 60  1  0  0  0
 12 61  1  0  0  0
 12 62  1  0  0  0
 13 63  1  0  0  0
 14 64  1  0  0  0
 17 65  1  0  0  0
 17 66  1  0  0  0
 18 67  1  0  0  0
 19 68  1  0  0  0
 19 69  1  0  0  0
 20 70  1  0  0  0
 20 71  1  0  0  0
 21 72  1  0  0  0
 21 73  1  0  0  0
 22 74  1  0  0  0
 22 75  1  0  0  0
 23 76  1  0  0  0
 23 77  1  0  0  0
 24 78  1  0  0  0
 25 79  1  0  0  0
 28 80  1  0  0  0
 28 81  1  0  0  0
 31 82  1  0  0  0
 32 83  1  0  0  0
 33 84  1  0  0  0
 36 85  1  0  0  0
 36 86  1  0  0  0
 37 87  1  0  0  0
 38 88  1  0  0  0
 38 89  1  0  0  0
 38 90  1  0  0  0
 39 91  1  0  0  0
 39 92  1  0  0  0
 39 93  1  0  0  0
 40 94  1  0  0  0
 41 95  1  0  0  0
 43 96  1  0  0  0
 44 97  1  0  0  0
 44 98  1  0  0  0
 46 99  1  0  0  0
 47100  1  0  0  0
 48101  1  0  0  0
 49102  1  0  0  0
 50103  1  0  0  0
M  END
$$$$
