### 
### Created by X-TOOL on Mon Aug  2 16:10:45 2021
### 

@<TRIPOS>MOLECULE
6fvn_ligand
  101   102     1     0     0
SMALL
GAST_HUCK


@<TRIPOS>ATOM
      1 C         -23.7110  -10.2580   44.9520 C.2       1 ACE         0.1751
      2 O         -24.7500   -9.7880   45.3020 O.2       1 ACE        -0.3972
      3 CH3       -22.4590   -9.4260   44.8960 C.3       1 ACE         0.0258
      4 N         -23.5810  -11.5280   44.5850 N.am      1 ACE        -0.2657
      5 CA        -24.7110  -12.4490   44.5890 C.3       1 ACE         0.1329
      6 C         -25.1810  -12.7170   46.0160 C.2       1 ACE         0.2040
      7 O         -24.4310  -13.2440   46.8380 O.2       1 ACE        -0.3944
      8 CB        -24.3350  -13.7600   43.8960 C.3       1 ACE         0.0045
      9 CG        -25.4120  -14.8270   43.9500 C.3       1 ACE         0.0412
     10 CD        -26.6080  -14.4980   43.0760 C.2       1 ACE         0.1737
     11 OE1       -26.5020  -14.4530   41.8510 O.2       1 ACE        -0.3973
     12 NE2       -27.7540  -14.2670   43.7050 N.am      1 ACE        -0.3009
     13 N         -26.4270  -12.3500   46.3020 N.am      1 ACE        -0.2637
     14 CA        -26.9830  -12.4810   47.6620 C.3       1 ACE         0.1312
     15 C         -27.3790  -13.9590   47.8410 C.2       1 ACE         0.2040
     16 O         -27.3810  -14.7540   46.9240 O.2       1 ACE        -0.3944
     17 CB        -28.2560  -11.6840   47.9510 C.3       1 ACE        -0.0096
     18 CG        -28.0310  -10.2130   48.2980 C.3       1 ACE        -0.0368
     19 CD2       -26.9040  -10.0360   49.3090 C.3       1 ACE        -0.0500
     20 CE2       -26.6790   -8.5710   49.6680 C.3       1 ACE        -0.0528
     21 CZ        -26.4030   -7.7400   48.4290 C.3       1 ACE        -0.0530
     22 CE1       -27.5150   -7.9030   47.4110 C.3       1 ACE        -0.0528
     23 CD1       -27.7300   -9.3730   47.0640 C.3       1 ACE        -0.0500
     24 N         -27.7290  -14.2960   49.0800 N.am      1 ACE        -0.2622
     25 CA        -28.1160  -15.6560   49.4370 C.3       1 ACE         0.1423
     26 C         -29.5760  -15.7270   49.8700 C.2       1 ACE         0.2056
     27 O         -30.1200  -14.7650   50.4120 O.2       1 ACE        -0.3943
     28 CB        -27.2270  -16.1900   50.5640 C.3       1 ACE         0.0406
     29 CG        -25.7910  -16.3940   50.1300 C.2       1 ACE         0.0393
     30 OD1       -25.5690  -16.8320   48.9820 O.co2     1 ACE        -0.5688
     31 OD2       -24.8820  -16.1180   50.9410 O.co2     1 ACE        -0.5688
     32 N         -30.2070  -16.8770   49.6300 N.am      1 ACE        -0.2636
     33 CA        -31.5710  -17.0890   50.1010 C.3       1 ACE         0.1312
     34 C         -31.6060  -17.3760   51.5960 C.2       1 ACE         0.2035
     35 O         -32.5330  -16.9470   52.2930 O.2       1 ACE        -0.3944
     36 CB        -32.2210  -18.2390   49.3340 C.3       1 ACE        -0.0101
     37 CG        -33.0750  -17.8650   48.1300 C.3       1 ACE        -0.0425
     38 CD1       -33.6760  -19.1100   47.5100 C.3       1 ACE        -0.0625
     39 CD2       -34.1550  -16.9030   48.5770 C.3       1 ACE        -0.0625
     40 N         -30.6130  -18.1000   52.0990 N.am      1 ACE        -0.2677
     41 CA        -30.5660  -18.4830   53.5020 C.3       1 ACE         0.1039
     42 C         -29.1390  -18.8290   53.9130 C.2       1 ACE         0.0621
     43 O         -28.8670  -19.1280   55.0760 O.co2     1 ACE        -0.5664
     44 CB        -31.5060  -19.6640   53.7710 C.3       1 ACE         0.0159
     45 CG        -31.3620  -20.7960   52.7900 C.ar      1 ACE        -0.0392
     46 CD1       -30.4690  -21.8280   53.0250 C.ar      1 ACE        -0.0602
     47 CD2       -32.1280  -20.8310   51.6350 C.ar      1 ACE        -0.0602
     48 CE1       -30.3400  -22.8700   52.1260 C.ar      1 ACE        -0.0686
     49 CE2       -32.0000  -21.8680   50.7300 C.ar      1 ACE        -0.0686
     50 CZ        -31.1070  -22.8880   50.9760 C.ar      1 ACE        -0.0687
     51 OXT       -28.2270  -18.8170   53.0870 O.co2     1 ACE        -0.5664
     52 H1        -21.6205  -10.0482   44.5500 H         1 ACE         0.0467
     53 H2        -22.2347   -9.0331   45.8986 H         1 ACE         0.0467
     54 H3        -22.6063   -8.5884   44.1984 H         1 ACE         0.0467
     55 H4        -22.6830  -11.8616   44.2980 H         1 ACE         0.1883
     56 H5        -25.5386  -11.9858   44.0318 H         1 ACE         0.0801
     57 H6        -23.4311  -14.1584   44.3800 H         1 ACE         0.0337
     58 H7        -24.1194  -13.5416   42.8397 H         1 ACE         0.0337
     59 H8        -25.7542  -14.9290   44.9904 H         1 ACE         0.0504
     60 H9        -24.9802  -15.7801   43.6108 H         1 ACE         0.0504
     61 H10       -28.5762  -14.0452   43.1808 H         1 ACE         0.1814
     62 H11       -27.7951  -14.3148   44.7030 H         1 ACE         0.1814
     63 H12       -27.0026  -11.9750   45.5753 H         1 ACE         0.1883
     64 H13       -26.2086  -12.1921   48.3879 H         1 ACE         0.0800
     65 H14       -28.7716  -12.1596   48.7983 H         1 ACE         0.0315
     66 H15       -28.8976  -11.7300   47.0587 H         1 ACE         0.0315
     67 H16       -28.9591   -9.8337   48.7505 H         1 ACE         0.0303
     68 H17       -25.9761  -10.4425   48.8804 H         1 ACE         0.0268
     69 H18       -27.1586  -10.5902   50.2244 H         1 ACE         0.0268
     70 H19       -25.8187   -8.4963   50.3493 H         1 ACE         0.0265
     71 H20       -27.5779   -8.1818   50.1684 H         1 ACE         0.0265
     72 H21       -25.4531   -8.0663   47.9804 H         1 ACE         0.0265
     73 H22       -26.3287   -6.6804   48.7149 H         1 ACE         0.0265
     74 H23       -27.2484   -7.3532   46.4964 H         1 ACE         0.0265
     75 H24       -28.4465   -7.4921   47.8274 H         1 ACE         0.0265
     76 H25       -28.5758   -9.4527   46.3653 H         1 ACE         0.0268
     77 H26       -26.8197   -9.7611   46.5837 H         1 ACE         0.0268
     78 H27       -27.7265  -13.5924   49.7906 H         1 ACE         0.1884
     79 H28       -27.9836  -16.2950   48.5515 H         1 ACE         0.0819
     80 H29       -27.6319  -17.1545   50.9044 H         1 ACE         0.0478
     81 H30       -27.2441  -15.4709   51.3962 H         1 ACE         0.0478
     82 H31       -29.7404  -17.6011   49.1221 H         1 ACE         0.1883
     83 H32       -32.1477  -16.1716   49.9116 H         1 ACE         0.0800
     84 H33       -32.8621  -18.7888   50.0388 H         1 ACE         0.0315
     85 H34       -31.4160  -18.8992   48.9788 H         1 ACE         0.0315
     86 H35       -32.4425  -17.3680   47.3798 H         1 ACE         0.0298
     87 H36       -34.2901  -18.8276   46.6422 H         1 ACE         0.0232
     88 H37       -34.3048  -19.6226   48.2528 H         1 ACE         0.0232
     89 H38       -32.8695  -19.7836   47.1848 H         1 ACE         0.0232
     90 H39       -33.6901  -16.0109   49.0220 H         1 ACE         0.0232
     91 H40       -34.7966  -17.3933   49.3240 H         1 ACE         0.0232
     92 H41       -34.7630  -16.6057   47.7099 H         1 ACE         0.0232
     93 H42       -29.8727  -18.3918   51.4933 H         1 ACE         0.1877
     94 H43       -30.9031  -17.6278   54.1062 H         1 ACE         0.0749
     95 H44       -32.5425  -19.2982   53.7274 H         1 ACE         0.0467
     96 H45       -31.2958  -20.0509   54.7790 H         1 ACE         0.0467
     97 H46       -29.8641  -21.8185   53.9245 H         1 ACE         0.0557
     98 H47       -32.8367  -20.0346   51.4390 H         1 ACE         0.0557
     99 H48       -29.6381  -23.6723   52.3225 H         1 ACE         0.0599
    100 H49       -32.6013  -21.8787   49.8281 H         1 ACE         0.0599
    101 H50       -31.0060  -23.7034   50.2689 H         1 ACE         0.0559
@<TRIPOS>BOND
     1    1    2 2  
     2    1    3 1  
     3    1    4 am 
     4    4    5 1  
     5    5    6 1  
     6    5    8 1  
     7    6    7 2  
     8    6   13 am 
     9    8    9 1  
    10    9   10 1  
    11   10   11 2  
    12   10   12 am 
    13   13   14 1  
    14   14   15 1  
    15   14   17 1  
    16   15   16 2  
    17   15   24 am 
    18   17   18 1  
    19   18   19 1  
    20   18   23 1  
    21   19   20 1  
    22   20   21 1  
    23   21   22 1  
    24   22   23 1  
    25   24   25 1  
    26   25   26 1  
    27   25   28 1  
    28   26   27 2  
    29   26   32 am 
    30   28   29 1  
    31   29   30 ar 
    32   29   31 ar 
    33   32   33 1  
    34   33   34 1  
    35   33   36 1  
    36   34   35 2  
    37   34   40 am 
    38   36   37 1  
    39   37   38 1  
    40   37   39 1  
    41   40   41 1  
    42   41   42 1  
    43   41   44 1  
    44   42   43 ar 
    45   42   51 ar 
    46   44   45 1  
    47   45   46 ar 
    48   45   47 ar 
    49   46   48 ar 
    50   47   49 ar 
    51   48   50 ar 
    52   49   50 ar 
    53    3   52 1  
    54    3   53 1  
    55    3   54 1  
    56    4   55 1  
    57    5   56 1  
    58    8   57 1  
    59    8   58 1  
    60    9   59 1  
    61    9   60 1  
    62   12   61 1  
    63   12   62 1  
    64   13   63 1  
    65   14   64 1  
    66   17   65 1  
    67   17   66 1  
    68   18   67 1  
    69   19   68 1  
    70   19   69 1  
    71   20   70 1  
    72   20   71 1  
    73   21   72 1  
    74   21   73 1  
    75   22   74 1  
    76   22   75 1  
    77   23   76 1  
    78   23   77 1  
    79   24   78 1  
    80   25   79 1  
    81   28   80 1  
    82   28   81 1  
    83   32   82 1  
    84   33   83 1  
    85   36   84 1  
    86   36   85 1  
    87   37   86 1  
    88   38   87 1  
    89   38   88 1  
    90   38   89 1  
    91   39   90 1  
    92   39   91 1  
    93   39   92 1  
    94   40   93 1  
    95   41   94 1  
    96   44   95 1  
    97   44   96 1  
    98   46   97 1  
    99   47   98 1  
   100   48   99 1  
   101   49  100 1  
   102   50  101 1  
@<TRIPOS>SUBSTRUCTURE
     1 ACE         1

