3sud_ligand
  -I-interpret- 

104110  0  0  0  0  0  0  0  0999 V2000
   15.9980   -9.1110   16.3000 C   0  0  0  0  0
   14.8130  -11.1170   16.6610 N   0  0  0  0  0
   15.4420   -8.9010   15.2370 O   0  0  0  0  0
   16.0900  -10.4390   16.8550 C   0  0  0  0  0
   17.2300  -11.2850   16.2090 C   0  0  0  0  0
   13.8270  -11.2100   17.6170 C   0  0  0  0  0
   16.1420   -4.7080   20.6550 N   0  0  0  0  0
   14.0540   -2.0790   21.8540 C   0  0  0  0  0
   16.6930   -2.8820   21.9880 C   0  0  0  0  0
   10.2390  -11.8950   17.8050 C   0  0  0  0  0
   10.8320  -10.5560   18.0830 C   0  0  0  0  0
   11.6490  -11.7760   18.2570 C   0  0  0  0  0
   21.6150   -1.4050   13.4300 C   0  0  0  0  0
   20.3580   -1.3200   14.1240 C   0  0  0  0  0
   19.6830   -2.7560   11.5230 O   0  0  0  0  0
   20.0600   -3.6600   12.5770 S   0  0  0  0  0
   16.8200   -5.9090   12.8580 C   0  0  0  0  0
   18.1650   -7.1290   14.9510 O   0  0  0  0  0
   17.1160   -6.5890   15.1530 C   0  0  0  0  0
   17.2300  -12.7170   16.6500 C   0  0  0  0  0
   17.0660   -7.6280   10.8450 C   0  0  0  0  0
   14.4370   -3.2320   21.1920 C   0  0  0  0  0
   10.5760   -9.8200   19.3490 C   0  0  0  0  0
   18.7870   -4.4220   13.1830 N   0  0  0  0  0
   16.3810   -7.1330   12.1010 C   0  0  0  0  0
   12.4120   -8.1700   19.5630 C   0  0  0  0  0
   14.9680   -1.3520   22.5940 C   0  0  0  0  0
   15.6310   -6.5480   19.3310 O   0  0  0  0  0
   18.4830   -0.9050   23.0040 C   0  0  0  0  0
   17.1480   -0.9460   23.3660 O   0  0  0  0  0
   11.0140   -8.3970   19.0970 C   0  0  0  0  0
   12.5000   -6.8160   20.1390 C   0  0  0  0  0
   15.2690   -5.4370   19.9710 C   0  0  0  0  0
   13.9280   -5.0470   19.8990 C   0  0  0  0  0
   15.7710   -3.6320   21.2750 C   0  0  0  0  0
   13.5590   -3.9620   20.5260 N   0  0  0  0  0
   12.9900   -5.7780   19.2050 C   0  0  0  0  0
   16.3010   -1.7200   22.6650 C   0  0  0  0  0
   20.9130   -4.6750   12.1040 O   0  0  0  0  0
   20.9760   -2.6250   13.9510 C   0  0  0  0  0
   18.2720   -5.2290   11.1500 O   0  0  0  0  0
   15.7310   -5.7810   11.8890 C   0  0  0  0  0
   18.0660   -5.1640   12.3380 C   0  0  0  0  0
   16.4690   -5.9480   14.2620 N   0  0  0  0  0
   17.0050   -9.0940   10.6010 C   0  0  0  0  0
   14.1020  -10.7470   18.6870 O   0  0  0  0  0
   12.6820  -11.8710   17.3160 O   0  0  0  0  0
   17.1990   -5.8080   17.5030 C   0  0  0  0  0
   16.5200   -6.6550   16.4080 C   0  0  0  0  0
   16.5480   -8.0680   16.9090 N   0  0  0  0  0
   17.2240   -8.0750   18.1780 C   0  0  0  0  0
   16.9880   -6.6830   18.7580 C   0  0  0  0  0
   18.5500  -10.7190   16.6170 C   0  0  0  0  0
   17.0580  -11.2950   14.6830 C   0  0  0  0  0
   14.6388  -11.5519   15.7550 H   0  0  0  0  0
   16.3267  -10.3408   17.9144 H   0  0  0  0  0
   13.0200   -1.7400   21.7914 H   0  0  0  0  0
   17.7350   -3.2000   22.0223 H   0  0  0  0  0
    9.6671  -12.3931   17.0221 H   0  0  0  0  0
    9.3426  -12.4634   18.0530 H   0  0  0  0  0
   10.8451   -9.6369   17.4973 H   0  0  0  0  0
   12.2057  -12.2693   19.0538 H   0  0  0  0  0
   22.4378   -0.9209   12.9039 H   0  0  0  0  0
   19.5356   -0.7144   14.5048 H   0  0  0  0  0
   18.0496  -13.2457   16.1633 H   0  0  0  0  0
   17.3578  -12.7628   17.7315 H   0  0  0  0  0
   16.2826  -13.1806   16.3748 H   0  0  0  0  0
   18.1218   -7.3805   10.9553 H   0  0  0  0  0
   16.5481   -7.1576   10.0092 H   0  0  0  0  0
   11.1250  -10.2613   20.1809 H   0  0  0  0  0
    9.5231   -9.8662   19.6273 H   0  0  0  0  0
   18.5386   -4.3439   14.1692 H   0  0  0  0  0
   16.1503   -8.1421   12.4424 H   0  0  0  0  0
   13.1029   -8.2631   18.7251 H   0  0  0  0  0
   12.6781   -8.9122   20.3157 H   0  0  0  0  0
   14.6310   -0.4676   23.1347 H   0  0  0  0  0
   18.9082   -1.9062   23.0745 H   0  0  0  0  0
   18.5693   -0.5435   21.9793 H   0  0  0  0  0
   19.0194   -0.2331   23.6741 H   0  0  0  0  0
   10.3521   -7.7277   19.6465 H   0  0  0  0  0
   10.9701   -8.2051   18.0249 H   0  0  0  0  0
   13.2143   -6.8664   20.9608 H   0  0  0  0  0
   11.4899   -6.5290   20.4311 H   0  0  0  0  0
   12.1737   -5.1430   18.8607 H   0  0  0  0  0
   13.4246   -6.2272   18.3120 H   0  0  0  0  0
   21.2923   -3.4448   14.5959 H   0  0  0  0  0
   15.4570   -5.1333   11.0562 H   0  0  0  0  0
   14.7262   -5.3606   11.8475 H   0  0  0  0  0
   15.6451   -5.4251   14.5590 H   0  0  0  0  0
   17.4783   -9.6191   11.4306 H   0  0  0  0  0
   15.9633   -9.4045   10.5198 H   0  0  0  0  0
   17.5288   -9.3289    9.6744 H   0  0  0  0  0
   16.7795   -4.8065   17.5980 H   0  0  0  0  0
   18.2474   -5.5932   17.2963 H   0  0  0  0  0
   15.5154   -6.2638   16.2473 H   0  0  0  0  0
   18.2865   -8.2927   18.0689 H   0  0  0  0  0
   16.8425   -8.8567   18.8349 H   0  0  0  0  0
   17.6373   -6.4195   19.5929 H   0  0  0  0  0
   18.6577  -10.7951   17.6990 H   0  0  0  0  0
   19.3495  -11.2780   16.1308 H   0  0  0  0  0
   18.6031   -9.6722   16.3180 H   0  0  0  0  0
   17.8845  -11.8417   14.2291 H   0  0  0  0  0
   16.1160  -11.7805   14.4280 H   0  0  0  0  0
   17.0518  -10.2699   14.3126 H   0  0  0  0  0
  1  3  2  0  0  0
  4  1  1  0  0  0
  1 50  1  0  0  0
  2  4  1  0  0  0
  6  2  1  0  0  0
  4  5  1  0  0  0
  5 20  1  0  0  0
  5 53  1  0  0  0
  5 54  1  0  0  0
  6 46  2  0  0  0
 47  6  1  0  0  0
 33  7  4  0  0  0
  7 35  4  0  0  0
 22  8  4  0  0  0
  8 27  4  0  0  0
 35  9  4  0  0  0
  9 38  4  0  0  0
 11 10  1  0  0  0
 12 10  1  0  0  0
 11 12  1  0  0  0
 23 11  1  0  0  0
 12 47  1  0  0  0
 14 13  2  0  0  0
 40 13  1  0  0  0
 40 14  1  0  0  0
 16 15  2  0  0  0
 24 16  1  0  0  0
 16 39  2  0  0  0
 16 40  1  0  0  0
 17 25  1  0  0  0
 17 42  1  0  0  0
 17 43  1  0  0  0
 44 17  1  0  0  0
 19 18  2  0  0  0
 19 44  1  0  0  0
 49 19  1  0  0  0
 25 21  1  0  0  0
 21 45  1  0  0  0
 35 22  4  0  0  0
 36 22  4  0  0  0
 31 23  1  0  0  0
 43 24  1  0  0  0
 42 25  1  0  0  0
 26 31  1  0  0  0
 32 26  1  0  0  0
 38 27  4  0  0  0
 28 33  1  0  0  0
 52 28  1  0  0  0
 30 29  1  0  0  0
 38 30  1  0  0  0
 37 32  1  0  0  0
 33 34  4  0  0  0
 34 36  4  0  0  0
 34 37  1  0  0  0
 43 41  2  0  0  0
 48 49  1  0  0  0
 48 52  1  0  0  0
 49 50  1  0  0  0
 50 51  1  0  0  0
 51 52  1  0  0  0
  2 55  1  0  0  0
  4 56  1  0  0  0
  8 57  1  0  0  0
  9 58  1  0  0  0
 10 59  1  0  0  0
 10 60  1  0  0  0
 11 61  1  0  0  0
 12 62  1  0  0  0
 13 63  1  0  0  0
 14 64  1  0  0  0
 20 65  1  0  0  0
 20 66  1  0  0  0
 20 67  1  0  0  0
 21 68  1  0  0  0
 21 69  1  0  0  0
 23 70  1  0  0  0
 23 71  1  0  0  0
 24 72  1  0  0  0
 25 73  1  0  0  0
 26 74  1  0  0  0
 26 75  1  0  0  0
 27 76  1  0  0  0
 29 77  1  0  0  0
 29 78  1  0  0  0
 29 79  1  0  0  0
 31 80  1  0  0  0
 31 81  1  0  0  0
 32 82  1  0  0  0
 32 83  1  0  0  0
 37 84  1  0  0  0
 37 85  1  0  0  0
 40 86  1  0  0  0
 42 87  1  0  0  0
 42 88  1  0  0  0
 44 89  1  0  0  0
 45 90  1  0  0  0
 45 91  1  0  0  0
 45 92  1  0  0  0
 48 93  1  0  0  0
 48 94  1  0  0  0
 49 95  1  0  0  0
 51 96  1  0  0  0
 51 97  1  0  0  0
 52 98  1  0  0  0
 53 99  1  0  0  0
 53100  1  0  0  0
 53101  1  0  0  0
 54102  1  0  0  0
 54103  1  0  0  0
 54104  1  0  0  0
M  END
$$$$
