2ha5_ligand
  -I-interpret- 

 26 25  0  0  0  0  0  0  0  0999 V2000
   26.9090   18.5890   14.9250 N   0  3  0  0  0
   27.4900   19.9370   14.9680 C   0  0  0  0  0
   28.0000   20.5080   13.6480 C   0  0  0  0  0
   29.5450   19.0820   11.8600 C   0  0  0  0  0
   28.4790   19.0370   11.3080 O   0  0  0  0  0
   30.7480   18.3940   11.3190 C   0  0  0  0  0
   25.4720   18.6650   14.7640 C   0  0  0  0  0
   27.4390   17.7420   13.8710 C   0  0  0  0  0
   27.1920   17.9440   16.1990 C   0  0  0  0  0
   29.6340   19.9520   13.2590 S   0  0  0  0  0
   28.3604   19.8674   15.6204 H   0  0  0  0  0
   26.6866   20.5993   15.2904 H   0  0  0  0  0
   28.0258   21.5940   13.7379 H   0  0  0  0  0
   27.3319   20.1724   12.8549 H   0  0  0  0  0
   30.5542   17.3233   11.2541 H   0  0  0  0  0
   30.9728   18.7847   10.3266 H   0  0  0  0  0
   31.5952   18.5717   11.9814 H   0  0  0  0  0
   25.2390   19.0903   13.7878 H   0  0  0  0  0
   25.0461   17.6643   14.8368 H   0  0  0  0  0
   25.0529   19.2974   15.5467 H   0  0  0  0  0
   26.9993   16.7478   13.9500 H   0  0  0  0  0
   27.1922   18.1738   12.9011 H   0  0  0  0  0
   28.5218   17.6710   13.9737 H   0  0  0  0  0
   26.7550   18.5309   17.0069 H   0  0  0  0  0
   26.7613   16.9427   16.2015 H   0  0  0  0  0
   28.2709   17.8771   16.3392 H   0  0  0  0  0
  2  1  1  0  0  0
  1  7  1  0  0  0
  1  8  1  0  0  0
  1  9  1  0  0  0
  3  2  1  0  0  0
 10  3  1  0  0  0
  4  5  2  0  0  0
  4  6  1  0  0  0
  4 10  1  0  0  0
  2 11  1  0  0  0
  2 12  1  0  0  0
  3 13  1  0  0  0
  3 14  1  0  0  0
  6 15  1  0  0  0
  6 16  1  0  0  0
  6 17  1  0  0  0
  7 18  1  0  0  0
  7 19  1  0  0  0
  7 20  1  0  0  0
  8 21  1  0  0  0
  8 22  1  0  0  0
  8 23  1  0  0  0
  9 24  1  0  0  0
  9 25  1  0  0  0
  9 26  1  0  0  0
M  END
$$$$
