6qqt_ligand
  -I-interpret- 

 41 44  0  0  0  0  0  0  0  0999 V2000
  -23.3970   21.0180  -11.2690 C   0  0  0  0  0
  -22.1760   23.5710   -9.5640 C   0  0  0  0  0
  -21.9330   23.1340   -7.1480 C   0  0  0  0  0
  -21.0340   24.2830   -9.5380 C   0  0  0  0  0
  -25.1010   22.3060  -10.6320 C   0  0  0  0  0
  -25.5710   21.0250  -10.7870 C   0  0  0  0  0
  -20.2580   17.3160  -12.1970 C   0  0  0  0  0
  -17.9540   16.1970  -12.5710 N   0  0  0  0  0
  -18.8390   17.3170  -12.5060 C   0  0  0  0  0
  -18.4790   18.5980  -12.7050 N   0  0  0  0  0
  -19.5660   19.3830  -12.5430 N   0  0  0  0  0
  -20.6560   18.5930  -12.2800 C   0  0  0  0  0
  -22.0210   19.1240  -11.9640 C   0  0  0  0  0
  -23.1080   18.2720  -11.8870 C   0  0  0  0  0
  -24.3590   18.8020  -11.4990 C   0  0  0  0  0
  -24.4810   20.1920  -11.2000 C   0  0  0  0  0
  -23.7970   22.2860  -10.9250 N   0  0  0  0  0
  -22.8960   23.4410  -10.8910 C   0  0  0  0  0
  -22.6620   22.9730   -8.3930 C   0  0  0  0  0
  -20.7730   23.8570   -7.1330 C   0  0  0  0  0
  -20.0500   24.0240   -5.9270 O   0  0  0  0  0
  -20.5030   25.1630   -5.1500 C   0  0  0  0  0
  -20.2970   24.4390   -8.2930 C   0  0  0  0  0
  -22.1200   20.4970  -11.6520 C   0  0  0  0  0
  -22.3084   22.6810   -6.2304 H   0  0  0  0  0
  -20.6602   24.7441  -10.4522 H   0  0  0  0  0
  -25.6824   23.1761  -10.3271 H   0  0  0  0  0
  -26.5979   20.6979  -10.6237 H   0  0  0  0  0
  -20.8742   16.4520  -11.9481 H   0  0  0  0  0
  -18.3061   15.2575  -12.3873 H   0  0  0  0  0
  -16.9702   16.3370  -12.8011 H   0  0  0  0  0
  -23.0016   17.2127  -12.1210 H   0  0  0  0  0
  -25.2297   18.1500  -11.4282 H   0  0  0  0  0
  -22.1460   23.3075  -11.6706 H   0  0  0  0  0
  -23.4936   24.3402  -11.0406 H   0  0  0  0  0
  -23.5827   22.3900   -8.4172 H   0  0  0  0  0
  -20.3837   26.0730   -5.7381 H   0  0  0  0  0
  -21.5538   25.0306   -4.8923 H   0  0  0  0  0
  -19.9106   25.2379   -4.2381 H   0  0  0  0  0
  -19.3711   25.0139   -8.2751 H   0  0  0  0  0
  -21.2450   21.1450  -11.7015 H   0  0  0  0  0
  1 16  4  0  0  0
 17  1  4  0  0  0
  1 24  4  0  0  0
  2  4  4  0  0  0
 18  2  1  0  0  0
  2 19  4  0  0  0
 19  3  4  0  0  0
  3 20  4  0  0  0
  4 23  4  0  0  0
  5  6  4  0  0  0
 17  5  4  0  0  0
  6 16  4  0  0  0
  7  9  4  0  0  0
 12  7  4  0  0  0
  9  8  1  0  0  0
 10  9  4  0  0  0
 11 10  4  0  0  0
 12 11  4  0  0  0
 13 12  1  0  0  0
 13 14  4  0  0  0
 24 13  4  0  0  0
 15 14  4  0  0  0
 16 15  4  0  0  0
 17 18  1  0  0  0
 20 21  1  0  0  0
 20 23  4  0  0  0
 21 22  1  0  0  0
  3 25  1  0  0  0
  4 26  1  0  0  0
  5 27  1  0  0  0
  6 28  1  0  0  0
  7 29  1  0  0  0
  8 30  1  0  0  0
  8 31  1  0  0  0
 14 32  1  0  0  0
 15 33  1  0  0  0
 18 34  1  0  0  0
 18 35  1  0  0  0
 19 36  1  0  0  0
 22 37  1  0  0  0
 22 38  1  0  0  0
 22 39  1  0  0  0
 23 40  1  0  0  0
 24 41  1  0  0  0
M  END
$$$$
