2nt7_ligand
  -I-interpret- 

 63 67  0  0  0  0  0  0  0  0999 V2000
   44.8920   13.7100    0.4730 S   0  0  0  0  0
   44.9350   15.0810    1.4460 C   0  0  0  0  0
   45.7820   14.8400    2.5380 C   0  0  0  0  0
   46.3610   13.5470    2.5380 C   0  0  0  0  0
   45.9340   12.7760    1.4070 C   0  0  0  0  0
   44.1870   16.3180    1.1490 C   0  0  0  0  0
   43.7040   16.5980   -0.0870 N   0  0  0  0  0
   43.8520   17.3430    1.9750 N   0  0  0  0  0
   46.2610   11.3970    0.9810 C   0  0  0  0  0
   47.5870   10.8860    1.0620 C   0  0  0  0  0
   47.8480    9.5490    0.6440 C   0  0  0  0  0
   46.7770    8.7110    0.1580 C   0  0  0  0  0
   45.4430    9.2220    0.0780 C   0  0  0  0  0
   45.1910   10.5650    0.5000 C   0  0  0  0  0
   47.5540   12.9350    3.8880 Br  0  0  0  0  0
   46.0390   15.8070    3.5740 O   0  0  0  0  0
   47.3170   16.4660    3.4630 C   0  0  0  0  0
   47.7040   17.2290    4.7460 C   0  0  0  0  0
   46.9340   17.2730    5.7050 O   0  0  0  0  0
   48.7950   17.7890    4.7820 O   0  0  0  0  0
   49.1470    9.1080    0.7490 N   0  0  0  0  0
   49.5760    7.9110    1.4930 C   0  0  0  0  0
   48.9940    7.8160    2.9230 C   0  0  0  0  0
   49.3360    6.4290    3.4980 C   0  0  0  0  0
   50.7820    6.0670    3.3900 N   0  0  0  0  0
   51.5820    6.5500    2.2190 C   0  0  0  0  0
   51.1060    7.8900    1.6070 C   0  0  0  0  0
   51.4680    5.1050    4.5450 S   0  0  0  0  0
   50.6800    5.2250    5.7320 O   0  0  0  0  0
   52.8620    5.4920    4.6340 O   0  0  0  0  0
   51.4210    3.3930    4.0570 C   0  0  0  0  0
   51.9420    2.4850    5.1490 C   0  0  0  0  0
   51.0210    1.9750    6.1270 C   0  0  0  0  0
   51.4940    1.1140    7.1660 C   0  0  0  0  0
   52.8890    0.7720    7.2140 C   0  0  0  0  0
   53.8190    1.2770    6.2420 C   0  0  0  0  0
   53.3410    2.1400    5.2010 C   0  0  0  0  0
   43.1630   18.2600    1.2490 N   0  0  0  0  0
   43.0700   17.7980   -0.0310 N   0  0  0  0  0
   48.3954   11.5117    1.4403 H   0  0  0  0  0
   46.9855    7.6861   -0.1488 H   0  0  0  0  0
   44.6323    8.5981   -0.2983 H   0  0  0  0  0
   44.1769   10.9624    0.4566 H   0  0  0  0  0
   47.2523   17.1886    2.6495 H   0  0  0  0  0
   48.0741   15.7021    3.2857 H   0  0  0  0  0
   46.1360   16.7819    5.4960 H   0  0  0  0  0
   49.8685    9.6516    0.2753 H   0  0  0  0  0
   49.1964    7.0620    0.9245 H   0  0  0  0  0
   47.9128    7.9509    2.8946 H   0  0  0  0  0
   49.4230    8.5959    3.5521 H   0  0  0  0  0
   48.7742    5.6928    2.9232 H   0  0  0  0  0
   49.0853    6.4475    4.5586 H   0  0  0  0  0
   51.4830    5.7956    1.4385 H   0  0  0  0  0
   52.5981    6.7123    2.5784 H   0  0  0  0  0
   51.4257    8.7087    2.2517 H   0  0  0  0  0
   51.5381    7.9999    0.6123 H   0  0  0  0  0
   52.0526    3.2693    3.1773 H   0  0  0  0  0
   50.3852    3.1230    3.8512 H   0  0  0  0  0
   49.9658    2.2435    6.0770 H   0  0  0  0  0
   50.8043    0.7215    7.9132 H   0  0  0  0  0
   53.2496    0.1149    8.0054 H   0  0  0  0  0
   54.8739    1.0077    6.2951 H   0  0  0  0  0
   54.0309    2.5325    4.4540 H   0  0  0  0  0
  1  2  4  0  0  0
  1  5  4  0  0  0
  2  3  4  0  0  0
  2  6  1  0  0  0
  3  4  4  0  0  0
  3 16  1  0  0  0
  4  5  4  0  0  0
  4 15  1  0  0  0
  5  9  1  0  0  0
  6  7  4  0  0  0
  6  8  4  0  0  0
  7 39  4  0  0  0
  8 38  4  0  0  0
  9 10  4  0  0  0
  9 14  4  0  0  0
 10 11  4  0  0  0
 11 12  4  0  0  0
 11 21  1  0  0  0
 12 13  4  0  0  0
 13 14  4  0  0  0
 16 17  1  0  0  0
 17 18  1  0  0  0
 18 19  1  0  0  0
 18 20  2  0  0  0
 21 22  1  0  0  0
 22 23  1  0  0  0
 22 27  1  0  0  0
 23 24  1  0  0  0
 24 25  1  0  0  0
 25 26  1  0  0  0
 25 28  1  0  0  0
 26 27  1  0  0  0
 28 29  2  0  0  0
 28 30  2  0  0  0
 28 31  1  0  0  0
 31 32  1  0  0  0
 32 33  4  0  0  0
 32 37  4  0  0  0
 33 34  4  0  0  0
 34 35  4  0  0  0
 35 36  4  0  0  0
 36 37  4  0  0  0
 38 39  4  0  0  0
 10 40  1  0  0  0
 12 41  1  0  0  0
 13 42  1  0  0  0
 14 43  1  0  0  0
 17 44  1  0  0  0
 17 45  1  0  0  0
 19 46  1  0  0  0
 21 47  1  0  0  0
 22 48  1  0  0  0
 23 49  1  0  0  0
 23 50  1  0  0  0
 24 51  1  0  0  0
 24 52  1  0  0  0
 26 53  1  0  0  0
 26 54  1  0  0  0
 27 55  1  0  0  0
 27 56  1  0  0  0
 31 57  1  0  0  0
 31 58  1  0  0  0
 33 59  1  0  0  0
 34 60  1  0  0  0
 35 61  1  0  0  0
 36 62  1  0  0  0
 37 63  1  0  0  0
M  END
$$$$
