5jrq_ligand
  -I-interpret- 

 54 57  0  0  0  0  0  0  0  0999 V2000
  -10.4450   -6.8120  -32.5600 C   0  0  0  0  0
  -11.6020   -4.3180  -32.1300 C   0  0  0  0  0
  -10.7510   -4.5200  -28.6820 C   0  0  0  0  0
   -9.4930   -4.0680  -26.8730 C   0  0  0  0  0
   -9.4010   -4.4060  -29.0450 C   0  0  0  0  0
  -11.5200   -4.0230  -24.9390 C   0  0  0  0  0
  -12.3340   -4.4380  -22.4930 C   0  0  0  0  0
   -7.0830   -2.9590  -36.1460 C   0  0  0  0  0
   -8.5340   -2.8410  -35.6770 C   0  0  0  0  0
   -9.3020   -3.9630  -36.3470 C   0  0  0  0  0
  -11.0330   -3.9550  -35.9640 S   0  0  0  0  0
  -11.3920   -3.6890  -34.3760 N   0  0  0  0  0
  -11.7500   -3.0430  -36.8050 O   0  0  0  0  0
  -11.5480   -5.2340  -36.3940 O   0  0  0  0  0
  -11.1820   -4.6790  -33.4000 C   0  0  0  0  0
  -10.6020   -5.9130  -33.6320 C   0  0  0  0  0
  -10.8850   -6.4370  -31.2720 C   0  0  0  0  0
  -11.4700   -5.2020  -31.0720 C   0  0  0  0  0
  -12.1520   -3.1060  -31.9980 F   0  0  0  0  0
  -10.7640   -7.2570  -30.2190 F   0  0  0  0  0
  -11.9080   -4.8170  -29.6620 C   0  0  0  0  0
  -13.0870   -4.7550  -29.3270 O   0  0  0  0  0
  -10.8220   -4.3070  -27.2680 C   0  0  0  0  0
   -8.6980   -4.1380  -27.9410 N   0  0  0  0  0
  -11.7750   -4.2610  -26.2900 C   0  0  0  0  0
  -10.1860   -3.8010  -24.6010 C   0  0  0  0  0
   -9.2330   -3.8340  -25.5570 N   0  0  0  0  0
  -12.5700   -3.9790  -23.8710 C   0  0  0  0  0
  -13.2940   -4.3790  -21.5160 C   0  0  0  0  0
  -14.4620   -3.9060  -21.7340 C   0  0  0  0  0
  -14.8100   -3.4510  -22.9050 C   0  0  0  0  0
  -13.9350   -3.4550  -23.9840 C   0  0  0  0  0
  -15.3610   -3.8810  -20.6460 O   0  0  0  0  0
  -16.7080   -4.2480  -20.9400 C   0  0  0  0  0
   -9.9881   -7.7881  -32.7229 H   0  0  0  0  0
   -8.9965   -4.5166  -30.0511 H   0  0  0  0  0
  -11.3543   -4.8421  -22.2382 H   0  0  0  0  0
   -6.6855   -3.9306  -35.8524 H   0  0  0  0  0
   -7.0442   -2.8619  -37.2310 H   0  0  0  0  0
   -6.4889   -2.1684  -35.6876 H   0  0  0  0  0
   -8.9511   -1.8706  -35.9461 H   0  0  0  0  0
   -8.5987   -2.9205  -34.5918 H   0  0  0  0  0
   -8.8894   -4.9054  -35.9867 H   0  0  0  0  0
   -9.2026   -3.8324  -37.4246 H   0  0  0  0  0
  -11.7749   -2.7860  -34.0959 H   0  0  0  0  0
  -10.2702   -6.1864  -34.6336 H   0  0  0  0  0
  -12.8112   -4.4222  -26.5872 H   0  0  0  0  0
   -9.9122   -3.6008  -23.5651 H   0  0  0  0  0
  -13.0534   -4.7480  -20.5190 H   0  0  0  0  0
  -15.8167   -3.0560  -23.0415 H   0  0  0  0  0
  -14.2724   -3.0576  -24.9412 H   0  0  0  0  0
  -17.1148   -3.5650  -21.6857 H   0  0  0  0  0
  -16.7293   -5.2663  -21.3281 H   0  0  0  0  0
  -17.3053   -4.1921  -20.0300 H   0  0  0  0  0
  1 16  4  0  0  0
 17  1  4  0  0  0
  2 15  4  0  0  0
 18  2  4  0  0  0
  2 19  1  0  0  0
  3  5  4  0  0  0
  3 21  1  0  0  0
 23  3  4  0  0  0
 23  4  4  0  0  0
  4 24  4  0  0  0
  4 27  4  0  0  0
 24  5  4  0  0  0
 25  6  4  0  0  0
  6 26  4  0  0  0
  6 28  1  0  0  0
 28  7  4  0  0  0
  7 29  4  0  0  0
  9  8  1  0  0  0
 10  9  1  0  0  0
 11 10  1  0  0  0
 12 11  1  0  0  0
 11 13  2  0  0  0
 11 14  2  0  0  0
 15 12  1  0  0  0
 15 16  4  0  0  0
 18 17  4  0  0  0
 17 20  1  0  0  0
 21 18  1  0  0  0
 21 22  2  0  0  0
 23 25  4  0  0  0
 26 27  4  0  0  0
 28 32  4  0  0  0
 29 30  4  0  0  0
 30 31  4  0  0  0
 30 33  1  0  0  0
 31 32  4  0  0  0
 33 34  1  0  0  0
  1 35  1  0  0  0
  5 36  1  0  0  0
  7 37  1  0  0  0
  8 38  1  0  0  0
  8 39  1  0  0  0
  8 40  1  0  0  0
  9 41  1  0  0  0
  9 42  1  0  0  0
 10 43  1  0  0  0
 10 44  1  0  0  0
 12 45  1  0  0  0
 16 46  1  0  0  0
 25 47  1  0  0  0
 26 48  1  0  0  0
 29 49  1  0  0  0
 31 50  1  0  0  0
 32 51  1  0  0  0
 34 52  1  0  0  0
 34 53  1  0  0  0
 34 54  1  0  0  0
M  END
$$$$
