5amg_ligand
  -I-interpret- 

 40 40  0  0  0  0  0  0  0  0999 V2000
   -7.3700    1.3400   16.8430 O   0  0  0  0  0
   -5.9870    1.0240   16.5680 S   0  0  0  0  0
   -5.1090    1.3840   17.6380 O   0  0  0  0  0
   -5.7910   -0.5430   16.4470 N   0  0  0  0  0
   -5.4810    1.7990   15.1870 C   0  0  0  0  0
   -4.7720    1.1350   14.1540 C   0  0  0  0  0
   -4.3500    1.7960   12.9910 C   0  0  0  0  0
   -4.6250    3.1460   12.8210 C   0  0  0  0  0
   -4.2130    3.7870   11.5530 C   0  0  0  0  0
   -4.8070    3.4890   10.5540 O   0  0  0  0  0
   -3.2720    4.7000   11.5270 O   0  0  0  0  0
   -5.8010    3.1610   15.0110 C   0  0  0  0  0
   -5.4060    3.8630   13.8590 C   0  0  0  0  0
   -5.7460    5.4430   13.7160 S   0  0  0  0  0
   -6.4930    5.8670   12.5710 O   0  0  0  0  0
   -6.1440    5.9890   14.9510 O   0  0  0  0  0
   -4.3680    6.2280   13.4460 N   0  0  0  0  0
   -3.3230    6.2750   14.4680 C   0  0  0  0  0
   -2.1110    7.0870   14.0000 C   0  0  0  0  0
   -1.9600    8.3750   14.7620 C   0  0  0  0  0
   -0.8070    9.2180   14.2070 C   0  0  0  0  0
   -1.2430   10.4100   13.3730 C   0  0  0  0  0
   -6.5894   -1.1672   16.5623 H   0  0  0  0  0
   -4.8664   -0.9279   16.2538 H   0  0  0  0  0
   -4.5472    0.0745   14.2676 H   0  0  0  0  0
   -3.8060    1.2495   12.2206 H   0  0  0  0  0
   -2.9084    4.8083   12.4088 H   0  0  0  0  0
   -6.3666    3.6804   15.7846 H   0  0  0  0  0
   -4.2216    6.6979   12.5526 H   0  0  0  0  0
   -2.9959    5.2556   14.6726 H   0  0  0  0  0
   -3.7335    6.7518   15.3581 H   0  0  0  0  0
   -2.2528    7.3310   12.9472 H   0  0  0  0  0
   -1.2163    6.4874   14.1677 H   0  0  0  0  0
   -1.7467    8.1386   15.8044 H   0  0  0  0  0
   -2.8841    8.9451   14.6665 H   0  0  0  0  0
   -0.2225    8.5691   13.5548 H   0  0  0  0  0
   -0.2584    9.6111   15.0629 H   0  0  0  0  0
   -1.8218   10.0612   12.5178 H   0  0  0  0  0
   -1.8567   11.0733   13.9825 H   0  0  0  0  0
   -0.3623   10.9480   13.0222 H   0  0  0  0  0
  1  2  2  0  0  0
  2  3  2  0  0  0
  2  4  1  0  0  0
  2  5  1  0  0  0
  5  6  4  0  0  0
  5 12  4  0  0  0
  6  7  4  0  0  0
  7  8  4  0  0  0
  8  9  1  0  0  0
  8 13  4  0  0  0
  9 10  2  0  0  0
  9 11  1  0  0  0
 12 13  4  0  0  0
 13 14  1  0  0  0
 14 15  2  0  0  0
 14 16  2  0  0  0
 14 17  1  0  0  0
 17 18  1  0  0  0
 18 19  1  0  0  0
 19 20  1  0  0  0
 20 21  1  0  0  0
 21 22  1  0  0  0
  4 23  1  0  0  0
  4 24  1  0  0  0
  6 25  1  0  0  0
  7 26  1  0  0  0
 11 27  1  0  0  0
 12 28  1  0  0  0
 17 29  1  0  0  0
 18 30  1  0  0  0
 18 31  1  0  0  0
 19 32  1  0  0  0
 19 33  1  0  0  0
 20 34  1  0  0  0
 20 35  1  0  0  0
 21 36  1  0  0  0
 21 37  1  0  0  0
 22 38  1  0  0  0
 22 39  1  0  0  0
 22 40  1  0  0  0
M  END
$$$$
