4int_ligand
  -I-interpret- 

 81 82  0  0  0  0  0  0  0  0999 V2000
   55.3890 -134.4810   35.5050 C   0  0  0  0  0
   56.1640 -135.0260   36.5360 C   0  0  0  0  0
   57.4950 -135.3850   36.2940 C   0  0  0  0  0
   58.0700 -135.2070   35.0240 C   0  0  0  0  0
   57.2860 -134.6570   33.9860 C   0  0  0  0  0
   55.9440 -134.2950   34.2290 C   0  0  0  0  0
   57.8780 -134.4460   32.5800 C   0  0  0  0  0
   59.5170 -135.6010   34.7780 C   0  0  0  0  0
   55.1630 -133.7490   33.2010 O   0  0  0  0  0
   59.7460 -136.7770   34.5370 O   0  0  0  0  0
   60.5070 -134.6730   34.8200 N   0  0  0  0  0
   61.7410 -134.8860   35.5840 C   0  0  0  0  0
   61.4600 -135.1260   37.0620 C   0  0  0  0  0
   60.8260 -134.2800   37.6740 O   0  0  0  0  0
   62.7530 -133.7250   35.2990 C   0  0  0  0  0
   63.2800 -133.7740   33.8360 C   0  0  0  0  0
   63.9730 -133.7640   36.2630 C   0  0  0  0  0
   61.9280 -136.2770   37.6130 N   0  0  0  0  0
   61.8250 -136.6100   39.0430 C   0  0  0  0  0
   63.1220 -136.3390   39.8150 C   0  0  0  0  0
   64.1010 -136.9220   39.3660 O   0  0  0  0  0
   61.0070 -137.8550   39.4940 C   0  0  0  0  0
   59.7060 -137.4540   39.9710 O   0  0  0  0  0
   61.3800 -138.0560   45.1430 O   0  0  0  0  0
   61.7670 -138.6690   43.8890 S   0  0  0  0  0
   62.5640 -139.8790   43.9250 O   0  0  0  0  0
   60.2520 -139.0900   43.0050 C   0  0  0  0  0
   62.6070 -137.4580   42.8250 C   0  0  0  0  0
   64.0790 -136.9470   42.9990 C   0  0  0  0  0
   64.2340 -135.6990   42.0690 C   0  0  0  0  0
   64.3050 -134.3680   42.8760 C   0  0  0  0  0
   64.9530 -133.1800   42.1390 C   0  0  0  0  0
   65.7660 -133.3450   41.0030 C   0  0  0  0  0
   66.3360 -132.2320   40.3700 C   0  0  0  0  0
   66.1090 -130.9380   40.8640 C   0  0  0  0  0
   66.7510 -129.7410   40.1480 C   0  0  0  0  0
   65.7040 -128.9170   39.5090 N   0  3  0  0  0
   65.3020 -130.7680   42.0000 C   0  0  0  0  0
   64.7310 -131.8830   42.6300 C   0  0  0  0  0
   63.3330 -135.5460   40.9110 N   0  0  0  0  0
   54.3527 -134.2006   35.6935 H   0  0  0  0  0
   55.7312 -135.1705   37.5259 H   0  0  0  0  0
   58.0933 -135.8081   37.1009 H   0  0  0  0  0
   58.7306 -133.7699   32.6439 H   0  0  0  0  0
   58.2026 -135.4050   32.1762 H   0  0  0  0  0
   57.1183 -134.0143   31.9283 H   0  0  0  0  0
   55.6878 -133.6890   32.3994 H   0  0  0  0  0
   60.3891 -133.8008   34.3044 H   0  0  0  0  0
   62.2197 -135.8054   35.2468 H   0  0  0  0  0
   62.1998 -132.7997   35.4598 H   0  0  0  0  0
   63.7868 -134.7238   33.6654 H   0  0  0  0  0
   62.4417 -133.6789   33.1458 H   0  0  0  0  0
   63.9794 -132.9535   33.6754 H   0  0  0  0  0
   63.6250 -133.6676   37.2915 H   0  0  0  0  0
   64.4989 -134.7112   36.1433 H   0  0  0  0  0
   64.6470 -132.9404   36.0275 H   0  0  0  0  0
   62.3792 -136.9528   36.9964 H   0  0  0  0  0
   61.0973 -135.8698   39.3756 H   0  0  0  0  0
   61.5413 -138.3589   40.2994 H   0  0  0  0  0
   60.8829 -138.5260   38.6440 H   0  0  0  0  0
   59.2135 -138.2310   40.2453 H   0  0  0  0  0
   59.6639 -139.7846   43.6048 H   0  0  0  0  0
   59.6739 -138.1836   42.8253 H   0  0  0  0  0
   60.5059 -139.5553   42.0526 H   0  0  0  0  0
   62.0301 -136.5528   43.0144 H   0  0  0  0  0
   62.6643 -137.9923   41.8767 H   0  0  0  0  0
   64.7944 -137.7239   42.7292 H   0  0  0  0  0
   64.2789 -136.6846   44.0379 H   0  0  0  0  0
   65.1896 -135.9292   41.5979 H   0  0  0  0  0
   64.9254 -134.5672   43.7498 H   0  0  0  0  0
   63.2759 -134.0780   43.0881 H   0  0  0  0  0
   65.9539 -134.3451   40.6124 H   0  0  0  0  0
   66.9602 -132.3724   39.4875 H   0  0  0  0  0
   67.4382 -130.1051   39.3842 H   0  0  0  0  0
   67.2919 -129.1350   40.8748 H   0  0  0  0  0
   66.1383 -128.1245   39.0359 H   0  0  0  0  0
   65.1951 -129.4828   38.8298 H   0  0  0  0  0
   65.0585 -128.5769   40.2218 H   0  0  0  0  0
   65.1190 -129.7679   42.3929 H   0  0  0  0  0
   64.1067 -131.7413   43.5122 H   0  0  0  0  0
   62.7661 -134.6983   40.9303 H   0  0  0  0  0
  2  1  4  0  0  0
  6  1  4  0  0  0
  3  2  4  0  0  0
  4  3  4  0  0  0
  4  5  4  0  0  0
  8  4  1  0  0  0
  5  6  4  0  0  0
  5  7  1  0  0  0
  6  9  1  0  0  0
  8 10  2  0  0  0
 11  8  1  0  0  0
 12 11  1  0  0  0
 13 12  1  0  0  0
 12 15  1  0  0  0
 13 14  2  0  0  0
 18 13  1  0  0  0
 15 16  1  0  0  0
 15 17  1  0  0  0
 19 18  1  0  0  0
 20 19  1  0  0  0
 19 22  1  0  0  0
 20 21  2  0  0  0
 40 20  1  0  0  0
 22 23  1  0  0  0
 25 24  2  0  0  0
 25 26  2  0  0  0
 25 27  1  0  0  0
 28 25  1  0  0  0
 29 28  1  0  0  0
 30 29  1  0  0  0
 30 31  1  0  0  0
 30 40  1  0  0  0
 31 32  1  0  0  0
 32 33  4  0  0  0
 32 39  4  0  0  0
 33 34  4  0  0  0
 34 35  4  0  0  0
 35 36  1  0  0  0
 35 38  4  0  0  0
 36 37  1  0  0  0
 38 39  4  0  0  0
  1 41  1  0  0  0
  2 42  1  0  0  0
  3 43  1  0  0  0
  7 44  1  0  0  0
  7 45  1  0  0  0
  7 46  1  0  0  0
  9 47  1  0  0  0
 11 48  1  0  0  0
 12 49  1  0  0  0
 15 50  1  0  0  0
 16 51  1  0  0  0
 16 52  1  0  0  0
 16 53  1  0  0  0
 17 54  1  0  0  0
 17 55  1  0  0  0
 17 56  1  0  0  0
 18 57  1  0  0  0
 19 58  1  0  0  0
 22 59  1  0  0  0
 22 60  1  0  0  0
 23 61  1  0  0  0
 27 62  1  0  0  0
 27 63  1  0  0  0
 27 64  1  0  0  0
 28 65  1  0  0  0
 28 66  1  0  0  0
 29 67  1  0  0  0
 29 68  1  0  0  0
 30 69  1  0  0  0
 31 70  1  0  0  0
 31 71  1  0  0  0
 33 72  1  0  0  0
 34 73  1  0  0  0
 36 74  1  0  0  0
 36 75  1  0  0  0
 37 76  1  0  0  0
 37 77  1  0  0  0
 37 78  1  0  0  0
 38 79  1  0  0  0
 39 80  1  0  0  0
 40 81  1  0  0  0
M  END
$$$$
