### 
### Created by X-TOOL on Wed Jan  1 15:39:37 2020
### 

@<TRIPOS>MOLECULE
5olk_ligand
   42    44     1     0     0
SMALL
GAST_HUCK


@<TRIPOS>ATOM
      1 PG        -71.0140   45.2060  -37.8390 P.3       1 DTP         0.1879
      2 O1G       -71.8080   46.6000  -37.7800 O.co2     1 DTP        -0.6091
      3 O2G       -69.7050   45.3240  -36.9660 O.co2     1 DTP        -0.6091
      4 O3G       -71.9020   44.1120  -37.3340 O.co2     1 DTP        -0.6091
      5 PB        -70.7290   45.6490  -40.6750 P.3       1 DTP         0.3553
      6 O1B       -69.8070   45.3000  -41.7700 O.co2     1 DTP        -0.5652
      7 O2B       -70.7080   47.1670  -40.3470 O.co2     1 DTP        -0.5652
      8 O3B       -70.4800   44.9230  -39.3220 O.3       1 DTP        -0.1546
      9 PA        -73.5790   46.0880  -41.2690 P.3       1 DTP         0.3266
     10 O1A       -74.7180   45.2350  -41.0270 O.co2     1 DTP        -0.5692
     11 O2A       -73.5880   47.3200  -40.2650 O.co2     1 DTP        -0.5692
     12 O3A       -72.2290   45.2670  -41.0420 O.3       1 DTP        -0.1171
     13 O5'       -73.5730   46.7250  -42.7210 O.3       1 DTP        -0.2441
     14 C5'       -72.8160   47.8370  -43.2020 C.3       1 DTP         0.1130
     15 C4'       -72.7500   47.7140  -44.7650 C.3       1 DTP         0.1164
     16 O4'       -71.9620   46.5970  -45.1160 O.3       1 DTP        -0.3389
     17 C3'       -74.1270   47.5540  -45.4890 C.3       1 DTP         0.0890
     18 O3'       -74.0200   48.2800  -46.6790 O.3       1 DTP        -0.3889
     19 C2'       -74.1600   46.0700  -45.8130 C.3       1 DTP         0.0315
     20 C1'       -72.6910   45.6790  -45.8990 C.3       1 DTP         0.1751
     21 N9        -72.4720   44.3330  -45.3230 N.pl3     1 DTP        -0.1945
     22 C8        -71.7810   43.9470  -44.1480 C.2       1 DTP         0.1122
     23 N7        -71.7390   42.6290  -43.9760 N.2       1 DTP        -0.2958
     24 C5        -72.4290   42.1130  -45.0770 C.ar      1 DTP         0.1045
     25 C6        -72.7190   40.7720  -45.4930 C.ar      1 DTP         0.1298
     26 N6        -72.3160   39.7110  -44.7430 N.pl3     1 DTP        -0.3152
     27 N1        -73.4190   40.5390  -46.6660 N.ar      1 DTP        -0.2698
     28 C2        -73.8160   41.6440  -47.3820 C.ar      1 DTP         0.0533
     29 N3        -73.6130   42.9690  -47.1120 N.ar      1 DTP        -0.2714
     30 C4        -72.9000   43.1530  -45.9250 C.ar      1 DTP         0.1612
     31 H1        -71.8008   47.8127  -42.7791 H         1 DTP         0.0648
     32 H2        -73.3087   48.7788  -42.9188 H         1 DTP         0.0648
     33 H3        -72.2713   48.6274  -45.1478 H         1 DTP         0.0650
     34 H4        -74.9840   47.8777  -44.8801 H         1 DTP         0.0622
     35 H5        -73.8402   49.1908  -46.4779 H         1 DTP         0.2099
     36 H6        -74.6692   45.8902  -46.7713 H         1 DTP         0.0345
     37 H7        -74.6684   45.5071  -45.0164 H         1 DTP         0.0345
     38 H8        -72.3532   45.7029  -46.9456 H         1 DTP         0.0969
     39 H9        -71.3302   44.6571  -43.4563 H         1 DTP         0.1349
     40 H10       -72.5297   38.7517  -45.0512 H         1 DTP         0.1820
     41 H11       -71.7972   39.8670  -43.8670 H         1 DTP         0.1820
     42 H12       -74.3690   41.4346  -48.2905 H         1 DTP         0.0996
@<TRIPOS>BOND
     1    1    2 ar 
     2    1    3 ar 
     3    1    4 ar 
     4    8    1 1  
     5    5    6 ar 
     6    5    7 ar 
     7    5    8 1  
     8   12    5 1  
     9    9   10 ar 
    10    9   11 ar 
    11    9   12 1  
    12    9   13 1  
    13   13   14 1  
    14   14   15 1  
    15   15   16 1  
    16   15   17 1  
    17   16   20 1  
    18   17   18 1  
    19   17   19 1  
    20   19   20 1  
    21   20   21 1  
    22   21   22 1  
    23   21   30 1  
    24   22   23 2  
    25   23   24 1  
    26   24   25 ar 
    27   24   30 ar 
    28   25   26 1  
    29   25   27 ar 
    30   27   28 ar 
    31   28   29 ar 
    32   29   30 ar 
    33   14   31 1  
    34   14   32 1  
    35   15   33 1  
    36   17   34 1  
    37   18   35 1  
    38   19   36 1  
    39   19   37 1  
    40   20   38 1  
    41   22   39 1  
    42   26   40 1  
    43   26   41 1  
    44   28   42 1  
@<TRIPOS>SUBSTRUCTURE
     1 DTP         1

