5olk_ligand
  -I-interpret- 

 46 48  0  0  0  0  0  0  0  0999 V2000
  -71.0140   45.2060  -37.8390 P   0  0  0  0  0
  -71.8080   46.6000  -37.7800 O   0  0  0  0  0
  -69.7050   45.3240  -36.9660 O   0  0  0  0  0
  -71.9020   44.1120  -37.3340 O   0  0  0  0  0
  -70.7290   45.6490  -40.6750 P   0  0  0  0  0
  -69.8070   45.3000  -41.7700 O   0  0  0  0  0
  -70.7080   47.1670  -40.3470 O   0  0  0  0  0
  -70.4800   44.9230  -39.3220 O   0  0  0  0  0
  -73.5790   46.0880  -41.2690 P   0  0  0  0  0
  -74.7180   45.2350  -41.0270 O   0  0  0  0  0
  -73.5880   47.3200  -40.2650 O   0  0  0  0  0
  -72.2290   45.2670  -41.0420 O   0  0  0  0  0
  -73.5730   46.7250  -42.7210 O   0  0  0  0  0
  -72.8160   47.8370  -43.2020 C   0  0  0  0  0
  -72.7500   47.7140  -44.7650 C   0  0  0  0  0
  -71.9620   46.5970  -45.1160 O   0  0  0  0  0
  -74.1270   47.5540  -45.4890 C   0  0  0  0  0
  -74.0200   48.2800  -46.6790 O   0  0  0  0  0
  -74.1600   46.0700  -45.8130 C   0  0  0  0  0
  -72.6910   45.6790  -45.8990 C   0  0  0  0  0
  -72.4720   44.3330  -45.3230 N   0  0  0  0  0
  -71.7810   43.9470  -44.1480 C   0  0  0  0  0
  -71.7390   42.6290  -43.9760 N   0  0  0  0  0
  -72.4290   42.1130  -45.0770 C   0  0  0  0  0
  -72.7190   40.7720  -45.4930 C   0  0  0  0  0
  -72.3160   39.7110  -44.7430 N   0  0  0  0  0
  -73.4190   40.5390  -46.6660 N   0  0  0  0  0
  -73.8160   41.6440  -47.3820 C   0  0  0  0  0
  -73.6130   42.9690  -47.1120 N   0  0  0  0  0
  -72.9000   43.1530  -45.9250 C   0  0  0  0  0
  -71.2409   47.3039  -38.1034 H   0  0  0  0  0
  -69.1546   46.0311  -37.3105 H   0  0  0  0  0
  -71.3213   47.3470  -39.6307 H   0  0  0  0  0
  -72.8258   47.8776  -40.4376 H   0  0  0  0  0
  -71.8134   47.8319  -42.7744 H   0  0  0  0  0
  -73.2869   48.7760  -42.9109 H   0  0  0  0  0
  -72.3264   48.6623  -45.0958 H   0  0  0  0  0
  -75.0003   47.8856  -44.9274 H   0  0  0  0  0
  -74.8442   48.2156  -47.1670 H   0  0  0  0  0
  -74.6980   45.8608  -46.7376 H   0  0  0  0  0
  -74.6973   45.4944  -45.0593 H   0  0  0  0  0
  -72.3783   45.6803  -46.9432 H   0  0  0  0  0
  -71.3298   44.6578  -43.4556 H   0  0  0  0  0
  -71.8023   39.8655  -43.8755 H   0  0  0  0  0
  -72.5276   38.7610  -45.0482 H   0  0  0  0  0
  -74.3721   41.4334  -48.2955 H   0  0  0  0  0
  1  2  1  0  0  0
  1  3  1  0  0  0
  1  4  2  0  0  0
  8  1  1  0  0  0
  5  6  2  0  0  0
  5  7  1  0  0  0
  5  8  1  0  0  0
 12  5  1  0  0  0
  9 10  2  0  0  0
  9 11  1  0  0  0
  9 12  1  0  0  0
  9 13  1  0  0  0
 13 14  1  0  0  0
 14 15  1  0  0  0
 15 16  1  0  0  0
 15 17  1  0  0  0
 16 20  1  0  0  0
 17 18  1  0  0  0
 17 19  1  0  0  0
 19 20  1  0  0  0
 20 21  1  0  0  0
 21 22  4  0  0  0
 21 30  4  0  0  0
 22 23  4  0  0  0
 23 24  4  0  0  0
 24 25  4  0  0  0
 24 30  4  0  0  0
 25 26  1  0  0  0
 25 27  4  0  0  0
 27 28  4  0  0  0
 28 29  4  0  0  0
 29 30  4  0  0  0
  2 31  1  0  0  0
  3 32  1  0  0  0
  7 33  1  0  0  0
 11 34  1  0  0  0
 14 35  1  0  0  0
 14 36  1  0  0  0
 15 37  1  0  0  0
 17 38  1  0  0  0
 18 39  1  0  0  0
 19 40  1  0  0  0
 19 41  1  0  0  0
 20 42  1  0  0  0
 22 43  1  0  0  0
 26 44  1  0  0  0
 26 45  1  0  0  0
 28 46  1  0  0  0
M  END
$$$$
