3s8n_ligand
  -I-interpret- 

 66 67  0  0  0  0  0  0  0  0999 V2000
   13.5750  -13.4820   -2.4780 C   0  0  0  0  0
   14.1520  -12.4440   -2.5420 O   0  0  0  0  0
   13.6740  -14.4380   -3.6430 C   0  0  0  0  0
   12.8460  -13.8740   -1.4730 N   0  0  0  0  0
   12.5980  -13.0660   -0.2860 C   0  0  0  0  0
   13.0050  -13.8270    0.9800 C   0  0  0  0  0
   12.7200  -14.9840    1.1130 O   0  0  0  0  0
   11.1220  -12.6330   -0.2360 C   0  0  0  0  0
   10.7350  -11.9260   -1.5360 C   0  0  0  0  0
   10.2110  -12.6470   -2.5570 C   0  0  0  0  0
   10.9480  -10.5820   -1.7180 C   0  0  0  0  0
    9.9040  -12.0240   -3.7290 C   0  0  0  0  0
   10.6380   -9.9570   -2.9070 C   0  0  0  0  0
   10.1030  -10.6800   -3.9420 C   0  0  0  0  0
    9.7720  -10.2140   -5.1470 O   0  0  0  0  0
   10.0380   -8.7800   -5.6800 P   0  0  0  0  0
    9.9320   -8.8510   -7.1590 O   0  0  0  0  0
    9.1630   -7.8290   -5.1110 O   0  0  0  0  0
   11.3010   -8.4300   -5.4670 O   0  0  0  0  0
   13.6240  -13.1080    1.8650 N   0  0  0  0  0
   13.1110  -15.2570    4.5910 O   0  0  0  0  0
   14.0740  -13.6300    3.1210 C   0  0  0  0  0
   12.9220  -14.2810    3.9090 C   0  0  0  0  0
   15.1980  -14.5840    2.8170 C   0  0  0  0  0
   14.7130  -12.5460    3.9480 C   0  0  0  0  0
   16.5040  -13.8670    3.0440 C   0  0  0  0  0
   16.1270  -12.4510    3.4070 C   0  0  0  0  0
   11.7760  -13.6670    3.8390 N   0  0  0  0  0
   10.5980  -14.0970    4.5610 C   0  0  0  0  0
    9.5770  -14.7550    3.6550 C   0  0  0  0  0
    8.4370  -14.8490    3.9870 O   0  0  0  0  0
    9.9970  -12.9130    5.3010 C   0  0  0  0  0
    9.4270  -11.8020    4.4420 C   0  0  0  0  0
    9.8850  -11.6950    3.2360 O   0  0  0  0  0
    8.5750  -10.9940    4.9850 N   0  0  0  0  0
   10.0370  -15.2740    2.5670 N   0  0  0  0  0
   13.2828  -13.9576   -4.5398 H   0  0  0  0  0
   14.7177  -14.7097   -3.8007 H   0  0  0  0  0
   13.0927  -15.3342   -3.4263 H   0  0  0  0  0
   12.4236  -14.8013   -1.5193 H   0  0  0  0  0
   13.2100  -12.1655   -0.3377 H   0  0  0  0  0
   10.9792  -11.9474    0.5993 H   0  0  0  0  0
   10.4952  -13.5157   -0.1095 H   0  0  0  0  0
   10.0366  -13.7167   -2.4414 H   0  0  0  0  0
   11.3722   -9.9953   -0.9032 H   0  0  0  0  0
    9.4800  -12.6198   -4.5373 H   0  0  0  0  0
   10.8181   -8.8884   -3.0243 H   0  0  0  0  0
    9.0379   -9.1014   -7.4030 H   0  0  0  0  0
    8.2547   -8.0946   -5.2725 H   0  0  0  0  0
   13.7985  -12.1248    1.6567 H   0  0  0  0  0
   15.1321  -14.9209    1.7825 H   0  0  0  0  0
   15.1332  -15.4564    3.4672 H   0  0  0  0  0
   14.6945  -12.7761    5.0133 H   0  0  0  0  0
   14.1781  -11.5995    3.8701 H   0  0  0  0  0
   17.1366  -13.8976    2.1569 H   0  0  0  0  0
   17.0882  -14.3402    3.8332 H   0  0  0  0  0
   16.8121  -12.0267    4.1410 H   0  0  0  0  0
   16.1857  -11.7847    2.5464 H   0  0  0  0  0
   11.7050  -12.8408    3.2450 H   0  0  0  0  0
   10.8997  -14.8562    5.2826 H   0  0  0  0  0
   10.8115  -12.4672    5.8720 H   0  0  0  0  0
    9.1615  -13.3088    5.8784 H   0  0  0  0  0
    8.2141  -10.2012    4.4542 H   0  0  0  0  0
    8.2641  -11.1497    5.9439 H   0  0  0  0  0
    9.4153  -15.7930    1.9469 H   0  0  0  0  0
   11.0224  -15.1653    2.3270 H   0  0  0  0  0
  1  2  2  0  0  0
  1  3  1  0  0  0
  4  1  1  0  0  0
  5  4  1  0  0  0
  6  5  1  0  0  0
  5  8  1  0  0  0
  6  7  2  0  0  0
 20  6  1  0  0  0
  8  9  1  0  0  0
  9 10  4  0  0  0
  9 11  4  0  0  0
 10 12  4  0  0  0
 11 13  4  0  0  0
 12 14  4  0  0  0
 13 14  4  0  0  0
 14 15  1  0  0  0
 15 16  1  0  0  0
 16 17  1  0  0  0
 16 18  1  0  0  0
 16 19  2  0  0  0
 22 20  1  0  0  0
 23 21  2  0  0  0
 22 23  1  0  0  0
 22 24  1  0  0  0
 22 25  1  0  0  0
 23 28  1  0  0  0
 24 26  1  0  0  0
 25 27  1  0  0  0
 26 27  1  0  0  0
 28 29  1  0  0  0
 29 30  1  0  0  0
 29 32  1  0  0  0
 30 31  2  0  0  0
 30 36  1  0  0  0
 32 33  1  0  0  0
 33 34  2  0  0  0
 33 35  1  0  0  0
  3 37  1  0  0  0
  3 38  1  0  0  0
  3 39  1  0  0  0
  4 40  1  0  0  0
  5 41  1  0  0  0
  8 42  1  0  0  0
  8 43  1  0  0  0
 10 44  1  0  0  0
 11 45  1  0  0  0
 12 46  1  0  0  0
 13 47  1  0  0  0
 17 48  1  0  0  0
 18 49  1  0  0  0
 20 50  1  0  0  0
 24 51  1  0  0  0
 24 52  1  0  0  0
 25 53  1  0  0  0
 25 54  1  0  0  0
 26 55  1  0  0  0
 26 56  1  0  0  0
 27 57  1  0  0  0
 27 58  1  0  0  0
 28 59  1  0  0  0
 29 60  1  0  0  0
 32 61  1  0  0  0
 32 62  1  0  0  0
 35 63  1  0  0  0
 35 64  1  0  0  0
 36 65  1  0  0  0
 36 66  1  0  0  0
M  END
$$$$
