6isd_ligand
  -I-interpret- 

 38 39  0  0  0  0  0  0  0  0999 V2000
  -21.4170   -9.6260  -20.6350 O   0  0  0  0  0
  -22.7910   -9.5830  -21.0240 C   0  0  0  0  0
  -22.8310   -9.8470  -22.4790 C   0  0  0  0  0
  -24.2080   -9.9070  -23.0350 C   0  0  0  0  0
  -24.8330   -8.5190  -22.9630 C   0  0  0  0  0
  -24.4020   -7.5590  -21.7630 C   0  0  0  0  0
  -24.7390   -6.4290  -21.7170 O   0  0  0  0  0
  -23.5060   -8.2490  -20.6530 C   0  0  0  0  0
  -22.5020   -7.1910  -20.2620 C   0  0  0  0  0
  -21.5260   -7.8110  -19.4590 O   0  0  0  0  0
  -23.1000   -5.9880  -19.4810 C   0  0  0  0  0
  -22.5580   -4.7270  -19.6920 C   0  0  0  0  0
  -21.2510   -4.5130  -20.8480 Cl  0  0  0  0  0
  -23.0050   -3.6340  -19.0330 C   0  0  0  0  0
  -24.0220   -3.7940  -18.1190 C   0  0  0  0  0
  -24.5520   -2.2950  -17.2610 S   0  0  0  0  0
  -25.7590   -2.5110  -16.4690 O   0  0  0  0  0
  -23.6080   -1.8790  -16.2180 O   0  0  0  0  0
  -24.7550   -0.9700  -18.4780 C   0  0  0  0  0
  -24.5930   -5.0410  -17.8870 C   0  0  0  0  0
  -24.1310   -6.1470  -18.5810 C   0  0  0  0  0
  -21.0391  -10.4703  -20.8919 H   0  0  0  0  0
  -23.3472  -10.3398  -20.4709 H   0  0  0  0  0
  -22.3677  -10.8191  -22.6477 H   0  0  0  0  0
  -22.3139   -9.0254  -22.9746 H   0  0  0  0  0
  -24.8074  -10.6105  -22.4571 H   0  0  0  0  0
  -24.1714  -10.2403  -24.0721 H   0  0  0  0  0
  -25.9003   -8.6912  -22.8242 H   0  0  0  0  0
  -24.5071   -8.0096  -23.8699 H   0  0  0  0  0
  -24.1653   -8.5797  -19.8504 H   0  0  0  0  0
  -22.0979   -6.7750  -21.1849 H   0  0  0  0  0
  -20.8713   -7.1609  -19.1938 H   0  0  0  0  0
  -22.5713   -2.6518  -19.2206 H   0  0  0  0  0
  -25.5654   -1.2262  -19.1604 H   0  0  0  0  0
  -24.9924   -0.0389  -17.9633 H   0  0  0  0  0
  -23.8290   -0.8499  -19.0403 H   0  0  0  0  0
  -25.4003   -5.1473  -17.1624 H   0  0  0  0  0
  -24.5763   -7.1284  -18.4176 H   0  0  0  0  0
  1  2  1  0  0  0
  2  3  1  0  0  0
  2  8  1  0  0  0
  3  4  1  0  0  0
  4  5  1  0  0  0
  5  6  1  0  0  0
  6  7  2  0  0  0
  6  8  1  0  0  0
  8  9  1  0  0  0
  9 10  1  0  0  0
  9 11  1  0  0  0
 11 12  4  0  0  0
 11 21  4  0  0  0
 12 13  1  0  0  0
 12 14  4  0  0  0
 14 15  4  0  0  0
 15 16  1  0  0  0
 15 20  4  0  0  0
 16 17  2  0  0  0
 16 18  2  0  0  0
 16 19  1  0  0  0
 20 21  4  0  0  0
  1 22  1  0  0  0
  2 23  1  0  0  0
  3 24  1  0  0  0
  3 25  1  0  0  0
  4 26  1  0  0  0
  4 27  1  0  0  0
  5 28  1  0  0  0
  5 29  1  0  0  0
  8 30  1  0  0  0
  9 31  1  0  0  0
 10 32  1  0  0  0
 14 33  1  0  0  0
 19 34  1  0  0  0
 19 35  1  0  0  0
 19 36  1  0  0  0
 20 37  1  0  0  0
 21 38  1  0  0  0
M  END
$$$$
