3po6_ligand
  -I-interpret- 

 37 38  0  0  0  0  0  0  0  0999 V2000
   -3.4630    4.7380    9.5310 C   0  0  0  0  0
   -7.3150    7.2130   12.0570 C   0  0  0  0  0
   -5.6020    4.2000   16.1210 C   0  0  0  0  0
   -5.3570   -0.6010   16.2180 N   0  0  0  0  0
   -5.1810    1.4280   17.7960 O   0  0  0  0  0
   -7.3630    1.2110   16.8330 O   0  0  0  0  0
   -4.5890    3.3020   11.6010 C   0  0  0  0  0
   -6.3630    4.7990   13.1350 C   0  0  0  0  0
   -4.1670    1.6360   13.4140 C   0  0  0  0  0
   -4.1920    1.6420   14.9470 C   0  0  0  0  0
   -4.8780    4.8630    9.7830 O   0  0  0  0  0
   -6.5970    6.3240   11.2080 O   0  0  0  0  0
   -4.8850    2.8850   12.8950 C   0  0  0  0  0
   -5.1700    4.4520   11.0660 C   0  0  0  0  0
   -6.0530    5.2180   11.8250 C   0  0  0  0  0
   -5.7720    3.6500   13.6670 C   0  0  0  0  0
   -6.1250    3.2080   15.0950 C   0  0  0  0  0
   -5.6230    1.8200   15.2950 N   0  0  0  0  0
   -5.9130    0.9810   16.6140 S   0  0  0  0  0
   -2.9130    5.3577   10.2392 H   0  0  0  0  0
   -3.1647    3.6963    9.6497 H   0  0  0  0  0
   -3.2459    5.0658    8.5144 H   0  0  0  0  0
   -8.1460    6.6802   12.5193 H   0  0  0  0  0
   -6.6482    7.5913   12.8319 H   0  0  0  0  0
   -7.6986    8.0458   11.4676 H   0  0  0  0  0
   -4.5177    4.2712   16.0358 H   0  0  0  0  0
   -6.0470    5.1781   15.9385 H   0  0  0  0  0
   -5.8676    3.8596   17.1219 H   0  0  0  0  0
   -4.6361   -1.0454   16.7865 H   0  0  0  0  0
   -5.7488   -1.0932   15.4151 H   0  0  0  0  0
   -3.8926    2.7213   10.9961 H   0  0  0  0  0
   -7.0673    5.3743   13.7359 H   0  0  0  0  0
   -4.6706    0.7433   13.0430 H   0  0  0  0  0
   -3.1345    1.6353   13.0646 H   0  0  0  0  0
   -3.5691    2.4342   15.3625 H   0  0  0  0  0
   -3.7812    0.7233   15.3657 H   0  0  0  0  0
   -7.2056    3.1979   15.2378 H   0  0  0  0  0
 11  1  1  0  0  0
 12  2  1  0  0  0
 17  3  1  0  0  0
 19  4  1  0  0  0
 19  5  2  0  0  0
 19  6  2  0  0  0
 13  7  4  0  0  0
  7 14  4  0  0  0
  8 15  4  0  0  0
 16  8  4  0  0  0
 10  9  1  0  0  0
  9 13  1  0  0  0
 18 10  1  0  0  0
 14 11  1  0  0  0
 15 12  1  0  0  0
 16 13  4  0  0  0
 15 14  4  0  0  0
 17 16  1  0  0  0
 18 17  1  0  0  0
 18 19  1  0  0  0
  1 20  1  0  0  0
  1 21  1  0  0  0
  1 22  1  0  0  0
  2 23  1  0  0  0
  2 24  1  0  0  0
  2 25  1  0  0  0
  3 26  1  0  0  0
  3 27  1  0  0  0
  3 28  1  0  0  0
  4 29  1  0  0  0
  4 30  1  0  0  0
  7 31  1  0  0  0
  8 32  1  0  0  0
  9 33  1  0  0  0
  9 34  1  0  0  0
 10 35  1  0  0  0
 10 36  1  0  0  0
 17 37  1  0  0  0
M  END
$$$$
