4z84_ligand
  -I-interpret- 

 42 45  0  0  0  0  0  0  0  0999 V2000
  -25.5670  -10.1610   21.1910 C   0  0  0  0  0
  -25.8000  -11.5410   21.1790 C   0  0  0  0  0
  -25.7230  -12.2100   19.9550 N   0  0  0  0  0
  -25.8520  -13.5210   19.9910 C   0  0  0  0  0
  -26.0570  -14.2480   21.1110 N   0  0  0  0  0
  -26.1860  -13.6740   22.3620 C   0  0  0  0  0
  -26.3570  -14.3480   23.3740 O   0  0  0  0  0
  -26.0580  -12.2100   22.3820 C   0  0  0  0  0
  -26.1470  -11.4870   23.5690 C   0  0  0  0  0
  -25.9190  -10.1250   23.5630 C   0  0  0  0  0
  -25.5900   -9.4560   22.3950 C   0  0  0  0  0
  -25.0850   -8.0300   22.4720 C   0  0  0  0  0
  -23.5390   -7.9450   22.4890 C   0  0  0  0  0
  -23.1730   -6.5840   22.0810 N   0  3  0  0  0
  -24.3310   -6.0280   21.3630 C   0  0  0  0  0
  -25.4340   -7.1010   21.2750 C   0  0  0  0  0
  -26.8280   -6.5000   21.3300 C   0  0  0  0  0
  -27.5200   -6.6440   22.3260 O   0  0  0  0  0
  -27.3200   -5.7200   20.1580 C   0  0  0  0  0
  -28.5490   -5.0600   20.1330 C   0  0  0  0  0
  -28.9070   -4.3530   19.0010 C   0  0  0  0  0
  -30.4720   -3.6080   18.9300 Cl  0  0  0  0  0
  -28.0760   -4.2520   17.9060 C   0  0  0  0  0
  -26.8640   -4.9160   17.9320 C   0  0  0  0  0
  -26.4910   -5.6490   19.0430 C   0  0  0  0  0
  -25.3670   -9.6355   20.2572 H   0  0  0  0  0
  -25.7885  -14.0596   19.0455 H   0  0  0  0  0
  -26.1192  -15.2629   21.0302 H   0  0  0  0  0
  -26.3961  -11.9950   24.5007 H   0  0  0  0  0
  -25.9994   -9.5655   24.4950 H   0  0  0  0  0
  -25.5821   -7.7039   23.3856 H   0  0  0  0  0
  -23.1074   -8.6784   21.8078 H   0  0  0  0  0
  -23.1542   -8.1629   23.4853 H   0  0  0  0  0
  -22.3470   -6.5951   21.4826 H   0  0  0  0  0
  -22.9419   -6.0122   22.8934 H   0  0  0  0  0
  -24.0302   -5.7287   20.3590 H   0  0  0  0  0
  -24.7095   -5.1567   21.8974 H   0  0  0  0  0
  -25.4585   -7.6426   20.3294 H   0  0  0  0  0
  -29.2167   -5.1015   20.9935 H   0  0  0  0  0
  -28.3684   -3.6611   17.0380 H   0  0  0  0  0
  -26.1980   -4.8613   17.0708 H   0  0  0  0  0
  -25.5374   -6.1769   19.0455 H   0  0  0  0  0
  1  2  4  0  0  0
  1 11  4  0  0  0
  2  3  1  0  0  0
  2  8  4  0  0  0
  3  4  2  0  0  0
  4  5  1  0  0  0
  5  6  1  0  0  0
  6  7  2  0  0  0
  6  8  1  0  0  0
  8  9  4  0  0  0
  9 10  4  0  0  0
 10 11  4  0  0  0
 11 12  1  0  0  0
 12 13  1  0  0  0
 12 16  1  0  0  0
 13 14  1  0  0  0
 14 15  1  0  0  0
 15 16  1  0  0  0
 16 17  1  0  0  0
 17 18  2  0  0  0
 17 19  1  0  0  0
 19 20  4  0  0  0
 19 25  4  0  0  0
 20 21  4  0  0  0
 21 22  1  0  0  0
 21 23  4  0  0  0
 23 24  4  0  0  0
 24 25  4  0  0  0
  1 26  1  0  0  0
  4 27  1  0  0  0
  5 28  1  0  0  0
  9 29  1  0  0  0
 10 30  1  0  0  0
 12 31  1  0  0  0
 13 32  1  0  0  0
 13 33  1  0  0  0
 14 34  1  0  0  0
 14 35  1  0  0  0
 15 36  1  0  0  0
 15 37  1  0  0  0
 16 38  1  0  0  0
 20 39  1  0  0  0
 23 40  1  0  0  0
 24 41  1  0  0  0
 25 42  1  0  0  0
M  END
$$$$
