6htt_ligand
  -I-interpret- 

 31 32  0  0  0  0  0  0  0  0999 V2000
   45.4470   33.9340   85.5770 C   0  0  0  0  0
   45.2380   34.9910   86.4610 C   0  0  0  0  0
   44.4410   36.0710   86.0960 C   0  0  0  0  0
   43.8280   36.0770   84.8430 C   0  0  0  0  0
   44.0340   35.0310   83.9600 C   0  0  0  0  0
   46.3090   32.7800   85.9910 C   0  0  0  0  0
   47.2020   30.6730   85.4950 O   0  0  0  0  0
   45.2050   38.8160   89.5920 C   0  0  0  0  0
   44.1800   37.9000   89.3900 C   0  0  0  0  0
   43.0790   37.9060   90.2350 C   0  0  0  0  0
   43.0140   38.8170   91.2760 C   0  0  0  0  0
   44.0340   39.7220   91.4760 C   0  0  0  0  0
   45.1240   39.7230   90.6350 C   0  0  0  0  0
   44.2600   36.9590   88.3350 N   0  0  0  0  0
   44.3110   37.2440   87.0150 C   0  0  0  0  0
   44.8450   33.9670   84.3200 C   0  0  0  0  0
   46.3980   31.7590   85.1500 N   0  0  0  0  0
   44.2810   38.3910   86.5790 O   0  0  0  0  0
   46.9010   32.7820   87.0700 O   0  0  0  0  0
   45.7030   34.9712   87.4466 H   0  0  0  0  0
   43.1840   36.9089   84.5579 H   0  0  0  0  0
   43.5573   35.0445   82.9798 H   0  0  0  0  0
   47.1684   30.0164   84.7955 H   0  0  0  0  0
   46.0713   38.8206   88.9305 H   0  0  0  0  0
   42.2673   37.1953   90.0796 H   0  0  0  0  0
   42.1507   38.8183   91.9414 H   0  0  0  0  0
   43.9778   40.4354   92.2982 H   0  0  0  0  0
   45.9281   40.4422   90.7912 H   0  0  0  0  0
   44.2811   35.9732   88.5959 H   0  0  0  0  0
   45.0133   33.1514   83.6167 H   0  0  0  0  0
   45.8878   31.7676   84.2668 H   0  0  0  0  0
  2  1  4  0  0  0
  1  6  1  0  0  0
  1 16  4  0  0  0
  3  2  4  0  0  0
  3  4  4  0  0  0
 15  3  1  0  0  0
  4  5  4  0  0  0
  5 16  4  0  0  0
  6 17  1  0  0  0
  6 19  2  0  0  0
 17  7  1  0  0  0
  9  8  4  0  0  0
  8 13  4  0  0  0
  9 10  4  0  0  0
 14  9  1  0  0  0
 10 11  4  0  0  0
 11 12  4  0  0  0
 13 12  4  0  0  0
 14 15  1  0  0  0
 15 18  2  0  0  0
  2 20  1  0  0  0
  4 21  1  0  0  0
  5 22  1  0  0  0
  7 23  1  0  0  0
  8 24  1  0  0  0
 10 25  1  0  0  0
 11 26  1  0  0  0
 12 27  1  0  0  0
 13 28  1  0  0  0
 14 29  1  0  0  0
 16 30  1  0  0  0
 17 31  1  0  0  0
M  END
$$$$
