2cht_ligand
  -I-interpret- 

 28 29  0  0  0  0  0  0  0  0999 V2000
   32.3340   30.6110   44.4010 C   0  0  0  0  0
   31.9290   31.7710   44.9650 C   0  0  0  0  0
   31.0240   31.8830   46.1710 C   0  0  0  0  0
   31.1220   30.5570   46.9150 C   0  0  0  0  0
   31.7890   29.2790   44.8410 C   0  0  0  0  0
   30.7280   29.4460   45.9320 C   0  0  0  0  0
   29.5430   32.1050   45.8370 C   0  0  0  0  0
   28.8770   30.9100   45.1310 C   0  0  0  0  0
   31.4330   33.0760   47.0430 C   0  0  0  0  0
   28.8840   31.0500   43.6150 C   0  0  0  0  0
   32.8700   28.5500   45.3670 O   0  0  0  0  0
   29.0480   30.0550   42.9280 O   0  0  0  0  0
   28.7280   32.1610   43.1250 O   0  0  0  0  0
   31.6610   34.1670   46.5250 O   0  0  0  0  0
   31.5290   32.9290   48.2460 O   0  0  0  0  0
   29.3800   29.6340   45.5020 O   0  0  0  0  0
   33.0771   30.6414   43.6042 H   0  0  0  0  0
   32.2828   32.6985   44.5149 H   0  0  0  0  0
   30.4575   30.5547   47.7790 H   0  0  0  0  0
   32.1365   30.3996   47.2814 H   0  0  0  0  0
   31.3229   28.7728   43.9956 H   0  0  0  0  0
   30.7211   28.4712   46.4197 H   0  0  0  0  0
   29.4879   32.9551   45.1570 H   0  0  0  0  0
   29.0176   32.2587   46.7796 H   0  0  0  0  0
   27.8485   30.9488   45.4898 H   0  0  0  0  0
   33.5407   28.4404   44.6890 H   0  0  0  0  0
   28.6161   32.8063   43.8269 H   0  0  0  0  0
   31.5375   34.1011   45.5753 H   0  0  0  0  0
  5  1  1  0  0  0
  1  2  2  0  0  0
  2  3  1  0  0  0
  3  9  1  0  0  0
  3  7  1  0  0  0
  3  4  1  0  0  0
  4  6  1  0  0  0
  6 16  1  0  0  0
  6  5  1  0  0  0
  5 11  1  0  0  0
 16  8  1  0  0  0
  8 10  1  0  0  0
  8  7  1  0  0  0
 10 13  1  0  0  0
 10 12  2  0  0  0
  9 15  2  0  0  0
  9 14  1  0  0  0
  1 17  1  0  0  0
  2 18  1  0  0  0
  4 19  1  0  0  0
  4 20  1  0  0  0
  5 21  1  0  0  0
  6 22  1  0  0  0
  7 23  1  0  0  0
  7 24  1  0  0  0
  8 25  1  0  0  0
 11 26  1  0  0  0
 13 27  1  0  0  0
 14 28  1  0  0  0
M  END
$$$$
