4hdp_ligand
  -I-interpret- 

 82 86  0  0  0  0  0  0  0  0999 V2000
  -17.2540   24.9080  -20.2510 C   0  0  0  0  0
  -16.4880   24.0820  -21.0780 C   0  0  0  0  0
  -15.4070   23.3140  -20.6100 C   0  0  0  0  0
  -15.0140   23.5160  -19.2830 C   0  0  0  0  0
  -15.6730   24.4350  -18.5180 C   0  0  0  0  0
  -16.7460   25.1980  -18.9810 C   0  0  0  0  0
  -13.7030   22.5840  -18.5840 S   0  0  0  0  0
  -12.8120   22.1600  -19.6690 O   0  0  0  0  0
  -13.0730   23.3180  -17.4990 O   0  0  0  0  0
  -14.3170   21.2050  -17.9160 N   0  0  0  0  0
  -15.3260   21.4500  -16.9080 C   0  0  0  0  0
  -15.3280   20.3740  -15.8110 C   0  0  0  0  0
  -14.0010   20.4110  -15.0660 C   0  0  0  0  0
  -16.4290   20.7680  -14.8130 C   0  0  0  0  0
  -14.5100   20.0520  -18.7950 C   0  0  0  0  0
  -13.6010   18.8910  -18.4080 C   0  0  0  0  0
  -14.0640   17.7250  -19.1040 O   0  0  0  0  0
  -12.1180   19.0830  -18.6990 C   0  0  0  0  0
  -11.3430   18.0370  -18.0500 N   0  0  0  0  0
  -10.6090   18.1370  -16.9440 C   0  0  0  0  0
  -10.5420   19.1240  -16.2070 O   0  0  0  0  0
   -9.9550   16.9890  -16.6920 O   0  0  0  0  0
   -8.9890   16.9880  -15.6380 C   0  0  0  0  0
   -9.2460   15.7290  -14.7990 C   0  0  0  0  0
   -8.5850   14.6310  -15.4580 O   0  0  0  0  0
   -7.6520   15.1600  -16.3850 C   0  0  0  0  0
   -8.0800   14.8920  -17.7670 O   0  0  0  0  0
   -7.8270   16.0110  -18.5640 C   0  0  0  0  0
   -7.3710   17.1620  -17.6640 C   0  0  0  0  0
   -7.5900   16.6600  -16.2260 C   0  0  0  0  0
  -11.7730   19.1950  -20.1880 C   0  0  0  0  0
   -9.4280   18.5000  -20.7730 C   0  0  0  0  0
   -8.0610   18.7240  -20.7950 C   0  0  0  0  0
   -7.5690   20.0060  -20.4830 C   0  0  0  0  0
   -8.4380   21.0050  -20.1140 C   0  0  0  0  0
   -9.7930   20.7630  -20.0420 C   0  0  0  0  0
  -10.2860   19.5030  -20.3560 C   0  0  0  0  0
  -18.2660   25.5430  -20.8520 O   0  0  0  0  0
  -18.9600   26.4280  -19.9650 C   0  0  0  0  0
   -6.7800   15.7690  -19.4990 O   0  0  0  0  0
   -5.5630   15.9820  -18.7660 C   0  0  0  0  0
   -5.8830   17.2890  -18.0450 C   0  0  0  0  0
  -16.7407   24.0306  -22.1371 H   0  0  0  0  0
  -14.8988   22.5944  -21.2519 H   0  0  0  0  0
  -15.3431   24.5808  -17.4894 H   0  0  0  0  0
  -17.1742   25.9943  -18.3722 H   0  0  0  0  0
  -16.3009   21.4377  -17.3954 H   0  0  0  0  0
  -15.1097   22.4101  -16.4395 H   0  0  0  0  0
  -15.4863   19.3843  -16.2395 H   0  0  0  0  0
  -13.1876   20.2178  -15.7654 H   0  0  0  0  0
  -13.8671   21.3935  -14.6135 H   0  0  0  0  0
  -14.0014   19.6480  -14.2876 H   0  0  0  0  0
  -16.2048   21.7496  -14.3955 H   0  0  0  0  0
  -17.3892   20.8014  -15.3278 H   0  0  0  0  0
  -16.4708   20.0314  -14.0106 H   0  0  0  0  0
  -14.2686   20.3527  -19.8145 H   0  0  0  0  0
  -15.5452   19.7222  -18.7072 H   0  0  0  0  0
  -13.6645   18.8037  -17.3234 H   0  0  0  0  0
  -13.5072   16.9764  -18.8776 H   0  0  0  0  0
  -11.8475   20.0519  -18.2793 H   0  0  0  0  0
  -11.3645   17.1192  -18.4945 H   0  0  0  0  0
   -9.0426   17.9411  -15.1118 H   0  0  0  0  0
  -10.3157   15.5369  -14.7154 H   0  0  0  0  0
   -8.8588   15.8574  -13.7882 H   0  0  0  0  0
   -6.6857   14.6935  -16.1934 H   0  0  0  0  0
   -8.7438   16.2466  -19.1044 H   0  0  0  0  0
   -7.8775   18.1224  -17.7598 H   0  0  0  0  0
   -6.8209   17.0986  -15.5903 H   0  0  0  0  0
  -12.3590   19.9991  -20.6331 H   0  0  0  0  0
  -12.0025   18.2509  -20.6820 H   0  0  0  0  0
   -9.8276   17.5347  -21.0838 H   0  0  0  0  0
   -7.3742   17.9172  -21.0509 H   0  0  0  0  0
   -6.4988   20.2062  -20.5341 H   0  0  0  0  0
   -8.0525   21.9965  -19.8764 H   0  0  0  0  0
  -10.4752   21.5576  -19.7397 H   0  0  0  0  0
  -19.3681   25.8576  -19.1306 H   0  0  0  0  0
  -18.2667   27.1800  -19.5882 H   0  0  0  0  0
  -19.7714   26.9175  -20.5036 H   0  0  0  0  0
   -4.6729   16.0305  -19.3932 H   0  0  0  0  0
   -5.3013   15.1619  -18.0974 H   0  0  0  0  0
   -5.2483   17.4412  -17.1720 H   0  0  0  0  0
   -5.6939   18.1599  -18.6726 H   0  0  0  0  0
  2  1  4  0  0  0
  6  1  4  0  0  0
  1 38  1  0  0  0
  3  2  4  0  0  0
  4  3  4  0  0  0
  4  5  4  0  0  0
  7  4  1  0  0  0
  5  6  4  0  0  0
  7  8  2  0  0  0
  7  9  2  0  0  0
 10  7  1  0  0  0
 10 11  1  0  0  0
 15 10  1  0  0  0
 11 12  1  0  0  0
 12 13  1  0  0  0
 12 14  1  0  0  0
 16 15  1  0  0  0
 16 17  1  0  0  0
 18 16  1  0  0  0
 18 19  1  0  0  0
 31 18  1  0  0  0
 19 20  1  0  0  0
 20 21  2  0  0  0
 20 22  1  0  0  0
 22 23  1  0  0  0
 23 24  1  0  0  0
 23 30  1  0  0  0
 24 25  1  0  0  0
 26 25  1  0  0  0
 26 27  1  0  0  0
 30 26  1  0  0  0
 28 27  1  0  0  0
 29 28  1  0  0  0
 28 40  1  0  0  0
 30 29  1  0  0  0
 29 42  1  0  0  0
 37 31  1  0  0  0
 32 33  4  0  0  0
 32 37  4  0  0  0
 33 34  4  0  0  0
 34 35  4  0  0  0
 35 36  4  0  0  0
 36 37  4  0  0  0
 38 39  1  0  0  0
 40 41  1  0  0  0
 41 42  1  0  0  0
  2 43  1  0  0  0
  3 44  1  0  0  0
  5 45  1  0  0  0
  6 46  1  0  0  0
 11 47  1  0  0  0
 11 48  1  0  0  0
 12 49  1  0  0  0
 13 50  1  0  0  0
 13 51  1  0  0  0
 13 52  1  0  0  0
 14 53  1  0  0  0
 14 54  1  0  0  0
 14 55  1  0  0  0
 15 56  1  0  0  0
 15 57  1  0  0  0
 16 58  1  0  0  0
 17 59  1  0  0  0
 18 60  1  0  0  0
 19 61  1  0  0  0
 23 62  1  0  0  0
 24 63  1  0  0  0
 24 64  1  0  0  0
 26 65  1  0  0  0
 28 66  1  0  0  0
 29 67  1  0  0  0
 30 68  1  0  0  0
 31 69  1  0  0  0
 31 70  1  0  0  0
 32 71  1  0  0  0
 33 72  1  0  0  0
 34 73  1  0  0  0
 35 74  1  0  0  0
 36 75  1  0  0  0
 39 76  1  0  0  0
 39 77  1  0  0  0
 39 78  1  0  0  0
 41 79  1  0  0  0
 41 80  1  0  0  0
 42 81  1  0  0  0
 42 82  1  0  0  0
M  END
$$$$
