1xmu_ligand
  -I-interpret- 

 40 42  0  0  0  0  0  0  0  0999 V2000
    4.4280    0.3650   41.8850 O   0  0  0  0  0
    2.3910   -0.5140   35.5470 C   0  0  0  0  0
    1.0160    0.1900   35.6830 C   0  0  0  0  0
    1.4290   -0.8940   36.6280 C   0  0  0  0  0
    3.5200    0.7620   42.5870 C   0  0  0  0  0
    2.1230    0.7120   42.0010 C   0  0  0  0  0
    0.9830    1.0520   42.7430 C   0  0  0  0  0
   -0.2920    1.0000   42.1920 C   0  0  0  0  0
   -0.4750    0.5980   40.8680 C   0  0  0  0  0
   -1.7080    0.5380   40.2430 O   0  0  0  0  0
   -2.9620    0.7270   40.8870 C   0  0  0  0  0
   -3.0240   -0.1500   41.9380 F   0  0  0  0  0
   -3.0500    2.0240   41.3060 F   0  0  0  0  0
    0.7300    0.2320   40.0710 C   0  0  0  0  0
    0.5840   -0.1420   38.7530 O   0  0  0  0  0
    1.4790   -1.0570   38.1150 C   0  0  0  0  0
    1.9840    0.3080   40.6860 C   0  0  0  0  0
    3.7290    1.2440   43.8220 N   0  0  0  0  0
    4.9740    1.3930   44.3390 C   0  0  0  0  0
    6.0470    2.2670   43.7880 C   0  0  0  0  0
    5.7890    3.2470   42.4060 Cl  0  0  0  0  0
    7.2800    2.3210   44.4270 C   0  0  0  0  0
    7.5270    1.6060   45.5450 N   0  0  0  0  0
    6.6240    0.7910   46.1170 C   0  0  0  0  0
    5.3540    0.6450   45.5710 C   0  0  0  0  0
    4.2390   -0.4060   46.3360 Cl  0  0  0  0  0
    3.4438   -0.2575   35.4289 H   0  0  0  0  0
    3.0056   -0.9885   34.7820 H   0  0  0  0  0
    0.1632    0.4668   35.0631 H   0  0  0  0  0
    0.6014    1.1977   35.7100 H   0  0  0  0  0
    1.0024   -1.8205   37.0123 H   0  0  0  0  0
    1.0998    1.3657   43.7803 H   0  0  0  0  0
   -1.1551    1.2751   42.7982 H   0  0  0  0  0
   -3.7981    0.5356   40.2144 H   0  0  0  0  0
    2.4937   -0.8552   38.4581 H   0  0  0  0  0
    1.1828   -2.0749   38.3685 H   0  0  0  0  0
    2.8734    0.0422   40.1146 H   0  0  0  0  0
    2.9244    1.5071   44.3910 H   0  0  0  0  0
    8.0655    2.9552   44.0160 H   0  0  0  0  0
    6.8903    0.2389   47.0183 H   0  0  0  0  0
  5  1  2  0  0  0
  3  2  1  0  0  0
  4  2  1  0  0  0
  4  3  1  0  0  0
 16  4  1  0  0  0
  6  5  1  0  0  0
  5 18  1  0  0  0
  6  7  4  0  0  0
 17  6  4  0  0  0
  8  7  4  0  0  0
  9  8  4  0  0  0
  9 10  1  0  0  0
 14  9  4  0  0  0
 10 11  1  0  0  0
 11 12  1  0  0  0
 11 13  1  0  0  0
 15 14  1  0  0  0
 14 17  4  0  0  0
 15 16  1  0  0  0
 18 19  1  0  0  0
 19 20  4  0  0  0
 19 25  4  0  0  0
 20 21  1  0  0  0
 20 22  4  0  0  0
 22 23  4  0  0  0
 23 24  4  0  0  0
 24 25  4  0  0  0
 25 26  1  0  0  0
  2 27  1  0  0  0
  2 28  1  0  0  0
  3 29  1  0  0  0
  3 30  1  0  0  0
  4 31  1  0  0  0
  7 32  1  0  0  0
  8 33  1  0  0  0
 11 34  1  0  0  0
 16 35  1  0  0  0
 16 36  1  0  0  0
 17 37  1  0  0  0
 18 38  1  0  0  0
 22 39  1  0  0  0
 24 40  1  0  0  0
M  END
$$$$
