4jpx_ligand
  -I-interpret- 

 24 24  0  0  0  0  0  0  0  0999 V2000
    5.1600   -7.9300  -16.9480 N   0  3  0  0  0
    6.3100   -7.6630  -16.0820 C   0  0  0  0  0
    7.5950   -8.2560  -16.6440 C   0  0  0  0  0
    7.6780   -8.6040  -17.8160 O   0  0  0  0  0
    6.0510   -8.1800  -14.6620 C   0  0  0  0  0
    5.1140   -7.3120  -13.8780 C   0  0  0  0  0
    5.5470   -6.0980  -13.3440 C   0  0  0  0  0
    3.7990   -7.6820  -13.6970 C   0  0  0  0  0
    4.6770   -5.2910  -12.6280 C   0  0  0  0  0
    2.9240   -6.8760  -12.9840 C   0  0  0  0  0
    3.3580   -5.6800  -12.4520 C   0  0  0  0  0
    8.5950   -8.3940  -15.9520 O   0  0  0  0  0
    5.3533   -7.5786  -17.8859 H   0  0  0  0  0
    4.9923   -8.9353  -16.9881 H   0  0  0  0  0
    4.3361   -7.4614  -16.5712 H   0  0  0  0  0
    6.4414   -6.5817  -16.0411 H   0  0  0  0  0
    6.8383   -8.4492  -18.2548 H   0  0  0  0  0
    7.0059   -8.1933  -14.1365 H   0  0  0  0  0
    5.5935   -9.1656  -14.7482 H   0  0  0  0  0
    6.5795   -5.7812  -13.4913 H   0  0  0  0  0
    3.4416   -8.6209  -14.1199 H   0  0  0  0  0
    5.0296   -4.3510  -12.2035 H   0  0  0  0  0
    1.8894   -7.1891  -12.8436 H   0  0  0  0  0
    2.6683   -5.0445  -11.8966 H   0  0  0  0  0
  1  2  1  0  0  0
  2  3  1  0  0  0
  2  5  1  0  0  0
  3  4  1  0  0  0
  3 12  2  0  0  0
  5  6  1  0  0  0
  6  7  4  0  0  0
  6  8  4  0  0  0
  7  9  4  0  0  0
  8 10  4  0  0  0
  9 11  4  0  0  0
 10 11  4  0  0  0
  1 13  1  0  0  0
  1 14  1  0  0  0
  1 15  1  0  0  0
  2 16  1  0  0  0
  4 17  1  0  0  0
  5 18  1  0  0  0
  5 19  1  0  0  0
  7 20  1  0  0  0
  8 21  1  0  0  0
  9 22  1  0  0  0
 10 23  1  0  0  0
 11 24  1  0  0  0
M  END
$$$$
