3oyn_ligand
  -I-interpret- 

 53 56  0  0  0  0  0  0  0  0999 V2000
  -38.0170   26.2650  -19.2350 C   0  0  0  0  0
  -40.0170   31.8150  -25.3950 C   0  0  0  0  0
  -38.2740   29.2170  -21.7880 C   0  0  0  0  0
  -40.7590   31.7220  -22.7680 O   0  0  0  0  0
  -37.5360   29.4100  -17.3540 O   0  0  0  0  0
  -37.1280   34.9100  -18.9660 O   0  0  0  0  0
  -37.2160   32.3940  -17.4180 O   0  0  0  0  0
  -42.3340   39.3920  -21.5090 F   0  0  0  0  0
  -41.2820   38.9450  -18.9520 Cl  0  0  0  0  0
  -40.7550   38.1430  -22.7760 C   0  0  0  0  0
  -39.5980   37.3630  -22.7290 C   0  0  0  0  0
  -39.4820   37.5820  -20.3130 C   0  0  0  0  0
  -38.8740   27.1540  -18.3250 C   0  0  0  0  0
  -37.7420   36.2640  -21.3910 C   0  0  0  0  0
  -39.8960   28.7090  -20.0420 C   0  0  0  0  0
  -38.6110   34.2350  -21.9900 N   0  0  0  0  0
  -39.2490   32.4250  -24.2830 N   0  0  0  0  0
  -39.6840   32.2520  -23.0330 C   0  0  0  0  0
  -38.3240   29.6000  -18.2930 C   0  0  0  0  0
  -41.2500   38.6200  -21.5770 C   0  0  0  0  0
  -38.9840   37.0820  -21.5060 C   0  0  0  0  0
  -40.6290   38.3360  -20.3890 C   0  0  0  0  0
  -37.8080   32.0710  -18.6170 C   0  0  0  0  0
  -38.9240   32.9320  -21.8830 C   0  0  0  0  0
  -38.3300   30.8230  -18.9440 C   0  0  0  0  0
  -37.6890   34.2860  -19.8670 C   0  0  0  0  0
  -37.9960   32.9510  -19.6730 C   0  0  0  0  0
  -38.6300   32.2570  -20.6930 C   0  0  0  0  0
  -39.4240   29.7940  -20.9660 C   0  0  0  0  0
  -38.9770   28.5100  -18.9000 N   0  0  0  0  0
  -38.0440   34.8760  -21.0990 N   0  0  0  0  0
  -38.8410   30.9330  -20.2510 N   0  0  0  0  0
  -38.4785   26.2042  -20.2206 H   0  0  0  0  0
  -37.0193   26.6946  -19.3255 H   0  0  0  0  0
  -37.9463   25.2666  -18.8033 H   0  0  0  0  0
  -40.0515   30.7338  -25.2608 H   0  0  0  0  0
  -41.0310   32.2148  -25.3967 H   0  0  0  0  0
  -39.5310   32.0495  -26.3421 H   0  0  0  0  0
  -37.4715   28.9056  -21.1193 H   0  0  0  0  0
  -38.6302   28.3571  -22.3552 H   0  0  0  0  0
  -37.9021   29.9778  -22.4743 H   0  0  0  0  0
  -36.9381   33.3127  -17.4368 H   0  0  0  0  0
  -41.2487   38.3671  -23.7216 H   0  0  0  0  0
  -39.1712   36.9709  -23.6521 H   0  0  0  0  0
  -38.9883   37.3869  -19.3610 H   0  0  0  0  0
  -38.4093   27.2151  -17.3409 H   0  0  0  0  0
  -39.8716   26.7236  -18.2379 H   0  0  0  0  0
  -37.1392   36.6647  -20.5760 H   0  0  0  0  0
  -37.2102   36.3088  -22.3414 H   0  0  0  0  0
  -39.9419   27.7780  -20.6070 H   0  0  0  0  0
  -40.8699   28.9988  -19.6475 H   0  0  0  0  0
  -38.4048   32.9662  -24.4696 H   0  0  0  0  0
  -40.2842   30.1267  -21.5469 H   0  0  0  0  0
 13  1  1  0  0  0
 17  2  1  0  0  0
 29  3  1  0  0  0
 18  4  2  0  0  0
 19  5  2  0  0  0
 26  6  2  0  0  0
 23  7  1  0  0  0
 20  8  1  0  0  0
 22  9  1  0  0  0
 11 10  4  0  0  0
 10 20  4  0  0  0
 21 11  4  0  0  0
 21 12  4  0  0  0
 12 22  4  0  0  0
 30 13  1  0  0  0
 14 21  1  0  0  0
 31 14  1  0  0  0
 15 29  1  0  0  0
 30 15  1  0  0  0
 16 24  2  0  0  0
 31 16  1  0  0  0
 18 17  1  0  0  0
 24 18  1  0  0  0
 25 19  1  0  0  0
 19 30  1  0  0  0
 22 20  4  0  0  0
 23 25  4  0  0  0
 27 23  4  0  0  0
 24 28  1  0  0  0
 25 32  4  0  0  0
 26 27  1  0  0  0
 26 31  1  0  0  0
 27 28  4  0  0  0
 28 32  4  0  0  0
 29 32  1  0  0  0
  1 33  1  0  0  0
  1 34  1  0  0  0
  1 35  1  0  0  0
  2 36  1  0  0  0
  2 37  1  0  0  0
  2 38  1  0  0  0
  3 39  1  0  0  0
  3 40  1  0  0  0
  3 41  1  0  0  0
  7 42  1  0  0  0
 10 43  1  0  0  0
 11 44  1  0  0  0
 12 45  1  0  0  0
 13 46  1  0  0  0
 13 47  1  0  0  0
 14 48  1  0  0  0
 14 49  1  0  0  0
 15 50  1  0  0  0
 15 51  1  0  0  0
 17 52  1  0  0  0
 29 53  1  0  0  0
M  END
$$$$
