6pgc_ligand
  -I-interpret- 

 45 46  0  0  0  0  0  0  0  0999 V2000
   24.1290    3.4640   -5.0340 O   0  0  0  0  0
   23.0530    3.9330   -5.8150 C   0  0  0  0  0
   21.8760    4.4040   -4.9630 C   0  0  0  0  0
   21.7090    4.4200   -3.5990 C   0  0  0  0  0
   20.5120    4.9700   -3.3590 N   0  0  0  0  0
   19.9450    5.2770   -4.5270 C   0  0  0  0  0
   18.5740    5.8880   -4.7700 C   0  0  0  0  0
   18.1640    6.9260   -3.7110 C   0  0  0  0  0
   16.8200    7.5980   -4.0110 C   0  0  0  0  0
   16.8080    8.4760   -5.2820 C   0  0  0  0  0
   17.5640    9.7060   -5.1040 N   0  0  0  0  0
   18.7420    9.9900   -5.9150 C   0  0  0  0  0
   19.5770   11.0590   -5.5880 O   0  0  0  0  0
   20.2730   11.6130   -6.6780 C   0  0  0  0  0
   19.0310    9.3530   -6.8540 O   0  0  0  0  0
   17.1650   10.6410   -4.0410 C   0  0  0  0  0
   15.7090   11.1230   -4.1370 C   0  0  0  0  0
   14.7040   10.5830   -3.3000 C   0  0  0  0  0
   13.3870   11.0440   -3.3830 C   0  0  0  0  0
   13.0860   12.0570   -4.3000 C   0  0  0  0  0
   14.0850   12.6010   -5.1290 C   0  0  0  0  0
   15.3920   12.1420   -5.0460 C   0  0  0  0  0
   20.7790    4.9180   -5.5120 N   0  0  0  0  0
   24.8419    3.1802   -5.6109 H   0  0  0  0  0
   22.7077    3.1106   -6.4415 H   0  0  0  0  0
   23.4063    4.7819   -6.4003 H   0  0  0  0  0
   22.4162    4.0546   -2.8544 H   0  0  0  0  0
   17.8449    5.0786   -4.7329 H   0  0  0  0  0
   18.6108    6.4000   -5.7316 H   0  0  0  0  0
   18.9268    7.7046   -3.6997 H   0  0  0  0  0
   18.0668    6.4048   -2.7586 H   0  0  0  0  0
   16.5981    8.2543   -3.1695 H   0  0  0  0  0
   16.0943    6.8002   -4.1691 H   0  0  0  0  0
   15.7740    8.7411   -5.5025 H   0  0  0  0  0
   17.2671    7.9087   -6.0917 H   0  0  0  0  0
   20.9017   10.8476   -7.1329 H   0  0  0  0  0
   19.5586   11.9826   -7.4136 H   0  0  0  0  0
   20.8960   12.4365   -6.3290 H   0  0  0  0  0
   17.8011   11.5214   -4.1326 H   0  0  0  0  0
   17.2659   10.1116   -3.0935 H   0  0  0  0  0
   14.9589    9.8011   -2.5846 H   0  0  0  0  0
   12.6096   10.6225   -2.7457 H   0  0  0  0  0
   12.0644   12.4298   -4.3734 H   0  0  0  0  0
   13.8307   13.3870   -5.8400 H   0  0  0  0  0
   16.1661   12.5705   -5.6826 H   0  0  0  0  0
  1  2  1  0  0  0
  2  3  1  0  0  0
  3  4  4  0  0  0
  3 23  4  0  0  0
  4  5  4  0  0  0
  5  6  4  0  0  0
  6  7  1  0  0  0
  6 23  4  0  0  0
  7  8  1  0  0  0
  8  9  1  0  0  0
  9 10  1  0  0  0
 10 11  1  0  0  0
 11 12  1  0  0  0
 11 16  1  0  0  0
 12 13  1  0  0  0
 12 15  2  0  0  0
 13 14  1  0  0  0
 16 17  1  0  0  0
 17 18  4  0  0  0
 17 22  4  0  0  0
 18 19  4  0  0  0
 19 20  4  0  0  0
 20 21  4  0  0  0
 21 22  4  0  0  0
  1 24  1  0  0  0
  2 25  1  0  0  0
  2 26  1  0  0  0
  4 27  1  0  0  0
  7 28  1  0  0  0
  7 29  1  0  0  0
  8 30  1  0  0  0
  8 31  1  0  0  0
  9 32  1  0  0  0
  9 33  1  0  0  0
 10 34  1  0  0  0
 10 35  1  0  0  0
 14 36  1  0  0  0
 14 37  1  0  0  0
 14 38  1  0  0  0
 16 39  1  0  0  0
 16 40  1  0  0  0
 18 41  1  0  0  0
 19 42  1  0  0  0
 20 43  1  0  0  0
 21 44  1  0  0  0
 22 45  1  0  0  0
M  END
$$$$
