5afl_ligand
  -I-interpret- 

 31 32  0  0  0  0  0  0  0  0999 V2000
   -0.9190   16.9010   35.1180 C   0  0  0  0  0
   -1.1480   15.8420   34.2370 C   0  0  0  0  0
   -0.0500   14.8710   33.9730 N   0  0  0  0  0
    0.0120   13.9970   32.8150 C   0  0  0  0  0
    1.1570   13.0360   32.5950 N   0  0  0  0  0
    2.3150   12.8390   33.4540 C   0  0  0  0  0
    2.9370   11.5820   33.0700 C   0  0  0  0  0
    2.4020   11.2560   31.7130 C   0  0  0  0  0
    1.2580   12.1890   31.4700 C   0  0  0  0  0
   -0.8830   14.0070   31.9210 O   0  0  0  0  0
   -2.3850   15.7520   33.6490 C   0  0  0  0  0
   -3.4490   16.7120   33.9270 C   0  0  0  0  0
   -3.2220   17.7250   34.7900 C   0  0  0  0  0
   -1.9640   17.8270   35.3770 C   0  0  0  0  0
   -1.7080   18.9420   36.3220 C   0  0  0  0  0
    0.0511   17.0156   35.6015 H   0  0  0  0  0
    0.7097   14.8162   34.6514 H   0  0  0  0  0
    2.0120   12.8097   34.5006 H   0  0  0  0  0
    3.0191   13.6630   33.3386 H   0  0  0  0  0
    2.7068   10.7926   33.7855 H   0  0  0  0  0
    4.0236   11.6669   33.0563 H   0  0  0  0  0
    2.0752   10.2174   31.6622 H   0  0  0  0  0
    3.1721   11.3771   30.9512 H   0  0  0  0  0
    1.4276   12.7737   30.5659 H   0  0  0  0  0
    0.3329   11.6301   31.3285 H   0  0  0  0  0
   -2.5792   14.9371   32.9517 H   0  0  0  0  0
   -4.4196   16.6116   33.4413 H   0  0  0  0  0
   -4.0056   18.4463   35.0218 H   0  0  0  0  0
   -1.4484   18.5357   37.2996 H   0  0  0  0  0
   -0.8839   19.5504   35.9494 H   0  0  0  0  0
   -2.6044   19.5561   36.4087 H   0  0  0  0  0
  1  2  4  0  0  0
  1 14  4  0  0  0
  2  3  1  0  0  0
  2 11  4  0  0  0
  3  4  1  0  0  0
  4  5  1  0  0  0
  4 10  2  0  0  0
  5  6  1  0  0  0
  5  9  1  0  0  0
  6  7  1  0  0  0
  7  8  1  0  0  0
  8  9  1  0  0  0
 11 12  4  0  0  0
 12 13  4  0  0  0
 13 14  4  0  0  0
 14 15  1  0  0  0
  1 16  1  0  0  0
  3 17  1  0  0  0
  6 18  1  0  0  0
  6 19  1  0  0  0
  7 20  1  0  0  0
  7 21  1  0  0  0
  8 22  1  0  0  0
  8 23  1  0  0  0
  9 24  1  0  0  0
  9 25  1  0  0  0
 11 26  1  0  0  0
 12 27  1  0  0  0
 13 28  1  0  0  0
 15 29  1  0  0  0
 15 30  1  0  0  0
 15 31  1  0  0  0
M  END
$$$$
