4mga_ligand
  -I-interpret- 

 37 37  0  0  0  0  0  0  0  0999 V2000
   -6.4980   -6.4340   20.8830 C   0  0  0  0  0
   -5.5440   -5.5920   21.7280 C   0  0  0  0  0
   -4.1030   -6.0140   21.4820 C   0  0  0  0  0
   -5.9320   -5.8920   23.1810 C   0  0  0  0  0
   -5.8500   -4.1050   21.4280 C   0  0  0  0  0
   -4.9650   -2.9950   22.0480 C   0  0  0  0  0
   -4.9280   -3.0710   23.5760 C   0  0  0  0  0
   -5.5920   -1.6590   21.6620 C   0  0  0  0  0
   -3.6350   -3.0020   21.5690 C   0  0  0  0  0
   -2.5850   -2.6180   22.4010 C   0  0  0  0  0
   -1.2770   -2.5880   21.9260 C   0  0  0  0  0
   -1.0170   -2.9290   20.6030 C   0  0  0  0  0
    0.2600   -2.8960   20.1370 O   0  0  0  0  0
   -2.0560   -3.2950   19.7560 C   0  0  0  0  0
   -3.3660   -3.3210   20.2340 C   0  0  0  0  0
   -7.5269   -6.1938   21.1509 H   0  0  0  0  0
   -6.3355   -6.2156   19.8275 H   0  0  0  0  0
   -6.3099   -7.4913   21.0697 H   0  0  0  0  0
   -3.8508   -5.8477   20.4347 H   0  0  0  0  0
   -3.4399   -5.4241   22.1149 H   0  0  0  0  0
   -3.9896   -7.0715   21.7208 H   0  0  0  0  0
   -5.3547   -5.2530   23.8492 H   0  0  0  0  0
   -6.9956   -5.6976   23.3192 H   0  0  0  0  0
   -5.7205   -6.9379   23.4037 H   0  0  0  0  0
   -6.8386   -3.9374   21.8555 H   0  0  0  0  0
   -5.6997   -4.0062   20.3529 H   0  0  0  0  0
   -4.3311   -2.2462   23.9652 H   0  0  0  0  0
   -5.9433   -3.0024   23.9666 H   0  0  0  0  0
   -4.4834   -4.0184   23.8807 H   0  0  0  0  0
   -6.6018   -1.6021   22.0684 H   0  0  0  0  0
   -4.9896   -0.8459   22.0670 H   0  0  0  0  0
   -5.6311   -1.5778   20.5757 H   0  0  0  0  0
   -2.7902   -2.3383   23.4343 H   0  0  0  0  0
   -0.4605   -2.2987   22.5876 H   0  0  0  0  0
    0.2691   -3.1564   19.2130 H   0  0  0  0  0
   -1.8476   -3.5613   18.7198 H   0  0  0  0  0
   -4.1830   -3.5909   19.5649 H   0  0  0  0  0
  1  2  1  0  0  0
  2  3  1  0  0  0
  2  4  1  0  0  0
  2  5  1  0  0  0
  5  6  1  0  0  0
  6  7  1  0  0  0
  6  8  1  0  0  0
  6  9  1  0  0  0
  9 10  4  0  0  0
  9 15  4  0  0  0
 10 11  4  0  0  0
 11 12  4  0  0  0
 12 13  1  0  0  0
 12 14  4  0  0  0
 14 15  4  0  0  0
  1 16  1  0  0  0
  1 17  1  0  0  0
  1 18  1  0  0  0
  3 19  1  0  0  0
  3 20  1  0  0  0
  3 21  1  0  0  0
  4 22  1  0  0  0
  4 23  1  0  0  0
  4 24  1  0  0  0
  5 25  1  0  0  0
  5 26  1  0  0  0
  7 27  1  0  0  0
  7 28  1  0  0  0
  7 29  1  0  0  0
  8 30  1  0  0  0
  8 31  1  0  0  0
  8 32  1  0  0  0
 10 33  1  0  0  0
 11 34  1  0  0  0
 13 35  1  0  0  0
 14 36  1  0  0  0
 15 37  1  0  0  0
M  END
$$$$
