1r1i_ligand
  -I-interpret- 

 54 54  0  0  0  0  0  0  0  0999 V2000
   24.6370   50.5380   28.8190 S   0  0  0  0  0
   25.2310   51.3070   30.3380 C   0  0  0  0  0
   26.7050   50.9320   30.5450 C   0  0  0  0  0
   27.5970   52.1730   30.6430 C   0  0  0  0  0
   27.2820   52.9790   31.9070 C   0  0  0  0  0
   28.2230   54.1810   32.0450 C   0  0  0  0  0
   27.9920   55.1980   30.9210 C   0  0  0  0  0
   24.3950   50.7590   31.4460 C   0  0  0  0  0
   23.2000   50.9830   31.5400 O   0  0  0  0  0
   25.0040   49.9480   32.2840 N   0  0  0  0  0
   24.1530   49.4150   33.3220 C   0  0  0  0  0
   24.7250   48.1020   33.8160 C   0  0  0  0  0
   23.6370   47.5030   34.6660 C   0  0  0  0  0
   23.7520   47.4760   36.0440 C   0  0  0  0  0
   22.4960   47.0260   34.0670 C   0  0  0  0  0
   22.7350   46.9340   36.8160 C   0  0  0  0  0
   21.4770   46.5000   34.8290 C   0  0  0  0  0
   21.5900   46.4370   36.1980 C   0  0  0  0  0
   24.0060   50.3990   34.4340 C   0  0  0  0  0
   22.9050   50.6510   34.8230 O   0  0  0  0  0
   25.0830   50.9940   34.9350 N   0  0  0  0  0
   24.9070   51.9530   36.0020 C   0  0  0  0  0
   25.2390   51.3080   37.3420 C   0  0  0  0  0
   25.8060   53.0910   35.7870 C   0  0  0  0  0
   26.7660   52.8840   35.1070 O   0  0  0  0  0
   25.5940   54.2910   36.3130 O   0  0  0  0  0
   25.3471   50.9888   27.7887 H   0  0  0  0  0
   25.1570   52.3939   30.3014 H   0  0  0  0  0
   27.0322   50.3406   29.6898 H   0  0  0  0  0
   26.7896   50.3738   31.4774 H   0  0  0  0  0
   27.4150   52.8034   29.7726 H   0  0  0  0  0
   28.6380   51.8524   30.6838 H   0  0  0  0  0
   27.4134   52.3322   32.7745 H   0  0  0  0  0
   26.2572   53.3445   31.8408 H   0  0  0  0  0
   29.2519   53.8258   31.9868 H   0  0  0  0  0
   28.0275   54.6680   33.0004 H   0  0  0  0  0
   28.1749   54.7212   29.9581 H   0  0  0  0  0
   26.9629   55.5549   30.9615 H   0  0  0  0  0
   28.6746   56.0384   31.0472 H   0  0  0  0  0
   25.9941   49.7152   32.2071 H   0  0  0  0  0
   23.1578   49.2295   32.9179 H   0  0  0  0  0
   25.6462   48.2478   34.3801 H   0  0  0  0  0
   25.0033   47.4454   32.9917 H   0  0  0  0  0
   24.6429   47.8811   36.5239 H   0  0  0  0  0
   22.3970   47.0643   32.9822 H   0  0  0  0  0
   22.8314   46.8972   37.9011 H   0  0  0  0  0
   20.5738   46.1307   34.3433 H   0  0  0  0  0
   20.7891   46.0012   36.7953 H   0  0  0  0  0
   26.0128   50.7790   34.5749 H   0  0  0  0  0
   23.8707   52.2908   36.0079 H   0  0  0  0  0
   24.5764   50.4588   37.5091 H   0  0  0  0  0
   26.2741   50.9665   37.3329 H   0  0  0  0  0
   25.1032   52.0389   38.1392 H   0  0  0  0  0
   24.7826   54.2756   36.8258 H   0  0  0  0  0
  1  2  1  0  0  0
  2  3  1  0  0  0
  2  8  1  0  0  0
  3  4  1  0  0  0
  4  5  1  0  0  0
  5  6  1  0  0  0
  6  7  1  0  0  0
  8  9  2  0  0  0
  8 10  1  0  0  0
 10 11  1  0  0  0
 11 12  1  0  0  0
 11 19  1  0  0  0
 12 13  1  0  0  0
 13 14  4  0  0  0
 13 15  4  0  0  0
 14 16  4  0  0  0
 15 17  4  0  0  0
 16 18  4  0  0  0
 17 18  4  0  0  0
 19 20  2  0  0  0
 19 21  1  0  0  0
 21 22  1  0  0  0
 22 23  1  0  0  0
 22 24  1  0  0  0
 24 25  2  0  0  0
 24 26  1  0  0  0
  1 27  1  0  0  0
  2 28  1  0  0  0
  3 29  1  0  0  0
  3 30  1  0  0  0
  4 31  1  0  0  0
  4 32  1  0  0  0
  5 33  1  0  0  0
  5 34  1  0  0  0
  6 35  1  0  0  0
  6 36  1  0  0  0
  7 37  1  0  0  0
  7 38  1  0  0  0
  7 39  1  0  0  0
 10 40  1  0  0  0
 11 41  1  0  0  0
 12 42  1  0  0  0
 12 43  1  0  0  0
 14 44  1  0  0  0
 15 45  1  0  0  0
 16 46  1  0  0  0
 17 47  1  0  0  0
 18 48  1  0  0  0
 21 49  1  0  0  0
 22 50  1  0  0  0
 23 51  1  0  0  0
 23 52  1  0  0  0
 23 53  1  0  0  0
 26 54  1  0  0  0
M  END
$$$$
