3nq3_ligand
  -I-interpret- 

 32 31  0  0  0  0  0  0  0  0999 V2000
    8.0400   -0.6010    0.8160 C   0  0  0  0  0
    7.2490   -1.1220   -0.0040 O   0  0  0  0  0
    9.5150   -0.6680    0.5160 C   0  0  0  0  0
   10.0030   -2.1100    0.5520 C   0  0  0  0  0
   11.3370   -2.2170   -0.1660 C   0  0  0  0  0
   12.1390   -3.4130    0.3320 C   0  0  0  0  0
   13.5250   -3.3600   -0.2960 C   0  0  0  0  0
   14.2350   -4.6990   -0.1840 C   0  0  0  0  0
   15.2240   -4.8530   -1.3220 C   0  0  0  0  0
   16.6060   -5.2280   -0.8400 C   0  0  0  0  0
   17.6060   -5.1560   -1.9730 C   0  0  0  0  0
    7.6730   -0.0190    1.8620 O   0  0  0  0  0
    7.7483   -1.5094   -0.7267 H   0  0  0  0  0
   10.0553   -0.0929    1.2680 H   0  0  0  0  0
    9.6925   -0.2593   -0.4788 H   0  0  0  0  0
    9.2736   -2.7508    0.0566 H   0  0  0  0  0
   10.1243   -2.4246    1.5885 H   0  0  0  0  0
   11.9095   -1.3100    0.0283 H   0  0  0  0  0
   11.1482   -2.3452   -1.2318 H   0  0  0  0  0
   11.6384   -4.3397    0.0514 H   0  0  0  0  0
   12.2211   -3.3798    1.4184 H   0  0  0  0  0
   14.1153   -2.6097    0.2300 H   0  0  0  0  0
   13.4177   -3.1120   -1.3520 H   0  0  0  0  0
   13.4996   -5.5020   -0.2347 H   0  0  0  0  0
   14.7683   -4.7456    0.7655 H   0  0  0  0  0
   15.2958   -3.8952   -1.8374 H   0  0  0  0  0
   14.8666   -5.6510   -1.9728 H   0  0  0  0  0
   16.5806   -6.2482   -0.4570 H   0  0  0  0  0
   16.9079   -4.5302   -0.0590 H   0  0  0  0  0
   17.3087   -5.8459   -2.7627 H   0  0  0  0  0
   17.6336   -4.1403   -2.3675 H   0  0  0  0  0
   18.5936   -5.4301   -1.6022 H   0  0  0  0  0
  1  2  1  0  0  0
  1  3  1  0  0  0
  1 12  2  0  0  0
  3  4  1  0  0  0
  4  5  1  0  0  0
  5  6  1  0  0  0
  6  7  1  0  0  0
  7  8  1  0  0  0
  8  9  1  0  0  0
  9 10  1  0  0  0
 10 11  1  0  0  0
  2 13  1  0  0  0
  3 14  1  0  0  0
  3 15  1  0  0  0
  4 16  1  0  0  0
  4 17  1  0  0  0
  5 18  1  0  0  0
  5 19  1  0  0  0
  6 20  1  0  0  0
  6 21  1  0  0  0
  7 22  1  0  0  0
  7 23  1  0  0  0
  8 24  1  0  0  0
  8 25  1  0  0  0
  9 26  1  0  0  0
  9 27  1  0  0  0
 10 28  1  0  0  0
 10 29  1  0  0  0
 11 30  1  0  0  0
 11 31  1  0  0  0
 11 32  1  0  0  0
M  END
$$$$
