3mkn_ligand
  -I-interpret- 

 35 36  0  0  0  0  0  0  0  0999 V2000
   29.1690    3.7880   33.6030 O   0  0  0  0  0
   27.7760    3.4440   33.7790 C   0  0  0  0  0
   27.5870    2.2670   34.7420 C   0  0  0  0  0
   28.7830    1.4840   34.8640 O   0  0  0  0  0
   27.1530    3.0000   32.4520 C   0  0  0  0  0
   26.7350    1.6380   32.7260 N   0  3  0  0  0
   26.5480    1.3480   34.1270 C   0  0  0  0  0
   25.1330    1.6520   34.6620 C   0  0  0  0  0
   24.1120    0.9050   33.9870 O   0  0  0  0  0
   25.8820    3.6570   32.0970 C   0  0  0  0  0
   25.3120    3.3050   30.8700 C   0  0  0  0  0
   24.0870    3.8480   30.4770 C   0  0  0  0  0
   23.4300    4.7450   31.3250 C   0  0  0  0  0
   23.9900    5.0910   32.5630 C   0  0  0  0  0
   23.3510    5.9700   33.3880 N   0  0  0  0  0
   25.2200    4.5450   32.9560 C   0  0  0  0  0
   22.2390    5.2630   30.9180 N   0  0  0  0  0
   29.5385    4.0628   34.4454 H   0  0  0  0  0
   27.3010    4.3424   34.1731 H   0  0  0  0  0
   27.3068    2.6617   35.7186 H   0  0  0  0  0
   29.4780    2.0216   35.2508 H   0  0  0  0  0
   27.8758    3.1976   31.6604 H   0  0  0  0  0
   27.4740    1.0221   32.3870 H   0  0  0  0  0
   25.8343    1.5013   32.2673 H   0  0  0  0  0
   26.6564    0.2883   34.3582 H   0  0  0  0  0
   24.9348    2.7114   34.4991 H   0  0  0  0  0
   25.1078    1.3752   35.7160 H   0  0  0  0  0
   23.2551    1.1304   34.3564 H   0  0  0  0  0
   25.8273    2.6019   30.2156 H   0  0  0  0  0
   23.6469    3.5751   29.5179 H   0  0  0  0  0
   22.4606    6.3796   33.1054 H   0  0  0  0  0
   23.7637    6.2176   34.2873 H   0  0  0  0  0
   25.6569    4.8082   33.9193 H   0  0  0  0  0
   21.8480    4.9945   30.0150 H   0  0  0  0  0
   21.7374    5.9197   31.5160 H   0  0  0  0  0
  1  2  1  0  0  0
  2  3  1  0  0  0
  2  5  1  0  0  0
  3  4  1  0  0  0
  3  7  1  0  0  0
  5  6  1  0  0  0
  5 10  1  0  0  0
  6  7  1  0  0  0
  7  8  1  0  0  0
  8  9  1  0  0  0
 10 11  4  0  0  0
 10 16  4  0  0  0
 11 12  4  0  0  0
 12 13  4  0  0  0
 13 14  4  0  0  0
 13 17  1  0  0  0
 14 15  1  0  0  0
 14 16  4  0  0  0
  1 18  1  0  0  0
  2 19  1  0  0  0
  3 20  1  0  0  0
  4 21  1  0  0  0
  5 22  1  0  0  0
  6 23  1  0  0  0
  6 24  1  0  0  0
  7 25  1  0  0  0
  8 26  1  0  0  0
  8 27  1  0  0  0
  9 28  1  0  0  0
 11 29  1  0  0  0
 12 30  1  0  0  0
 15 31  1  0  0  0
 15 32  1  0  0  0
 16 33  1  0  0  0
 17 34  1  0  0  0
 17 35  1  0  0  0
M  END
$$$$
