4pvo_ligand
  -I-interpret- 

 26 27  0  0  0  0  0  0  0  0999 V2000
  -25.3700   -1.4860   64.4650 Cl  0  0  0  0  0
  -25.7660   -1.5810   62.7800 C   0  0  0  0  0
  -25.7210   -2.7730   62.1510 C   0  0  0  0  0
  -25.2730   -4.0070   62.8890 C   0  0  0  0  0
  -26.3050   -5.0450   63.2680 C   0  0  0  0  0
  -27.7960   -5.3830   62.7980 S   0  0  0  0  0
  -28.1500   -6.6820   63.6890 C   0  0  0  0  0
  -27.0630   -7.0690   64.5550 N   0  0  0  0  0
  -27.0450   -8.1660   65.4740 C   0  0  0  0  0
  -25.8950   -6.0290   64.2830 C   0  0  0  0  0
  -24.6790   -6.0930   64.9400 O   0  0  0  0  0
  -29.5790   -7.6630   63.7780 S   0  0  0  0  0
  -26.0430   -2.8760   60.6870 C   0  0  0  0  0
  -25.9530   -4.4540   59.9180 Cl  0  0  0  0  0
  -26.4100   -1.7370   60.0520 C   0  0  0  0  0
  -26.8270   -1.7050   58.3750 Cl  0  0  0  0  0
  -26.4850   -0.4030   60.7610 C   0  0  0  0  0
  -26.1800   -0.3230   62.0580 C   0  0  0  0  0
  -24.8792   -3.6412   63.8373 H   0  0  0  0  0
  -24.5985   -4.5176   62.2016 H   0  0  0  0  0
  -27.8405   -8.0367   66.2078 H   0  0  0  0  0
  -27.1995   -9.0973   64.9291 H   0  0  0  0  0
  -26.0814   -8.1966   65.9825 H   0  0  0  0  0
  -24.6843   -6.8350   65.5491 H   0  0  0  0  0
  -26.7872    0.4903   60.2144 H   0  0  0  0  0
  -26.2290    0.6305   62.5839 H   0  0  0  0  0
  1  2  1  0  0  0
  2  3  4  0  0  0
  2 18  4  0  0  0
  3  4  1  0  0  0
  3 13  4  0  0  0
  4  5  1  0  0  0
  5  6  1  0  0  0
  5 10  2  0  0  0
  6  7  1  0  0  0
  7  8  1  0  0  0
  7 12  2  0  0  0
  8  9  1  0  0  0
  8 10  1  0  0  0
 10 11  1  0  0  0
 13 14  1  0  0  0
 13 15  4  0  0  0
 15 16  1  0  0  0
 15 17  4  0  0  0
 17 18  4  0  0  0
  4 19  1  0  0  0
  4 20  1  0  0  0
  9 21  1  0  0  0
  9 22  1  0  0  0
  9 23  1  0  0  0
 11 24  1  0  0  0
 17 25  1  0  0  0
 18 26  1  0  0  0
M  END
$$$$
