4p73_ligand
  -I-interpret- 

 50 53  0  0  0  0  0  0  0  0999 V2000
   47.9350   30.0940   22.3880 N   0  0  0  0  0
   45.6620   22.6290   21.3040 N   0  0  0  0  0
   45.1170   23.0950   22.5270 C   0  0  0  0  0
   45.8490   22.1600   19.0360 N   0  0  0  0  0
   46.2210   21.3450   16.8760 N   0  0  0  0  0
   45.5330   24.0950   24.6690 C   0  0  0  0  0
   46.9000   26.3690   25.3990 N   0  0  0  0  0
   44.1730   24.1130   24.9460 C   0  0  0  0  0
   43.2860   23.6190   24.0010 C   0  0  0  0  0
   47.9310   24.1360   25.6540 O   0  0  0  0  0
   46.0440   24.7930   27.1050 O   0  0  0  0  0
   43.8290   22.7380   19.9200 O   0  0  0  0  0
   45.0280   22.5250   20.0910 C   0  0  0  0  0
   45.4070   21.8360   17.7700 C   0  0  0  0  0
   45.5330   21.1060   15.7050 C   0  0  0  0  0
   44.2210   21.4070   15.7110 C   0  0  0  0  0
   43.7640   22.0350   17.2460 S   0  0  0  0  0
   46.0100   23.5810   23.4730 C   0  0  0  0  0
   43.7490   23.1110   22.7970 C   0  0  0  0  0
   46.6700   24.7900   25.8200 S   0  0  0  0  0
   47.8540   26.6370   24.3000 C   0  0  0  0  0
   48.2670   28.1030   24.3280 C   0  0  0  0  0
   47.0860   28.9670   24.2410 N   0  0  0  0  0
   46.1630   28.7180   25.3530 C   0  0  0  0  0
   45.7160   27.2580   25.3640 C   0  0  0  0  0
   46.9450   29.9880   23.2980 C   0  0  0  0  0
   45.8240   30.8400   23.3000 C   0  0  0  0  0
   45.7470   31.8110   22.3110 C   0  0  0  0  0
   46.7500   31.9290   21.3770 C   0  0  0  0  0
   47.8190   31.0570   21.4540 C   0  0  0  0  0
   46.6390   22.3370   21.3283 H   0  0  0  0  0
   46.8539   22.1286   19.2081 H   0  0  0  0  0
   43.8072   24.5098   25.8930 H   0  0  0  0  0
   42.2157   23.6303   24.2068 H   0  0  0  0  0
   46.0247   20.6958   14.8229 H   0  0  0  0  0
   43.5460   21.2723   14.8658 H   0  0  0  0  0
   47.0818   23.5584   23.2760 H   0  0  0  0  0
   43.0437   22.7241   22.0615 H   0  0  0  0  0
   47.3787   26.4128   23.3451 H   0  0  0  0  0
   48.7365   26.0096   24.4254 H   0  0  0  0  0
   48.9187   28.3050   23.4780 H   0  0  0  0  0
   48.7890   28.3075   25.2628 H   0  0  0  0  0
   45.2864   29.3548   25.2337 H   0  0  0  0  0
   46.6726   28.9384   26.2910 H   0  0  0  0  0
   45.1034   27.0761   26.2470 H   0  0  0  0  0
   45.1381   27.0520   24.4631 H   0  0  0  0  0
   45.0425   30.7404   24.0533 H   0  0  0  0  0
   44.8889   32.4822   22.2744 H   0  0  0  0  0
   46.7027   32.6895   20.5976 H   0  0  0  0  0
   48.6149   31.1543   20.7156 H   0  0  0  0  0
 26  1  4  0  0  0
  1 30  4  0  0  0
  3  2  1  0  0  0
  2 13  1  0  0  0
 18  3  4  0  0  0
  3 19  4  0  0  0
 13  4  1  0  0  0
  4 14  1  0  0  0
 14  5  4  0  0  0
  5 15  4  0  0  0
  6  8  4  0  0  0
  6 18  4  0  0  0
 20  6  1  0  0  0
  7 20  1  0  0  0
 21  7  1  0  0  0
  7 25  1  0  0  0
  8  9  4  0  0  0
  9 19  4  0  0  0
 20 10  2  0  0  0
 20 11  2  0  0  0
 13 12  2  0  0  0
 14 17  4  0  0  0
 16 15  4  0  0  0
 17 16  4  0  0  0
 22 21  1  0  0  0
 23 22  1  0  0  0
 23 24  1  0  0  0
 23 26  1  0  0  0
 24 25  1  0  0  0
 26 27  4  0  0  0
 27 28  4  0  0  0
 28 29  4  0  0  0
 29 30  4  0  0  0
  2 31  1  0  0  0
  4 32  1  0  0  0
  8 33  1  0  0  0
  9 34  1  0  0  0
 15 35  1  0  0  0
 16 36  1  0  0  0
 18 37  1  0  0  0
 19 38  1  0  0  0
 21 39  1  0  0  0
 21 40  1  0  0  0
 22 41  1  0  0  0
 22 42  1  0  0  0
 24 43  1  0  0  0
 24 44  1  0  0  0
 25 45  1  0  0  0
 25 46  1  0  0  0
 27 47  1  0  0  0
 28 48  1  0  0  0
 29 49  1  0  0  0
 30 50  1  0  0  0
M  END
$$$$
