5k5e_ligand
  -I-interpret- 

 68 73  0  0  0  0  0  0  0  0999 V2000
    0.8880    7.8130   11.4680 O   0  0  0  0  0
    0.8830    7.1910   12.4910 C   0  0  0  0  0
   -0.3610    6.6890   13.1110 C   0  0  0  0  0
   -0.1850    5.1960   13.1610 C   0  0  0  0  0
    0.9320    4.8110   14.1090 C   0  0  0  0  0
    2.1780    5.6100   13.9010 C   0  0  0  0  0
    2.1530    6.8230   13.0960 C   0  0  0  0  0
    3.3030    7.6610   12.8560 C   0  0  0  0  0
    4.4840    7.0980   13.4940 C   0  0  0  0  0
    5.7680    7.8160   13.3370 C   0  0  0  0  0
    5.8000    9.1600   12.8920 O   0  0  0  0  0
    6.7790   10.0050   13.4300 C   0  0  0  0  0
    6.2270   11.3750   13.1930 C   0  0  0  0  0
    6.9910   11.9410   12.1630 O   0  0  0  0  0
    7.5170   13.1970   12.5600 C   0  0  0  0  0
    7.1330   13.4480   14.0030 C   0  0  0  0  0
    6.4120   12.2030   14.4380 C   0  0  0  0  0
    6.8210    7.3050   13.5570 O   0  0  0  0  0
    4.4160    5.8680   14.2900 C   0  0  0  0  0
    5.6340    5.3280   14.9550 C   0  0  0  0  0
    3.2930    5.2060   14.4500 N   0  0  0  0  0
    3.0390    8.9400   13.5370 C   0  0  0  0  0
    3.2640   10.0980   12.8220 C   0  0  0  0  0
    3.0730   11.3640   13.3380 C   0  0  0  0  0
    2.5950    9.0110   14.8500 C   0  0  0  0  0
    2.4000   10.2710   15.3750 C   0  0  0  0  0
    2.6300   11.4880   14.6240 C   0  0  0  0  0
    2.3530   12.5390   15.4050 N   0  0  0  0  0
    2.4950   13.8840   14.8940 C   0  0  0  0  0
    2.3830   14.9150   15.9740 C   0  0  0  0  0
    1.9520   12.1770   16.6320 C   0  0  0  0  0
    1.9600   10.7270   16.6720 C   0  0  0  0  0
    1.5960   10.0230   17.7870 C   0  0  0  0  0
    1.2140   10.7490   18.8970 C   0  0  0  0  0
    1.2010   12.1240   18.8810 C   0  0  0  0  0
    1.5660   12.8460   17.7620 C   0  0  0  0  0
   -1.2447    6.9761   12.5412 H   0  0  0  0  0
   -0.5224    7.1135   14.1019 H   0  0  0  0  0
    0.0669    4.8405   12.1619 H   0  0  0  0  0
   -1.1131    4.7467   13.5142 H   0  0  0  0  0
    1.1752    3.7642   13.9270 H   0  0  0  0  0
    0.5839    4.9981   15.1248 H   0  0  0  0  0
    3.4687    7.7607   11.7833 H   0  0  0  0  0
    7.7549    9.8620   12.9661 H   0  0  0  0  0
    6.9672    9.8074   14.4853 H   0  0  0  0  0
    5.1680   11.3367   12.9376 H   0  0  0  0  0
    7.1122   13.9858   11.9259 H   0  0  0  0  0
    8.6024   13.1927   12.4604 H   0  0  0  0  0
    6.5059   14.3337   14.1052 H   0  0  0  0  0
    8.0066   13.6459   14.6241 H   0  0  0  0  0
    6.9811   11.6601   15.1927 H   0  0  0  0  0
    5.4539   12.4421   14.8995 H   0  0  0  0  0
    6.3899    5.1068   14.2015 H   0  0  0  0  0
    6.0224    6.0678   15.6550 H   0  0  0  0  0
    5.3781    4.4155   15.4935 H   0  0  0  0  0
    3.2911    4.3572   15.0156 H   0  0  0  0  0
    3.6118   10.0084   11.7929 H   0  0  0  0  0
    3.2718   12.2473   12.7311 H   0  0  0  0  0
    2.4091    8.1127   15.4387 H   0  0  0  0  0
    1.6955   14.0591   14.1741 H   0  0  0  0  0
    3.4831   13.9723   14.4424 H   0  0  0  0  0
    1.4062   14.8351   16.4510 H   0  0  0  0  0
    3.1652   14.7496   16.7149 H   0  0  0  0  0
    2.4964   15.9082   15.5396 H   0  0  0  0  0
    1.6072    8.9331   17.7984 H   0  0  0  0  0
    0.9169   10.2222   19.8038 H   0  0  0  0  0
    0.8933   12.6601   19.7788 H   0  0  0  0  0
    1.5470   13.9357   17.7784 H   0  0  0  0  0
  1  2  2  0  0  0
  2  3  1  0  0  0
  2  7  1  0  0  0
  3  4  1  0  0  0
  4  5  1  0  0  0
  5  6  1  0  0  0
  6  7  2  0  0  0
  6 21  1  0  0  0
  7  8  1  0  0  0
  8  9  1  0  0  0
  8 22  1  0  0  0
  9 10  1  0  0  0
  9 19  2  0  0  0
 10 11  1  0  0  0
 10 18  2  0  0  0
 11 12  1  0  0  0
 12 13  1  0  0  0
 13 14  1  0  0  0
 13 17  1  0  0  0
 14 15  1  0  0  0
 15 16  1  0  0  0
 16 17  1  0  0  0
 19 20  1  0  0  0
 19 21  1  0  0  0
 22 23  4  0  0  0
 22 25  4  0  0  0
 23 24  4  0  0  0
 24 27  4  0  0  0
 25 26  4  0  0  0
 26 27  4  0  0  0
 26 32  4  0  0  0
 27 28  4  0  0  0
 28 29  1  0  0  0
 28 31  4  0  0  0
 29 30  1  0  0  0
 31 32  4  0  0  0
 31 36  4  0  0  0
 32 33  4  0  0  0
 33 34  4  0  0  0
 34 35  4  0  0  0
 35 36  4  0  0  0
  3 37  1  0  0  0
  3 38  1  0  0  0
  4 39  1  0  0  0
  4 40  1  0  0  0
  5 41  1  0  0  0
  5 42  1  0  0  0
  8 43  1  0  0  0
 12 44  1  0  0  0
 12 45  1  0  0  0
 13 46  1  0  0  0
 15 47  1  0  0  0
 15 48  1  0  0  0
 16 49  1  0  0  0
 16 50  1  0  0  0
 17 51  1  0  0  0
 17 52  1  0  0  0
 20 53  1  0  0  0
 20 54  1  0  0  0
 20 55  1  0  0  0
 21 56  1  0  0  0
 23 57  1  0  0  0
 24 58  1  0  0  0
 25 59  1  0  0  0
 29 60  1  0  0  0
 29 61  1  0  0  0
 30 62  1  0  0  0
 30 63  1  0  0  0
 30 64  1  0  0  0
 33 65  1  0  0  0
 34 66  1  0  0  0
 35 67  1  0  0  0
 36 68  1  0  0  0
M  END
$$$$
