4zeb_ligand
  -I-interpret- 

 67 69  0  0  0  0  0  0  0  0999 V2000
   33.0760   28.9000   36.0110 O   0  0  0  0  0
   32.5830   27.7640   36.7000 C   0  0  0  0  0
   33.4570   27.3070   37.8500 C   0  0  0  0  0
   34.5700   28.2100   38.0730 O   0  0  0  0  0
   33.9000   25.9260   37.8670 C   0  0  0  0  0
   34.6430   25.5790   39.0620 O   0  0  0  0  0
   32.9850   24.8700   37.2740 C   0  0  0  0  0
   32.4540   23.8380   38.1590 C   0  0  0  0  0
   31.2740   24.0890   38.8560 O   0  0  0  0  0
   31.8560   25.4720   36.4590 O   0  0  0  0  0
   32.1450   26.6590   35.7490 C   0  0  0  0  0
   33.1240   26.3910   34.7520 O   0  0  0  0  0
   32.7330   26.1980   33.3510 C   0  0  0  0  0
   32.5150   27.5460   32.6830 C   0  0  0  0  0
   33.2620   28.6250   33.1680 O   0  0  0  0  0
   33.8890   25.4810   32.6850 C   0  0  0  0  0
   35.1630   25.9260   33.0940 O   0  0  0  0  0
   31.6650   25.3030   33.1690 O   0  0  0  0  0
   32.1840   24.0230   32.9150 C   0  0  0  0  0
   31.6780   23.0480   33.9190 C   0  0  0  0  0
   30.2910   22.8660   33.8900 O   0  0  0  0  0
   33.6590   24.1390   32.9960 C   0  0  0  0  0
   34.2200   23.3090   31.9760 O   0  0  0  0  0
   36.2780   22.2170   30.9970 O   0  0  0  0  0
   35.3690   22.1880   32.1940 P   0  0  0  0  0
   36.1500   22.4360   33.4430 O   0  0  0  0  0
   34.6340   20.7850   32.3540 O   0  0  0  0  0
   34.2580   19.8840   31.2770 C   0  0  0  0  0
   32.8330   19.6390   31.3250 C   0  0  0  0  0
   32.0520   20.8620   31.0900 O   0  0  0  0  0
   32.3440   18.5840   30.4940 C   0  0  0  0  0
   32.5190   18.8820   29.0880 O   0  0  0  0  0
   33.1310   17.3100   30.7400 C   0  0  0  0  0
   34.5300   17.5370   30.6050 O   0  0  0  0  0
   35.0360   18.5850   31.4240 C   0  0  0  0  0
   36.3770   18.7440   31.1660 O   0  0  0  0  0
   33.3397   29.5691   36.6469 H   0  0  0  0  0
   31.6718   28.0872   37.2033 H   0  0  0  0  0
   32.7587   27.3464   38.6860 H   0  0  0  0  0
   34.2535   29.1162   38.0575 H   0  0  0  0  0
   34.6450   25.8940   37.0720 H   0  0  0  0  0
   35.1793   26.3278   39.3327 H   0  0  0  0  0
   33.6871   24.3344   36.6351 H   0  0  0  0  0
   33.2141   23.7102   38.9297 H   0  0  0  0  0
   32.2205   22.9987   37.5039 H   0  0  0  0  0
   31.0517   23.3245   39.3924 H   0  0  0  0  0
   31.2428   27.0129   35.2501 H   0  0  0  0  0
   31.4711   27.8020   32.8643 H   0  0  0  0  0
   32.8206   27.4159   31.6448 H   0  0  0  0  0
   33.0394   29.4158   32.6713 H   0  0  0  0  0
   33.9165   25.6745   31.6127 H   0  0  0  0  0
   35.8392   25.4266   32.6304 H   0  0  0  0  0
   31.8758   23.6623   31.9337 H   0  0  0  0  0
   31.9314   23.4390   34.9044 H   0  0  0  0  0
   32.1345   22.0847   33.6916 H   0  0  0  0  0
   30.0391   22.2273   34.5610 H   0  0  0  0  0
   34.0838   23.8463   33.9562 H   0  0  0  0  0
   35.7640   22.0564   30.2023 H   0  0  0  0  0
   34.4962   20.3312   30.3119 H   0  0  0  0  0
   32.6857   19.2915   32.3476 H   0  0  0  0  0
   31.1155   20.6550   31.1304 H   0  0  0  0  0
   31.2878   18.4716   30.7388 H   0  0  0  0  0
   32.1801   18.1532   28.5630 H   0  0  0  0  0
   32.8263   16.5647   30.0053 H   0  0  0  0  0
   32.9299   16.9665   31.7547 H   0  0  0  0  0
   34.9043   18.3019   32.4683 H   0  0  0  0  0
   36.8241   17.9010   31.2711 H   0  0  0  0  0
  1  2  1  0  0  0
  2  3  1  0  0  0
  2 11  1  0  0  0
  3  4  1  0  0  0
  3  5  1  0  0  0
  5  6  1  0  0  0
  5  7  1  0  0  0
  7  8  1  0  0  0
  7 10  1  0  0  0
  8  9  1  0  0  0
 10 11  1  0  0  0
 11 12  1  0  0  0
 12 13  1  0  0  0
 13 14  1  0  0  0
 13 16  1  0  0  0
 13 18  1  0  0  0
 14 15  1  0  0  0
 16 17  1  0  0  0
 16 22  1  0  0  0
 18 19  1  0  0  0
 19 20  1  0  0  0
 19 22  1  0  0  0
 20 21  1  0  0  0
 22 23  1  0  0  0
 23 25  1  0  0  0
 25 24  1  0  0  0
 25 26  2  0  0  0
 25 27  1  0  0  0
 27 28  1  0  0  0
 28 29  1  0  0  0
 28 35  1  0  0  0
 29 30  1  0  0  0
 29 31  1  0  0  0
 31 32  1  0  0  0
 31 33  1  0  0  0
 33 34  1  0  0  0
 34 35  1  0  0  0
 35 36  1  0  0  0
  1 37  1  0  0  0
  2 38  1  0  0  0
  3 39  1  0  0  0
  4 40  1  0  0  0
  5 41  1  0  0  0
  6 42  1  0  0  0
  7 43  1  0  0  0
  8 44  1  0  0  0
  8 45  1  0  0  0
  9 46  1  0  0  0
 11 47  1  0  0  0
 14 48  1  0  0  0
 14 49  1  0  0  0
 15 50  1  0  0  0
 16 51  1  0  0  0
 17 52  1  0  0  0
 19 53  1  0  0  0
 20 54  1  0  0  0
 20 55  1  0  0  0
 21 56  1  0  0  0
 22 57  1  0  0  0
 24 58  1  0  0  0
 28 59  1  0  0  0
 29 60  1  0  0  0
 30 61  1  0  0  0
 31 62  1  0  0  0
 32 63  1  0  0  0
 33 64  1  0  0  0
 33 65  1  0  0  0
 35 66  1  0  0  0
 36 67  1  0  0  0
M  END
$$$$
