2oz5_ligand
  -I-interpret- 

 66 69  0  0  0  0  0  0  0  0999 V2000
    8.3010   58.2470    8.1540 C   0  0  0  0  0
    9.2070   57.2080    8.3520 C   0  0  0  0  0
    9.8490   56.4170    6.9550 Cl  0  0  0  0  0
    9.5800   56.8200    9.6370 C   0  0  0  0  0
    9.0430   57.4870   10.7390 C   0  0  0  0  0
    8.1400   58.5390   10.5450 C   0  0  0  0  0
    7.7790   58.9230    9.2590 C   0  0  0  0  0
    6.8050   60.0830    9.0330 C   0  0  0  0  0
    7.4890   61.3600    9.4140 N   0  0  0  0  0
    6.9110   62.1320   10.3190 C   0  0  0  0  0
    5.8570   61.8140   10.8470 O   0  0  0  0  0
    7.4880   63.4970   10.6540 C   0  0  0  0  0
    7.9110   63.6520   11.8160 O   0  0  0  0  0
    7.3710   64.4040    9.7920 O   0  0  0  0  0
    8.7780   61.7270    8.8100 C   0  0  0  0  0
    8.6090   62.1220    7.3430 C   0  0  0  0  0
    7.7280   63.4480    6.8440 S   0  0  0  0  0
    9.1260   61.5280    6.2530 C   0  0  0  0  0
    8.8100   62.1100    5.0780 C   0  0  0  0  0
    8.0360   63.1950    5.2260 C   0  0  0  0  0
    7.4200   64.1580    3.9920 S   0  0  0  0  0
    6.7550   65.3510    4.5870 O   0  0  0  0  0
    8.5230   64.5900    3.0800 O   0  0  0  0  0
    6.2650   63.3380    3.1520 N   0  0  0  0  0
    5.2030   62.9770    4.1180 C   0  0  0  0  0
    3.9820   62.3540    3.4180 C   0  0  0  0  0
    4.2000   60.8760    3.1120 C   0  0  0  0  0
    4.4650   59.9990    4.3400 C   0  0  0  0  0
    3.6000   59.9470    5.4330 C   0  0  0  0  0
    3.9210   59.1030    6.5000 C   0  0  0  0  0
    5.0770   58.3150    6.4600 C   0  0  0  0  0
    5.9160   58.3660    5.3630 C   0  0  0  0  0
    5.6130   59.2130    4.3030 C   0  0  0  0  0
    3.0970   60.2490    2.2110 C   0  0  0  0  0
    1.7860   60.7150    2.1740 C   0  0  0  0  0
    0.8720   60.1260    1.2930 C   0  0  0  0  0
    1.2700   59.0700    0.4630 C   0  0  0  0  0
    2.5870   58.6050    0.4980 C   0  0  0  0  0
    3.4890   59.1970    1.3760 C   0  0  0  0  0
    8.0018   58.5303    7.1449 H   0  0  0  0  0
   10.2858   56.0018    9.7806 H   0  0  0  0  0
    9.3261   57.1895   11.7487 H   0  0  0  0  0
    7.7186   59.0587   11.4055 H   0  0  0  0  0
    5.9123   59.9431    9.6427 H   0  0  0  0  0
    6.5067   60.1193    7.9852 H   0  0  0  0  0
    7.0238   64.0288    8.9794 H   0  0  0  0  0
    9.4449   60.8665    8.8639 H   0  0  0  0  0
    9.1874   62.5780    9.3544 H   0  0  0  0  0
    9.7552   60.6401    6.3146 H   0  0  0  0  0
    9.1479   61.7379    4.1108 H   0  0  0  0  0
    6.2788   63.1203    2.1556 H   0  0  0  0  0
    4.8799   63.8849    4.6273 H   0  0  0  0  0
    5.6088   62.2445    4.8157 H   0  0  0  0  0
    3.8209   62.8793    2.4766 H   0  0  0  0  0
    3.1226   62.4439    4.0824 H   0  0  0  0  0
    5.1250   60.8844    2.5354 H   0  0  0  0  0
    2.6932   60.5515    5.4546 H   0  0  0  0  0
    3.2659   59.0582    7.3700 H   0  0  0  0  0
    5.3164   57.6589    7.2969 H   0  0  0  0  0
    6.8112   57.7450    5.3290 H   0  0  0  0  0
    6.2769   59.2617    3.4399 H   0  0  0  0  0
    1.4740   61.5314    2.8254 H   0  0  0  0  0
   -0.1544   60.4906    1.2524 H   0  0  0  0  0
    0.5494   58.6093   -0.2127 H   0  0  0  0  0
    2.9031   57.7901   -0.1533 H   0  0  0  0  0
    4.5167   58.8359    1.4141 H   0  0  0  0  0
  1  2  4  0  0  0
  1  7  4  0  0  0
  2  3  1  0  0  0
  2  4  4  0  0  0
  4  5  4  0  0  0
  5  6  4  0  0  0
  6  7  4  0  0  0
  7  8  1  0  0  0
  8  9  1  0  0  0
  9 10  1  0  0  0
  9 15  1  0  0  0
 10 11  2  0  0  0
 10 12  1  0  0  0
 12 13  2  0  0  0
 12 14  1  0  0  0
 15 16  1  0  0  0
 16 17  4  0  0  0
 16 18  4  0  0  0
 17 20  4  0  0  0
 18 19  4  0  0  0
 19 20  4  0  0  0
 20 21  1  0  0  0
 21 22  2  0  0  0
 21 23  2  0  0  0
 21 24  1  0  0  0
 24 25  1  0  0  0
 25 26  1  0  0  0
 26 27  1  0  0  0
 27 28  1  0  0  0
 27 34  1  0  0  0
 28 29  4  0  0  0
 28 33  4  0  0  0
 29 30  4  0  0  0
 30 31  4  0  0  0
 31 32  4  0  0  0
 32 33  4  0  0  0
 34 35  4  0  0  0
 34 39  4  0  0  0
 35 36  4  0  0  0
 36 37  4  0  0  0
 37 38  4  0  0  0
 38 39  4  0  0  0
  1 40  1  0  0  0
  4 41  1  0  0  0
  5 42  1  0  0  0
  6 43  1  0  0  0
  8 44  1  0  0  0
  8 45  1  0  0  0
 14 46  1  0  0  0
 15 47  1  0  0  0
 15 48  1  0  0  0
 18 49  1  0  0  0
 19 50  1  0  0  0
 24 51  1  0  0  0
 25 52  1  0  0  0
 25 53  1  0  0  0
 26 54  1  0  0  0
 26 55  1  0  0  0
 27 56  1  0  0  0
 29 57  1  0  0  0
 30 58  1  0  0  0
 31 59  1  0  0  0
 32 60  1  0  0  0
 33 61  1  0  0  0
 35 62  1  0  0  0
 36 63  1  0  0  0
 37 64  1  0  0  0
 38 65  1  0  0  0
 39 66  1  0  0  0
M  END
$$$$
