### 
### Created by X-TOOL on Mon Sep 10 21:12:54 2018
### 

@<TRIPOS>MOLECULE
2h9m_ligand
   98    97     1     0     0
SMALL
GAST_HUCK


@<TRIPOS>ATOM
      1 N          -4.4370  -10.1860    9.9610 N.4       1 ALA         0.2377
      2 CA         -4.1930   -9.3120    8.7830 C.3       1 ALA         0.0621
      3 C          -4.1600   -7.8300    9.1600 C.2       1 ALA         0.2264
      4 O          -4.4280   -7.4560   10.3060 O.2       1 ALA        -0.3907
      5 CB         -5.2360   -9.5810    7.6880 C.3       1 ALA        -0.0040
      6 N          -3.8030   -7.0040    8.1780 N.am      1 ARG        -0.2610
      7 CA         -3.7030   -5.5540    8.3150 C.3       1 ARG         0.1312
      8 C          -4.9560   -4.9380    8.9420 C.2       1 ARG         0.2040
      9 O          -4.8790   -3.9100    9.6110 O.2       1 ARG        -0.3944
     10 CB         -3.4520   -4.9550    6.9260 C.3       1 ARG        -0.0092
     11 CG         -3.2680   -3.4520    6.8650 C.3       1 ARG        -0.0156
     12 CD         -3.0840   -2.9990    5.4080 C.3       1 ARG         0.0627
     13 NE         -1.9270   -3.6300    4.7650 N.pl3     1 ARG        -0.2723
     14 CZ         -0.7050   -3.0980    4.7130 C.cat     1 ARG         0.2882
     15 NH1         0.2780   -3.7530    4.1000 N.pl3     1 ARG        -0.2849
     16 NH2        -0.4560   -1.9100    5.2560 N.pl3     1 ARG        -0.2849
     17 N          -6.0940   -5.5980    8.7370 N.am      1 THR        -0.2613
     18 CA         -7.4090   -5.1100    9.1830 C.3       1 THR         0.1565
     19 C          -7.6660   -5.2570   10.6950 C.2       1 THR         0.2065
     20 O          -8.6950   -4.7910   11.2070 O.2       1 THR        -0.3943
     21 CB         -8.5290   -5.8270    8.4130 C.3       1 THR         0.0924
     22 OG1        -8.3990   -7.2420    8.6020 O.3       1 THR        -0.3874
     23 CG2        -8.4320   -5.5130    6.9290 C.3       1 THR        -0.0346
     24 N          -6.7350   -5.9100   11.3920 N.am      1 LYS        -0.2637
     25 CA         -6.8010   -6.0720   12.8480 C.3       1 LYS         0.1310
     26 C          -5.5640   -5.4740   13.4920 C.2       1 LYS         0.2039
     27 O          -4.4420   -5.6540   12.9960 O.2       1 LYS        -0.3944
     28 CB         -6.8760   -7.5440   13.2380 C.3       1 LYS        -0.0122
     29 CG         -8.1730   -8.2450   12.9180 C.3       1 LYS        -0.0440
     30 CD         -8.1280   -9.6490   13.5050 C.3       1 LYS        -0.0124
     31 CE         -9.0090  -10.6070   12.7450 C.3       1 LYS        -0.0354
     32 NZ         -8.8290  -12.0080   13.2110 N.4       1 LYS         0.2185
     33 N          -5.7660   -4.7950   14.6160 N.am      1 GLN        -0.2636
     34 CA         -4.6740   -4.1320   15.3200 C.3       1 GLN         0.1330
     35 C          -3.6750   -5.1410   15.8850 C.2       1 GLN         0.2039
     36 O          -4.0600   -6.2040   16.3770 O.2       1 GLN        -0.3944
     37 CB         -5.2270   -3.2420   16.4260 C.3       1 GLN         0.0045
     38 CG         -4.2320   -2.2250   16.9510 C.3       1 GLN         0.0412
     39 CD         -4.6660   -1.6140   18.2630 C.2       1 GLN         0.1737
     40 OE1        -3.8360   -1.3310   19.1270 O.2       1 GLN        -0.3973
     41 NE2        -5.9710   -1.4010   18.4210 N.am      1 GLN        -0.3009
     42 N          -2.3930   -4.8020   15.7860 N.am      1 THR        -0.2650
     43 CA         -1.3060   -5.6750   16.2310 C.3       1 THR         0.1312
     44 C          -0.0610   -4.8520   16.5570 C.2       1 THR         0.2539
     45 O           1.0670   -5.3400   16.4410 O.2       1 THR        -0.3683
     46 O1         -0.1939   -3.5950   16.9707 O.3       1 THR        -0.2912
     47 H1         -4.4506  -11.1501    9.6670 H         1 ALA         0.2015
     48 H2         -5.3240   -9.9491   10.3772 H         1 ALA         0.2015
     49 H3         -3.7018  -10.0514   10.6373 H         1 ALA         0.2015
     50 H4         -3.2043   -9.5711    8.3763 H         1 ALA         0.1095
     51 H5         -5.0398   -8.9264    6.8260 H         1 ALA         0.0310
     52 H6         -6.2424   -9.3765    8.0820 H         1 ALA         0.0310
     53 H7         -5.1727  -10.6326    7.3717 H         1 ALA         0.0310
     54 H8         -3.5890   -7.4040    7.2868 H         1 ARG         0.1884
     55 H9         -2.8459   -5.3223    8.9644 H         1 ARG         0.0800
     56 H10        -4.3112   -5.2133    6.2896 H         1 ARG         0.0313
     57 H11        -2.5419   -5.4205    6.5200 H         1 ARG         0.0313
     58 H12        -2.3787   -3.1707    7.4481 H         1 ARG         0.0301
     59 H13        -4.1554   -2.9597    7.2893 H         1 ARG         0.0301
     60 H14        -2.9443   -1.9080    5.3928 H         1 ARG         0.0689
     61 H15        -3.9891   -3.2607    4.8403 H         1 ARG         0.0689
     62 H16        -2.0680   -4.5492    4.3221 H         1 ARG         0.2642
     63 H17         1.2223   -3.3437    4.0589 H         1 ARG         0.2615
     64 H18         0.0945   -4.6692    3.6667 H         1 ARG         0.2615
     65 H19        -1.2089   -1.3938    5.7330 H         1 ARG         0.2615
     66 H20         0.4898   -1.5060    5.1996 H         1 ARG         0.2615
     67 H21        -6.0531   -6.4726    8.2539 H         1 THR         0.1884
     68 H22        -7.4567   -4.0375    8.9433 H         1 THR         0.0826
     69 H23        -9.5052   -5.4923    8.7937 H         1 THR         0.0639
     70 H24        -8.4590   -7.4434    9.5285 H         1 THR         0.2101
     71 H25        -9.2388   -6.0322    6.3909 H         1 THR         0.0257
     72 H26        -7.4583   -5.8517    6.5454 H         1 THR         0.0257
     73 H27        -8.5288   -4.4279    6.7767 H         1 THR         0.0257
     74 H28        -5.9591   -6.3059   10.9009 H         1 LYS         0.1883
     75 H29        -7.6957   -5.5531   13.2226 H         1 LYS         0.0800
     76 H30        -6.7142   -7.6137   14.3238 H         1 LYS         0.0312
     77 H31        -6.0680   -8.0736   12.7121 H         1 LYS         0.0312
     78 H32        -8.3023   -8.3041   11.8272 H         1 LYS         0.0269
     79 H33        -9.0132   -7.6872   13.3572 H         1 LYS         0.0269
     80 H34        -8.4672   -9.6079   14.5506 H         1 LYS         0.0317
     81 H35        -7.0915  -10.0156   13.4699 H         1 LYS         0.0317
     82 H36        -8.7565  -10.5518   11.6758 H         1 LYS         0.0813
     83 H37       -10.0599  -10.3157   12.8891 H         1 LYS         0.0813
     84 H38        -9.4321  -12.6182   12.6818 H         1 LYS         0.1994
     85 H39        -9.0637  -12.0695   14.1894 H         1 LYS         0.1994
     86 H40        -7.8693  -12.2858   13.0775 H         1 LYS         0.1994
     87 H41        -6.6918   -4.7369   14.9895 H         1 GLN         0.1883
     88 H42        -4.1408   -3.4944   14.5995 H         1 GLN         0.0801
     89 H43        -5.5407   -3.8835   17.2627 H         1 GLN         0.0337
     90 H44        -6.0997   -2.7010   16.0315 H         1 GLN         0.0337
     91 H45        -4.1227   -1.4221   16.2072 H         1 GLN         0.0504
     92 H46        -3.2625   -2.7234   17.0978 H         1 GLN         0.0504
     93 H47        -6.3127   -0.9987   19.2703 H         1 GLN         0.1814
     94 H48        -6.6092   -1.6434   17.6903 H         1 GLN         0.1814
     95 H49        -2.1619   -3.9130   15.3908 H         1 THR         0.1882
     96 H50        -1.0672   -6.3924   15.4321 H         1 THR         0.0780
     97 H51        -1.6252   -6.2212   17.1309 H         1 THR         0.0780
     98 H52         0.2505   -3.0144   16.3640 H         1 THR         0.2540
@<TRIPOS>BOND
     1    2    1 1  
     2    2    5 1  
     3    3    2 1  
     4    3    4 2  
     5    7    6 1  
     6    7   10 1  
     7    8    7 1  
     8    8    9 2  
     9   10   11 1  
    10   11   12 1  
    11   12   13 1  
    12   13   14 ar 
    13   14   16 ar 
    14   14   15 ar 
    15    6    3 am 
    16   18   17 1  
    17   18   21 1  
    18   19   18 1  
    19   19   20 2  
    20   21   23 1  
    21   21   22 1  
    22   17    8 am 
    23   25   24 1  
    24   25   28 1  
    25   26   25 1  
    26   26   27 2  
    27   28   29 1  
    28   29   30 1  
    29   30   31 1  
    30   31   32 1  
    31   24   19 am 
    32   34   33 1  
    33   34   37 1  
    34   35   34 1  
    35   35   36 2  
    36   37   38 1  
    37   38   39 1  
    38   39   41 am 
    39   39   40 2  
    40   33   26 am 
    41   42   43 1  
    42   43   44 1  
    43   44   45 2  
    44   35   42 am 
    45   44   46 1  
    46    1   47 1  
    47    1   48 1  
    48    1   49 1  
    49    2   50 1  
    50    5   51 1  
    51    5   52 1  
    52    5   53 1  
    53    6   54 1  
    54    7   55 1  
    55   10   56 1  
    56   10   57 1  
    57   11   58 1  
    58   11   59 1  
    59   12   60 1  
    60   12   61 1  
    61   13   62 1  
    62   15   63 1  
    63   15   64 1  
    64   16   65 1  
    65   16   66 1  
    66   17   67 1  
    67   18   68 1  
    68   21   69 1  
    69   22   70 1  
    70   23   71 1  
    71   23   72 1  
    72   23   73 1  
    73   24   74 1  
    74   25   75 1  
    75   28   76 1  
    76   28   77 1  
    77   29   78 1  
    78   29   79 1  
    79   30   80 1  
    80   30   81 1  
    81   31   82 1  
    82   31   83 1  
    83   32   84 1  
    84   32   85 1  
    85   32   86 1  
    86   33   87 1  
    87   34   88 1  
    88   37   89 1  
    89   37   90 1  
    90   38   91 1  
    91   38   92 1  
    92   41   93 1  
    93   41   94 1  
    94   42   95 1  
    95   43   96 1  
    96   43   97 1  
    97   46   98 1  
@<TRIPOS>SUBSTRUCTURE
     1 ALA         1

