2h9m_ligand
  -I-interpret- 

 97 96  0  0  0  0  0  0  0  0999 V2000
   -4.4370  -10.1860    9.9610 N   0  3  0  0  0
   -4.1930   -9.3120    8.7830 C   0  0  0  0  0
   -4.1600   -7.8300    9.1600 C   0  0  0  0  0
   -4.4280   -7.4560   10.3060 O   0  0  0  0  0
   -5.2360   -9.5810    7.6880 C   0  0  0  0  0
   -3.8030   -7.0040    8.1780 N   0  0  0  0  0
   -3.7030   -5.5540    8.3150 C   0  0  0  0  0
   -4.9560   -4.9380    8.9420 C   0  0  0  0  0
   -4.8790   -3.9100    9.6110 O   0  0  0  0  0
   -3.4520   -4.9550    6.9260 C   0  0  0  0  0
   -3.2680   -3.4520    6.8650 C   0  0  0  0  0
   -3.0840   -2.9990    5.4080 C   0  0  0  0  0
   -1.9270   -3.6300    4.7650 N   0  0  0  0  0
   -0.7050   -3.0980    4.7130 C   0  0  0  0  0
    0.2780   -3.7530    4.1000 N   0  0  0  0  0
   -0.4560   -1.9100    5.2560 N   0  0  0  0  0
   -6.0940   -5.5980    8.7370 N   0  0  0  0  0
   -7.4090   -5.1100    9.1830 C   0  0  0  0  0
   -7.6660   -5.2570   10.6950 C   0  0  0  0  0
   -8.6950   -4.7910   11.2070 O   0  0  0  0  0
   -8.5290   -5.8270    8.4130 C   0  0  0  0  0
   -8.3990   -7.2420    8.6020 O   0  0  0  0  0
   -8.4320   -5.5130    6.9290 C   0  0  0  0  0
   -6.7350   -5.9100   11.3920 N   0  0  0  0  0
   -6.8010   -6.0720   12.8480 C   0  0  0  0  0
   -5.5640   -5.4740   13.4920 C   0  0  0  0  0
   -4.4420   -5.6540   12.9960 O   0  0  0  0  0
   -6.8760   -7.5440   13.2380 C   0  0  0  0  0
   -8.1730   -8.2450   12.9180 C   0  0  0  0  0
   -8.1280   -9.6490   13.5050 C   0  0  0  0  0
   -9.0090  -10.6070   12.7450 C   0  0  0  0  0
   -8.8290  -12.0080   13.2110 N   0  3  0  0  0
   -5.7660   -4.7950   14.6160 N   0  0  0  0  0
   -4.6740   -4.1320   15.3200 C   0  0  0  0  0
   -3.6750   -5.1410   15.8850 C   0  0  0  0  0
   -4.0600   -6.2040   16.3770 O   0  0  0  0  0
   -5.2270   -3.2420   16.4260 C   0  0  0  0  0
   -4.2320   -2.2250   16.9510 C   0  0  0  0  0
   -4.6660   -1.6140   18.2630 C   0  0  0  0  0
   -3.8360   -1.3310   19.1270 O   0  0  0  0  0
   -5.9710   -1.4010   18.4210 N   0  0  0  0  0
   -2.3930   -4.8020   15.7860 N   0  0  0  0  0
   -1.3060   -5.6750   16.2310 C   0  0  0  0  0
   -0.0610   -4.8520   16.5570 C   0  0  0  0  0
    1.0670   -5.3400   16.4410 O   0  0  0  0  0
   -0.1939   -3.5950   16.9707 O   0  0  0  0  0
   -4.4506  -11.1612    9.6623 H   0  0  0  0  0
   -3.6925  -10.0489   10.6446 H   0  0  0  0  0
   -5.3347   -9.9453   10.3813 H   0  0  0  0  0
   -3.2062   -9.5594    8.3917 H   0  0  0  0  0
   -6.2227   -9.2903    8.0486 H   0  0  0  0  0
   -4.9867   -9.0002    6.8000 H   0  0  0  0  0
   -5.2362  -10.6427    7.4411 H   0  0  0  0  0
   -3.5848   -7.4120    7.2690 H   0  0  0  0  0
   -2.8771   -5.3256    8.9886 H   0  0  0  0  0
   -4.3412   -5.1758    6.3355 H   0  0  0  0  0
   -2.5167   -5.3895    6.5730 H   0  0  0  0  0
   -2.3829   -3.1772    7.4387 H   0  0  0  0  0
   -4.1512   -2.9671    7.2807 H   0  0  0  0  0
   -2.9215   -1.9212    5.4091 H   0  0  0  0  0
   -3.9760   -3.2865    4.8515 H   0  0  0  0  0
   -2.0666   -4.5403    4.3264 H   0  0  0  0  0
    1.2107   -3.3430    4.0503 H   0  0  0  0  0
    0.0988   -4.6650    3.6798 H   0  0  0  0  0
   -1.2041   -1.3941    5.7193 H   0  0  0  0  0
   -6.0523   -6.4901    8.2442 H   0  0  0  0  0
   -7.4064   -4.0408    8.9709 H   0  0  0  0  0
   -9.4934   -5.4843    8.7879 H   0  0  0  0  0
   -9.0974   -7.6933    8.1222 H   0  0  0  0  0
   -8.5280   -4.4376    6.7794 H   0  0  0  0  0
   -7.4668   -5.8491    6.5502 H   0  0  0  0  0
   -9.2319   -6.0280    6.3969 H   0  0  0  0  0
   -5.9436   -6.3138   10.8911 H   0  0  0  0  0
   -7.6995   -5.5614   13.1944 H   0  0  0  0  0
   -6.7666   -7.5804   14.3219 H   0  0  0  0  0
   -6.1019   -8.0535   12.6641 H   0  0  0  0  0
   -8.3070   -8.2999   11.8377 H   0  0  0  0  0
   -9.0083   -7.6914   13.3469 H   0  0  0  0  0
   -8.4853   -9.6001   14.5336 H   0  0  0  0  0
   -7.1013  -10.0103   13.4463 H   0  0  0  0  0
   -8.7389  -10.5587   11.6901 H   0  0  0  0  0
  -10.0481  -10.3215   12.9088 H   0  0  0  0  0
   -9.4397  -12.6245   12.6749 H   0  0  0  0  0
   -7.8576  -12.2880   13.0755 H   0  0  0  0  0
   -9.0667  -12.0689   14.2010 H   0  0  0  0  0
   -6.7103   -4.7357   14.9970 H   0  0  0  0  0
   -4.1380   -3.5108   14.6024 H   0  0  0  0  0
   -5.4980   -3.8905   17.2591 H   0  0  0  0  0
   -6.0667   -2.6877   16.0068 H   0  0  0  0  0
   -4.1520   -1.4232   16.2170 H   0  0  0  0  0
   -3.2838   -2.7366   17.1159 H   0  0  0  0  0
   -6.3192   -0.9872   19.2858 H   0  0  0  0  0
   -6.6224   -1.6516   17.6772 H   0  0  0  0  0
   -2.1573   -3.8952   15.3829 H   0  0  0  0  0
   -1.0673   -6.3790   15.4338 H   0  0  0  0  0
   -1.6234   -6.2084   17.1270 H   0  0  0  0  0
   -1.1260   -3.3683   17.0077 H   0  0  0  0  0
  2  1  1  0  0  0
  2  5  1  0  0  0
  3  2  1  0  0  0
  3  4  2  0  0  0
  7  6  1  0  0  0
  7 10  1  0  0  0
  8  7  1  0  0  0
  8  9  2  0  0  0
 10 11  1  0  0  0
 11 12  1  0  0  0
 12 13  1  0  0  0
 13 14  1  0  0  0
 14 16  2  0  0  0
 14 15  1  0  0  0
  6  3  1  0  0  0
 18 17  1  0  0  0
 18 21  1  0  0  0
 19 18  1  0  0  0
 19 20  2  0  0  0
 21 23  1  0  0  0
 21 22  1  0  0  0
 17  8  1  0  0  0
 25 24  1  0  0  0
 25 28  1  0  0  0
 26 25  1  0  0  0
 26 27  2  0  0  0
 28 29  1  0  0  0
 29 30  1  0  0  0
 30 31  1  0  0  0
 31 32  1  0  0  0
 24 19  1  0  0  0
 34 33  1  0  0  0
 34 37  1  0  0  0
 35 34  1  0  0  0
 35 36  2  0  0  0
 37 38  1  0  0  0
 38 39  1  0  0  0
 39 41  1  0  0  0
 39 40  2  0  0  0
 33 26  1  0  0  0
 42 43  1  0  0  0
 43 44  1  0  0  0
 44 45  2  0  0  0
 35 42  1  0  0  0
 44 46  1  0  0  0
  1 47  1  0  0  0
  1 48  1  0  0  0
  1 49  1  0  0  0
  2 50  1  0  0  0
  5 51  1  0  0  0
  5 52  1  0  0  0
  5 53  1  0  0  0
  6 54  1  0  0  0
  7 55  1  0  0  0
 10 56  1  0  0  0
 10 57  1  0  0  0
 11 58  1  0  0  0
 11 59  1  0  0  0
 12 60  1  0  0  0
 12 61  1  0  0  0
 13 62  1  0  0  0
 15 63  1  0  0  0
 15 64  1  0  0  0
 16 65  1  0  0  0
 17 66  1  0  0  0
 18 67  1  0  0  0
 21 68  1  0  0  0
 22 69  1  0  0  0
 23 70  1  0  0  0
 23 71  1  0  0  0
 23 72  1  0  0  0
 24 73  1  0  0  0
 25 74  1  0  0  0
 28 75  1  0  0  0
 28 76  1  0  0  0
 29 77  1  0  0  0
 29 78  1  0  0  0
 30 79  1  0  0  0
 30 80  1  0  0  0
 31 81  1  0  0  0
 31 82  1  0  0  0
 32 83  1  0  0  0
 32 84  1  0  0  0
 32 85  1  0  0  0
 33 86  1  0  0  0
 34 87  1  0  0  0
 37 88  1  0  0  0
 37 89  1  0  0  0
 38 90  1  0  0  0
 38 91  1  0  0  0
 41 92  1  0  0  0
 41 93  1  0  0  0
 42 94  1  0  0  0
 43 95  1  0  0  0
 43 96  1  0  0  0
 46 97  1  0  0  0
M  END
$$$$
