2khh_ligand
  -I-interpret- 

126127  0  0  0  0  0  0  0  0999 V2000
   -0.4320  -47.0680   17.6060 N   0  3  0  0  0
   -1.6150  -47.9700   17.6950 C   0  0  0  0  0
   -2.5950  -47.6310   16.5770 C   0  0  0  0  0
   -2.3930  -46.6730   15.8300 O   0  0  0  0  0
   -2.2910  -47.7860   19.0550 C   0  0  0  0  0
   -2.5960  -46.3100   19.2900 C   0  0  0  0  0
   -1.7230  -45.6160   19.7830 O   0  0  0  0  0
   -3.6990  -45.8960   18.9730 O   0  0  0  0  0
   -3.6570  -48.4220   16.4670 N   0  0  0  0  0
   -4.6630  -48.1960   15.4360 C   0  0  0  0  0
   -5.9490  -48.9450   15.7700 C   0  0  0  0  0
   -6.2140  -49.2570   16.9310 O   0  0  0  0  0
   -4.1350  -48.6630   14.0790 C   0  0  0  0  0
   -5.1500  -48.5000   13.0980 O   0  0  0  0  0
   -6.7460  -49.2300   14.7440 N   0  0  0  0  0
   -8.0030  -49.9440   14.9400 C   0  0  0  0  0
   -9.1260  -48.9800   15.3100 C   0  0  0  0  0
  -10.2910  -49.3690   15.3870 O   0  0  0  0  0
   -8.7680  -47.7200   15.5370 N   0  0  0  0  0
   -9.7550  -46.7100   15.8970 C   0  0  0  0  0
  -10.6160  -46.3450   14.6860 C   0  0  0  0  0
  -10.2030  -46.5370   13.5420 O   0  0  0  0  0
   -9.0520  -45.4590   16.4310 C   0  0  0  0  0
  -10.0830  -44.4080   16.7430 C   0  0  0  0  0
  -10.4930  -43.5120   15.7500 C   0  0  0  0  0
  -10.6410  -44.3330   18.0270 C   0  0  0  0  0
  -11.4510  -42.5520   16.0400 C   0  0  0  0  0
  -11.6080  -43.3630   18.3130 C   0  0  0  0  0
  -12.0130  -42.4730   17.3160 C   0  0  0  0  0
  -11.8160  -45.8230   14.9450 N   0  0  0  0  0
  -12.7290  -45.4420   13.8650 C   0  0  0  0  0
  -13.4410  -44.1300   14.1950 C   0  0  0  0  0
  -13.6230  -43.7910   15.3640 O   0  0  0  0  0
  -13.7660  -46.5440   13.6490 C   0  0  0  0  0
  -13.1050  -47.7990   13.5560 O   0  0  0  0  0
  -13.8410  -43.3970   13.1540 N   0  0  0  0  0
  -14.5300  -42.1180   13.3420 C   0  0  0  0  0
  -15.9670  -42.1890   12.8300 C   0  0  0  0  0
  -16.8100  -42.8770   13.4050 O   0  0  0  0  0
  -13.7820  -41.0080   12.5970 C   0  0  0  0  0
  -12.5580  -40.6170   13.3840 C   0  0  0  0  0
  -12.6820  -39.7890   14.5070 C   0  0  0  0  0
  -11.3010  -41.0940   12.9980 C   0  0  0  0  0
  -11.5440  -39.4390   15.2450 C   0  0  0  0  0
  -10.1620  -40.7490   13.7340 C   0  0  0  0  0
  -10.2810  -39.9210   14.8600 C   0  0  0  0  0
  -16.2350  -41.4600   11.7470 N   0  0  0  0  0
  -17.5680  -41.4250   11.1560 C   0  0  0  0  0
  -18.2640  -42.7780   11.2760 C   0  0  0  0  0
  -17.6900  -43.8140   10.9420 O   0  0  0  0  0
  -19.5040  -42.7580   11.7560 N   0  0  0  0  0
  -20.2720  -43.9880   11.9190 C   0  0  0  0  0
  -20.0810  -44.9060   10.7160 C   0  0  0  0  0
  -20.7640  -44.7670    9.7020 O   0  0  0  0  0
  -21.7570  -43.6570   12.0790 C   0  0  0  0  0
  -21.9140  -42.6820   13.1020 O   0  0  0  0  0
  -19.1480  -45.8450   10.8380 N   0  0  0  0  0
  -18.8730  -46.7830    9.7550 C   0  0  0  0  0
  -19.8660  -47.9410    9.7850 C   0  0  0  0  0
  -20.2880  -48.3050   10.8700 O   0  0  0  0  0
  -17.4470  -47.3260    9.8860 C   0  0  0  0  0
  -17.0100  -47.9470    8.5580 C   0  0  0  0  0
  -15.6370  -48.6020    8.7260 C   0  0  0  0  0
  -15.0170  -48.8510    7.3500 C   0  0  0  0  0
  -15.9270  -49.7110    6.5440 N   0  3  0  0  0
  -20.1910  -48.4450    8.7220 O   0  0  0  0  0
    0.0195  -47.1899   16.6995 H   0  0  0  0  0
   -0.7358  -46.0997   17.7084 H   0  0  0  0  0
    0.2271  -47.2993   18.3493 H   0  0  0  0  0
   -1.2968  -49.0072   17.5899 H   0  0  0  0  0
   -1.6233  -48.1436   19.8388 H   0  0  0  0  0
   -3.2224  -48.3520   19.0722 H   0  0  0  0  0
   -4.2171  -46.6167   18.6072 H   0  0  0  0  0
   -3.7705  -49.2012   17.1154 H   0  0  0  0  0
   -4.8785  -47.1284   15.3926 H   0  0  0  0  0
   -3.8521  -49.7139   14.1398 H   0  0  0  0  0
   -3.2629  -48.0700   13.8034 H   0  0  0  0  0
   -4.8196  -48.7929   12.2456 H   0  0  0  0  0
   -6.4735  -48.9443   13.8035 H   0  0  0  0  0
   -7.8756  -50.6610   15.7511 H   0  0  0  0  0
   -8.2672  -50.4493   14.0110 H   0  0  0  0  0
   -7.7860  -47.4557   15.4579 H   0  0  0  0  0
  -10.4012  -47.1184   16.6740 H   0  0  0  0  0
   -8.3586  -45.0801   15.6801 H   0  0  0  0  0
   -8.4982  -45.7085   17.3360 H   0  0  0  0  0
  -10.0607  -43.5682   14.7510 H   0  0  0  0  0
  -10.3217  -45.0299   18.8019 H   0  0  0  0  0
  -11.7679  -41.8534   15.2656 H   0  0  0  0  0
  -12.0436  -43.3023   19.3103 H   0  0  0  0  0
  -12.7674  -41.7170   17.5336 H   0  0  0  0  0
  -12.1033  -45.6865   15.9141 H   0  0  0  0  0
  -12.1452  -45.3043   12.9549 H   0  0  0  0  0
  -14.3161  -46.3521   12.7278 H   0  0  0  0  0
  -14.4623  -46.5594   14.4875 H   0  0  0  0  0
  -13.7549  -48.4924   13.4203 H   0  0  0  0  0
  -13.6633  -43.7343   12.2079 H   0  0  0  0  0
  -14.5498  -41.8989   14.4096 H   0  0  0  0  0
  -14.4340  -40.1421   12.4824 H   0  0  0  0  0
  -13.4832  -41.3670   11.6121 H   0  0  0  0  0
  -13.6622  -39.4177   14.8061 H   0  0  0  0  0
  -11.2085  -41.7359   12.1219 H   0  0  0  0  0
  -11.6379  -38.7929   16.1178 H   0  0  0  0  0
   -9.1836  -41.1232   13.4327 H   0  0  0  0  0
   -9.3954  -39.6518   15.4356 H   0  0  0  0  0
  -15.4881  -40.9120   11.3201 H   0  0  0  0  0
  -17.4723  -41.1767   10.0990 H   0  0  0  0  0
  -18.1628  -40.6808   11.6857 H   0  0  0  0  0
  -19.9261  -41.8663   12.0150 H   0  0  0  0  0
  -19.9140  -44.5010   12.8116 H   0  0  0  0  0
  -22.3049  -44.5599   12.3485 H   0  0  0  0  0
  -22.1468  -43.2657   11.1393 H   0  0  0  0  0
  -22.8456  -42.4734   13.2034 H   0  0  0  0  0
  -18.6145  -45.9109   11.7048 H   0  0  0  0  0
  -18.9757  -46.2563    8.8063 H   0  0  0  0  0
  -17.4191  -48.0854   10.6674 H   0  0  0  0  0
  -16.7713  -46.5105   10.1441 H   0  0  0  0  0
  -16.9501  -47.1695    7.7965 H   0  0  0  0  0
  -17.7364  -48.7005    8.2537 H   0  0  0  0  0
  -15.7496  -49.5510    9.2502 H   0  0  0  0  0
  -14.9884  -47.9420    9.3020 H   0  0  0  0  0
  -14.0558  -49.3509    7.4696 H   0  0  0  0  0
  -14.8703  -47.8990    6.8399 H   0  0  0  0  0
  -15.5127  -49.8764    5.6267 H   0  0  0  0  0
  -16.0635  -50.6015    7.0223 H   0  0  0  0  0
  -16.8260  -49.2421    6.4328 H   0  0  0  0  0
  -19.7353  -47.9984    8.0048 H   0  0  0  0  0
  1  2  1  0  0  0
  2  3  1  0  0  0
  2  5  1  0  0  0
  3  4  2  0  0  0
  3  9  1  0  0  0
  5  6  1  0  0  0
  6  7  2  0  0  0
  6  8  1  0  0  0
  9 10  1  0  0  0
 10 11  1  0  0  0
 10 13  1  0  0  0
 11 12  2  0  0  0
 11 15  1  0  0  0
 13 14  1  0  0  0
 15 16  1  0  0  0
 16 17  1  0  0  0
 17 18  2  0  0  0
 17 19  1  0  0  0
 19 20  1  0  0  0
 20 21  1  0  0  0
 20 23  1  0  0  0
 21 22  2  0  0  0
 21 30  1  0  0  0
 23 24  1  0  0  0
 24 25  4  0  0  0
 24 26  4  0  0  0
 25 27  4  0  0  0
 26 28  4  0  0  0
 27 29  4  0  0  0
 28 29  4  0  0  0
 30 31  1  0  0  0
 31 32  1  0  0  0
 31 34  1  0  0  0
 32 33  2  0  0  0
 32 36  1  0  0  0
 34 35  1  0  0  0
 36 37  1  0  0  0
 37 38  1  0  0  0
 37 40  1  0  0  0
 38 39  2  0  0  0
 38 47  1  0  0  0
 40 41  1  0  0  0
 41 42  4  0  0  0
 41 43  4  0  0  0
 42 44  4  0  0  0
 43 45  4  0  0  0
 44 46  4  0  0  0
 45 46  4  0  0  0
 47 48  1  0  0  0
 48 49  1  0  0  0
 49 50  2  0  0  0
 49 51  1  0  0  0
 51 52  1  0  0  0
 52 53  1  0  0  0
 52 55  1  0  0  0
 53 54  2  0  0  0
 53 57  1  0  0  0
 55 56  1  0  0  0
 57 58  1  0  0  0
 58 59  1  0  0  0
 58 61  1  0  0  0
 59 60  2  0  0  0
 59 66  1  0  0  0
 61 62  1  0  0  0
 62 63  1  0  0  0
 63 64  1  0  0  0
 64 65  1  0  0  0
  1 67  1  0  0  0
  1 68  1  0  0  0
  1 69  1  0  0  0
  2 70  1  0  0  0
  5 71  1  0  0  0
  5 72  1  0  0  0
  8 73  1  0  0  0
  9 74  1  0  0  0
 10 75  1  0  0  0
 13 76  1  0  0  0
 13 77  1  0  0  0
 14 78  1  0  0  0
 15 79  1  0  0  0
 16 80  1  0  0  0
 16 81  1  0  0  0
 19 82  1  0  0  0
 20 83  1  0  0  0
 23 84  1  0  0  0
 23 85  1  0  0  0
 25 86  1  0  0  0
 26 87  1  0  0  0
 27 88  1  0  0  0
 28 89  1  0  0  0
 29 90  1  0  0  0
 30 91  1  0  0  0
 31 92  1  0  0  0
 34 93  1  0  0  0
 34 94  1  0  0  0
 35 95  1  0  0  0
 36 96  1  0  0  0
 37 97  1  0  0  0
 40 98  1  0  0  0
 40 99  1  0  0  0
 42100  1  0  0  0
 43101  1  0  0  0
 44102  1  0  0  0
 45103  1  0  0  0
 46104  1  0  0  0
 47105  1  0  0  0
 48106  1  0  0  0
 48107  1  0  0  0
 51108  1  0  0  0
 52109  1  0  0  0
 55110  1  0  0  0
 55111  1  0  0  0
 56112  1  0  0  0
 57113  1  0  0  0
 58114  1  0  0  0
 61115  1  0  0  0
 61116  1  0  0  0
 62117  1  0  0  0
 62118  1  0  0  0
 63119  1  0  0  0
 63120  1  0  0  0
 64121  1  0  0  0
 64122  1  0  0  0
 65123  1  0  0  0
 65124  1  0  0  0
 65125  1  0  0  0
 66126  1  0  0  0
M  END
$$$$
