### 
### Created by X-TOOL on Mon Sep 10 21:13:02 2018
### 

@<TRIPOS>MOLECULE
2khh_ligand
  124   125     1     0     0
SMALL
GAST_HUCK


@<TRIPOS>ATOM
      1 N          -0.4320  -47.0680   17.6060 N.4       1 ASP         0.2391
      2 CA         -1.6150  -47.9700   17.6950 C.3       1 ASP         0.0764
      3 C          -2.5950  -47.6310   16.5770 C.2       1 ASP         0.2285
      4 O          -2.3930  -46.6730   15.8300 O.2       1 ASP        -0.3906
      5 CB         -2.2910  -47.7860   19.0550 C.3       1 ASP         0.0607
      6 CG         -2.5960  -46.3100   19.2900 C.2       1 ASP         0.0425
      7 OD1        -1.7230  -45.6160   19.7830 O.co2     1 ASP        -0.5686
      8 OD2        -3.6990  -45.8960   18.9730 O.co2     1 ASP        -0.5686
      9 N          -3.6570  -48.4220   16.4670 N.am      1 SER        -0.2588
     10 CA         -4.6630  -48.1960   15.4360 C.3       1 SER         0.1540
     11 C          -5.9490  -48.9450   15.7700 C.2       1 SER         0.2060
     12 O          -6.2140  -49.2570   16.9310 O.2       1 SER        -0.3943
     13 CB         -4.1350  -48.6630   14.0790 C.3       1 SER         0.0843
     14 OG         -5.1500  -48.5000   13.0980 O.3       1 SER        -0.3903
     15 N          -6.7460  -49.2300   14.7440 N.am      1 GLY        -0.2663
     16 CA         -8.0030  -49.9440   14.9400 C.3       1 GLY         0.1201
     17 C          -9.1260  -48.9800   15.3100 C.2       1 GLY         0.2009
     18 O         -10.2910  -49.3690   15.3870 O.2       1 GLY        -0.3947
     19 N          -8.7680  -47.7200   15.5370 N.am      1 PHE        -0.2622
     20 CA         -9.7550  -46.7100   15.8970 C.3       1 PHE         0.1404
     21 C         -10.6160  -46.3450   14.6860 C.2       1 PHE         0.2060
     22 O         -10.2030  -46.5370   13.5420 O.2       1 PHE        -0.3942
     23 CB         -9.0520  -45.4590   16.4310 C.3       1 PHE         0.0214
     24 CG        -10.0830  -44.4080   16.7430 C.ar      1 PHE        -0.0386
     25 CD1       -10.4930  -43.5120   15.7500 C.ar      1 PHE        -0.0601
     26 CD2       -10.6410  -44.3330   18.0270 C.ar      1 PHE        -0.0601
     27 CE1       -11.4510  -42.5520   16.0400 C.ar      1 PHE        -0.0686
     28 CE2       -11.6080  -43.3630   18.3130 C.ar      1 PHE        -0.0686
     29 CZ        -12.0130  -42.4730   17.3160 C.ar      1 PHE        -0.0687
     30 N         -11.8160  -45.8230   14.9450 N.am      1 SER        -0.2614
     31 CA        -12.7290  -45.4420   13.8650 C.3       1 SER         0.1539
     32 C         -13.4410  -44.1300   14.1950 C.2       1 SER         0.2063
     33 O         -13.6230  -43.7910   15.3640 O.2       1 SER        -0.3943
     34 CB        -13.7660  -46.5440   13.6490 C.3       1 SER         0.0843
     35 OG        -13.1050  -47.7990   13.5560 O.3       1 SER        -0.3903
     36 N         -13.8410  -43.3970   13.1540 N.am      1 PHE        -0.2619
     37 CA        -14.5300  -42.1180   13.3420 C.3       1 PHE         0.1404
     38 C         -15.9670  -42.1890   12.8300 C.2       1 PHE         0.2058
     39 O         -16.8100  -42.8770   13.4050 O.2       1 PHE        -0.3942
     40 CB        -13.7820  -41.0080   12.5970 C.3       1 PHE         0.0214
     41 CG        -12.5580  -40.6170   13.3840 C.ar      1 PHE        -0.0386
     42 CD1       -12.6820  -39.7890   14.5070 C.ar      1 PHE        -0.0601
     43 CD2       -11.3010  -41.0940   12.9980 C.ar      1 PHE        -0.0601
     44 CE1       -11.5440  -39.4390   15.2450 C.ar      1 PHE        -0.0686
     45 CE2       -10.1620  -40.7490   13.7340 C.ar      1 PHE        -0.0686
     46 CZ        -10.2810  -39.9210   14.8600 C.ar      1 PHE        -0.0687
     47 N         -16.2350  -41.4600   11.7470 N.am      1 GLY        -0.2663
     48 CA        -17.5680  -41.4250   11.1560 C.3       1 GLY         0.1201
     49 C         -18.2640  -42.7780   11.2760 C.2       1 GLY         0.2008
     50 O         -17.6900  -43.8140   10.9420 O.2       1 GLY        -0.3947
     51 N         -19.5040  -42.7580   11.7560 N.am      1 SER        -0.2618
     52 CA        -20.2720  -43.9880   11.9190 C.3       1 SER         0.1539
     53 C         -20.0810  -44.9060   10.7160 C.2       1 SER         0.2056
     54 O         -20.7640  -44.7670    9.7020 O.2       1 SER        -0.3943
     55 CB        -21.7570  -43.6570   12.0790 C.3       1 SER         0.0843
     56 OG        -21.9140  -42.6820   13.1020 O.3       1 SER        -0.3903
     57 N         -19.1480  -45.8450   10.8380 N.am      1 LYS        -0.2694
     58 CA        -18.8730  -46.7830    9.7550 C.3       1 LYS         0.0944
     59 C         -19.8660  -47.9410    9.7850 C.2       1 LYS         0.0601
     60 O         -20.2880  -48.3050   10.8700 O.co2     1 LYS        -0.5666
     61 CB        -17.4470  -47.3260    9.8860 C.3       1 LYS        -0.0177
     62 CG        -17.0100  -47.9470    8.5580 C.3       1 LYS        -0.0446
     63 CD        -15.6370  -48.6020    8.7260 C.3       1 LYS        -0.0125
     64 CE        -15.0170  -48.8510    7.3500 C.3       1 LYS        -0.0354
     65 NZ        -15.9270  -49.7110    6.5440 N.4       1 LYS         0.2185
     66 OXT       -20.1910  -48.4450    8.7220 O.co2     1 LYS        -0.5666
     67 H           0.0195  -47.1899   16.6995 H         1 ASP         0.2016
     68 H          -0.7358  -46.0997   17.7084 H         1 ASP         0.2016
     69 H           0.2271  -47.2993   18.3493 H         1 ASP         0.2016
     70 H          -1.2968  -49.0072   17.5899 H         1 ASP         0.1117
     71 H          -1.6233  -48.1436   19.8388 H         1 ASP         0.0512
     72 H          -3.2224  -48.3520   19.0722 H         1 ASP         0.0512
     73 H          -3.7705  -49.2012   17.1154 H         1 SER         0.1885
     74 H          -4.8785  -47.1284   15.3926 H         1 SER         0.0823
     75 H          -3.8521  -49.7139   14.1398 H         1 SER         0.0606
     76 H          -3.2629  -48.0700   13.8034 H         1 SER         0.0606
     77 H          -4.8196  -48.7929   12.2456 H         1 SER         0.2097
     78 H          -6.4735  -48.9443   13.8035 H         1 GLY         0.1881
     79 H          -7.8756  -50.6610   15.7511 H         1 GLY         0.0763
     80 H          -8.2672  -50.4493   14.0110 H         1 GLY         0.0763
     81 H          -7.7860  -47.4557   15.4579 H         1 PHE         0.1885
     82 H         -10.4012  -47.1184   16.6740 H         1 PHE         0.0823
     83 H          -8.3586  -45.0801   15.6801 H         1 PHE         0.0474
     84 H          -8.4982  -45.7085   17.3360 H         1 PHE         0.0474
     85 H         -10.0607  -43.5682   14.7510 H         1 PHE         0.0557
     86 H         -10.3217  -45.0299   18.8019 H         1 PHE         0.0557
     87 H         -11.7679  -41.8534   15.2656 H         1 PHE         0.0599
     88 H         -12.0436  -43.3023   19.3103 H         1 PHE         0.0599
     89 H         -12.7674  -41.7170   17.5336 H         1 PHE         0.0559
     90 H         -12.1033  -45.6865   15.9141 H         1 SER         0.1884
     91 H         -12.1452  -45.3043   12.9549 H         1 SER         0.0823
     92 H         -14.3161  -46.3521   12.7278 H         1 SER         0.0606
     93 H         -14.4623  -46.5594   14.4875 H         1 SER         0.0606
     94 H         -13.7549  -48.4924   13.4203 H         1 SER         0.2097
     95 H         -13.6633  -43.7343   12.2079 H         1 PHE         0.1885
     96 H         -14.5498  -41.8989   14.4096 H         1 PHE         0.0823
     97 H         -14.4340  -40.1421   12.4824 H         1 PHE         0.0474
     98 H         -13.4832  -41.3670   11.6121 H         1 PHE         0.0474
     99 H         -13.6622  -39.4177   14.8061 H         1 PHE         0.0557
    100 H         -11.2085  -41.7359   12.1219 H         1 PHE         0.0557
    101 H         -11.6379  -38.7929   16.1178 H         1 PHE         0.0599
    102 H          -9.1836  -41.1232   13.4327 H         1 PHE         0.0599
    103 H          -9.3954  -39.6518   15.4356 H         1 PHE         0.0559
    104 H         -15.4881  -40.9120   11.3201 H         1 GLY         0.1881
    105 H         -17.4723  -41.1767   10.0990 H         1 GLY         0.0763
    106 H         -18.1628  -40.6808   11.6857 H         1 GLY         0.0763
    107 H         -19.9261  -41.8663   12.0150 H         1 SER         0.1884
    108 H         -19.9140  -44.5010   12.8116 H         1 SER         0.0823
    109 H         -22.3049  -44.5599   12.3485 H         1 SER         0.0606
    110 H         -22.1468  -43.2657   11.1393 H         1 SER         0.0606
    111 H         -22.8456  -42.4734   13.2034 H         1 SER         0.2097
    112 H         -18.6145  -45.9109   11.7048 H         1 LYS         0.1875
    113 H         -18.9757  -46.2563    8.8063 H         1 LYS         0.0726
    114 H         -17.4191  -48.0854   10.6674 H         1 LYS         0.0305
    115 H         -16.7713  -46.5105   10.1441 H         1 LYS         0.0305
    116 H         -16.9501  -47.1695    7.7965 H         1 LYS         0.0269
    117 H         -17.7364  -48.7005    8.2537 H         1 LYS         0.0269
    118 H         -15.7496  -49.5510    9.2502 H         1 LYS         0.0317
    119 H         -14.9884  -47.9420    9.3020 H         1 LYS         0.0317
    120 H         -14.0558  -49.3509    7.4696 H         1 LYS         0.0813
    121 H         -14.8703  -47.8990    6.8399 H         1 LYS         0.0813
    122 H         -15.5127  -49.8764    5.6267 H         1 LYS         0.1994
    123 H         -16.0635  -50.6015    7.0223 H         1 LYS         0.1994
    124 H         -16.8260  -49.2421    6.4328 H         1 LYS         0.1994
@<TRIPOS>BOND
     1    1    2 1  
     2    2    3 1  
     3    2    5 1  
     4    3    4 2  
     5    3    9 am 
     6    5    6 1  
     7    6    7 ar 
     8    6    8 ar 
     9    9   10 1  
    10   10   11 1  
    11   10   13 1  
    12   11   12 2  
    13   11   15 am 
    14   13   14 1  
    15   15   16 1  
    16   16   17 1  
    17   17   18 2  
    18   17   19 am 
    19   19   20 1  
    20   20   21 1  
    21   20   23 1  
    22   21   22 2  
    23   21   30 am 
    24   23   24 1  
    25   24   25 ar 
    26   24   26 ar 
    27   25   27 ar 
    28   26   28 ar 
    29   27   29 ar 
    30   28   29 ar 
    31   30   31 1  
    32   31   32 1  
    33   31   34 1  
    34   32   33 2  
    35   32   36 am 
    36   34   35 1  
    37   36   37 1  
    38   37   38 1  
    39   37   40 1  
    40   38   39 2  
    41   38   47 am 
    42   40   41 1  
    43   41   42 ar 
    44   41   43 ar 
    45   42   44 ar 
    46   43   45 ar 
    47   44   46 ar 
    48   45   46 ar 
    49   47   48 1  
    50   48   49 1  
    51   49   50 2  
    52   49   51 am 
    53   51   52 1  
    54   52   53 1  
    55   52   55 1  
    56   53   54 2  
    57   53   57 am 
    58   55   56 1  
    59   57   58 1  
    60   58   59 1  
    61   58   61 1  
    62   59   60 ar 
    63   59   66 ar 
    64   61   62 1  
    65   62   63 1  
    66   63   64 1  
    67   64   65 1  
    68    1   67 1  
    69    1   68 1  
    70    1   69 1  
    71    2   70 1  
    72    5   71 1  
    73    5   72 1  
    74    9   73 1  
    75   10   74 1  
    76   13   75 1  
    77   13   76 1  
    78   14   77 1  
    79   15   78 1  
    80   16   79 1  
    81   16   80 1  
    82   19   81 1  
    83   20   82 1  
    84   23   83 1  
    85   23   84 1  
    86   25   85 1  
    87   26   86 1  
    88   27   87 1  
    89   28   88 1  
    90   29   89 1  
    91   30   90 1  
    92   31   91 1  
    93   34   92 1  
    94   34   93 1  
    95   35   94 1  
    96   36   95 1  
    97   37   96 1  
    98   40   97 1  
    99   40   98 1  
   100   42   99 1  
   101   43  100 1  
   102   44  101 1  
   103   45  102 1  
   104   46  103 1  
   105   47  104 1  
   106   48  105 1  
   107   48  106 1  
   108   51  107 1  
   109   52  108 1  
   110   55  109 1  
   111   55  110 1  
   112   56  111 1  
   113   57  112 1  
   114   58  113 1  
   115   61  114 1  
   116   61  115 1  
   117   62  116 1  
   118   62  117 1  
   119   63  118 1  
   120   63  119 1  
   121   64  120 1  
   122   64  121 1  
   123   65  122 1  
   124   65  123 1  
   125   65  124 1  
@<TRIPOS>SUBSTRUCTURE
     1 ASP         1

