5zfi_ligand
  -I-interpret- 

 66 69  0  0  0  0  0  0  0  0999 V2000
  -10.9690   24.7660   51.5860 C   0  0  0  0  0
  -10.6570   24.4730   50.4280 O   0  0  0  0  0
  -10.4330   21.1920   54.3210 Cl  0  0  0  0  0
  -11.9730   20.6730   53.6010 C   0  0  0  0  0
  -12.6450   19.6120   54.1850 C   0  0  0  0  0
  -13.8310   19.1520   53.6450 C   0  0  0  0  0
  -14.3750   19.8070   52.5520 C   0  0  0  0  0
  -13.6850   20.8610   51.9600 C   0  0  0  0  0
  -14.3900   21.6920   50.5750 Cl  0  0  0  0  0
  -12.5160   21.3410   52.5060 C   0  0  0  0  0
  -11.7340   22.4220   51.7550 C   0  0  0  0  0
  -11.7290   23.7950   52.4310 C   0  0  0  0  0
  -13.1340   24.2430   52.6480 C   0  0  0  0  0
  -13.2970   25.3210   53.5910 N   0  0  0  0  0
  -12.4540   26.3300   53.8240 C   0  0  0  0  0
  -12.9230   27.2860   54.5020 N   0  0  0  0  0
  -14.2190   27.1760   54.8780 N   0  0  0  0  0
  -15.1220   28.1870   54.2900 C   0  0  0  0  0
  -14.3370   27.1080   56.3510 C   0  0  0  0  0
  -10.9360   26.2580   53.5620 C   0  0  0  0  0
  -10.5970   25.9090   52.1630 N   0  0  0  0  0
   -9.7370   26.8590   51.4360 C   0  0  0  0  0
   -8.4460   26.1550   50.9730 C   0  0  0  0  0
   -7.9510   25.2780   51.6670 O   0  0  0  0  0
   -7.9070   26.5700   49.7990 N   0  0  0  0  0
   -6.7730   25.9890   49.2400 C   0  0  0  0  0
   -5.8440   25.2310   49.9940 C   0  0  0  0  0
   -4.7430   24.6330   49.3540 C   0  0  0  0  0
   -4.5420   24.8250   47.9890 C   0  0  0  0  0
   -5.4460   25.5710   47.2490 C   0  0  0  0  0
   -6.5420   26.1650   47.8700 C   0  0  0  0  0
   -3.7400   23.8300   50.1240 C   0  0  0  0  0
   -3.9950   22.9680   51.2020 C   0  0  0  0  0
   -2.8130   22.4270   51.5970 N   0  0  0  0  0
   -1.8450   22.9490   50.7330 N   0  0  0  0  0
   -0.4480   22.4990   50.9870 C   0  0  0  0  0
   -2.3750   23.7890   49.8590 C   0  0  0  0  0
  -12.2357   19.1367   55.0764 H   0  0  0  0  0
  -14.3324   18.2843   54.0738 H   0  0  0  0  0
  -15.3422   19.4973   52.1562 H   0  0  0  0  0
  -12.2174   22.5475   50.7861 H   0  0  0  0  0
  -10.6974   22.0882   51.7077 H   0  0  0  0  0
  -11.2362   23.7353   53.4014 H   0  0  0  0  0
  -13.6754   23.3884   53.0537 H   0  0  0  0  0
  -13.4968   24.6101   51.6879 H   0  0  0  0  0
  -14.1544   25.3120   54.1435 H   0  0  0  0  0
  -14.7917   29.1829   54.5852 H   0  0  0  0  0
  -15.1009   28.1030   53.2034 H   0  0  0  0  0
  -16.1372   28.0182   54.6491 H   0  0  0  0  0
  -13.7899   26.2398   56.7183 H   0  0  0  0  0
  -13.9198   28.0143   56.7899 H   0  0  0  0  0
  -15.3880   27.0200   56.6263 H   0  0  0  0  0
  -10.5283   25.4769   54.2037 H   0  0  0  0  0
  -10.5202   27.2450   53.7646 H   0  0  0  0  0
   -9.4770   27.6855   52.0974 H   0  0  0  0  0
  -10.2735   27.2331   50.5641 H   0  0  0  0  0
   -8.3530   27.3424   49.3041 H   0  0  0  0  0
   -5.9819   25.1111   51.0686 H   0  0  0  0  0
   -3.6711   24.3872   47.5013 H   0  0  0  0  0
   -5.2984   25.6933   46.1760 H   0  0  0  0  0
   -7.2285   26.7745   47.2824 H   0  0  0  0  0
   -4.9707   22.7677   51.6448 H   0  0  0  0  0
   -0.1511   22.7910   51.9943 H   0  0  0  0  0
   -0.3938   21.4146   50.8908 H   0  0  0  0  0
    0.2196   22.9633   50.2611 H   0  0  0  0  0
   -1.8454   24.3412   49.0827 H   0  0  0  0  0
  1  2  2  0  0  0
 12  1  1  0  0  0
  1 21  1  0  0  0
  4  3  1  0  0  0
  4  5  4  0  0  0
 10  4  4  0  0  0
  5  6  4  0  0  0
  7  6  4  0  0  0
  8  7  4  0  0  0
  8  9  1  0  0  0
 10  8  4  0  0  0
 11 10  1  0  0  0
 11 12  1  0  0  0
 12 13  1  0  0  0
 13 14  1  0  0  0
 14 15  1  0  0  0
 15 16  2  0  0  0
 15 20  1  0  0  0
 16 17  1  0  0  0
 17 18  1  0  0  0
 17 19  1  0  0  0
 20 21  1  0  0  0
 21 22  1  0  0  0
 22 23  1  0  0  0
 23 24  2  0  0  0
 23 25  1  0  0  0
 25 26  1  0  0  0
 26 27  4  0  0  0
 26 31  4  0  0  0
 27 28  4  0  0  0
 28 29  4  0  0  0
 28 32  1  0  0  0
 29 30  4  0  0  0
 30 31  4  0  0  0
 32 33  4  0  0  0
 32 37  4  0  0  0
 33 34  4  0  0  0
 34 35  4  0  0  0
 35 36  1  0  0  0
 35 37  4  0  0  0
  5 38  1  0  0  0
  6 39  1  0  0  0
  7 40  1  0  0  0
 11 41  1  0  0  0
 11 42  1  0  0  0
 12 43  1  0  0  0
 13 44  1  0  0  0
 13 45  1  0  0  0
 14 46  1  0  0  0
 18 47  1  0  0  0
 18 48  1  0  0  0
 18 49  1  0  0  0
 19 50  1  0  0  0
 19 51  1  0  0  0
 19 52  1  0  0  0
 20 53  1  0  0  0
 20 54  1  0  0  0
 22 55  1  0  0  0
 22 56  1  0  0  0
 25 57  1  0  0  0
 27 58  1  0  0  0
 29 59  1  0  0  0
 30 60  1  0  0  0
 31 61  1  0  0  0
 33 62  1  0  0  0
 36 63  1  0  0  0
 36 64  1  0  0  0
 36 65  1  0  0  0
 37 66  1  0  0  0
M  END
$$$$
