### 
### Created by X-TOOL on Mon Aug  2 16:17:06 2021
### 

@<TRIPOS>MOLECULE
6o21_ligand
  171   174     1     0     0
SMALL
GAST_HUCK


@<TRIPOS>ATOM
      1 N         -26.3850   20.3060  -16.2710 N.4       1 GLY         0.2357
      2 CA        -25.0930   20.7590  -15.6760 C.3       1 GLY         0.0545
      3 C         -24.1140   19.6170  -15.4860 C.2       1 GLY         0.2238
      4 O         -24.4550   18.4570  -15.7100 O.2       1 GLY        -0.3910
      5 N         -22.8960   19.9620  -15.0790 N.am      1 GLY        -0.2595
      6 CA        -21.8410   19.0000  -14.8140 C.3       1 GLY         0.1406
      7 C         -21.4940   19.0800  -13.3330 C.2       1 GLY         0.2060
      8 O         -21.5730   20.1550  -12.7380 O.2       1 GLY        -0.3942
      9 CB        -20.5250   19.3340  -15.5490 C.3       1 GLY         0.0214
     10 CG        -20.6850   19.8450  -16.9570 C.ar      1 GLY        -0.0386
     11 CD1       -21.7730   19.5140  -17.7440 C.ar      1 GLY        -0.0601
     12 CD2       -19.7040   20.6660  -17.4940 C.ar      1 GLY        -0.0601
     13 CE1       -21.8850   20.0010  -19.0270 C.ar      1 GLY        -0.0686
     14 CE2       -19.8120   21.1410  -18.7600 C.ar      1 GLY        -0.0686
     15 CZ        -20.8980   20.8090  -19.5350 C.ar      1 GLY        -0.0687
     16 N         -21.0680   17.9580  -12.7370 N.am      1 GLY        -0.2627
     17 CA        -20.6240   17.9610  -11.3480 C.3       1 GLY         0.1406
     18 C         -19.4420   17.0200  -11.1330 C.2       1 GLY         0.2047
     19 O         -19.3840   15.9300  -11.7100 O.2       1 GLY        -0.3944
     20 CB        -21.7600   17.5310  -10.4070 C.3       1 GLY         0.0443
     21 SG        -23.2000   18.6260  -10.3230 S.3       1 GLY        -0.0882
     22 N         -18.5050   17.4470  -10.2820 N.am      1 GLY        -0.2636
     23 CA        -17.4440   16.5620   -9.8220 C.3       1 GLY         0.1330
     24 C         -18.0640   15.3820   -9.0870 C.2       1 GLY         0.2035
     25 O         -19.1130   15.5060   -8.4530 O.2       1 GLY        -0.3944
     26 CB        -16.4810   17.3300   -8.9140 C.3       1 GLY         0.0045
     27 CG        -15.7180   18.4110   -9.6570 C.3       1 GLY         0.0412
     28 CD        -14.8370   19.2340   -8.7590 C.2       1 GLY         0.1737
     29 OE1       -15.1960   19.5310   -7.6120 O.2       1 GLY        -0.3973
     30 NE2       -13.6650   19.6260   -9.2710 N.am      1 GLY        -0.3009
     31 N         -17.4270   14.2210   -9.2060 N.am      1 GLY        -0.2695
     32 CA        -18.0010   12.9840   -8.6710 C.3       1 GLY         0.0945
     33 C         -17.3510   12.5010   -7.3590 C.2       1 GLY         0.0601
     34 O         -17.3380   11.2990   -7.0150 O.co2     1 GLY        -0.5666
     35 CB        -18.0130   11.9230   -9.7820 C.3       1 GLY        -0.0148
     36 CG        -19.0960   12.2710  -10.8070 C.3       1 GLY        -0.0162
     37 CD        -19.1040   11.4280  -12.0760 C.3       1 GLY         0.0627
     38 NE        -20.2770   11.7700  -12.8740 N.pl3     1 GLY        -0.2723
     39 CZ        -20.5700   11.2600  -14.0640 C.cat     1 GLY         0.2882
     40 NH1       -19.7640   10.3670  -14.6230 N.pl3     1 GLY        -0.2849
     41 NH2       -21.6670   11.6750  -14.6920 N.pl3     1 GLY        -0.2849
     42 N         -18.1030   18.9890   -3.8500 N.4       1 GLY         0.2461
     43 CA        -17.9880   18.9100   -5.3100 C.3       1 GLY         0.0670
     44 C         -18.5480   20.1230   -6.0250 C.2       1 GLY         0.2268
     45 O         -19.6100   20.6350   -5.6620 O.2       1 GLY        -0.3907
     46 CB        -18.8350   17.6850   -5.6640 C.3       1 GLY         0.0127
     47 CG        -18.8170   16.8570   -4.4480 C.3       1 GLY        -0.0053
     48 CD        -18.7840   17.8120   -3.2910 C.3       1 GLY        -0.0313
     49 N         -17.8300   20.5570   -7.0440 N.am      1 GLY        -0.2608
     50 CA        -18.1900   21.7120   -7.8550 C.3       1 GLY         0.1336
     51 C         -19.0900   21.2670   -8.9930 C.2       1 GLY         0.2042
     52 O         -18.8300   20.2550   -9.6610 O.2       1 GLY        -0.3944
     53 CB        -16.9190   22.3790   -8.4100 C.3       1 GLY        -0.0037
     54 CG1       -16.0560   22.9050   -7.2640 C.3       1 GLY        -0.0491
     55 CG2       -17.2840   23.4770   -9.3880 C.3       1 GLY        -0.0582
     56 CD1       -14.6180   23.1120   -7.6420 C.3       1 GLY        -0.0648
     57 N         -20.1320   22.0470   -9.2440 N.am      1 GLY        -0.2629
     58 CA        -20.9970   21.8430  -10.3940 C.3       1 GLY         0.1406
     59 C         -20.9540   23.0780  -11.2770 C.2       1 GLY         0.2049
     60 O         -20.8690   24.2030  -10.7810 O.2       1 GLY        -0.3943
     61 CB        -22.4410   21.5870   -9.9700 C.3       1 GLY         0.0443
     62 SG        -22.7020   20.1010   -8.9850 S.3       1 GLY        -0.0882
     63 N         -20.9950   22.8560  -12.5900 N.am      1 GLY        -0.2619
     64 CA        -21.1670   23.9340  -13.5480 C.3       1 GLY         0.1406
     65 C         -22.6010   23.9210  -14.0330 C.2       1 GLY         0.2085
     66 O         -23.0610   22.8780  -14.5340 O.2       1 GLY        -0.3940
     67 CB        -20.2250   23.7580  -14.7290 C.3       1 GLY         0.0214
     68 CG        -20.5250   24.6740  -15.8740 C.ar      1 GLY        -0.0386
     69 CD1       -20.3100   26.0390  -15.7670 C.ar      1 GLY        -0.0601
     70 CD2       -21.0290   24.1760  -17.0590 C.ar      1 GLY        -0.0601
     71 CE1       -20.5950   26.8800  -16.8180 C.ar      1 GLY        -0.0686
     72 CE2       -21.3090   25.0160  -18.1120 C.ar      1 GLY        -0.0686
     73 CZ        -21.0930   26.3690  -17.9910 C.ar      1 GLY        -0.0687
     74 N         -23.3370   25.0340  -13.8820 N.am      1 GLY        -0.2497
     75 CA        -24.7560   25.0490  -14.2740 C.3       1 GLY         0.1337
     76 C         -25.0220   24.7460  -15.7360 C.2       1 GLY         0.2035
     77 O         -26.0410   24.1190  -16.0510 O.2       1 GLY        -0.3944
     78 CB        -25.1990   26.4800  -13.9330 C.3       1 GLY        -0.0104
     79 CG        -24.2670   26.9440  -12.8870 C.3       1 GLY        -0.0281
     80 CD        -22.9760   26.2070  -13.0610 C.3       1 GLY         0.0369
     81 N         -24.1660   25.2010  -16.6430 N.am      1 GLY        -0.2697
     82 CA        -24.4890   25.1390  -18.0660 C.3       1 GLY         0.0916
     83 C         -25.7840   25.8960  -18.3370 C.2       1 GLY         0.0598
     84 O         -25.9320   27.0500  -17.9330 O.co2     1 GLY        -0.5666
     85 CB        -24.6250   23.6860  -18.5220 C.3       1 GLY        -0.0300
     86 OXT       -26.7010   25.3650  -18.9640 O.co2     1 GLY        -0.5666
     87 O1        -16.8110   13.3520   -6.6028 O.co2     1 GLY        -0.5666
     88 H1        -27.0011   21.0966  -16.3780 H         1 GLY         0.2012
     89 H2        -26.8142   19.6253  -15.6639 H         1 GLY         0.2012
     90 H3        -26.2122   19.8903  -17.1729 H         1 GLY         0.2012
     91 H4        -25.2961   21.2171  -14.6968 H         1 GLY         0.1061
     92 H5        -24.6391   21.5063  -16.3434 H         1 GLY         0.1061
     93 H6        -22.6964   20.9332  -14.9488 H         1 GLY         0.1886
     94 H7        -22.1837   17.9915  -15.0886 H         1 GLY         0.0823
     95 H8        -19.9154   18.4191  -15.5869 H         1 GLY         0.0474
     96 H9        -19.9964   20.1030  -14.9666 H         1 GLY         0.0474
     97 H10       -22.5451   18.8649  -17.3469 H         1 GLY         0.0557
     98 H11       -18.8406   20.9311  -16.8945 H         1 GLY         0.0557
     99 H12       -22.7477   19.7479  -19.6327 H         1 GLY         0.0599
    100 H13       -19.0386   21.7852  -19.1624 H         1 GLY         0.0599
    101 H14       -20.9751   21.1857  -20.5485 H         1 GLY         0.0559
    102 H15       -21.0543   17.1024  -13.2545 H         1 GLY         0.1884
    103 H16       -20.3139   18.9838  -11.0879 H         1 GLY         0.0808
    104 H17       -21.3415   17.4514   -9.3929 H         1 GLY         0.0432
    105 H18       -22.1112   16.5423  -10.7374 H         1 GLY         0.0432
    106 H19       -18.5327   18.3916   -9.9549 H         1 GLY         0.1883
    107 H20       -16.8855   16.1864  -10.6920 H         1 GLY         0.0801
    108 H21       -15.7586   16.6199   -8.4852 H         1 GLY         0.0337
    109 H22       -17.0586   17.7994   -8.1041 H         1 GLY         0.0337
    110 H23       -16.4431   19.0794  -10.1442 H         1 GLY         0.0504
    111 H24       -15.0887   17.9326  -10.4219 H         1 GLY         0.0504
    112 H25       -13.0374   20.1758   -8.7198 H         1 GLY         0.1814
    113 H26       -13.4164   19.3692  -10.2050 H         1 GLY         0.1814
    114 H27       -16.5409   14.1917   -9.6686 H         1 GLY         0.1875
    115 H28       -19.0508   13.2009   -8.4244 H         1 GLY         0.0726
    116 H29       -18.2253   10.9363   -9.3447 H         1 GLY         0.0307
    117 H30       -17.0317   11.9006  -10.2785 H         1 GLY         0.0307
    118 H31       -18.9572   13.3219  -11.1010 H         1 GLY         0.0301
    119 H32       -20.0741   12.1533  -10.3176 H         1 GLY         0.0301
    120 H33       -19.1395   10.3616  -11.8087 H         1 GLY         0.0689
    121 H34       -18.1923   11.6301  -12.6573 H         1 GLY         0.0689
    122 H35       -20.9304   12.4632  -12.4822 H         1 GLY         0.2642
    123 H36       -19.9936    9.9728  -15.5465 H         1 GLY         0.2615
    124 H37       -18.9085   10.0678  -14.1336 H         1 GLY         0.2615
    125 H38       -22.2842   12.3689  -14.2464 H         1 GLY         0.2615
    126 H39       -21.8991   11.3024  -15.6238 H         1 GLY         0.2615
    127 H40       -18.6279   19.8149   -3.6083 H         1 GLY         0.2035
    128 H41       -17.1786   19.0502   -3.4528 H         1 GLY         0.2035
    129 H42       -16.9377   18.7680   -5.6045 H         1 GLY         0.1099
    130 H43       -18.3940   17.1398   -6.5115 H         1 GLY         0.0347
    131 H44       -19.8635   17.9835   -5.9152 H         1 GLY         0.0347
    132 H45       -17.9242   16.2145   -4.4375 H         1 GLY         0.0320
    133 H46       -19.7201   16.2308   -4.3997 H         1 GLY         0.0320
    134 H47       -19.8016   18.0652   -2.9588 H         1 GLY         0.0814
    135 H48       -18.2170   17.3911   -2.4476 H         1 GLY         0.0814
    136 H49       -16.9903   20.0643   -7.2724 H         1 GLY         0.1885
    137 H50       -18.7315   22.4376   -7.2303 H         1 GLY         0.0803
    138 H51       -16.3382   21.6189   -8.9530 H         1 GLY         0.0345
    139 H52       -16.0975   22.1813   -6.4366 H         1 GLY         0.0267
    140 H53       -16.4700   23.8679   -6.9302 H         1 GLY         0.0267
    141 H54       -17.9033   23.0583  -10.1949 H         1 GLY         0.0235
    142 H55       -16.3663   23.9071   -9.8157 H         1 GLY         0.0235
    143 H56       -17.8475   24.2628   -8.8636 H         1 GLY         0.0235
    144 H57       -14.0609   23.4897   -6.7719 H         1 GLY         0.0230
    145 H58       -14.5559   23.8423   -8.4623 H         1 GLY         0.0230
    146 H59       -14.1834   22.1558   -7.9687 H         1 GLY         0.0230
    147 H60       -20.3300   22.8028   -8.6198 H         1 GLY         0.1884
    148 H61       -20.6333   20.9747  -10.9630 H         1 GLY         0.0808
    149 H62       -23.0528   21.5031  -10.8803 H         1 GLY         0.0432
    150 H63       -22.7798   22.4505   -9.3788 H         1 GLY         0.0432
    151 H64       -20.9046   21.9186  -12.9262 H         1 GLY         0.1885
    152 H65       -20.9533   24.8950  -13.0573 H         1 GLY         0.0823
    153 H66       -20.3023   22.7198  -15.0843 H         1 GLY         0.0474
    154 H67       -19.1978   23.9530  -14.3871 H         1 GLY         0.0474
    155 H68       -19.9130   26.4485  -14.8452 H         1 GLY         0.0557
    156 H69       -21.2060   23.1114  -17.1608 H         1 GLY         0.0557
    157 H70       -20.4263   27.9463  -16.7199 H         1 GLY         0.0599
    158 H71       -21.7004   24.6110  -19.0382 H         1 GLY         0.0599
    159 H72       -21.3156   27.0307  -18.8203 H         1 GLY         0.0559
    160 H73       -25.3122   24.3195  -13.6671 H         1 GLY         0.0802
    161 H74       -26.2322   26.4827  -13.5556 H         1 GLY         0.0313
    162 H75       -25.1314   27.1251  -14.8214 H         1 GLY         0.0313
    163 H76       -24.6866   26.7330  -11.8923 H         1 GLY         0.0287
    164 H77       -24.0967   28.0257  -12.9913 H         1 GLY         0.0287
    165 H78       -22.2358   26.8337  -13.5800 H         1 GLY         0.0524
    166 H79       -22.5720   25.8925  -12.0874 H         1 GLY         0.0524
    167 H80       -23.2926   25.5895  -16.3494 H         1 GLY         0.1875
    168 H81       -23.6750   25.6126  -18.6344 H         1 GLY         0.0723
    169 H82       -24.8680   23.6595  -19.5945 H         1 GLY         0.0270
    170 H83       -25.4283   23.1964  -17.9519 H         1 GLY         0.0270
    171 H84       -23.6766   23.1567  -18.3478 H         1 GLY         0.0270
@<TRIPOS>BOND
     1    2    1 1  
     2    3    2 1  
     3    3    4 2  
     4    5    3 am 
     5    6    5 1  
     6    7    6 1  
     7    6    9 1  
     8    7    8 2  
     9   16    7 am 
    10    9   10 1  
    11   10   11 ar 
    12   10   12 ar 
    13   11   13 ar 
    14   12   14 ar 
    15   13   15 ar 
    16   14   15 ar 
    17   17   16 1  
    18   17   18 1  
    19   20   17 1  
    20   18   19 2  
    21   18   22 am 
    22   21   20 1  
    23   62   21 1  
    24   22   23 1  
    25   23   24 1  
    26   23   26 1  
    27   24   25 2  
    28   24   31 am 
    29   26   27 1  
    30   27   28 1  
    31   28   29 2  
    32   28   30 am 
    33   31   32 1  
    34   32   33 1  
    35   32   35 1  
    36   33   34 ar 
    37   35   36 1  
    38   36   37 1  
    39   37   38 1  
    40   38   39 ar 
    41   39   40 ar 
    42   39   41 ar 
    43   43   42 1  
    44   42   48 1  
    45   44   43 1  
    46   43   46 1  
    47   44   45 2  
    48   49   44 am 
    49   46   47 1  
    50   47   48 1  
    51   50   49 1  
    52   51   50 1  
    53   50   53 1  
    54   51   52 2  
    55   57   51 am 
    56   53   54 1  
    57   53   55 1  
    58   54   56 1  
    59   58   57 1  
    60   58   59 1  
    61   61   58 1  
    62   59   60 2  
    63   59   63 am 
    64   61   62 1  
    65   63   64 1  
    66   64   65 1  
    67   64   67 1  
    68   65   66 2  
    69   65   74 am 
    70   67   68 1  
    71   68   69 ar 
    72   68   70 ar 
    73   69   71 ar 
    74   70   72 ar 
    75   71   73 ar 
    76   72   73 ar 
    77   74   75 1  
    78   74   80 1  
    79   75   76 1  
    80   75   78 1  
    81   76   77 2  
    82   76   81 am 
    83   78   79 1  
    84   79   80 1  
    85   81   82 1  
    86   82   83 1  
    87   82   85 1  
    88   83   84 ar 
    89   83   86 ar 
    90   33   87 ar 
    91    1   88 1  
    92    1   89 1  
    93    1   90 1  
    94    2   91 1  
    95    2   92 1  
    96    5   93 1  
    97    6   94 1  
    98    9   95 1  
    99    9   96 1  
   100   11   97 1  
   101   12   98 1  
   102   13   99 1  
   103   14  100 1  
   104   15  101 1  
   105   16  102 1  
   106   17  103 1  
   107   20  104 1  
   108   20  105 1  
   109   22  106 1  
   110   23  107 1  
   111   26  108 1  
   112   26  109 1  
   113   27  110 1  
   114   27  111 1  
   115   30  112 1  
   116   30  113 1  
   117   31  114 1  
   118   32  115 1  
   119   35  116 1  
   120   35  117 1  
   121   36  118 1  
   122   36  119 1  
   123   37  120 1  
   124   37  121 1  
   125   38  122 1  
   126   40  123 1  
   127   40  124 1  
   128   41  125 1  
   129   41  126 1  
   130   42  127 1  
   131   42  128 1  
   132   43  129 1  
   133   46  130 1  
   134   46  131 1  
   135   47  132 1  
   136   47  133 1  
   137   48  134 1  
   138   48  135 1  
   139   49  136 1  
   140   50  137 1  
   141   53  138 1  
   142   54  139 1  
   143   54  140 1  
   144   55  141 1  
   145   55  142 1  
   146   55  143 1  
   147   56  144 1  
   148   56  145 1  
   149   56  146 1  
   150   57  147 1  
   151   58  148 1  
   152   61  149 1  
   153   61  150 1  
   154   63  151 1  
   155   64  152 1  
   156   67  153 1  
   157   67  154 1  
   158   69  155 1  
   159   70  156 1  
   160   71  157 1  
   161   72  158 1  
   162   73  159 1  
   163   75  160 1  
   164   78  161 1  
   165   78  162 1  
   166   79  163 1  
   167   79  164 1  
   168   80  165 1  
   169   80  166 1  
   170   81  167 1  
   171   82  168 1  
   172   85  169 1  
   173   85  170 1  
   174   85  171 1  
@<TRIPOS>SUBSTRUCTURE
     1 GLY         1

