6o21_ligand
  -I-interpret- 

172175  0  0  0  0  0  0  0  0999 V2000
  -26.3850   20.3060  -16.2710 N   0  3  0  0  0
  -25.0930   20.7590  -15.6760 C   0  0  0  0  0
  -24.1140   19.6170  -15.4860 C   0  0  0  0  0
  -24.4550   18.4570  -15.7100 O   0  0  0  0  0
  -22.8960   19.9620  -15.0790 N   0  0  0  0  0
  -21.8410   19.0000  -14.8140 C   0  0  0  0  0
  -21.4940   19.0800  -13.3330 C   0  0  0  0  0
  -21.5730   20.1550  -12.7380 O   0  0  0  0  0
  -20.5250   19.3340  -15.5490 C   0  0  0  0  0
  -20.6850   19.8450  -16.9570 C   0  0  0  0  0
  -21.7730   19.5140  -17.7440 C   0  0  0  0  0
  -19.7040   20.6660  -17.4940 C   0  0  0  0  0
  -21.8850   20.0010  -19.0270 C   0  0  0  0  0
  -19.8120   21.1410  -18.7600 C   0  0  0  0  0
  -20.8980   20.8090  -19.5350 C   0  0  0  0  0
  -21.0680   17.9580  -12.7370 N   0  0  0  0  0
  -20.6240   17.9610  -11.3480 C   0  0  0  0  0
  -19.4420   17.0200  -11.1330 C   0  0  0  0  0
  -19.3840   15.9300  -11.7100 O   0  0  0  0  0
  -21.7600   17.5310  -10.4070 C   0  0  0  0  0
  -23.2000   18.6260  -10.3230 S   0  0  0  0  0
  -18.5050   17.4470  -10.2820 N   0  0  0  0  0
  -17.4440   16.5620   -9.8220 C   0  0  0  0  0
  -18.0640   15.3820   -9.0870 C   0  0  0  0  0
  -19.1130   15.5060   -8.4530 O   0  0  0  0  0
  -16.4810   17.3300   -8.9140 C   0  0  0  0  0
  -15.7180   18.4110   -9.6570 C   0  0  0  0  0
  -14.8370   19.2340   -8.7590 C   0  0  0  0  0
  -15.1960   19.5310   -7.6120 O   0  0  0  0  0
  -13.6650   19.6260   -9.2710 N   0  0  0  0  0
  -17.4270   14.2210   -9.2060 N   0  0  0  0  0
  -18.0010   12.9840   -8.6710 C   0  0  0  0  0
  -17.3510   12.5010   -7.3590 C   0  0  0  0  0
  -17.3380   11.2990   -7.0150 O   0  0  0  0  0
  -18.0130   11.9230   -9.7820 C   0  0  0  0  0
  -19.0960   12.2710  -10.8070 C   0  0  0  0  0
  -19.1040   11.4280  -12.0760 C   0  0  0  0  0
  -20.2770   11.7700  -12.8740 N   0  0  0  0  0
  -20.5700   11.2600  -14.0640 C   0  0  0  0  0
  -19.7640   10.3670  -14.6230 N   0  0  0  0  0
  -21.6670   11.6750  -14.6920 N   0  0  0  0  0
  -18.1030   18.9890   -3.8500 N   0  3  0  0  0
  -17.9880   18.9100   -5.3100 C   0  0  0  0  0
  -18.5480   20.1230   -6.0250 C   0  0  0  0  0
  -19.6100   20.6350   -5.6620 O   0  0  0  0  0
  -18.8350   17.6850   -5.6640 C   0  0  0  0  0
  -18.8170   16.8570   -4.4480 C   0  0  0  0  0
  -18.7840   17.8120   -3.2910 C   0  0  0  0  0
  -17.8300   20.5570   -7.0440 N   0  0  0  0  0
  -18.1900   21.7120   -7.8550 C   0  0  0  0  0
  -19.0900   21.2670   -8.9930 C   0  0  0  0  0
  -18.8300   20.2550   -9.6610 O   0  0  0  0  0
  -16.9190   22.3790   -8.4100 C   0  0  0  0  0
  -16.0560   22.9050   -7.2640 C   0  0  0  0  0
  -17.2840   23.4770   -9.3880 C   0  0  0  0  0
  -14.6180   23.1120   -7.6420 C   0  0  0  0  0
  -20.1320   22.0470   -9.2440 N   0  0  0  0  0
  -20.9970   21.8430  -10.3940 C   0  0  0  0  0
  -20.9540   23.0780  -11.2770 C   0  0  0  0  0
  -20.8690   24.2030  -10.7810 O   0  0  0  0  0
  -22.4410   21.5870   -9.9700 C   0  0  0  0  0
  -22.7020   20.1010   -8.9850 S   0  0  0  0  0
  -20.9950   22.8560  -12.5900 N   0  0  0  0  0
  -21.1670   23.9340  -13.5480 C   0  0  0  0  0
  -22.6010   23.9210  -14.0330 C   0  0  0  0  0
  -23.0610   22.8780  -14.5340 O   0  0  0  0  0
  -20.2250   23.7580  -14.7290 C   0  0  0  0  0
  -20.5250   24.6740  -15.8740 C   0  0  0  0  0
  -20.3100   26.0390  -15.7670 C   0  0  0  0  0
  -21.0290   24.1760  -17.0590 C   0  0  0  0  0
  -20.5950   26.8800  -16.8180 C   0  0  0  0  0
  -21.3090   25.0160  -18.1120 C   0  0  0  0  0
  -21.0930   26.3690  -17.9910 C   0  0  0  0  0
  -23.3370   25.0340  -13.8820 N   0  0  0  0  0
  -24.7560   25.0490  -14.2740 C   0  0  0  0  0
  -25.0220   24.7460  -15.7360 C   0  0  0  0  0
  -26.0410   24.1190  -16.0510 O   0  0  0  0  0
  -25.1990   26.4800  -13.9330 C   0  0  0  0  0
  -24.2670   26.9440  -12.8870 C   0  0  0  0  0
  -22.9760   26.2070  -13.0610 C   0  0  0  0  0
  -24.1660   25.2010  -16.6430 N   0  0  0  0  0
  -24.4890   25.1390  -18.0660 C   0  0  0  0  0
  -25.7840   25.8960  -18.3370 C   0  0  0  0  0
  -25.9320   27.0500  -17.9330 O   0  0  0  0  0
  -24.6250   23.6860  -18.5220 C   0  0  0  0  0
  -26.7010   25.3650  -18.9640 O   0  0  0  0  0
  -16.8110   13.3520   -6.6028 O   0  0  0  0  0
  -27.0076   21.1067  -16.3788 H   0  0  0  0  0
  -26.2088   19.8856  -17.1835 H   0  0  0  0  0
  -26.8183   19.6173  -15.6559 H   0  0  0  0  0
  -25.3044   21.1891  -14.6970 H   0  0  0  0  0
  -24.6421   21.4807  -16.3571 H   0  0  0  0  0
  -22.6924   20.9526  -14.9462 H   0  0  0  0  0
  -22.2101   18.0281  -15.1414 H   0  0  0  0  0
  -19.9611   18.4037  -15.6171 H   0  0  0  0  0
  -20.0440   20.1304  -14.9810 H   0  0  0  0  0
  -22.5493   18.8613  -17.3447 H   0  0  0  0  0
  -18.8358   20.9326  -16.8912 H   0  0  0  0  0
  -22.7524   19.7465  -19.6360 H   0  0  0  0  0
  -19.0343   21.7888  -19.1647 H   0  0  0  0  0
  -20.9755   21.1878  -20.5541 H   0  0  0  0  0
  -21.0540   17.0853  -13.2649 H   0  0  0  0  0
  -20.3179   18.9823  -11.1216 H   0  0  0  0  0
  -21.3323   17.5182   -9.4045 H   0  0  0  0  0
  -22.1269   16.5797  -10.7925 H   0  0  0  0  0
  -18.5332   18.4105   -9.9483 H   0  0  0  0  0
  -16.8764   16.1873  -10.6738 H   0  0  0  0  0
  -15.7560   16.6200   -8.5161 H   0  0  0  0  0
  -17.0681   17.8106   -8.1314 H   0  0  0  0  0
  -16.4490   19.0815  -10.1088 H   0  0  0  0  0
  -15.0777   17.9203  -10.3900 H   0  0  0  0  0
  -13.0277   20.1923   -8.7110 H   0  0  0  0  0
  -13.4086   19.3586  -10.2214 H   0  0  0  0  0
  -16.5232   14.1912   -9.6779 H   0  0  0  0  0
  -19.0282   13.1873   -8.3683 H   0  0  0  0  0
  -18.2230   10.9451   -9.3488 H   0  0  0  0  0
  -17.0405   11.9004  -10.2738 H   0  0  0  0  0
  -18.9044   13.2972  -11.1206 H   0  0  0  0  0
  -20.0528   12.0957  -10.3152 H   0  0  0  0  0
  -19.1375   10.3710  -11.8120 H   0  0  0  0  0
  -18.2001   11.6264  -12.6519 H   0  0  0  0  0
  -20.9240   12.4564  -12.4860 H   0  0  0  0  0
  -18.9168   10.0707  -14.1384 H   0  0  0  0  0
  -21.8969   11.3060  -15.6147 H   0  0  0  0  0
  -22.2782   12.3621  -14.2508 H   0  0  0  0  0
  -18.6505   19.8172   -3.6160 H   0  0  0  0  0
  -17.1630   19.0323   -3.4564 H   0  0  0  0  0
  -16.9431   18.8535   -5.6151 H   0  0  0  0  0
  -18.4376   17.1504   -6.5268 H   0  0  0  0  0
  -19.8488   17.9607   -5.9542 H   0  0  0  0  0
  -17.9508   16.1955   -4.4361 H   0  0  0  0  0
  -19.6939   16.2114   -4.3995 H   0  0  0  0  0
  -19.7775   18.0429   -2.9065 H   0  0  0  0  0
  -18.2715   17.4022   -2.4207 H   0  0  0  0  0
  -16.9735   20.0545   -7.2770 H   0  0  0  0  0
  -18.7231   22.4371   -7.2400 H   0  0  0  0  0
  -16.3331   21.6373   -8.9528 H   0  0  0  0  0
  -16.0811   22.1614   -6.4675 H   0  0  0  0  0
  -16.4593   23.8736   -6.9686 H   0  0  0  0  0
  -17.8525   23.0512  -10.2148 H   0  0  0  0  0
  -17.8875   24.2289   -8.8795 H   0  0  0  0  0
  -16.3736   23.9382   -9.7709 H   0  0  0  0  0
  -14.1886   22.1638   -7.9655 H   0  0  0  0  0
  -14.5579   23.8357   -8.4548 H   0  0  0  0  0
  -14.0671   23.4862   -6.7791 H   0  0  0  0  0
  -20.3339   22.8179   -8.6073 H   0  0  0  0  0
  -20.6382   20.9685  -10.9367 H   0  0  0  0  0
  -23.0175   21.4595  -10.8862 H   0  0  0  0  0
  -22.7377   22.4307   -9.3469 H   0  0  0  0  0
  -20.9028   21.8998  -12.9329 H   0  0  0  0  0
  -20.9371   24.8852  -13.0680 H   0  0  0  0  0
  -20.3387   22.7355  -15.0891 H   0  0  0  0  0
  -19.2177   23.9873  -14.3814 H   0  0  0  0  0
  -19.9108   26.4508  -14.8401 H   0  0  0  0  0
  -21.2070   23.1055  -17.1614 H   0  0  0  0  0
  -20.4254   27.9522  -16.7193 H   0  0  0  0  0
  -21.7025   24.6088  -19.0434 H   0  0  0  0  0
  -21.3168   27.0343  -18.8249 H   0  0  0  0  0
  -25.3019   24.2614  -13.7546 H   0  0  0  0  0
  -26.2322   26.5059  -13.5867 H   0  0  0  0  0
  -25.1684   27.1267  -14.8099 H   0  0  0  0  0
  -24.6823   26.7495  -11.8982 H   0  0  0  0  0
  -24.1035   28.0179  -12.9766 H   0  0  0  0  0
  -22.2117   26.8222  -13.5359 H   0  0  0  0  0
  -22.5336   25.9210  -12.1068 H   0  0  0  0  0
  -23.2751   25.5973  -16.3435 H   0  0  0  0  0
  -23.6791   25.6033  -18.6286 H   0  0  0  0  0
  -25.1410   27.3281  -17.4655 H   0  0  0  0  0
  -23.6847   23.1627  -18.3488 H   0  0  0  0  0
  -25.4212   23.2020  -17.9564 H   0  0  0  0  0
  -24.8658   23.6611  -19.5848 H   0  0  0  0  0
  -16.8972   14.2251   -6.9925 H   0  0  0  0  0
  2  1  1  0  0  0
  3  2  1  0  0  0
  3  4  2  0  0  0
  5  3  1  0  0  0
  6  5  1  0  0  0
  7  6  1  0  0  0
  6  9  1  0  0  0
  7  8  2  0  0  0
 16  7  1  0  0  0
  9 10  1  0  0  0
 10 11  4  0  0  0
 10 12  4  0  0  0
 11 13  4  0  0  0
 12 14  4  0  0  0
 13 15  4  0  0  0
 14 15  4  0  0  0
 17 16  1  0  0  0
 17 18  1  0  0  0
 20 17  1  0  0  0
 18 19  2  0  0  0
 18 22  1  0  0  0
 21 20  1  0  0  0
 62 21  1  0  0  0
 22 23  1  0  0  0
 23 24  1  0  0  0
 23 26  1  0  0  0
 24 25  2  0  0  0
 24 31  1  0  0  0
 26 27  1  0  0  0
 27 28  1  0  0  0
 28 29  2  0  0  0
 28 30  1  0  0  0
 31 32  1  0  0  0
 32 33  1  0  0  0
 32 35  1  0  0  0
 33 34  2  0  0  0
 35 36  1  0  0  0
 36 37  1  0  0  0
 37 38  1  0  0  0
 38 39  1  0  0  0
 39 40  2  0  0  0
 39 41  1  0  0  0
 43 42  1  0  0  0
 42 48  1  0  0  0
 44 43  1  0  0  0
 43 46  1  0  0  0
 44 45  2  0  0  0
 49 44  1  0  0  0
 46 47  1  0  0  0
 47 48  1  0  0  0
 50 49  1  0  0  0
 51 50  1  0  0  0
 50 53  1  0  0  0
 51 52  2  0  0  0
 57 51  1  0  0  0
 53 54  1  0  0  0
 53 55  1  0  0  0
 54 56  1  0  0  0
 58 57  1  0  0  0
 58 59  1  0  0  0
 61 58  1  0  0  0
 59 60  2  0  0  0
 59 63  1  0  0  0
 61 62  1  0  0  0
 63 64  1  0  0  0
 64 65  1  0  0  0
 64 67  1  0  0  0
 65 66  2  0  0  0
 65 74  1  0  0  0
 67 68  1  0  0  0
 68 69  4  0  0  0
 68 70  4  0  0  0
 69 71  4  0  0  0
 70 72  4  0  0  0
 71 73  4  0  0  0
 72 73  4  0  0  0
 74 75  1  0  0  0
 74 80  1  0  0  0
 75 76  1  0  0  0
 75 78  1  0  0  0
 76 77  2  0  0  0
 76 81  1  0  0  0
 78 79  1  0  0  0
 79 80  1  0  0  0
 81 82  1  0  0  0
 82 83  1  0  0  0
 82 85  1  0  0  0
 83 84  1  0  0  0
 83 86  2  0  0  0
 33 87  1  0  0  0
  1 88  1  0  0  0
  1 89  1  0  0  0
  1 90  1  0  0  0
  2 91  1  0  0  0
  2 92  1  0  0  0
  5 93  1  0  0  0
  6 94  1  0  0  0
  9 95  1  0  0  0
  9 96  1  0  0  0
 11 97  1  0  0  0
 12 98  1  0  0  0
 13 99  1  0  0  0
 14100  1  0  0  0
 15101  1  0  0  0
 16102  1  0  0  0
 17103  1  0  0  0
 20104  1  0  0  0
 20105  1  0  0  0
 22106  1  0  0  0
 23107  1  0  0  0
 26108  1  0  0  0
 26109  1  0  0  0
 27110  1  0  0  0
 27111  1  0  0  0
 30112  1  0  0  0
 30113  1  0  0  0
 31114  1  0  0  0
 32115  1  0  0  0
 35116  1  0  0  0
 35117  1  0  0  0
 36118  1  0  0  0
 36119  1  0  0  0
 37120  1  0  0  0
 37121  1  0  0  0
 38122  1  0  0  0
 40123  1  0  0  0
 41124  1  0  0  0
 41125  1  0  0  0
 42126  1  0  0  0
 42127  1  0  0  0
 43128  1  0  0  0
 46129  1  0  0  0
 46130  1  0  0  0
 47131  1  0  0  0
 47132  1  0  0  0
 48133  1  0  0  0
 48134  1  0  0  0
 49135  1  0  0  0
 50136  1  0  0  0
 53137  1  0  0  0
 54138  1  0  0  0
 54139  1  0  0  0
 55140  1  0  0  0
 55141  1  0  0  0
 55142  1  0  0  0
 56143  1  0  0  0
 56144  1  0  0  0
 56145  1  0  0  0
 57146  1  0  0  0
 58147  1  0  0  0
 61148  1  0  0  0
 61149  1  0  0  0
 63150  1  0  0  0
 64151  1  0  0  0
 67152  1  0  0  0
 67153  1  0  0  0
 69154  1  0  0  0
 70155  1  0  0  0
 71156  1  0  0  0
 72157  1  0  0  0
 73158  1  0  0  0
 75159  1  0  0  0
 78160  1  0  0  0
 78161  1  0  0  0
 79162  1  0  0  0
 79163  1  0  0  0
 80164  1  0  0  0
 80165  1  0  0  0
 81166  1  0  0  0
 82167  1  0  0  0
 84168  1  0  0  0
 85169  1  0  0  0
 85170  1  0  0  0
 85171  1  0  0  0
 87172  1  0  0  0
M  END
$$$$
