3dei_ligand
  -I-interpret- 

 41 43  0  0  0  0  0  0  0  0999 V2000
  -51.4730   12.6460  -19.3440 O   0  0  0  0  0
  -50.3280   13.1540  -19.6610 C   0  0  0  0  0
  -49.2350   13.0180  -18.8390 N   0  0  0  0  0
  -47.9970   13.5380  -19.1210 C   0  0  0  0  0
  -47.0160   13.3870  -18.3430 O   0  0  0  0  0
  -50.1450   13.8720  -20.8510 C   0  0  0  0  0
  -48.8680   14.4250  -21.1760 C   0  0  0  0  0
  -47.7780   14.2460  -20.2810 C   0  0  0  0  0
  -46.5900   14.6840  -20.4330 O   0  0  0  0  0
  -51.2680   14.0090  -21.6710 C   0  0  0  0  0
  -51.1030   14.7230  -22.8340 C   0  0  0  0  0
  -49.8550   15.2700  -23.1840 C   0  0  0  0  0
  -48.7140   15.1430  -22.3820 C   0  0  0  0  0
  -47.5130   15.7020  -22.8000 N   0  0  0  0  0
  -46.4380   14.9050  -23.0100 C   0  0  0  0  0
  -46.3770   13.7820  -22.4970 O   0  0  0  0  0
  -45.1880   15.2740  -23.7960 C   0  0  0  0  0
  -45.4510   16.1750  -24.9040 O   0  0  0  0  0
  -44.6810   17.4230  -25.2420 C   0  0  0  0  0
  -44.7680   17.8270  -26.4210 O   0  0  0  0  0
  -43.8460   18.2470  -24.2690 C   0  0  0  0  0
  -44.1300   15.5230  -22.7350 C   0  0  0  0  0
  -42.7440   15.5290  -23.0350 C   0  0  0  0  0
  -41.7660   15.7090  -22.0300 C   0  0  0  0  0
  -42.1890   15.8490  -20.6990 C   0  0  0  0  0
  -43.5640   15.8190  -20.3880 C   0  0  0  0  0
  -44.5220   15.6610  -21.3900 C   0  0  0  0  0
  -49.3510   12.5000  -17.9680 H   0  0  0  0  0
  -52.2289   13.5707  -21.4014 H   0  0  0  0  0
  -51.9554   14.8681  -23.4977 H   0  0  0  0  0
  -49.7723   15.8179  -24.1227 H   0  0  0  0  0
  -47.4409   16.7086  -22.9482 H   0  0  0  0  0
  -44.7545   14.5059  -24.4365 H   0  0  0  0  0
  -42.8188   18.3014  -24.6295 H   0  0  0  0  0
  -44.2609   19.2524  -24.1972 H   0  0  0  0  0
  -43.8632   17.7745  -23.2869 H   0  0  0  0  0
  -42.4242   15.3912  -24.0679 H   0  0  0  0  0
  -40.7063   15.7384  -22.2834 H   0  0  0  0  0
  -41.4539   15.9810  -19.9051 H   0  0  0  0  0
  -43.8828   15.9206  -19.3506 H   0  0  0  0  0
  -45.5804   15.6443  -21.1298 H   0  0  0  0  0
  1  2  2  0  0  0
  2  3  1  0  0  0
  2  6  1  0  0  0
  3  4  1  0  0  0
  4  5  2  0  0  0
  4  8  1  0  0  0
  6  7  4  0  0  0
  6 10  4  0  0  0
  7  8  1  0  0  0
  7 13  4  0  0  0
  8  9  2  0  0  0
 10 11  4  0  0  0
 11 12  4  0  0  0
 12 13  4  0  0  0
 13 14  1  0  0  0
 14 15  1  0  0  0
 15 16  2  0  0  0
 15 17  1  0  0  0
 17 18  1  0  0  0
 17 22  1  0  0  0
 18 19  1  0  0  0
 19 20  2  0  0  0
 19 21  1  0  0  0
 22 23  4  0  0  0
 22 27  4  0  0  0
 23 24  4  0  0  0
 24 25  4  0  0  0
 25 26  4  0  0  0
 26 27  4  0  0  0
  3 28  1  0  0  0
 10 29  1  0  0  0
 11 30  1  0  0  0
 12 31  1  0  0  0
 14 32  1  0  0  0
 17 33  1  0  0  0
 21 34  1  0  0  0
 21 35  1  0  0  0
 21 36  1  0  0  0
 23 37  1  0  0  0
 24 38  1  0  0  0
 25 39  1  0  0  0
 26 40  1  0  0  0
 27 41  1  0  0  0
M  END
$$$$
