### 
### Created by X-TOOL on Mon Sep 10 21:13:17 2018
### 

@<TRIPOS>MOLECULE
4uau_ligand
   26    25     1     0     0
SMALL
GAST_HUCK


@<TRIPOS>ATOM
      1 C1          1.3140   30.5220   47.5930 C.3       1 XBP         0.1536
      2 C2         -0.1160   30.0010   47.4800 C.2       1 XBP         0.1665
      3 C3         -1.2510   30.8730   47.0300 C.3       1 XBP         0.1584
      4 C4         -1.5110   31.9070   48.1270 C.3       1 XBP         0.1246
      5 C5         -2.8460   32.6120   47.9920 C.3       1 XBP         0.1089
      6 O1          1.7170   31.4470   46.5380 O.3       1 XBP        -0.2569
      7 O2         -0.3390   28.8340   47.8360 O.2       1 XBP        -0.3859
      8 O3         -2.3840   30.0190   46.8120 O.3       1 XBP        -0.3697
      9 O4         -1.5250   31.2530   49.4080 O.3       1 XBP        -0.3841
     10 O5         -3.0470   33.1600   46.6870 O.3       1 XBP        -0.2733
     11 P1          3.2400   31.4030   45.9240 P.3       1 XBP         0.2042
     12 P2         -4.3850   32.7920   45.8720 P.3       1 XBP         0.2008
     13 O1P         3.1650   30.2570   44.9290 O.co2     1 XBP        -0.5536
     14 O2P         4.1390   31.1400   47.1140 O.co2     1 XBP        -0.5536
     15 O3P         3.4330   32.7660   45.3120 O.co2     1 XBP        -0.5536
     16 O4P        -4.4640   33.8190   44.7890 O.co2     1 XBP        -0.5537
     17 O5P        -5.5530   32.8370   46.8370 O.co2     1 XBP        -0.5537
     18 O6P        -4.2190   31.4040   45.3220 O.co2     1 XBP        -0.5537
     19 H           1.9951   29.6586   47.5687 H         1 XBP         0.0850
     20 H           1.4134   31.0404   48.5581 H         1 XBP         0.0850
     21 H          -0.9921   31.3887   46.0935 H         1 XBP         0.0857
     22 H          -0.7054   32.6554   48.0979 H         1 XBP         0.0672
     23 H          -2.8896   33.4285   48.7278 H         1 XBP         0.0641
     24 H          -3.6490   31.8891   48.1984 H         1 XBP         0.0641
     25 H          -3.1306   30.5456   46.5516 H         1 XBP         0.2135
     26 H          -1.6384   31.9020   50.0924 H         1 XBP         0.2102
@<TRIPOS>BOND
     1    1    2 1  
     2    1    6 1  
     3    2    3 1  
     4    2    7 2  
     5    3    4 1  
     6    3    8 1  
     7    4    5 1  
     8    4    9 1  
     9    5   10 1  
    10    6   11 1  
    11   10   12 1  
    12   11   13 ar 
    13   11   14 ar 
    14   11   15 ar 
    15   12   16 ar 
    16   12   17 ar 
    17   12   18 ar 
    18    1   19 1  
    19    1   20 1  
    20    3   21 1  
    21    4   22 1  
    22    5   23 1  
    23    5   24 1  
    24    8   25 1  
    25    9   26 1  
@<TRIPOS>SUBSTRUCTURE
     1 XBP         1

