4uau_ligand
  -I-interpret- 

 30 29  0  0  0  0  0  0  0  0999 V2000
    1.3140   30.5220   47.5930 C   0  0  0  0  0
   -0.1160   30.0010   47.4800 C   0  0  0  0  0
   -1.2510   30.8730   47.0300 C   0  0  0  0  0
   -1.5110   31.9070   48.1270 C   0  0  0  0  0
   -2.8460   32.6120   47.9920 C   0  0  0  0  0
    1.7170   31.4470   46.5380 O   0  0  0  0  0
   -0.3390   28.8340   47.8360 O   0  0  0  0  0
   -2.3840   30.0190   46.8120 O   0  0  0  0  0
   -1.5250   31.2530   49.4080 O   0  0  0  0  0
   -3.0470   33.1600   46.6870 O   0  0  0  0  0
    3.2400   31.4030   45.9240 P   0  0  0  0  0
   -4.3850   32.7920   45.8720 P   0  0  0  0  0
    3.1650   30.2570   44.9290 O   0  0  0  0  0
    4.1390   31.1400   47.1140 O   0  0  0  0  0
    3.4330   32.7660   45.3120 O   0  0  0  0  0
   -4.4640   33.8190   44.7890 O   0  0  0  0  0
   -5.5530   32.8370   46.8370 O   0  0  0  0  0
   -4.2190   31.4040   45.3220 O   0  0  0  0  0
    1.9718   29.6558   47.5211 H   0  0  0  0  0
    1.3767   31.0696   48.5334 H   0  0  0  0  0
   -1.0342   31.4077   46.1052 H   0  0  0  0  0
   -0.7132   32.6438   48.0335 H   0  0  0  0  0
   -2.8661   33.4335   48.7082 H   0  0  0  0  0
   -3.6326   31.8797   48.1738 H   0  0  0  0  0
   -2.1787   29.3877   46.1185 H   0  0  0  0  0
   -0.6942   30.7901   49.5388 H   0  0  0  0  0
    3.0421   29.4310   45.4026 H   0  0  0  0  0
    3.9669   30.2593   47.4552 H   0  0  0  0  0
   -5.4418   32.1558   47.5042 H   0  0  0  0  0
   -4.1727   30.7770   46.0475 H   0  0  0  0  0
  1  2  1  0  0  0
  1  6  1  0  0  0
  2  3  1  0  0  0
  2  7  2  0  0  0
  3  4  1  0  0  0
  3  8  1  0  0  0
  4  5  1  0  0  0
  4  9  1  0  0  0
  5 10  1  0  0  0
  6 11  1  0  0  0
 10 12  1  0  0  0
 11 13  1  0  0  0
 11 14  1  0  0  0
 11 15  2  0  0  0
 12 16  2  0  0  0
 12 17  1  0  0  0
 12 18  1  0  0  0
  1 19  1  0  0  0
  1 20  1  0  0  0
  3 21  1  0  0  0
  4 22  1  0  0  0
  5 23  1  0  0  0
  5 24  1  0  0  0
  8 25  1  0  0  0
  9 26  1  0  0  0
 13 27  1  0  0  0
 14 28  1  0  0  0
 17 29  1  0  0  0
 18 30  1  0  0  0
M  END
$$$$
