### 
### Created by X-TOOL on Mon Sep 10 21:12:58 2018
### 

@<TRIPOS>MOLECULE
3bh8_ligand
  163   163     1     0     0
SMALL
GAST_HUCK


@<TRIPOS>ATOM
      1 N         -25.1590  -37.8150    5.5060 N.4       1 ARG         0.2379
      2 CA        -26.5700  -37.7610    4.9850 C.3       1 ARG         0.0651
      3 C         -27.5550  -37.4800    6.0970 C.2       1 ARG         0.2267
      4 O         -27.5630  -38.1750    7.1180 O.2       1 ARG        -0.3907
      5 CB        -26.9220  -39.0700    4.2510 C.3       1 ARG         0.0110
      6 CG        -28.3580  -39.1410    3.6830 C.3       1 ARG        -0.0125
      7 CD        -28.6070  -40.5290    3.0710 C.3       1 ARG         0.0629
      8 NE        -29.9930  -40.5860    2.5770 N.pl3     1 ARG        -0.2723
      9 CZ        -30.3710  -40.9720    1.3620 C.cat     1 ARG         0.2882
     10 NH1       -29.4730  -41.3930    0.4690 N.pl3     1 ARG        -0.2849
     11 NH2       -31.6740  -40.9620    1.0510 N.pl3     1 ARG        -0.2849
     12 N         -28.3970  -36.4610    5.8940 N.am      1 GLN        -0.2609
     13 CA        -29.3880  -36.0550    6.9060 C.3       1 GLN         0.1331
     14 C         -30.5430  -37.0660    7.0570 C.2       1 GLN         0.2040
     15 O         -30.9050  -37.7550    6.0990 O.2       1 GLN        -0.3944
     16 CB        -30.0000  -34.7140    6.5200 C.3       1 GLN         0.0045
     17 CG        -29.1450  -33.5110    6.7900 C.3       1 GLN         0.0412
     18 CD        -29.6980  -32.3030    6.1140 C.2       1 GLN         0.1737
     19 OE1       -30.3060  -31.4570    6.7610 O.2       1 GLN        -0.3973
     20 NE2       -29.5620  -32.2430    4.7990 N.am      1 GLN        -0.3009
     21 N         -31.1350  -37.1080    8.2450 N.am      1 ALA        -0.2640
     22 CA        -32.3860  -37.9000    8.4560 C.3       1 ALA         0.1282
     23 C         -33.5410  -37.4540    7.5430 C.2       1 ALA         0.2037
     24 O         -33.7470  -36.2430    7.3100 O.2       1 ALA        -0.3944
     25 CB        -32.8180  -37.8160    9.9290 C.3       1 ALA        -0.0244
     26 N         -34.2880  -38.4330    7.0330 N.am      1 SEP        -0.2613
     27 CA        -35.4890  -38.1320    6.2400 C.3       1 SEP         0.1586
     28 CB        -35.6530  -39.1380    5.1080 C.3       1 SEP         0.1184
     29 OG        -34.4560  -39.1740    4.3560 O.3       1 SEP        -0.2714
     30 C         -36.7260  -38.1150    7.1210 C.2       1 SEP         0.2065
     31 O         -37.6230  -38.9570    6.9700 O.2       1 SEP        -0.3943
     32 P         -34.6320  -39.0170    2.7830 P.3       1 SEP         0.2010
     33 O1P       -33.1690  -38.7950    2.1660 O.co2     1 SEP        -0.5537
     34 O2P       -35.6680  -37.8490    2.3870 O.co2     1 SEP        -0.5537
     35 O3P       -35.2630  -40.3770    2.2560 O.co2     1 SEP        -0.5537
     36 N         -36.7430  -37.1720    8.0460 N.am      1 ILE        -0.2634
     37 CA        -37.7780  -37.0840    9.0790 C.3       1 ILE         0.1335
     38 C         -38.1830  -35.6230    9.1900 C.2       1 ILE         0.2042
     39 O         -37.3230  -34.7580    9.3310 O.2       1 ILE        -0.3944
     40 CB        -37.2230  -37.5800   10.4450 C.3       1 ILE        -0.0037
     41 CG1       -36.7980  -39.0500   10.3500 C.3       1 ILE        -0.0491
     42 CG2       -38.2410  -37.3340   11.5970 C.3       1 ILE        -0.0582
     43 CD1       -35.9820  -39.5730   11.5550 C.3       1 ILE        -0.0648
     44 N         -39.4770  -35.3470    9.0860 N.am      1 GLU        -0.2636
     45 CA        -40.0060  -34.0360    9.4450 C.3       1 GLU         0.1325
     46 C         -40.4080  -34.1080   10.9240 C.2       1 GLU         0.2040
     47 O         -41.2400  -34.9190   11.2990 O.2       1 GLU        -0.3944
     48 CB        -41.1860  -33.6450    8.5400 C.3       1 GLU        -0.0008
     49 CG        -40.8210  -32.7920    7.3120 C.3       1 GLU         0.0044
     50 CD        -40.8230  -33.5890    6.0120 C.2       1 GLU         0.0350
     51 OE1       -41.6260  -34.5520    5.8950 O.co2     1 GLU        -0.5690
     52 OE2       -40.0200  -33.2510    5.1050 O.co2     1 GLU        -0.5690
     53 N         -39.7710  -33.3080   11.7760 N.am      1 LEU        -0.2637
     54 CA        -40.0910  -33.3430   13.2050 C.3       1 LEU         0.1314
     55 C         -41.3770  -32.5550   13.4830 C.2       1 LEU         0.2064
     56 O         -41.6830  -31.6120   12.7490 O.2       1 LEU        -0.3942
     57 CB        -38.9110  -32.8430   14.0440 C.3       1 LEU        -0.0101
     58 CG        -37.8240  -33.9150   14.2000 C.3       1 LEU        -0.0425
     59 CD1       -36.8330  -33.8800   13.0290 C.3       1 LEU        -0.0625
     60 CD2       -37.1210  -33.7620   15.5260 C.3       1 LEU        -0.0625
     61 N         -42.1560  -32.9550   14.5090 N.am      1 PRO        -0.2498
     62 CA        -43.3930  -32.2210   14.7580 C.3       1 PRO         0.1338
     63 C         -43.0650  -30.8690   15.3580 C.2       1 PRO         0.2042
     64 O         -41.9280  -30.6470   15.7940 O.2       1 PRO        -0.3944
     65 CB        -44.1350  -33.0900   15.7910 C.3       1 PRO        -0.0104
     66 CG        -43.3820  -34.3780   15.8530 C.3       1 PRO        -0.0281
     67 CD        -41.9740  -34.0480   15.4780 C.3       1 PRO         0.0369
     68 N         -44.0440  -29.9680   15.3490 N.am      1 SER        -0.2616
     69 CA        -43.9060  -28.6970   16.0440 C.3       1 SER         0.1539
     70 C         -43.5500  -28.9560   17.5040 C.2       1 SER         0.2056
     71 O         -44.0070  -29.9290   18.1020 O.2       1 SER        -0.3943
     72 CB        -45.2160  -27.9020   15.9630 C.3       1 SER         0.0843
     73 OG        -45.2810  -27.1830   14.7470 O.3       1 SER        -0.3903
     74 N         -42.7390  -28.0760   18.0740 N.am      1 MET        -0.2694
     75 CA        -42.4860  -28.1230   19.5000 C.3       1 MET         0.0951
     76 C         -43.6880  -27.6630   20.3140 C.2       1 MET         0.0601
     77 O         -43.7030  -27.8490   21.5340 O.co2     1 MET        -0.5666
     78 CB        -41.2740  -27.2900   19.8420 C.3       1 MET        -0.0089
     79 CG        -39.9670  -27.9640   19.4620 C.3       1 MET        -0.0030
     80 SD        -38.6870  -26.9030   20.0610 S.3       1 MET        -0.1639
     81 CE        -39.4820  -26.3550   21.5410 C.3       1 MET        -0.0181
     82 OXT       -44.6500  -27.1200   19.7660 O.co2     1 MET        -0.5666
     83 H1        -24.5265  -38.0033    4.7441 H         1 ARG         0.2015
     84 H2        -25.0829  -38.5471    6.1946 H         1 ARG         0.2015
     85 H3        -24.9226  -36.9307    5.9281 H         1 ARG         0.2015
     86 H4        -26.6339  -36.9359    4.2604 H         1 ARG         0.1098
     87 H5        -26.7948  -39.9020    4.9592 H         1 ARG         0.0347
     88 H6        -26.2187  -39.1903    3.4138 H         1 ARG         0.0347
     89 H7        -28.4822  -38.3718    2.9065 H         1 ARG         0.0302
     90 H8        -29.0806  -38.9641    4.4933 H         1 ARG         0.0302
     91 H9        -28.4550  -41.3038    3.8369 H         1 ARG         0.0689
     92 H10       -27.9097  -40.6961    2.2368 H         1 ARG         0.0689
     93 H11       -30.7361  -40.3014    3.2310 H         1 ARG         0.2642
     94 H12       -29.7791  -41.6893   -0.4688 H         1 ARG         0.2615
     95 H13       -28.4739  -41.4217    0.7176 H         1 ARG         0.2615
     96 H14       -32.3658  -40.6368    1.7414 H         1 ARG         0.2615
     97 H15       -31.9841  -41.2795    0.1215 H         1 ARG         0.2615
     98 H16       -28.3527  -35.9598    5.0298 H         1 GLN         0.1885
     99 H17       -28.8742  -35.9574    7.8737 H         1 GLN         0.0801
    100 H18       -30.9383  -34.5956    7.0818 H         1 GLN         0.0337
    101 H19       -30.2186  -34.7391    5.4422 H         1 GLN         0.0337
    102 H20       -28.1284  -33.7000    6.4147 H         1 GLN         0.0504
    103 H21       -29.1080  -33.3315    7.8746 H         1 GLN         0.0504
    104 H22       -29.9150  -31.4545    4.2953 H         1 GLN         0.1814
    105 H23       -29.1063  -32.9861    4.3090 H         1 GLN         0.1814
    106 H24       -30.7380  -36.6020    9.0107 H         1 ALA         0.1883
    107 H25       -32.1606  -38.9507    8.2213 H         1 ALA         0.0797
    108 H26       -33.7381  -38.4008   10.0751 H         1 ALA         0.0277
    109 H27       -33.0047  -36.7656   10.1970 H         1 ALA         0.0277
    110 H28       -32.0204  -38.2215   10.5688 H         1 ALA         0.0277
    111 H29       -34.0280  -39.3854    7.1919 H         1 SEP         0.1884
    112 H30       -35.3674  -37.1322    5.7977 H         1 SEP         0.0827
    113 H31       -36.4880  -38.8332    4.4601 H         1 SEP         0.0662
    114 H32       -35.8578  -40.1348    5.5255 H         1 SEP         0.0662
    115 H33       -36.0153  -36.4861    8.0408 H         1 ILE         0.1883
    116 H34       -38.6464  -37.6955    8.7927 H         1 ILE         0.0803
    117 H35       -36.3230  -36.9901   10.6729 H         1 ILE         0.0345
    118 H36       -36.1849  -39.1703    9.4447 H         1 ILE         0.0267
    119 H37       -37.7070  -39.6631   10.2615 H         1 ILE         0.0267
    120 H38       -38.5140  -36.2687   11.6238 H         1 ILE         0.0235
    121 H39       -37.7852  -37.6199   12.5564 H         1 ILE         0.0235
    122 H40       -39.1431  -37.9394   11.4247 H         1 ILE         0.0235
    123 H41       -35.7263  -40.6306   11.3933 H         1 ILE         0.0230
    124 H42       -36.5806  -39.4767   12.4728 H         1 ILE         0.0230
    125 H43       -35.0586  -38.9839   11.6560 H         1 ILE         0.0230
    126 H44       -40.1028  -36.0530    8.7544 H         1 GLU         0.1883
    127 H45       -39.2157  -33.2805    9.3242 H         1 GLU         0.0801
    128 H46       -41.9053  -33.0757    9.1470 H         1 GLU         0.0330
    129 H47       -41.6602  -34.5706    8.1816 H         1 GLU         0.0330
    130 H48       -39.8162  -32.3710    7.4636 H         1 GLU         0.0433
    131 H49       -41.5516  -31.9745    7.2232 H         1 GLU         0.0433
    132 H50       -39.0701  -32.6796   11.4387 H         1 LEU         0.1883
    133 H51       -40.2752  -34.3908   13.4845 H         1 LEU         0.0800
    134 H52       -39.2783  -32.5614   15.0419 H         1 LEU         0.0315
    135 H53       -38.4732  -31.9618   13.5522 H         1 LEU         0.0315
    136 H54       -38.3161  -34.8987   14.1912 H         1 LEU         0.0298
    137 H55       -36.0693  -34.6587   13.1716 H         1 LEU         0.0232
    138 H56       -36.3478  -32.8936   12.9886 H         1 LEU         0.0232
    139 H57       -37.3714  -34.0627   12.0874 H         1 LEU         0.0232
    140 H58       -37.8613  -33.7918   16.3391 H         1 LEU         0.0232
    141 H59       -36.5887  -32.7997   15.5500 H         1 LEU         0.0232
    142 H60       -36.4005  -34.5829   15.6559 H         1 LEU         0.0232
    143 H61       -43.9828  -32.0981   13.8377 H         1 PRO         0.0802
    144 H62       -45.1717  -33.2673   15.4688 H         1 PRO         0.0313
    145 H63       -44.1358  -32.5988   16.7752 H         1 PRO         0.0313
    146 H64       -43.8066  -35.1039   15.1439 H         1 PRO         0.0287
    147 H65       -43.4193  -34.7944   16.8705 H         1 PRO         0.0287
    148 H66       -41.3968  -33.7132   16.3525 H         1 PRO         0.0524
    149 H67       -41.4721  -34.9108   15.0158 H         1 PRO         0.0524
    150 H68       -44.8904  -30.1680   14.8554 H         1 SER         0.1884
    151 H69       -43.1017  -28.1133   15.5725 H         1 SER         0.0823
    152 H70       -45.2642  -27.1956   16.8049 H         1 SER         0.0606
    153 H71       -46.0663  -28.5976   16.0188 H         1 SER         0.0606
    154 H72       -46.0962  -26.6965   14.7113 H         1 SER         0.2097
    155 H73       -42.2980  -27.3737   17.5152 H         1 MET         0.1875
    156 H74       -42.2743  -29.1678   19.7713 H         1 MET         0.0726
    157 H75       -41.2706  -27.1039   20.9261 H         1 MET         0.0313
    158 H76       -41.3438  -26.3321   19.3057 H         1 MET         0.0313
    159 H77       -39.8951  -28.0722   18.3697 H         1 MET         0.0378
    160 H78       -39.8955  -28.9549   19.9341 H         1 MET         0.0378
    161 H79       -38.8198  -25.6589   22.0767 H         1 MET         0.0340
    162 H80       -39.6995  -27.2214   22.1828 H         1 MET         0.0340
    163 H81       -40.4215  -25.8434   21.2848 H         1 MET         0.0340
@<TRIPOS>BOND
     1    1    2 1  
     2    2    3 1  
     3    2    5 1  
     4    3    4 2  
     5    3   12 am 
     6    5    6 1  
     7    6    7 1  
     8    7    8 1  
     9    8    9 ar 
    10    9   10 ar 
    11    9   11 ar 
    12   12   13 1  
    13   13   14 1  
    14   13   16 1  
    15   14   15 2  
    16   14   21 am 
    17   16   17 1  
    18   17   18 1  
    19   18   19 2  
    20   18   20 am 
    21   21   22 1  
    22   22   23 1  
    23   22   25 1  
    24   23   24 2  
    25   23   26 am 
    26   26   27 1  
    27   27   28 1  
    28   27   30 1  
    29   28   29 1  
    30   29   32 1  
    31   30   31 2  
    32   30   36 am 
    33   32   33 ar 
    34   32   34 ar 
    35   32   35 ar 
    36   36   37 1  
    37   37   38 1  
    38   37   40 1  
    39   38   39 2  
    40   38   44 am 
    41   40   41 1  
    42   40   42 1  
    43   41   43 1  
    44   44   45 1  
    45   45   46 1  
    46   45   48 1  
    47   46   47 2  
    48   46   53 am 
    49   48   49 1  
    50   49   50 1  
    51   50   51 ar 
    52   50   52 ar 
    53   53   54 1  
    54   54   55 1  
    55   54   57 1  
    56   55   56 2  
    57   55   61 am 
    58   57   58 1  
    59   58   59 1  
    60   58   60 1  
    61   61   62 1  
    62   61   67 1  
    63   62   63 1  
    64   62   65 1  
    65   63   64 2  
    66   63   68 am 
    67   65   66 1  
    68   66   67 1  
    69   68   69 1  
    70   69   70 1  
    71   69   72 1  
    72   70   71 2  
    73   70   74 am 
    74   72   73 1  
    75   74   75 1  
    76   75   76 1  
    77   75   78 1  
    78   76   77 ar 
    79   76   82 ar 
    80   78   79 1  
    81   79   80 1  
    82   80   81 1  
    83    1   83 1  
    84    1   84 1  
    85    1   85 1  
    86    2   86 1  
    87    5   87 1  
    88    5   88 1  
    89    6   89 1  
    90    6   90 1  
    91    7   91 1  
    92    7   92 1  
    93    8   93 1  
    94   10   94 1  
    95   10   95 1  
    96   11   96 1  
    97   11   97 1  
    98   12   98 1  
    99   13   99 1  
   100   16  100 1  
   101   16  101 1  
   102   17  102 1  
   103   17  103 1  
   104   20  104 1  
   105   20  105 1  
   106   21  106 1  
   107   22  107 1  
   108   25  108 1  
   109   25  109 1  
   110   25  110 1  
   111   26  111 1  
   112   27  112 1  
   113   28  113 1  
   114   28  114 1  
   115   36  115 1  
   116   37  116 1  
   117   40  117 1  
   118   41  118 1  
   119   41  119 1  
   120   42  120 1  
   121   42  121 1  
   122   42  122 1  
   123   43  123 1  
   124   43  124 1  
   125   43  125 1  
   126   44  126 1  
   127   45  127 1  
   128   48  128 1  
   129   48  129 1  
   130   49  130 1  
   131   49  131 1  
   132   53  132 1  
   133   54  133 1  
   134   57  134 1  
   135   57  135 1  
   136   58  136 1  
   137   59  137 1  
   138   59  138 1  
   139   59  139 1  
   140   60  140 1  
   141   60  141 1  
   142   60  142 1  
   143   62  143 1  
   144   65  144 1  
   145   65  145 1  
   146   66  146 1  
   147   66  147 1  
   148   67  148 1  
   149   67  149 1  
   150   68  150 1  
   151   69  151 1  
   152   72  152 1  
   153   72  153 1  
   154   73  154 1  
   155   74  155 1  
   156   75  156 1  
   157   78  157 1  
   158   78  158 1  
   159   79  159 1  
   160   79  160 1  
   161   81  161 1  
   162   81  162 1  
   163   81  163 1  
@<TRIPOS>SUBSTRUCTURE
     1 ARG         1

