3bh8_ligand
  -I-interpret- 

166166  0  0  0  0  0  0  0  0999 V2000
  -25.1590  -37.8150    5.5060 N   0  3  0  0  0
  -26.5700  -37.7610    4.9850 C   0  0  0  0  0
  -27.5550  -37.4800    6.0970 C   0  0  0  0  0
  -27.5630  -38.1750    7.1180 O   0  0  0  0  0
  -26.9220  -39.0700    4.2510 C   0  0  0  0  0
  -28.3580  -39.1410    3.6830 C   0  0  0  0  0
  -28.6070  -40.5290    3.0710 C   0  0  0  0  0
  -29.9930  -40.5860    2.5770 N   0  0  0  0  0
  -30.3710  -40.9720    1.3620 C   0  0  0  0  0
  -29.4730  -41.3930    0.4690 N   0  0  0  0  0
  -31.6740  -40.9620    1.0510 N   0  0  0  0  0
  -28.3970  -36.4610    5.8940 N   0  0  0  0  0
  -29.3880  -36.0550    6.9060 C   0  0  0  0  0
  -30.5430  -37.0660    7.0570 C   0  0  0  0  0
  -30.9050  -37.7550    6.0990 O   0  0  0  0  0
  -30.0000  -34.7140    6.5200 C   0  0  0  0  0
  -29.1450  -33.5110    6.7900 C   0  0  0  0  0
  -29.6980  -32.3030    6.1140 C   0  0  0  0  0
  -30.3060  -31.4570    6.7610 O   0  0  0  0  0
  -29.5620  -32.2430    4.7990 N   0  0  0  0  0
  -31.1350  -37.1080    8.2450 N   0  0  0  0  0
  -32.3860  -37.9000    8.4560 C   0  0  0  0  0
  -33.5410  -37.4540    7.5430 C   0  0  0  0  0
  -33.7470  -36.2430    7.3100 O   0  0  0  0  0
  -32.8180  -37.8160    9.9290 C   0  0  0  0  0
  -34.2880  -38.4330    7.0330 N   0  0  0  0  0
  -35.4890  -38.1320    6.2400 C   0  0  0  0  0
  -35.6530  -39.1380    5.1080 C   0  0  0  0  0
  -34.4560  -39.1740    4.3560 O   0  0  0  0  0
  -36.7260  -38.1150    7.1210 C   0  0  0  0  0
  -37.6230  -38.9570    6.9700 O   0  0  0  0  0
  -34.6320  -39.0170    2.7830 P   0  0  0  0  0
  -33.1690  -38.7950    2.1660 O   0  0  0  0  0
  -35.6680  -37.8490    2.3870 O   0  0  0  0  0
  -35.2630  -40.3770    2.2560 O   0  0  0  0  0
  -36.7430  -37.1720    8.0460 N   0  0  0  0  0
  -37.7780  -37.0840    9.0790 C   0  0  0  0  0
  -38.1830  -35.6230    9.1900 C   0  0  0  0  0
  -37.3230  -34.7580    9.3310 O   0  0  0  0  0
  -37.2230  -37.5800   10.4450 C   0  0  0  0  0
  -36.7980  -39.0500   10.3500 C   0  0  0  0  0
  -38.2410  -37.3340   11.5970 C   0  0  0  0  0
  -35.9820  -39.5730   11.5550 C   0  0  0  0  0
  -39.4770  -35.3470    9.0860 N   0  0  0  0  0
  -40.0060  -34.0360    9.4450 C   0  0  0  0  0
  -40.4080  -34.1080   10.9240 C   0  0  0  0  0
  -41.2400  -34.9190   11.2990 O   0  0  0  0  0
  -41.1860  -33.6450    8.5400 C   0  0  0  0  0
  -40.8210  -32.7920    7.3120 C   0  0  0  0  0
  -40.8230  -33.5890    6.0120 C   0  0  0  0  0
  -41.6260  -34.5520    5.8950 O   0  0  0  0  0
  -40.0200  -33.2510    5.1050 O   0  0  0  0  0
  -39.7710  -33.3080   11.7760 N   0  0  0  0  0
  -40.0910  -33.3430   13.2050 C   0  0  0  0  0
  -41.3770  -32.5550   13.4830 C   0  0  0  0  0
  -41.6830  -31.6120   12.7490 O   0  0  0  0  0
  -38.9110  -32.8430   14.0440 C   0  0  0  0  0
  -37.8240  -33.9150   14.2000 C   0  0  0  0  0
  -36.8330  -33.8800   13.0290 C   0  0  0  0  0
  -37.1210  -33.7620   15.5260 C   0  0  0  0  0
  -42.1560  -32.9550   14.5090 N   0  0  0  0  0
  -43.3930  -32.2210   14.7580 C   0  0  0  0  0
  -43.0650  -30.8690   15.3580 C   0  0  0  0  0
  -41.9280  -30.6470   15.7940 O   0  0  0  0  0
  -44.1350  -33.0900   15.7910 C   0  0  0  0  0
  -43.3820  -34.3780   15.8530 C   0  0  0  0  0
  -41.9740  -34.0480   15.4780 C   0  0  0  0  0
  -44.0440  -29.9680   15.3490 N   0  0  0  0  0
  -43.9060  -28.6970   16.0440 C   0  0  0  0  0
  -43.5500  -28.9560   17.5040 C   0  0  0  0  0
  -44.0070  -29.9290   18.1020 O   0  0  0  0  0
  -45.2160  -27.9020   15.9630 C   0  0  0  0  0
  -45.2810  -27.1830   14.7470 O   0  0  0  0  0
  -42.7390  -28.0760   18.0740 N   0  0  0  0  0
  -42.4860  -28.1230   19.5000 C   0  0  0  0  0
  -43.6880  -27.6630   20.3140 C   0  0  0  0  0
  -43.7030  -27.8490   21.5340 O   0  0  0  0  0
  -41.2740  -27.2900   19.8420 C   0  0  0  0  0
  -39.9670  -27.9640   19.4620 C   0  0  0  0  0
  -38.6870  -26.9030   20.0610 S   0  0  0  0  0
  -39.4820  -26.3550   21.5410 C   0  0  0  0  0
  -44.6500  -27.1200   19.7660 O   0  0  0  0  0
  -24.9423  -36.9427    5.9882 H   0  0  0  0  0
  -25.0674  -38.5959    6.1557 H   0  0  0  0  0
  -24.5144  -37.9428    4.7259 H   0  0  0  0  0
  -26.6378  -36.9386    4.2728 H   0  0  0  0  0
  -26.8354  -39.8724    4.9836 H   0  0  0  0  0
  -26.2450  -39.1431    3.3999 H   0  0  0  0  0
  -28.4790  -38.3799    2.9121 H   0  0  0  0  0
  -29.0730  -38.9679    4.4873 H   0  0  0  0  0
  -28.4512  -41.2997    3.8259 H   0  0  0  0  0
  -27.9134  -40.7003    2.2478 H   0  0  0  0  0
  -30.7289  -40.3042    3.2247 H   0  0  0  0  0
  -28.4836  -41.4214    0.7152 H   0  0  0  0  0
  -31.9811  -41.2765    0.1305 H   0  0  0  0  0
  -32.3590  -40.6399    1.7347 H   0  0  0  0  0
  -28.3518  -35.9497    5.0125 H   0  0  0  0  0
  -28.8508  -35.9977    7.8527 H   0  0  0  0  0
  -30.8989  -34.5977    7.1255 H   0  0  0  0  0
  -30.1601  -34.7450    5.4423 H   0  0  0  0  0
  -28.1427  -33.6999    6.4056 H   0  0  0  0  0
  -29.1218  -33.3315    7.8649 H   0  0  0  0  0
  -29.9726  -31.4677    4.2787 H   0  0  0  0  0
  -29.0465  -32.9720    4.3058 H   0  0  0  0  0
  -30.7300  -36.5919    9.0260 H   0  0  0  0  0
  -32.1553  -38.9321    8.1920 H   0  0  0  0  0
  -32.0268  -38.2180   10.5618 H   0  0  0  0  0
  -33.0027  -36.7748   10.1933 H   0  0  0  0  0
  -33.7297  -38.3958   10.0725 H   0  0  0  0  0
  -34.0228  -39.4045    7.1951 H   0  0  0  0  0
  -35.3668  -37.1408    5.8033 H   0  0  0  0  0
  -36.4838  -38.8422    4.4674 H   0  0  0  0  0
  -35.8622  -40.1259    5.5182 H   0  0  0  0  0
  -32.8057  -37.9699    2.4958 H   0  0  0  0  0
  -35.3259  -37.0039    2.6876 H   0  0  0  0  0
  -36.0007  -36.4724    8.0407 H   0  0  0  0  0
  -38.6320  -37.7079    8.8154 H   0  0  0  0  0
  -36.3349  -36.9964   10.6873 H   0  0  0  0  0
  -36.1557  -39.1360    9.4736 H   0  0  0  0  0
  -37.7133  -39.6404   10.3095 H   0  0  0  0  0
  -38.4486  -36.2668   11.6750 H   0  0  0  0  0
  -39.1655  -37.8706   11.3839 H   0  0  0  0  0
  -37.8191  -37.6930   12.5358 H   0  0  0  0  0
  -35.0674  -38.9884   11.6540 H   0  0  0  0  0
  -36.5762  -39.4770   12.4637 H   0  0  0  0  0
  -35.7293  -40.6209   11.3937 H   0  0  0  0  0
  -40.1153  -36.0671    8.7478 H   0  0  0  0  0
  -39.2562  -33.2584    9.2997 H   0  0  0  0  0
  -41.8592  -33.0419    9.1492 H   0  0  0  0  0
  -41.6078  -34.5751    8.1589 H   0  0  0  0  0
  -39.8131  -32.4057    7.4634 H   0  0  0  0  0
  -41.5690  -32.0045    7.2202 H   0  0  0  0  0
  -42.1433  -34.6354    6.6994 H   0  0  0  0  0
  -39.0561  -32.6670   11.4319 H   0  0  0  0  0
  -40.2708  -34.3768   13.5000 H   0  0  0  0  0
  -39.2820  -32.5859   15.0361 H   0  0  0  0  0
  -38.4724  -31.9829   13.5381 H   0  0  0  0  0
  -38.3039  -34.8935   14.1832 H   0  0  0  0  0
  -37.3677  -34.0611   12.0966 H   0  0  0  0  0
  -36.3530  -32.9022   12.9900 H   0  0  0  0  0
  -36.0768  -34.6520   13.1715 H   0  0  0  0  0
  -36.6586  -32.7764   15.5791 H   0  0  0  0  0
  -37.8447  -33.8692   16.3340 H   0  0  0  0  0
  -36.3535  -34.5303   15.6197 H   0  0  0  0  0
  -43.9791  -32.0452   13.8559 H   0  0  0  0  0
  -45.1735  -33.2508   15.5018 H   0  0  0  0  0
  -44.1712  -32.6039   16.7659 H   0  0  0  0  0
  -43.8084  -35.1184   15.1762 H   0  0  0  0  0
  -43.4332  -34.8185   16.8487 H   0  0  0  0  0
  -41.3574  -33.7664   16.3316 H   0  0  0  0  0
  -41.4286  -34.8982   15.0684 H   0  0  0  0  0
  -44.9073  -30.1720   14.8456 H   0  0  0  0  0
  -43.1144  -28.1156   15.5713 H   0  0  0  0  0
  -45.2566  -27.1983   16.7945 H   0  0  0  0  0
  -46.0558  -28.5951   16.0113 H   0  0  0  0  0
  -46.1048  -26.6914   14.7109 H   0  0  0  0  0
  -42.2892  -27.3597   17.5040 H   0  0  0  0  0
  -42.2966  -29.1640   19.7620 H   0  0  0  0  0
  -42.8870  -28.2783   21.8012 H   0  0  0  0  0
  -41.2685  -27.1378   20.9213 H   0  0  0  0  0
  -41.3425  -26.3572   19.2823 H   0  0  0  0  0
  -39.8926  -28.1059   18.3838 H   0  0  0  0  0
  -39.8930  -28.9603   19.8980 H   0  0  0  0  0
  -40.4127  -25.8483   21.2857 H   0  0  0  0  0
  -39.6970  -27.2144   22.1760 H   0  0  0  0  0
  -38.8249  -25.6654   22.0709 H   0  0  0  0  0
  1  2  1  0  0  0
  2  3  1  0  0  0
  2  5  1  0  0  0
  3  4  2  0  0  0
  3 12  1  0  0  0
  5  6  1  0  0  0
  6  7  1  0  0  0
  7  8  1  0  0  0
  8  9  1  0  0  0
  9 10  2  0  0  0
  9 11  1  0  0  0
 12 13  1  0  0  0
 13 14  1  0  0  0
 13 16  1  0  0  0
 14 15  2  0  0  0
 14 21  1  0  0  0
 16 17  1  0  0  0
 17 18  1  0  0  0
 18 19  2  0  0  0
 18 20  1  0  0  0
 21 22  1  0  0  0
 22 23  1  0  0  0
 22 25  1  0  0  0
 23 24  2  0  0  0
 23 26  1  0  0  0
 26 27  1  0  0  0
 27 28  1  0  0  0
 27 30  1  0  0  0
 28 29  1  0  0  0
 29 32  1  0  0  0
 30 31  2  0  0  0
 30 36  1  0  0  0
 32 33  1  0  0  0
 32 34  1  0  0  0
 32 35  2  0  0  0
 36 37  1  0  0  0
 37 38  1  0  0  0
 37 40  1  0  0  0
 38 39  2  0  0  0
 38 44  1  0  0  0
 40 41  1  0  0  0
 40 42  1  0  0  0
 41 43  1  0  0  0
 44 45  1  0  0  0
 45 46  1  0  0  0
 45 48  1  0  0  0
 46 47  2  0  0  0
 46 53  1  0  0  0
 48 49  1  0  0  0
 49 50  1  0  0  0
 50 51  1  0  0  0
 50 52  2  0  0  0
 53 54  1  0  0  0
 54 55  1  0  0  0
 54 57  1  0  0  0
 55 56  2  0  0  0
 55 61  1  0  0  0
 57 58  1  0  0  0
 58 59  1  0  0  0
 58 60  1  0  0  0
 61 62  1  0  0  0
 61 67  1  0  0  0
 62 63  1  0  0  0
 62 65  1  0  0  0
 63 64  2  0  0  0
 63 68  1  0  0  0
 65 66  1  0  0  0
 66 67  1  0  0  0
 68 69  1  0  0  0
 69 70  1  0  0  0
 69 72  1  0  0  0
 70 71  2  0  0  0
 70 74  1  0  0  0
 72 73  1  0  0  0
 74 75  1  0  0  0
 75 76  1  0  0  0
 75 78  1  0  0  0
 76 77  1  0  0  0
 76 82  2  0  0  0
 78 79  1  0  0  0
 79 80  1  0  0  0
 80 81  1  0  0  0
  1 83  1  0  0  0
  1 84  1  0  0  0
  1 85  1  0  0  0
  2 86  1  0  0  0
  5 87  1  0  0  0
  5 88  1  0  0  0
  6 89  1  0  0  0
  6 90  1  0  0  0
  7 91  1  0  0  0
  7 92  1  0  0  0
  8 93  1  0  0  0
 10 94  1  0  0  0
 11 95  1  0  0  0
 11 96  1  0  0  0
 12 97  1  0  0  0
 13 98  1  0  0  0
 16 99  1  0  0  0
 16100  1  0  0  0
 17101  1  0  0  0
 17102  1  0  0  0
 20103  1  0  0  0
 20104  1  0  0  0
 21105  1  0  0  0
 22106  1  0  0  0
 25107  1  0  0  0
 25108  1  0  0  0
 25109  1  0  0  0
 26110  1  0  0  0
 27111  1  0  0  0
 28112  1  0  0  0
 28113  1  0  0  0
 33114  1  0  0  0
 34115  1  0  0  0
 36116  1  0  0  0
 37117  1  0  0  0
 40118  1  0  0  0
 41119  1  0  0  0
 41120  1  0  0  0
 42121  1  0  0  0
 42122  1  0  0  0
 42123  1  0  0  0
 43124  1  0  0  0
 43125  1  0  0  0
 43126  1  0  0  0
 44127  1  0  0  0
 45128  1  0  0  0
 48129  1  0  0  0
 48130  1  0  0  0
 49131  1  0  0  0
 49132  1  0  0  0
 51133  1  0  0  0
 53134  1  0  0  0
 54135  1  0  0  0
 57136  1  0  0  0
 57137  1  0  0  0
 58138  1  0  0  0
 59139  1  0  0  0
 59140  1  0  0  0
 59141  1  0  0  0
 60142  1  0  0  0
 60143  1  0  0  0
 60144  1  0  0  0
 62145  1  0  0  0
 65146  1  0  0  0
 65147  1  0  0  0
 66148  1  0  0  0
 66149  1  0  0  0
 67150  1  0  0  0
 67151  1  0  0  0
 68152  1  0  0  0
 69153  1  0  0  0
 72154  1  0  0  0
 72155  1  0  0  0
 73156  1  0  0  0
 74157  1  0  0  0
 75158  1  0  0  0
 77159  1  0  0  0
 78160  1  0  0  0
 78161  1  0  0  0
 79162  1  0  0  0
 79163  1  0  0  0
 81164  1  0  0  0
 81165  1  0  0  0
 81166  1  0  0  0
M  END
$$$$
