4qwx_ligand
  -I-interpret- 

 87 89  0  0  0  0  0  0  0  0999 V2000
   59.3460 -134.5200   34.7280 C   0  0  0  0  0
   59.3750 -135.7420   34.8710 O   0  0  0  0  0
   58.1870 -133.8550   33.9590 C   0  0  0  0  0
   57.0740 -133.8360   34.9040 N   0  3  0  0  0
   54.3610 -133.4550   35.3620 O   0  0  0  0  0
   56.1350 -134.9540   34.6600 C   0  0  0  0  0
   56.3940 -132.5370   34.8450 C   0  0  0  0  0
   54.9420 -134.7660   35.5090 C   0  0  0  0  0
   55.2860 -132.4630   35.8280 C   0  0  0  0  0
   60.2780 -133.6830   35.2240 N   0  0  0  0  0
   61.4200 -134.1890   36.0070 C   0  0  0  0  0
   60.9740 -134.3450   37.4610 C   0  0  0  0  0
   60.1440 -133.5820   37.9570 O   0  0  0  0  0
   62.6130 -133.2280   35.9460 C   0  0  0  0  0
   61.5540 -135.3540   38.1170 N   0  0  0  0  0
   61.2390 -135.6250   39.5190 C   0  0  0  0  0
   60.7220 -137.0230   39.6560 C   0  0  0  0  0
   59.3460 -136.9420   39.4500 C   0  0  0  0  0
   58.8280 -136.9910   38.1620 C   0  0  0  0  0
   57.4540 -136.9160   37.9540 C   0  0  0  0  0
   56.5770 -136.7960   39.0370 C   0  0  0  0  0
   55.2130 -136.7110   38.9200 O   0  0  0  0  0
   54.5360 -137.1290   37.7260 C   0  0  0  0  0
   57.1060 -136.7450   40.3250 C   0  0  0  0  0
   58.4790 -136.8180   40.5340 C   0  0  0  0  0
   62.5160 -135.4960   40.3390 C   0  0  0  0  0
   63.6220 -135.5590   39.8010 O   0  0  0  0  0
   62.2970 -135.3310   41.6520 N   0  0  0  0  0
   63.3800 -135.1670   42.6240 C   0  0  0  0  0
   63.2580 -136.2070   43.7530 C   0  0  0  0  0
   61.9370 -136.1380   44.2950 O   0  0  0  0  0
   63.5860 -137.7120   43.3800 C   0  0  0  0  0
   64.6930 -137.8090   42.2590 C   0  0  0  0  0
   62.3050 -138.3230   42.8150 C   0  0  0  0  0
   62.6580 -139.5330   42.1260 O   0  0  0  0  0
   63.2480 -133.7930   43.2700 C   0  0  0  0  0
   63.9950 -132.7760   42.6190 C   0  0  0  0  0
   64.8270 -132.9640   41.5020 C   0  0  0  0  0
   65.5090 -131.8840   40.9440 C   0  0  0  0  0
   65.3740 -130.6060   41.4790 C   0  0  0  0  0
   64.5520 -130.4020   42.5820 C   0  0  0  0  0
   63.8730 -131.4830   43.1400 C   0  0  0  0  0
   57.9375 -134.4014   33.0494 H   0  0  0  0  0
   58.4479 -132.8526   33.6195 H   0  0  0  0  0
   57.4446 -133.9652   35.8454 H   0  0  0  0  0
   56.6165 -135.9011   34.9035 H   0  0  0  0  0
   55.8429 -134.9690   33.6100 H   0  0  0  0  0
   55.9797 -132.4076   33.8451 H   0  0  0  0  0
   57.1175 -131.7559   35.0786 H   0  0  0  0  0
   54.1953 -135.5005   35.2073 H   0  0  0  0  0
   55.2472 -134.8840   36.5487 H   0  0  0  0  0
   55.6193 -132.6483   36.8491 H   0  0  0  0  0
   54.8414 -131.4694   35.8835 H   0  0  0  0  0
   60.1919 -132.6809   35.0546 H   0  0  0  0  0
   61.7372 -135.1442   35.5887 H   0  0  0  0  0
   62.9298 -133.1095   34.9098 H   0  0  0  0  0
   62.3188 -132.2595   36.3504 H   0  0  0  0  0
   63.4356 -133.6342   36.5346 H   0  0  0  0  0
   62.2283 -135.9456   37.6315 H   0  0  0  0  0
   60.4857 -134.9190   39.8687 H   0  0  0  0  0
   60.9518 -137.4358   40.6383 H   0  0  0  0  0
   61.1918 -137.6915   38.9346 H   0  0  0  0  0
   59.5010 -137.0887   37.3101 H   0  0  0  0  0
   57.0581 -136.9511   36.9390 H   0  0  0  0  0
   54.8958 -136.5416   36.8813 H   0  0  0  0  0
   54.7363 -138.1854   37.5472 H   0  0  0  0  0
   53.4634 -136.9764   37.8457 H   0  0  0  0  0
   56.4358 -136.6467   41.1789 H   0  0  0  0  0
   58.8778 -136.7781   41.5477 H   0  0  0  0  0
   61.3341 -135.3192   41.9881 H   0  0  0  0  0
   64.3313 -135.2870   42.1056 H   0  0  0  0  0
   64.0328 -135.9325   44.4689 H   0  0  0  0  0
   61.8479 -136.7825   45.0009 H   0  0  0  0  0
   63.9487 -138.2263   44.2700 H   0  0  0  0  0
   64.3436 -137.3009   41.3602 H   0  0  0  0  0
   65.6089 -137.3356   42.6127 H   0  0  0  0  0
   64.8883 -138.8572   42.0327 H   0  0  0  0  0
   61.8250 -137.6249   42.1292 H   0  0  0  0  0
   61.6031 -138.5389   43.6205 H   0  0  0  0  0
   61.8661 -139.9352   41.7617 H   0  0  0  0  0
   63.6310 -133.8753   44.2872 H   0  0  0  0  0
   62.1972 -133.5087   43.2146 H   0  0  0  0  0
   64.9394 -133.9585   41.0702 H   0  0  0  0  0
   66.1545 -132.0418   40.0800 H   0  0  0  0  0
   65.9109 -129.7678   41.0348 H   0  0  0  0  0
   64.4398 -129.4044   43.0066 H   0  0  0  0  0
   63.2302 -131.3173   44.0046 H   0  0  0  0  0
  1  2  2  0  0  0
  3  1  1  0  0  0
  1 10  1  0  0  0
  4  3  1  0  0  0
  6  4  1  0  0  0
  4  7  1  0  0  0
  8  5  1  0  0  0
  5  9  1  0  0  0
  6  8  1  0  0  0
  7  9  1  0  0  0
 10 11  1  0  0  0
 11 12  1  0  0  0
 11 14  1  0  0  0
 12 13  2  0  0  0
 12 15  1  0  0  0
 15 16  1  0  0  0
 16 17  1  0  0  0
 16 26  1  0  0  0
 17 18  1  0  0  0
 18 19  4  0  0  0
 18 25  4  0  0  0
 19 20  4  0  0  0
 20 21  4  0  0  0
 21 22  1  0  0  0
 21 24  4  0  0  0
 22 23  1  0  0  0
 24 25  4  0  0  0
 26 27  2  0  0  0
 26 28  1  0  0  0
 28 29  1  0  0  0
 29 30  1  0  0  0
 29 36  1  0  0  0
 30 31  1  0  0  0
 30 32  1  0  0  0
 32 33  1  0  0  0
 32 34  1  0  0  0
 34 35  1  0  0  0
 36 37  1  0  0  0
 37 38  4  0  0  0
 37 42  4  0  0  0
 38 39  4  0  0  0
 39 40  4  0  0  0
 40 41  4  0  0  0
 41 42  4  0  0  0
  3 43  1  0  0  0
  3 44  1  0  0  0
  4 45  1  0  0  0
  6 46  1  0  0  0
  6 47  1  0  0  0
  7 48  1  0  0  0
  7 49  1  0  0  0
  8 50  1  0  0  0
  8 51  1  0  0  0
  9 52  1  0  0  0
  9 53  1  0  0  0
 10 54  1  0  0  0
 11 55  1  0  0  0
 14 56  1  0  0  0
 14 57  1  0  0  0
 14 58  1  0  0  0
 15 59  1  0  0  0
 16 60  1  0  0  0
 17 61  1  0  0  0
 17 62  1  0  0  0
 19 63  1  0  0  0
 20 64  1  0  0  0
 23 65  1  0  0  0
 23 66  1  0  0  0
 23 67  1  0  0  0
 24 68  1  0  0  0
 25 69  1  0  0  0
 28 70  1  0  0  0
 29 71  1  0  0  0
 30 72  1  0  0  0
 31 73  1  0  0  0
 32 74  1  0  0  0
 33 75  1  0  0  0
 33 76  1  0  0  0
 33 77  1  0  0  0
 34 78  1  0  0  0
 34 79  1  0  0  0
 35 80  1  0  0  0
 36 81  1  0  0  0
 36 82  1  0  0  0
 38 83  1  0  0  0
 39 84  1  0  0  0
 40 85  1  0  0  0
 41 86  1  0  0  0
 42 87  1  0  0  0
M  END
$$$$
