6g7a_ligand
  -I-interpret- 

 43 44  0  0  0  0  0  0  0  0999 V2000
   25.6610    3.9690    9.0950 C   0  0  0  0  0
   26.6000    4.9730    9.3290 C   0  0  0  0  0
   26.5450    5.6550   10.4910 C   0  0  0  0  0
   25.5750    5.3780   11.4810 C   0  0  0  0  0
   24.5900    4.3810   11.2610 C   0  0  0  0  0
   25.5010    6.1790   12.6860 C   0  0  0  0  0
   24.6770    3.6460   10.0570 C   0  0  0  0  0
   22.5680    2.1410   10.9860 N   0  0  0  0  0
   24.2690    7.4620   14.2330 C   0  0  0  0  0
   23.4110    6.7880   15.2480 C   0  0  0  0  0
   26.5380    6.4920   13.3310 O   0  0  0  0  0
   24.3260    6.6120   13.0760 N   0  0  0  0  0
   24.2010    5.7890   15.8420 O   0  0  0  0  0
   23.6060    2.2640    9.7800 S   0  0  0  0  0
   22.8530    2.4630    8.5340 O   0  0  0  0  0
   24.5100    1.0850    9.8040 O   0  0  0  0  0
   25.8630    3.1680    7.6030 Cl  0  0  0  0  0
   27.5250    6.6910   10.6460 N   0  0  0  0  0
   28.3680    7.0400    9.4990 C   0  0  0  0  0
   29.0360    8.3580    9.7100 C   0  0  0  0  0
   28.3920    9.5820    9.4210 C   0  0  0  0  0
   29.0910   10.7840    9.6700 C   0  0  0  0  0
   30.3930   10.7490   10.2120 C   0  0  0  0  0
   31.0360    9.5450   10.4960 C   0  0  0  0  0
   30.3340    8.3440   10.2540 C   0  0  0  0  0
   27.3643    5.2023    8.5864 H   0  0  0  0  0
   23.8010    4.1903   11.9884 H   0  0  0  0  0
   21.5662    2.2050   10.8052 H   0  0  0  0  0
   22.9064    1.9983   11.9376 H   0  0  0  0  0
   25.2698    7.6276   14.6319 H   0  0  0  0  0
   23.8526    8.4342   13.9695 H   0  0  0  0  0
   22.5236    6.3578   14.7837 H   0  0  0  0  0
   23.0581    7.5001   15.9940 H   0  0  0  0  0
   23.4775    6.3529   12.5727 H   0  0  0  0  0
   23.6844    5.3269   16.5062 H   0  0  0  0  0
   27.6331    7.1754   11.5371 H   0  0  0  0  0
   27.7410    7.1034    8.6097 H   0  0  0  0  0
   29.1342    6.2737    9.3812 H   0  0  0  0  0
   27.3803    9.5983    9.0157 H   0  0  0  0  0
   28.6228   11.7417    9.4426 H   0  0  0  0  0
   30.9095   11.6874   10.4139 H   0  0  0  0  0
   32.0509    9.5312   10.8932 H   0  0  0  0  0
   30.8051    7.3904   10.4924 H   0  0  0  0  0
  2  1  4  0  0  0
  7  1  4  0  0  0
  1 17  1  0  0  0
  3  2  4  0  0  0
  4  3  4  0  0  0
  3 18  1  0  0  0
  4  5  4  0  0  0
  6  4  1  0  0  0
  5  7  4  0  0  0
  6 11  2  0  0  0
 12  6  1  0  0  0
  7 14  1  0  0  0
 14  8  1  0  0  0
  9 10  1  0  0  0
  9 12  1  0  0  0
 10 13  1  0  0  0
 14 15  2  0  0  0
 14 16  2  0  0  0
 18 19  1  0  0  0
 19 20  1  0  0  0
 20 21  4  0  0  0
 20 25  4  0  0  0
 21 22  4  0  0  0
 22 23  4  0  0  0
 23 24  4  0  0  0
 24 25  4  0  0  0
  2 26  1  0  0  0
  5 27  1  0  0  0
  8 28  1  0  0  0
  8 29  1  0  0  0
  9 30  1  0  0  0
  9 31  1  0  0  0
 10 32  1  0  0  0
 10 33  1  0  0  0
 12 34  1  0  0  0
 13 35  1  0  0  0
 18 36  1  0  0  0
 19 37  1  0  0  0
 19 38  1  0  0  0
 21 39  1  0  0  0
 22 40  1  0  0  0
 23 41  1  0  0  0
 24 42  1  0  0  0
 25 43  1  0  0  0
M  END
$$$$
