1fo3_ligand
  -I-interpret- 

 28 29  0  0  0  0  0  0  0  0999 V2000
   38.5320   40.2520   25.6920 C   0  0  0  0  0
   38.7330   40.4580   27.1030 O   0  0  0  0  0
   37.2750   39.2810   25.5610 C   0  0  0  0  0
   36.9690   38.8970   24.2210 O   0  0  0  0  0
   35.9920   39.9660   26.1760 C   0  0  0  0  0
   34.8570   39.1200   26.0040 O   0  0  0  0  0
   35.7780   41.3480   25.4640 C   0  0  0  0  0
   34.6510   42.0700   26.0750 N   0  0  0  0  0
   35.1260   43.3360   26.1780 C   0  0  0  0  0
   34.4420   44.3180   26.4090 O   0  0  0  0  0
   36.6030   43.3560   25.9670 C   0  0  0  0  0
   37.3260   44.3350   26.0040 O   0  0  0  0  0
   36.9520   42.1040   25.7920 N   0  0  0  0  0
   38.2610   41.6890   25.1200 C   0  0  0  0  0
   38.2190   41.7310   23.5610 C   0  0  0  0  0
   37.8300   42.5590   22.4540 O   0  0  0  0  0
   39.3632   39.7979   25.1525 H   0  0  0  0  0
   38.9063   39.6143   27.5269 H   0  0  0  0  0
   37.5527   38.3787   26.1058 H   0  0  0  0  0
   37.7369   38.4772   23.8263 H   0  0  0  0  0
   36.1250   40.1285   27.2456 H   0  0  0  0  0
   35.0129   38.2831   26.4478 H   0  0  0  0  0
   35.5946   41.2148   24.3978 H   0  0  0  0  0
   33.7386   41.7080   26.3524 H   0  0  0  0  0
   39.0669   42.3886   25.3417 H   0  0  0  0  0
   37.4109   41.0080   23.4504 H   0  0  0  0  0
   39.2930   41.8549   23.4226 H   0  0  0  0  0
   38.0230   42.1031   21.6315 H   0  0  0  0  0
  1 14  1  0  0  0
  1  3  1  0  0  0
  1  2  1  0  0  0
  3  5  1  0  0  0
  3  4  1  0  0  0
  5  7  1  0  0  0
  5  6  1  0  0  0
  7 13  1  0  0  0
  7  8  1  0  0  0
  8  9  1  0  0  0
  9 11  1  0  0  0
  9 10  2  0  0  0
 11 13  1  0  0  0
 11 12  2  0  0  0
 13 14  1  0  0  0
 14 15  1  0  0  0
 15 16  1  0  0  0
  1 17  1  0  0  0
  2 18  1  0  0  0
  3 19  1  0  0  0
  4 20  1  0  0  0
  5 21  1  0  0  0
  6 22  1  0  0  0
  7 23  1  0  0  0
  8 24  1  0  0  0
 14 25  1  0  0  0
 15 26  1  0  0  0
 15 27  1  0  0  0
 16 28  1  0  0  0
M  END
$$$$
