4gql_ligand
  -I-interpret- 

 87 90  0  0  0  0  0  0  0  0999 V2000
   10.1460   26.7400    4.2210 O   0  0  0  0  0
    6.8840   22.7070    5.4810 N   0  0  0  0  0
    7.9870   23.0080    4.8250 O   0  0  0  0  0
    9.2640   26.7970    3.4480 C   0  0  0  0  0
    8.8340   25.8690    2.4870 C   0  0  0  0  0
    8.9990   24.4640    3.1280 C   0  0  0  0  0
    6.6250   24.3890    4.0670 C   0  0  0  0  0
    6.0100   23.5500    5.0700 C   0  0  0  0  0
    4.6030   23.5130    5.5010 C   0  0  0  0  0
    4.2590   22.6740    6.6420 C   0  0  0  0  0
    2.9550   22.6470    7.0260 C   0  0  0  0  0
    1.9340   23.4260    6.2850 C   0  0  0  0  0
    2.3040   24.1550    5.1940 C   0  0  0  0  0
    3.6930   24.2020    4.7850 C   0  0  0  0  0
    7.8790   24.0420    4.0060 C   0  0  0  0  0
   -2.7450   25.3810    6.1110 Cl  0  0  0  0  0
   -1.7190   24.1770    6.6720 C   0  0  0  0  0
   -0.3420   24.3320    6.2990 C   0  0  0  0  0
   -2.2040   23.1290    7.3170 C   0  0  0  0  0
   -1.3220   22.0820    7.7080 C   0  0  0  0  0
   -0.0260   22.2230    7.4010 C   0  0  0  0  0
    0.5060   23.3710    6.6790 C   0  0  0  0  0
    9.7940   25.9890    1.2450 C   0  0  0  0  0
    9.2740   25.0130   -0.1960 P   0  0  0  0  0
    7.7200   25.3100   -0.3910 O   0  0  0  0  0
    9.5670   23.4880   -0.0830 O   0  0  0  0  0
   10.1700   25.7520   -1.5820 C   0  0  0  0  0
   11.6230   25.7090   -1.5520 C   0  0  0  0  0
   12.2970   26.2560   -2.6240 C   0  0  0  0  0
   11.5150   26.7850   -3.7890 C   0  0  0  0  0
   12.0680   27.4740   -5.5220 Br  0  0  0  0  0
   10.1990   26.7870   -3.7740 C   0  0  0  0  0
    9.4860   26.2910   -2.6360 C   0  0  0  0  0
    8.5350   27.9660    3.4590 N   0  0  0  0  0
    8.8660   29.1170    4.2900 C   0  0  0  0  0
    8.0420   29.1770    5.5640 C   0  0  0  0  0
    6.8710   28.7770    5.5850 O   0  0  0  0  0
    8.7150   30.4030    3.4740 C   0  0  0  0  0
    9.7720   30.5070    2.3870 C   0  0  0  0  0
    9.6560   31.7680    1.5410 C   0  0  0  0  0
   10.4800   32.6930    1.7260 O   0  0  0  0  0
    8.7700   31.8180    0.6660 O   0  0  0  0  0
    8.6440   29.6970    6.6270 N   0  0  0  0  0
    7.9020   29.9080    7.8630 C   0  0  0  0  0
    6.7470   30.8490    7.6430 C   0  0  0  0  0
    5.6190   30.5960    8.0990 O   0  0  0  0  0
    8.7980   30.5130    8.9280 C   0  0  0  0  0
    9.7270   29.5390    9.5280 C   0  0  0  0  0
   10.3320   30.0530   10.8070 C   0  0  0  0  0
   10.6330   29.2260   11.6930 O   0  0  0  0  0
   10.5090   31.2860   10.9140 O   0  0  0  0  0
    7.0390   31.9520    6.9620 N   0  0  0  0  0
    7.8030   26.0376    2.1758 H   0  0  0  0  0
    9.8913   24.5050    3.7526 H   0  0  0  0  0
    9.0449   23.7468    2.3085 H   0  0  0  0  0
    6.1345   25.1624    3.4760 H   0  0  0  0  0
    5.0166   22.0916    7.1664 H   0  0  0  0  0
    2.6575   22.0473    7.8862 H   0  0  0  0  0
    1.5521   24.7044    4.6275 H   0  0  0  0  0
    3.9962   24.7837    3.9145 H   0  0  0  0  0
   -0.0018   25.1970    5.7297 H   0  0  0  0  0
   -3.2677   23.0676    7.5468 H   0  0  0  0  0
   -1.6869   21.2010    8.2360 H   0  0  0  0  0
    0.6662   21.4386    7.7071 H   0  0  0  0  0
   10.7685   25.6112    1.5544 H   0  0  0  0  0
    9.7962   27.0356    0.9405 H   0  0  0  0  0
    7.5822   26.2578   -0.4561 H   0  0  0  0  0
   12.1589   25.2618   -0.7148 H   0  0  0  0  0
   13.3860   26.3032   -2.6243 H   0  0  0  0  0
    9.6483   27.1688   -4.6337 H   0  0  0  0  0
    8.3976   26.3431   -2.6098 H   0  0  0  0  0
    7.7180   28.0296    2.8517 H   0  0  0  0  0
    9.9037   29.0093    4.6057 H   0  0  0  0  0
    8.8304   31.2523    4.1474 H   0  0  0  0  0
    7.7339   30.3950    2.9991 H   0  0  0  0  0
    9.6406   29.6540    1.7212 H   0  0  0  0  0
   10.7445   30.5321    2.8786 H   0  0  0  0  0
   11.0717   32.4542    2.4433 H   0  0  0  0  0
    9.6309   29.9500    6.5781 H   0  0  0  0  0
    7.5335   28.9348    8.1871 H   0  0  0  0  0
    8.1561   30.8904    9.7240 H   0  0  0  0  0
    9.3964   31.2906    8.4532 H   0  0  0  0  0
   10.5338   29.3549    8.8185 H   0  0  0  0  0
    9.1693   28.6305    9.7551 H   0  0  0  0  0
   10.2048   31.7223   10.1148 H   0  0  0  0  0
    6.3160   32.6501    6.7875 H   0  0  0  0  0
    7.9861   32.1006    6.6137 H   0  0  0  0  0
  4  1  2  0  0  0
  2  3  4  0  0  0
  8  2  4  0  0  0
 15  3  4  0  0  0
  5  4  1  0  0  0
  4 34  1  0  0  0
  6  5  1  0  0  0
  5 23  1  0  0  0
 15  6  1  0  0  0
  8  7  4  0  0  0
  7 15  4  0  0  0
  9  8  1  0  0  0
 10  9  4  0  0  0
 14  9  4  0  0  0
 11 10  4  0  0  0
 12 11  4  0  0  0
 12 13  4  0  0  0
 22 12  1  0  0  0
 13 14  4  0  0  0
 17 16  1  0  0  0
 18 17  4  0  0  0
 17 19  4  0  0  0
 18 22  4  0  0  0
 19 20  4  0  0  0
 20 21  4  0  0  0
 21 22  4  0  0  0
 23 24  1  0  0  0
 24 25  1  0  0  0
 24 26  2  0  0  0
 24 27  1  0  0  0
 27 28  4  0  0  0
 27 33  4  0  0  0
 28 29  4  0  0  0
 29 30  4  0  0  0
 30 31  1  0  0  0
 30 32  4  0  0  0
 32 33  4  0  0  0
 34 35  1  0  0  0
 35 36  1  0  0  0
 35 38  1  0  0  0
 36 37  2  0  0  0
 36 43  1  0  0  0
 38 39  1  0  0  0
 39 40  1  0  0  0
 40 41  1  0  0  0
 40 42  2  0  0  0
 43 44  1  0  0  0
 44 45  1  0  0  0
 44 47  1  0  0  0
 45 46  2  0  0  0
 45 52  1  0  0  0
 47 48  1  0  0  0
 48 49  1  0  0  0
 49 50  2  0  0  0
 49 51  1  0  0  0
  5 53  1  0  0  0
  6 54  1  0  0  0
  6 55  1  0  0  0
  7 56  1  0  0  0
 10 57  1  0  0  0
 11 58  1  0  0  0
 13 59  1  0  0  0
 14 60  1  0  0  0
 18 61  1  0  0  0
 19 62  1  0  0  0
 20 63  1  0  0  0
 21 64  1  0  0  0
 23 65  1  0  0  0
 23 66  1  0  0  0
 25 67  1  0  0  0
 28 68  1  0  0  0
 29 69  1  0  0  0
 32 70  1  0  0  0
 33 71  1  0  0  0
 34 72  1  0  0  0
 35 73  1  0  0  0
 38 74  1  0  0  0
 38 75  1  0  0  0
 39 76  1  0  0  0
 39 77  1  0  0  0
 41 78  1  0  0  0
 43 79  1  0  0  0
 44 80  1  0  0  0
 47 81  1  0  0  0
 47 82  1  0  0  0
 48 83  1  0  0  0
 48 84  1  0  0  0
 51 85  1  0  0  0
 52 86  1  0  0  0
 52 87  1  0  0  0
M  END
$$$$
