4ogn_ligand
  -I-interpret- 

 82 86  0  0  0  0  0  0  0  0999 V2000
   12.5660  -24.1660   -2.6240 C   0  0  0  0  0
   13.5220  -23.4900   -1.8930 C   0  0  0  0  0
   15.1880  -23.3730   -2.5060 Cl  0  0  0  0  0
   13.2500  -22.8800   -0.6920 C   0  0  0  0  0
   11.9170  -22.9570   -0.1690 C   0  0  0  0  0
   10.9240  -23.6400   -0.9260 C   0  0  0  0  0
   11.2100  -24.2370   -2.1520 C   0  0  0  0  0
   10.1090  -24.9740   -2.9860 C   0  0  0  0  0
    9.1490  -25.8870   -2.1260 C   0  0  0  0  0
    8.2010  -26.6940   -3.0600 C   0  0  0  0  0
    8.7640  -27.9110   -3.7870 C   0  0  0  0  0
    9.1590  -29.1410   -2.9880 C   0  0  0  0  0
    8.3480  -30.2830   -2.9710 C   0  0  0  0  0
    8.7200  -31.4270   -2.2510 C   0  0  0  0  0
    9.9770  -31.3770   -1.6200 C   0  0  0  0  0
   10.5070  -32.6270   -0.8450 C   0  0  0  0  0
   11.7200  -32.6400   -0.4680 O   0  0  0  0  0
    9.7490  -33.6330   -0.8120 O   0  0  0  0  0
   10.7780  -30.2260   -1.7160 C   0  0  0  0  0
   10.3710  -29.1460   -2.4290 N   0  0  0  0  0
    7.0060  -27.2280   -2.1550 C   0  0  0  0  0
    7.4640  -25.7910   -4.0520 C   0  0  0  0  0
    6.4500  -26.2440   -4.6380 O   0  0  0  0  0
    7.9440  -24.5010   -4.3020 N   0  0  0  0  0
    7.1460  -23.5290   -5.1510 C   0  0  0  0  0
    6.9420  -24.0820   -6.5160 C   0  0  0  0  0
    7.9110  -23.5390   -7.5790 C   0  0  0  0  0
    6.4610  -22.9750   -7.5060 C   0  0  0  0  0
    5.7330  -23.2520   -4.5080 C   0  0  0  0  0
    5.8800  -22.4530   -2.9250 S   0  0  0  0  0
    6.2540  -23.5660   -2.0020 O   0  0  0  0  0
    6.8090  -21.3090   -3.0840 O   0  0  0  0  0
    4.2430  -21.8260   -2.3860 C   0  0  0  0  0
    3.8220  -20.6340   -3.2200 C   0  0  0  0  0
    4.3680  -21.3100   -0.9730 C   0  0  0  0  0
    3.2360  -23.0090   -2.4350 C   0  0  0  0  0
    9.1610  -23.9120   -3.6580 C   0  0  0  0  0
   10.0440  -22.9790   -4.6060 C   0  0  0  0  0
   10.8540  -23.5600   -5.6050 C   0  0  0  0  0
   11.6650  -22.6640   -6.3850 C   0  0  0  0  0
   11.6920  -21.3110   -6.0950 C   0  0  0  0  0
   12.7590  -20.2840   -7.0790 Cl  0  0  0  0  0
   10.8850  -20.7280   -5.1370 C   0  0  0  0  0
   10.0560  -21.5950   -4.3550 C   0  0  0  0  0
   12.8402  -24.6477   -3.5625 H   0  0  0  0  0
   14.0312  -22.3487   -0.1483 H   0  0  0  0  0
   11.6691  -22.5013    0.7896 H   0  0  0  0  0
    9.9084  -23.6978   -0.5345 H   0  0  0  0  0
   10.6609  -25.5919   -3.6943 H   0  0  0  0  0
    8.5513  -25.2572   -1.4671 H   0  0  0  0  0
    9.7481  -26.5817   -1.5373 H   0  0  0  0  0
    9.6941  -27.5608   -4.2347 H   0  0  0  0  0
    7.9528  -28.2483   -4.4322 H   0  0  0  0  0
    7.4108  -30.2822   -3.5276 H   0  0  0  0  0
    8.0744  -32.3027   -2.1839 H   0  0  0  0  0
   12.0990  -31.7655   -0.5829 H   0  0  0  0  0
   11.7426  -30.2007   -1.2090 H   0  0  0  0  0
    7.4060  -27.8649   -1.3660 H   0  0  0  0  0
    6.4825  -26.3817   -1.7102 H   0  0  0  0  0
    6.3138  -27.8020   -2.7711 H   0  0  0  0  0
    7.7104  -22.5981   -5.2057 H   0  0  0  0  0
    6.6211  -25.0840   -6.2313 H   0  0  0  0  0
    8.5934  -23.9315   -8.3329 H   0  0  0  0  0
    8.9303  -23.1563   -7.6298 H   0  0  0  0  0
    5.9504  -22.0123   -7.4824 H   0  0  0  0  0
    5.6210  -22.7701   -8.1697 H   0  0  0  0  0
    5.2256  -24.2063   -4.3666 H   0  0  0  0  0
    5.1736  -22.5957   -5.1747 H   0  0  0  0  0
    4.5576  -19.8372   -3.1100 H   0  0  0  0  0
    3.7582  -20.9293   -4.2673 H   0  0  0  0  0
    2.8482  -20.2806   -2.8809 H   0  0  0  0  0
    4.6900  -22.1202   -0.3188 H   0  0  0  0  0
    5.1025  -20.5051   -0.9451 H   0  0  0  0  0
    3.4015  -20.9334   -0.6383 H   0  0  0  0  0
    3.1764  -23.3918   -3.4538 H   0  0  0  0  0
    3.5750  -23.8010   -1.7672 H   0  0  0  0  0
    2.2528  -22.6609   -2.1182 H   0  0  0  0  0
    8.7170  -23.2854   -2.8845 H   0  0  0  0  0
   10.8645  -24.6362   -5.7773 H   0  0  0  0  0
   12.2621  -23.0531   -7.2097 H   0  0  0  0  0
   10.8796  -19.6490   -4.9823 H   0  0  0  0  0
    9.4322  -21.1812   -3.5627 H   0  0  0  0  0
  1  2  4  0  0  0
  1  7  4  0  0  0
  2  3  1  0  0  0
  2  4  4  0  0  0
  4  5  4  0  0  0
  5  6  4  0  0  0
  6  7  4  0  0  0
  7  8  1  0  0  0
  8  9  1  0  0  0
  8 37  1  0  0  0
  9 10  1  0  0  0
 10 11  1  0  0  0
 10 21  1  0  0  0
 10 22  1  0  0  0
 11 12  1  0  0  0
 12 13  4  0  0  0
 12 20  4  0  0  0
 13 14  4  0  0  0
 14 15  4  0  0  0
 15 16  1  0  0  0
 15 19  4  0  0  0
 16 17  1  0  0  0
 16 18  2  0  0  0
 19 20  4  0  0  0
 22 23  2  0  0  0
 22 24  1  0  0  0
 24 25  1  0  0  0
 24 37  1  0  0  0
 25 26  1  0  0  0
 25 29  1  0  0  0
 26 27  1  0  0  0
 26 28  1  0  0  0
 27 28  1  0  0  0
 29 30  1  0  0  0
 30 31  2  0  0  0
 30 32  2  0  0  0
 30 33  1  0  0  0
 33 34  1  0  0  0
 33 35  1  0  0  0
 33 36  1  0  0  0
 37 38  1  0  0  0
 38 39  4  0  0  0
 38 44  4  0  0  0
 39 40  4  0  0  0
 40 41  4  0  0  0
 41 42  1  0  0  0
 41 43  4  0  0  0
 43 44  4  0  0  0
  1 45  1  0  0  0
  4 46  1  0  0  0
  5 47  1  0  0  0
  6 48  1  0  0  0
  8 49  1  0  0  0
  9 50  1  0  0  0
  9 51  1  0  0  0
 11 52  1  0  0  0
 11 53  1  0  0  0
 13 54  1  0  0  0
 14 55  1  0  0  0
 17 56  1  0  0  0
 19 57  1  0  0  0
 21 58  1  0  0  0
 21 59  1  0  0  0
 21 60  1  0  0  0
 25 61  1  0  0  0
 26 62  1  0  0  0
 27 63  1  0  0  0
 27 64  1  0  0  0
 28 65  1  0  0  0
 28 66  1  0  0  0
 29 67  1  0  0  0
 29 68  1  0  0  0
 34 69  1  0  0  0
 34 70  1  0  0  0
 34 71  1  0  0  0
 35 72  1  0  0  0
 35 73  1  0  0  0
 35 74  1  0  0  0
 36 75  1  0  0  0
 36 76  1  0  0  0
 36 77  1  0  0  0
 37 78  1  0  0  0
 39 79  1  0  0  0
 40 80  1  0  0  0
 43 81  1  0  0  0
 44 82  1  0  0  0
M  END
$$$$
