5gr9_ligand
  -I-interpret- 

172175  0  0  0  0  0  0  0  0999 V2000
  -38.1110   15.8070    0.7260 N   0  3  0  0  0
  -37.0610   15.3980    1.6500 C   0  0  0  0  0
  -36.9130   13.8810    1.6520 C   0  0  0  0  0
  -37.8160   13.1580    1.2390 O   0  0  0  0  0
  -37.3490   15.9100    3.0640 C   0  0  0  0  0
  -38.6210   15.3860    3.6450 C   0  0  0  0  0
  -38.7320   14.1140    4.1730 N   0  0  0  0  0
  -39.8440   15.9520    3.7690 C   0  0  0  0  0
  -39.9680   13.9200    4.5990 C   0  0  0  0  0
  -40.6640   15.0220    4.3680 N   0  0  0  0  0
  -35.7700   13.3950    2.1100 N   0  0  0  0  0
  -35.5100   11.9680    2.0620 C   0  0  0  0  0
  -36.3440   11.2290    3.0970 C   0  0  0  0  0
  -36.7750   11.8320    4.0860 O   0  0  0  0  0
  -34.0190   11.6730    2.2060 C   0  0  0  0  0
  -33.2440   11.8970    0.9010 C   0  0  0  0  0
  -33.9770   11.3560   -0.3520 C   0  0  0  0  0
  -34.4120   10.1660   -0.3630 O   0  0  0  0  0
  -34.1130   12.1340   -1.3290 O   0  0  0  0  0
  -36.6140    9.9450    2.8300 N   0  0  0  0  0
  -37.4530    9.1140    3.6890 C   0  0  0  0  0
  -36.8440    7.7210    3.7850 C   0  0  0  0  0
  -36.4730    7.1160    2.7790 O   0  0  0  0  0
  -38.8800    8.9440    3.1240 C   0  0  0  0  0
  -39.7660    8.2600    4.1310 C   0  0  0  0  0
  -39.4750   10.2590    2.7390 C   0  0  0  0  0
  -36.7410    7.2030    4.9990 N   0  0  0  0  0
  -36.0590    5.9500    5.2130 C   0  0  0  0  0
  -36.8390    4.8800    4.5280 C   0  0  0  0  0
  -38.1040    4.9650    4.4550 O   0  0  0  0  0
  -36.0290    5.6820    6.6560 C   0  0  0  0  0
  -35.8100    7.0300    7.1750 C   0  0  0  0  0
  -36.3960    7.9650    6.1730 C   0  0  0  0  0
  -34.4590    7.2930    7.2990 O   0  0  0  0  0
  -36.1580    3.8750    3.9940 N   0  0  0  0  0
  -36.8550    2.6920    3.5170 C   0  0  0  0  0
  -36.1020    1.4660    4.0040 C   0  0  0  0  0
  -34.9770    1.5740    4.4920 O   0  0  0  0  0
  -36.9980    2.6940    1.9850 C   0  0  0  0  0
  -35.7590    2.4280    1.3330 O   0  0  0  0  0
  -36.7240    0.3010    3.8870 N   0  0  0  0  0
  -36.0910   -0.9250    4.3220 C   0  0  0  0  0
  -36.2550   -1.2140    5.7980 C   0  0  0  0  0
  -36.9300   -0.5060    6.5460 O   0  0  0  0  0
  -35.6240   -2.2960    6.2210 N   0  0  0  0  0
  -35.6680   -2.7110    7.6150 C   0  0  0  0  0
  -34.9910   -1.7120    8.5290 C   0  0  0  0  0
  -34.2020   -0.8410    8.0530 O   0  0  0  0  0
  -35.1230   -4.0860    7.7130 C   0  0  0  0  0
  -34.1890   -4.1470    6.5730 C   0  0  0  0  0
  -34.4460   -2.9600    5.7130 C   0  0  0  0  0
  -34.3710   -5.3120    5.8330 O   0  0  0  0  0
  -35.2920   -1.7800    9.8260 N   0  0  0  0  0
  -34.6470   -0.9300   10.8240 C   0  0  0  0  0
  -33.1300   -1.1320   10.8110 C   0  0  0  0  0
  -32.6570   -2.2410   11.0460 O   0  0  0  0  0
  -35.2050   -1.2760   12.2010 C   0  0  0  0  0
  -34.9190   -0.2130   13.2480 C   0  0  0  0  0
  -34.0710    0.6600   13.0650 O   0  0  0  0  0
  -35.6320   -0.2950   14.3690 N   0  0  0  0  0
  -32.3600   -0.0630   10.5300 N   0  0  0  0  0
  -30.8920   -0.1890   10.4110 C   0  0  0  0  0
  -30.0740   -0.2750   11.7180 C   0  0  0  0  0
  -28.8590   -0.4680   11.5940 O   0  0  0  0  0
  -30.4940    1.0830    9.6580 C   0  0  0  0  0
  -31.5650    2.0950   10.0380 C   0  0  0  0  0
  -32.8420    1.2930   10.1770 C   0  0  0  0  0
  -30.6850   -0.1390   12.9020 N   0  0  0  0  0
  -29.9370   -0.1590   14.1760 C   0  0  0  0  0
  -28.9980   -1.3400   14.3180 C   0  0  0  0  0
  -29.2820   -2.4170   13.8130 O   0  0  0  0  0
  -30.8410   -0.1800   15.4130 C   0  0  0  0  0
  -31.9850   -1.1740   15.2270 C   0  0  0  0  0
  -31.3780    1.1910   15.7010 C   0  0  0  0  0
  -32.8950   -1.2890   16.4530 C   0  0  0  0  0
  -27.8930   -1.1340   15.0350 N   0  0  0  0  0
  -26.8380   -2.1340   15.1180 C   0  0  0  0  0
  -25.9280   -2.0410   16.3490 C   0  0  0  0  0
  -25.6510   -0.9480   16.8520 O   0  0  0  0  0
  -25.9730   -2.0520   13.8610 C   0  0  0  0  0
  -26.0140   -3.2830   13.1520 O   0  0  0  0  0
  -25.4430   -3.1950   16.8100 N   0  0  0  0  0
  -24.2930   -3.2280   17.7250 C   0  0  0  0  0
  -22.9750   -3.6760   17.0500 C   0  0  0  0  0
  -22.8920   -3.8380   15.8240 O   0  0  0  0  0
  -24.5660   -4.0960   18.9550 C   0  0  0  0  0
  -25.9090   -3.8080   19.5900 C   0  0  0  0  0
  -26.1670   -2.6900   20.0560 O   0  0  0  0  0
  -26.7710   -4.8280   19.6340 N   0  0  0  0  0
  -21.9490   -3.8790   17.7080 O   0  0  0  0  0
  -37.8972   15.4549   -0.2071 H   0  0  0  0  0
  -39.0042   15.4260    1.0381 H   0  0  0  0  0
  -38.1639   16.8254    0.7026 H   0  0  0  0  0
  -36.1221   15.8379    1.3137 H   0  0  0  0  0
  -37.4400   16.9946    3.0056 H   0  0  0  0  0
  -36.5346   15.5723    3.7050 H   0  0  0  0  0
  -40.1270   16.9563    3.4537 H   0  0  0  0  0
  -40.3488   13.0092    5.0611 H   0  0  0  0  0
  -35.0691   14.0261    2.4983 H   0  0  0  0  0
  -35.8122   11.5991    1.0819 H   0  0  0  0  0
  -33.9100   10.6249    2.4849 H   0  0  0  0  0
  -33.6141   12.3513    2.9570 H   0  0  0  0  0
  -32.2985   11.3613    0.9848 H   0  0  0  0  0
  -33.1232   12.9725    0.7716 H   0  0  0  0  0
  -34.2070    9.7438    0.4744 H   0  0  0  0  0
  -36.2156    9.5285    1.9885 H   0  0  0  0  0
  -37.5076    9.6094    4.6584 H   0  0  0  0  0
  -38.8078    8.3263    2.2288 H   0  0  0  0  0
  -39.3569    7.2771    4.3646 H   0  0  0  0  0
  -39.8127    8.8608    5.0393 H   0  0  0  0  0
  -40.7676    8.1487    3.7155 H   0  0  0  0  0
  -39.5245   10.9046    3.6158 H   0  0  0  0  0
  -38.8540   10.7278    1.9756 H   0  0  0  0  0
  -40.4791   10.1008    2.3456 H   0  0  0  0  0
  -35.0421    5.9830    4.8219 H   0  0  0  0  0
  -35.2705    4.9601    6.9587 H   0  0  0  0  0
  -36.9287    5.1992    7.0376 H   0  0  0  0  0
  -36.2659    7.1402    8.1589 H   0  0  0  0  0
  -37.2836    8.4472    6.5826 H   0  0  0  0  0
  -35.6761    8.7428    5.9183 H   0  0  0  0  0
  -34.3372    8.1818    7.6408 H   0  0  0  0  0
  -35.1425    3.9324    3.9178 H   0  0  0  0  0
  -37.8694    2.6828    3.9158 H   0  0  0  0  0
  -37.3408    3.6814    1.6759 H   0  0  0  0  0
  -37.7042    1.9114    1.7075 H   0  0  0  0  0
  -35.8905    2.4380    0.3821 H   0  0  0  0  0
  -37.6609    0.2687    3.4851 H   0  0  0  0  0
  -35.0230   -0.8226    4.1299 H   0  0  0  0  0
  -36.5640   -1.7429    3.7785 H   0  0  0  0  0
  -36.6995   -2.7324    7.9667 H   0  0  0  0  0
  -35.8958   -4.8535    7.6709 H   0  0  0  0  0
  -34.6397   -4.2845    8.6696 H   0  0  0  0  0
  -33.1632   -4.1493    6.9416 H   0  0  0  0  0
  -33.5910   -2.2842    5.7341 H   0  0  0  0  0
  -34.6003   -3.2674    4.6787 H   0  0  0  0  0
  -33.7514   -5.3241    5.0999 H   0  0  0  0  0
  -35.9979   -2.4494   10.1325 H   0  0  0  0  0
  -34.8513    0.1147   10.5896 H   0  0  0  0  0
  -34.7265   -2.1990   12.5286 H   0  0  0  0  0
  -36.2874   -1.3629   12.1061 H   0  0  0  0  0
  -35.4851    0.3822   15.1175 H   0  0  0  0  0
  -36.3252   -1.0350   14.4795 H   0  0  0  0  0
  -30.6670   -1.1408    9.9299 H   0  0  0  0  0
  -30.4435    0.9236    8.5809 H   0  0  0  0  0
  -29.4939    1.4232    9.9267 H   0  0  0  0  0
  -31.6627    2.8772    9.2852 H   0  0  0  0  0
  -31.3153    2.6149   10.9629 H   0  0  0  0  0
  -33.5160    1.7061   10.9275 H   0  0  0  0  0
  -33.4418    1.3001    9.2669 H   0  0  0  0  0
  -31.6975   -0.0179   12.9249 H   0  0  0  0  0
  -29.3689    0.7701   14.1298 H   0  0  0  0  0
  -30.2426   -0.5000   16.2660 H   0  0  0  0  0
  -31.5431   -2.1550   15.0523 H   0  0  0  0  0
  -32.5957   -0.8207   14.3961 H   0  0  0  0  0
  -30.5482    1.8742   15.8820 H   0  0  0  0  0
  -31.9576    1.5397   14.8463 H   0  0  0  0  0
  -32.0169    1.1516   16.5832 H   0  0  0  0  0
  -32.3082   -1.6204   17.3097 H   0  0  0  0  0
  -33.3371   -0.3162   16.6683 H   0  0  0  0  0
  -33.6853   -2.0119   16.2508 H   0  0  0  0  0
  -27.7839   -0.2535   15.5382 H   0  0  0  0  0
  -27.3561   -3.0886   15.2097 H   0  0  0  0  0
  -24.9433   -1.8428   14.1510 H   0  0  0  0  0
  -26.3542   -1.2586   13.2182 H   0  0  0  0  0
  -25.4669   -3.2166   12.3660 H   0  0  0  0  0
  -25.8785   -4.0713   16.5221 H   0  0  0  0  0
  -24.1581   -2.1935   18.0409 H   0  0  0  0  0
  -23.7429   -3.6536   15.4196 H   0  0  0  0  0
  -23.7943   -3.8799   19.6939 H   0  0  0  0  0
  -24.5648   -5.1380   18.6350 H   0  0  0  0  0
  -27.6869   -4.7034   20.0652 H   0  0  0  0  0
  -26.5131   -5.7312   19.2364 H   0  0  0  0  0
  1  2  1  0  0  0
  2  3  1  0  0  0
  2  5  1  0  0  0
  3  4  2  0  0  0
  3 11  1  0  0  0
  5  6  1  0  0  0
  6  7  4  0  0  0
  6  8  4  0  0  0
  7  9  4  0  0  0
  8 10  4  0  0  0
  9 10  4  0  0  0
 11 12  1  0  0  0
 12 13  1  0  0  0
 12 15  1  0  0  0
 13 14  2  0  0  0
 13 20  1  0  0  0
 15 16  1  0  0  0
 16 17  1  0  0  0
 17 18  1  0  0  0
 17 19  2  0  0  0
 20 21  1  0  0  0
 21 22  1  0  0  0
 21 24  1  0  0  0
 22 23  2  0  0  0
 22 27  1  0  0  0
 24 25  1  0  0  0
 24 26  1  0  0  0
 27 28  1  0  0  0
 27 33  1  0  0  0
 28 29  1  0  0  0
 28 31  1  0  0  0
 29 30  2  0  0  0
 29 35  1  0  0  0
 31 32  1  0  0  0
 32 33  1  0  0  0
 32 34  1  0  0  0
 35 36  1  0  0  0
 36 37  1  0  0  0
 36 39  1  0  0  0
 37 38  2  0  0  0
 37 41  1  0  0  0
 39 40  1  0  0  0
 41 42  1  0  0  0
 42 43  1  0  0  0
 43 44  2  0  0  0
 43 45  1  0  0  0
 45 46  1  0  0  0
 45 51  1  0  0  0
 46 47  1  0  0  0
 46 49  1  0  0  0
 47 48  2  0  0  0
 47 53  1  0  0  0
 49 50  1  0  0  0
 50 51  1  0  0  0
 50 52  1  0  0  0
 53 54  1  0  0  0
 54 55  1  0  0  0
 54 57  1  0  0  0
 55 56  2  0  0  0
 55 61  1  0  0  0
 57 58  1  0  0  0
 58 59  2  0  0  0
 58 60  1  0  0  0
 61 62  1  0  0  0
 61 67  1  0  0  0
 62 63  1  0  0  0
 62 65  1  0  0  0
 63 64  2  0  0  0
 63 68  1  0  0  0
 65 66  1  0  0  0
 66 67  1  0  0  0
 68 69  1  0  0  0
 69 70  1  0  0  0
 69 72  1  0  0  0
 70 71  2  0  0  0
 70 76  1  0  0  0
 72 73  1  0  0  0
 72 74  1  0  0  0
 73 75  1  0  0  0
 76 77  1  0  0  0
 77 78  1  0  0  0
 77 80  1  0  0  0
 78 79  2  0  0  0
 78 82  1  0  0  0
 80 81  1  0  0  0
 82 83  1  0  0  0
 83 84  1  0  0  0
 83 86  1  0  0  0
 84 85  1  0  0  0
 84 90  2  0  0  0
 86 87  1  0  0  0
 87 88  2  0  0  0
 87 89  1  0  0  0
  1 91  1  0  0  0
  1 92  1  0  0  0
  1 93  1  0  0  0
  2 94  1  0  0  0
  5 95  1  0  0  0
  5 96  1  0  0  0
  8 97  1  0  0  0
  9 98  1  0  0  0
 11 99  1  0  0  0
 12100  1  0  0  0
 15101  1  0  0  0
 15102  1  0  0  0
 16103  1  0  0  0
 16104  1  0  0  0
 18105  1  0  0  0
 20106  1  0  0  0
 21107  1  0  0  0
 24108  1  0  0  0
 25109  1  0  0  0
 25110  1  0  0  0
 25111  1  0  0  0
 26112  1  0  0  0
 26113  1  0  0  0
 26114  1  0  0  0
 28115  1  0  0  0
 31116  1  0  0  0
 31117  1  0  0  0
 32118  1  0  0  0
 33119  1  0  0  0
 33120  1  0  0  0
 34121  1  0  0  0
 35122  1  0  0  0
 36123  1  0  0  0
 39124  1  0  0  0
 39125  1  0  0  0
 40126  1  0  0  0
 41127  1  0  0  0
 42128  1  0  0  0
 42129  1  0  0  0
 46130  1  0  0  0
 49131  1  0  0  0
 49132  1  0  0  0
 50133  1  0  0  0
 51134  1  0  0  0
 51135  1  0  0  0
 52136  1  0  0  0
 53137  1  0  0  0
 54138  1  0  0  0
 57139  1  0  0  0
 57140  1  0  0  0
 60141  1  0  0  0
 60142  1  0  0  0
 62143  1  0  0  0
 65144  1  0  0  0
 65145  1  0  0  0
 66146  1  0  0  0
 66147  1  0  0  0
 67148  1  0  0  0
 67149  1  0  0  0
 68150  1  0  0  0
 69151  1  0  0  0
 72152  1  0  0  0
 73153  1  0  0  0
 73154  1  0  0  0
 74155  1  0  0  0
 74156  1  0  0  0
 74157  1  0  0  0
 75158  1  0  0  0
 75159  1  0  0  0
 75160  1  0  0  0
 76161  1  0  0  0
 77162  1  0  0  0
 80163  1  0  0  0
 80164  1  0  0  0
 81165  1  0  0  0
 82166  1  0  0  0
 83167  1  0  0  0
 85168  1  0  0  0
 86169  1  0  0  0
 86170  1  0  0  0
 89171  1  0  0  0
 89172  1  0  0  0
M  END
$$$$
