### 
### Created by X-TOOL on Mon Sep 10 21:13:28 2018
### 

@<TRIPOS>MOLECULE
5gr9_ligand
  171   174     1     0     0
SMALL
GAST_HUCK


@<TRIPOS>ATOM
      1 N         -38.1110   15.8070    0.7260 N.4       1 HIS         0.2390
      2 CA        -37.0610   15.3980    1.6500 C.3       1 HIS         0.0708
      3 C         -36.9130   13.8810    1.6520 C.2       1 HIS         0.2282
      4 O         -37.8160   13.1580    1.2390 O.2       1 HIS        -0.3906
      5 CB        -37.3490   15.9100    3.0640 C.3       1 HIS         0.0347
      6 CG        -38.6210   15.3860    3.6450 C.2       1 HIS         0.0005
      7 ND1       -38.7320   14.1140    4.1730 N.2       1 HIS        -0.3251
      8 CD2       -39.8440   15.9520    3.7690 C.2       1 HIS         0.0293
      9 CE1       -39.9680   13.9200    4.5990 C.2       1 HIS         0.0907
     10 NE2       -40.6640   15.0220    4.3680 N.pl3     1 HIS        -0.2752
     11 N         -35.7700   13.3950    2.1100 N.am      1 GLU        -0.2608
     12 CA        -35.5100   11.9680    2.0620 C.3       1 GLU         0.1326
     13 C         -36.3440   11.2290    3.0970 C.2       1 GLU         0.2040
     14 O         -36.7750   11.8320    4.0860 O.2       1 GLU        -0.3944
     15 CB        -34.0190   11.6730    2.2060 C.3       1 GLU        -0.0008
     16 CG        -33.2440   11.8970    0.9010 C.3       1 GLU         0.0044
     17 CD        -33.9770   11.3560   -0.3520 C.2       1 GLU         0.0350
     18 OE1       -34.4120   10.1660   -0.3630 O.co2     1 GLU        -0.5690
     19 OE2       -34.1130   12.1340   -1.3290 O.co2     1 GLU        -0.5690
     20 N         -36.6140    9.9450    2.8300 N.am      1 VAL        -0.2635
     21 CA        -37.4530    9.1140    3.6890 C.3       1 VAL         0.1334
     22 C         -36.8440    7.7210    3.7850 C.2       1 VAL         0.2067
     23 O         -36.4730    7.1160    2.7790 O.2       1 VAL        -0.3942
     24 CB        -38.8800    8.9440    3.1240 C.3       1 VAL        -0.0062
     25 CG1       -39.7660    8.2600    4.1310 C.3       1 VAL        -0.0584
     26 CG2       -39.4750   10.2590    2.7390 C.3       1 VAL        -0.0584
     27 N         -36.7410    7.2030    4.9990 N.am      1 HYP        -0.2473
     28 CA        -36.0590    5.9500    5.2130 C.3       1 HYP         0.1362
     29 C         -36.8390    4.8800    4.5280 C.2       1 HYP         0.2043
     30 O         -38.1040    4.9650    4.4550 O.2       1 HYP        -0.3944
     31 CB        -36.0290    5.6820    6.6560 C.3       1 HYP         0.0158
     32 CG        -35.8100    7.0300    7.1750 C.3       1 HYP         0.0799
     33 CD        -36.3960    7.9650    6.1730 C.3       1 HYP         0.0629
     34 OD1       -34.4590    7.2930    7.2990 O.3       1 HYP        -0.3896
     35 N         -36.1580    3.8750    3.9940 N.am      1 SER        -0.2616
     36 CA        -36.8550    2.6920    3.5170 C.3       1 SER         0.1539
     37 C         -36.1020    1.4660    4.0040 C.2       1 SER         0.2060
     38 O         -34.9770    1.5740    4.4920 O.2       1 SER        -0.3943
     39 CB        -36.9980    2.6940    1.9850 C.3       1 SER         0.0843
     40 OG        -35.7590    2.4280    1.3330 O.3       1 SER        -0.3903
     41 N         -36.7240    0.3010    3.8870 N.am      1 GLY        -0.2663
     42 CA        -36.0910   -0.9250    4.3220 C.3       1 GLY         0.1203
     43 C         -36.2550   -1.2140    5.7980 C.2       1 GLY         0.2033
     44 O         -36.9300   -0.5060    6.5460 O.2       1 GLY        -0.3945
     45 N         -35.6240   -2.2960    6.2210 N.am      1 HYP        -0.2475
     46 CA        -35.6680   -2.7110    7.6150 C.3       1 HYP         0.1362
     47 C         -34.9910   -1.7120    8.5290 C.2       1 HYP         0.2043
     48 O         -34.2020   -0.8410    8.0530 O.2       1 HYP        -0.3944
     49 CB        -35.1230   -4.0860    7.7130 C.3       1 HYP         0.0158
     50 CG        -34.1890   -4.1470    6.5730 C.3       1 HYP         0.0799
     51 CD        -34.4460   -2.9600    5.7130 C.3       1 HYP         0.0629
     52 OD1       -34.3710   -5.3120    5.8330 O.3       1 HYP        -0.3896
     53 N         -35.2920   -1.7800    9.8260 N.am      1 ASN        -0.2616
     54 CA        -34.6470   -0.9300   10.8240 C.3       1 ASN         0.1478
     55 C         -33.1300   -1.1320   10.8110 C.2       1 ASN         0.2088
     56 O         -32.6570   -2.2410   11.0460 O.2       1 ASN        -0.3940
     57 CB        -35.2050   -1.2760   12.2010 C.3       1 ASN         0.0773
     58 CG        -34.9190   -0.2130   13.2480 C.2       1 ASN         0.1780
     59 OD1       -34.0710    0.6600   13.0650 O.2       1 ASN        -0.3970
     60 ND2       -35.6320   -0.2950   14.3690 N.am      1 ASN        -0.3007
     61 N         -32.3600   -0.0630   10.5300 N.am      1 PRO        -0.2497
     62 CA        -30.8920   -0.1890   10.4110 C.3       1 PRO         0.1338
     63 C         -30.0740   -0.2750   11.7180 C.2       1 PRO         0.2041
     64 O         -28.8590   -0.4680   11.5940 O.2       1 PRO        -0.3944
     65 CB        -30.4940    1.0830    9.6580 C.3       1 PRO        -0.0104
     66 CG        -31.5650    2.0950   10.0380 C.3       1 PRO        -0.0281
     67 CD        -32.8420    1.2930   10.1770 C.3       1 PRO         0.0369
     68 N         -30.6850   -0.1390   12.9020 N.am      1 ILE        -0.2635
     69 CA        -29.9370   -0.1590   14.1760 C.3       1 ILE         0.1335
     70 C         -28.9980   -1.3400   14.3180 C.2       1 ILE         0.2042
     71 O         -29.2820   -2.4170   13.8130 O.2       1 ILE        -0.3944
     72 CB        -30.8410   -0.1800   15.4130 C.3       1 ILE        -0.0037
     73 CG1       -31.9850   -1.1740   15.2270 C.3       1 ILE        -0.0491
     74 CG2       -31.3780    1.1910   15.7010 C.3       1 ILE        -0.0582
     75 CD1       -32.8950   -1.2890   16.4530 C.3       1 ILE        -0.0648
     76 N         -27.8930   -1.1340   15.0350 N.am      1 SER        -0.2616
     77 CA        -26.8380   -2.1340   15.1180 C.3       1 SER         0.1539
     78 C         -25.9280   -2.0410   16.3490 C.2       1 SER         0.2058
     79 O         -25.6510   -0.9480   16.8520 O.2       1 SER        -0.3943
     80 CB        -25.9730   -2.0520   13.8610 C.3       1 SER         0.0843
     81 OG        -26.0140   -3.2830   13.1520 O.3       1 SER        -0.3903
     82 N         -25.4430   -3.1950   16.8100 N.am      1 ASN        -0.2673
     83 CA        -24.2930   -3.2280   17.7250 C.3       1 ASN         0.1110
     84 C         -22.9750   -3.6760   17.0500 C.2       1 ASN         0.0624
     85 O         -22.8920   -3.8380   15.8240 O.co2     1 ASN        -0.5665
     86 CB        -24.5660   -4.0960   18.9550 C.3       1 ASN         0.0718
     87 CG        -25.9090   -3.8080   19.5900 C.2       1 ASN         0.1774
     88 OD1       -26.1670   -2.6900   20.0560 O.2       1 ASN        -0.3971
     89 ND2       -26.7710   -4.8280   19.6340 N.am      1 ASN        -0.3007
     90 OXT       -21.9490   -3.8790   17.7080 O.co2     1 ASN        -0.5665
     91 H1        -38.1956   16.8114    0.7369 H         1 HIS         0.2016
     92 H2        -38.9860   15.3931    1.0072 H         1 HIS         0.2016
     93 H3        -37.8777   15.4996   -0.2052 H         1 HIS         0.2016
     94 H4        -36.1119   15.8382    1.3104 H         1 HIS         0.1116
     95 H5        -37.4091   17.0078    3.0303 H         1 HIS         0.0453
     96 H6        -36.5181   15.6081    3.7186 H         1 HIS         0.0453
     97 H7        -40.1268   16.9554    3.4540 H         1 HIS         0.0729
     98 H8        -40.3484   13.0100    5.0607 H         1 HIS         0.1199
     99 H9        -41.6581   15.1613    4.5989 H         1 HIS         0.2361
    100 H10       -35.0828   14.0138    2.4907 H         1 GLU         0.1885
    101 H11       -35.8210   11.6069    1.0706 H         1 GLU         0.0801
    102 H12       -33.8956   10.6240    2.5133 H         1 GLU         0.0330
    103 H13       -33.6025   12.3335    2.9807 H         1 GLU         0.0330
    104 H14       -32.2714   11.3896    0.9818 H         1 GLU         0.0433
    105 H15       -33.0842   12.9776    0.7717 H         1 GLU         0.0433
    106 H16       -36.2234    9.5366    2.0050 H         1 VAL         0.1883
    107 H17       -37.5072    9.5717    4.6878 H         1 VAL         0.0803
    108 H18       -38.8210    8.3138    2.2244 H         1 VAL         0.0343
    109 H19       -40.7771    8.1471    3.7129 H         1 VAL         0.0234
    110 H20       -39.8140    8.8653    5.0482 H         1 VAL         0.0234
    111 H21       -39.3542    7.2678    4.3676 H         1 VAL         0.0234
    112 H22       -38.8243   10.7546    2.0035 H         1 VAL         0.0234
    113 H23       -39.5693   10.8943    3.6320 H         1 VAL         0.0234
    114 H24       -40.4695   10.0964    2.2980 H         1 VAL         0.0234
    115 H25       -35.0356    5.9937    4.8121 H         1 HYP         0.0803
    116 H26       -35.2054    5.0047    6.9258 H         1 HYP         0.0338
    117 H27       -36.9813    5.2607    7.0103 H         1 HYP         0.0338
    118 H28       -36.3033    7.1481    8.1511 H         1 HYP         0.0616
    119 H29       -37.2975    8.4394    6.5881 H         1 HYP         0.0550
    120 H30       -35.6608    8.7404    5.9117 H         1 HYP         0.0550
    121 H31       -34.0793    6.7000    7.9367 H         1 HYP         0.2099
    122 H32       -35.1624    3.9312    3.9193 H         1 SER         0.1884
    123 H33       -37.8652    2.6804    3.9522 H         1 SER         0.0823
    124 H34       -37.3638    3.6804    1.6637 H         1 SER         0.0606
    125 H35       -37.7250    1.9210    1.6951 H         1 SER         0.0606
    126 H36       -35.8891    2.4379    0.3920 H         1 SER         0.2097
    127 H37       -37.6426    0.2693    3.4930 H         1 GLY         0.1881
    128 H38       -35.0157   -0.8561    4.1008 H         1 GLY         0.0763
    129 H39       -36.5292   -1.7600    3.7556 H         1 GLY         0.0763
    130 H40       -36.7240   -2.7532    7.9200 H         1 HYP         0.0803
    131 H41       -35.9206   -4.8368    7.6128 H         1 HYP         0.0338
    132 H42       -34.5954   -4.2365    8.6664 H         1 HYP         0.0338
    133 H43       -33.1546   -4.1178    6.9461 H         1 HYP         0.0616
    134 H44       -33.5850   -2.2765    5.7510 H         1 HYP         0.0550
    135 H45       -34.6148   -3.2797    4.6741 H         1 HYP         0.0550
    136 H46       -34.2058   -6.0663    6.3863 H         1 HYP         0.2099
    137 H47       -35.9841   -2.4363   10.1265 H         1 ASN         0.1885
    138 H48       -34.8681    0.1233   10.5967 H         1 ASN         0.0826
    139 H49       -34.7546   -2.2232   12.5327 H         1 ASN         0.0551
    140 H50       -36.2949   -1.3982   12.1158 H         1 ASN         0.0551
    141 H51       -35.4936    0.3736   15.0996 H         1 ASN         0.1814
    142 H52       -36.3061   -1.0252   14.4805 H         1 ASN         0.1814
    143 H53       -30.6602   -1.0819    9.8119 H         1 PRO         0.0802
    144 H54       -30.4908    0.9082    8.5720 H         1 PRO         0.0313
    145 H55       -29.4998    1.4296    9.9765 H         1 PRO         0.0313
    146 H56       -31.6720    2.8564    9.2513 H         1 PRO         0.0287
    147 H57       -31.3120    2.5845   10.9901 H         1 PRO         0.0287
    148 H58       -33.4798    1.7037   10.9736 H         1 PRO         0.0524
    149 H59       -33.4019    1.2775    9.2303 H         1 PRO         0.0524
    150 H60       -31.6777   -0.0203   12.9245 H         1 ILE         0.1883
    151 H61       -29.3358    0.7617   14.2048 H         1 ILE         0.0803
    152 H62       -30.2388   -0.5032   16.2749 H         1 ILE         0.0345
    153 H63       -31.5556   -2.1648   15.0172 H         1 ILE         0.0267
    154 H64       -32.5936   -0.8491   14.3702 H         1 ILE         0.0267
    155 H65       -30.5410    1.8926   15.8318 H         1 ILE         0.0235
    156 H66       -31.9802    1.1631   16.6211 H         1 ILE         0.0235
    157 H67       -32.0064    1.5225   14.8613 H         1 ILE         0.0235
    158 H68       -33.6930   -2.0184   16.2501 H         1 ILE         0.0230
    159 H69       -33.3419   -0.3079   16.6713 H         1 ILE         0.0230
    160 H70       -32.3039   -1.6235   17.3183 H         1 ILE         0.0230
    161 H71       -27.7861   -0.2707   15.5283 H         1 SER         0.1884
    162 H72       -27.3251   -3.1199   15.1454 H         1 SER         0.0823
    163 H73       -24.9341   -1.8339   14.1492 H         1 SER         0.0606
    164 H74       -26.3504   -1.2474   13.2128 H         1 SER         0.0606
    165 H75       -25.4726   -3.2173   12.3742 H         1 SER         0.2097
    166 H76       -25.8699   -4.0541   16.5277 H         1 ASN         0.1877
    167 H77       -24.1410   -2.1971   18.0771 H         1 ASN         0.0752
    168 H78       -23.7780   -3.9086   19.6993 H         1 ASN         0.0544
    169 H79       -24.5401   -5.1531   18.6519 H         1 ASN         0.0544
    170 H80       -27.6754   -4.7011   20.0414 H         1 ASN         0.1814
    171 H81       -26.5117   -5.7183   19.2595 H         1 ASN         0.1814
@<TRIPOS>BOND
     1    1    2 1  
     2    2    3 1  
     3    2    5 1  
     4    3    4 2  
     5    3   11 am 
     6    5    6 1  
     7    6    7 1  
     8    6    8 2  
     9    7    9 2  
    10    8   10 1  
    11    9   10 1  
    12   11   12 1  
    13   12   13 1  
    14   12   15 1  
    15   13   14 2  
    16   13   20 am 
    17   15   16 1  
    18   16   17 1  
    19   17   18 ar 
    20   17   19 ar 
    21   20   21 1  
    22   21   22 1  
    23   21   24 1  
    24   22   23 2  
    25   22   27 am 
    26   24   25 1  
    27   24   26 1  
    28   27   28 1  
    29   27   33 1  
    30   28   29 1  
    31   28   31 1  
    32   29   30 2  
    33   29   35 am 
    34   31   32 1  
    35   32   33 1  
    36   32   34 1  
    37   35   36 1  
    38   36   37 1  
    39   36   39 1  
    40   37   38 2  
    41   37   41 am 
    42   39   40 1  
    43   41   42 1  
    44   42   43 1  
    45   43   44 2  
    46   43   45 am 
    47   45   46 1  
    48   45   51 1  
    49   46   47 1  
    50   46   49 1  
    51   47   48 2  
    52   47   53 am 
    53   49   50 1  
    54   50   51 1  
    55   50   52 1  
    56   53   54 1  
    57   54   55 1  
    58   54   57 1  
    59   55   56 2  
    60   55   61 am 
    61   57   58 1  
    62   58   59 2  
    63   58   60 am 
    64   61   62 1  
    65   61   67 1  
    66   62   63 1  
    67   62   65 1  
    68   63   64 2  
    69   63   68 am 
    70   65   66 1  
    71   66   67 1  
    72   68   69 1  
    73   69   70 1  
    74   69   72 1  
    75   70   71 2  
    76   70   76 am 
    77   72   73 1  
    78   72   74 1  
    79   73   75 1  
    80   76   77 1  
    81   77   78 1  
    82   77   80 1  
    83   78   79 2  
    84   78   82 am 
    85   80   81 1  
    86   82   83 1  
    87   83   84 1  
    88   83   86 1  
    89   84   85 ar 
    90   84   90 ar 
    91   86   87 1  
    92   87   88 2  
    93   87   89 am 
    94    1   91 1  
    95    1   92 1  
    96    1   93 1  
    97    2   94 1  
    98    5   95 1  
    99    5   96 1  
   100    8   97 1  
   101    9   98 1  
   102   10   99 1  
   103   11  100 1  
   104   12  101 1  
   105   15  102 1  
   106   15  103 1  
   107   16  104 1  
   108   16  105 1  
   109   20  106 1  
   110   21  107 1  
   111   24  108 1  
   112   25  109 1  
   113   25  110 1  
   114   25  111 1  
   115   26  112 1  
   116   26  113 1  
   117   26  114 1  
   118   28  115 1  
   119   31  116 1  
   120   31  117 1  
   121   32  118 1  
   122   33  119 1  
   123   33  120 1  
   124   34  121 1  
   125   35  122 1  
   126   36  123 1  
   127   39  124 1  
   128   39  125 1  
   129   40  126 1  
   130   41  127 1  
   131   42  128 1  
   132   42  129 1  
   133   46  130 1  
   134   49  131 1  
   135   49  132 1  
   136   50  133 1  
   137   51  134 1  
   138   51  135 1  
   139   52  136 1  
   140   53  137 1  
   141   54  138 1  
   142   57  139 1  
   143   57  140 1  
   144   60  141 1  
   145   60  142 1  
   146   62  143 1  
   147   65  144 1  
   148   65  145 1  
   149   66  146 1  
   150   66  147 1  
   151   67  148 1  
   152   67  149 1  
   153   68  150 1  
   154   69  151 1  
   155   72  152 1  
   156   73  153 1  
   157   73  154 1  
   158   74  155 1  
   159   74  156 1  
   160   74  157 1  
   161   75  158 1  
   162   75  159 1  
   163   75  160 1  
   164   76  161 1  
   165   77  162 1  
   166   80  163 1  
   167   80  164 1  
   168   81  165 1  
   169   82  166 1  
   170   83  167 1  
   171   86  168 1  
   172   86  169 1  
   173   89  170 1  
   174   89  171 1  
@<TRIPOS>SUBSTRUCTURE
     1 HIS         1

