1ulg_ligand
  -I-interpret- 

 51 52  0  0  0  0  0  0  0  0999 V2000
  -33.8070  -20.4010  -17.0060 C   0  0  0  0  0
  -33.1600  -21.2000  -15.8670 C   0  0  0  0  0
  -34.1960  -21.4830  -14.7750 C   0  0  0  0  0
  -34.8490  -20.1780  -14.3190 C   0  0  0  0  0
  -35.4340  -19.4450  -15.5270 C   0  0  0  0  0
  -36.0340  -18.1030  -15.1540 C   0  0  0  0  0
  -32.6480  -22.4250  -16.3730 O   0  0  0  0  0
  -33.5710  -22.1150  -13.6690 O   0  0  0  0  0
  -33.8770  -19.3570  -13.6880 O   0  0  0  0  0
  -34.3980  -19.1940  -16.5020 O   0  0  0  0  0
  -36.3090  -17.3230  -16.3080 O   0  0  0  0  0
  -32.4550  -19.7700  -21.6780 C   0  0  0  0  0
  -32.0000  -20.0460  -20.2320 C   0  0  0  0  0
  -33.2190  -20.2470  -19.3260 C   0  0  0  0  0
  -34.3220  -19.2670  -19.7220 C   0  0  0  0  0
  -34.8070  -19.5970  -21.1440 C   0  0  0  0  0
  -36.0360  -20.4950  -21.1390 C   0  0  0  0  0
  -29.9340  -21.2560  -20.6860 C   0  0  0  0  0
  -29.3630  -19.9860  -21.3140 C   0  0  0  0  0
  -31.1740  -21.2430  -20.1920 N   0  0  0  0  0
  -32.4840  -18.4030  -21.9070 O   0  0  0  0  0
  -32.8480  -20.0500  -17.9450 O   0  0  0  0  0
  -33.8080  -17.9430  -19.6950 O   0  0  0  0  0
  -33.7770  -20.2920  -21.9010 O   0  0  0  0  0
  -36.7300  -20.4280  -19.8990 O   0  0  0  0  0
  -29.2350  -22.2670  -20.6510 O   0  0  0  0  0
  -34.5737  -21.0277  -17.4615 H   0  0  0  0  0
  -32.3434  -20.6176  -15.4403 H   0  0  0  0  0
  -34.9632  -22.1425  -15.1807 H   0  0  0  0  0
  -35.6486  -20.4015  -13.6128 H   0  0  0  0  0
  -36.2166  -20.0890  -15.9282 H   0  0  0  0  0
  -35.3191  -17.5637  -14.5326 H   0  0  0  0  0
  -36.9690  -18.2767  -14.6214 H   0  0  0  0  0
  -31.9995  -22.2414  -17.0567 H   0  0  0  0  0
  -33.1622  -22.9338  -13.9588 H   0  0  0  0  0
  -33.5119  -19.8199  -12.9304 H   0  0  0  0  0
  -36.6869  -16.4817  -16.0416 H   0  0  0  0  0
  -31.7507  -20.2553  -22.3537 H   0  0  0  0  0
  -31.4228  -19.1912  -19.8794 H   0  0  0  0  0
  -33.5893  -21.2652  -19.4449 H   0  0  0  0  0
  -35.1539  -19.3493  -19.0225 H   0  0  0  0  0
  -35.0495  -18.6381  -21.6020 H   0  0  0  0  0
  -35.7111  -21.5235  -21.2961 H   0  0  0  0  0
  -36.7093  -20.1609  -21.9284 H   0  0  0  0  0
  -28.4684  -19.6836  -20.7696 H   0  0  0  0  0
  -29.1076  -20.1804  -22.3557 H   0  0  0  0  0
  -30.1069  -19.1910  -21.2632 H   0  0  0  0  0
  -31.5521  -22.0940  -19.7758 H   0  0  0  0  0
  -32.7680  -18.2367  -22.8088 H   0  0  0  0  0
  -34.5008  -17.3268  -19.9438 H   0  0  0  0  0
  -37.4968  -21.0047  -19.9312 H   0  0  0  0  0
  1  2  1  0  0  0
  1 10  1  0  0  0
 22  1  1  0  0  0
  2  3  1  0  0  0
  2  7  1  0  0  0
  3  4  1  0  0  0
  3  8  1  0  0  0
  5  4  1  0  0  0
  4  9  1  0  0  0
  5  6  1  0  0  0
 10  5  1  0  0  0
  6 11  1  0  0  0
 13 12  1  0  0  0
 12 21  1  0  0  0
 12 24  1  0  0  0
 13 14  1  0  0  0
 20 13  1  0  0  0
 14 15  1  0  0  0
 14 22  1  0  0  0
 15 16  1  0  0  0
 15 23  1  0  0  0
 16 17  1  0  0  0
 24 16  1  0  0  0
 17 25  1  0  0  0
 18 19  1  0  0  0
 18 20  1  0  0  0
 18 26  2  0  0  0
  1 27  1  0  0  0
  2 28  1  0  0  0
  3 29  1  0  0  0
  4 30  1  0  0  0
  5 31  1  0  0  0
  6 32  1  0  0  0
  6 33  1  0  0  0
  7 34  1  0  0  0
  8 35  1  0  0  0
  9 36  1  0  0  0
 11 37  1  0  0  0
 12 38  1  0  0  0
 13 39  1  0  0  0
 14 40  1  0  0  0
 15 41  1  0  0  0
 16 42  1  0  0  0
 17 43  1  0  0  0
 17 44  1  0  0  0
 19 45  1  0  0  0
 19 46  1  0  0  0
 19 47  1  0  0  0
 20 48  1  0  0  0
 21 49  1  0  0  0
 23 50  1  0  0  0
 25 51  1  0  0  0
M  END
$$$$
