4hld_ligand
  -I-interpret- 

 55 58  0  0  0  0  0  0  0  0999 V2000
   12.3470   -3.3710    0.9020 C   0  0  0  0  0
   11.8130   -2.0080    0.6980 C   0  0  0  0  0
   11.4020   -1.2570    1.7220 C   0  0  0  0  0
   10.8930    0.0130    1.5930 N   0  0  0  0  0
   10.7990    0.6400    0.3680 C   0  0  0  0  0
   10.3940    1.7850    0.2330 O   0  0  0  0  0
   11.1950   -0.1280   -0.7020 N   0  0  0  0  0
   11.6940   -1.4200   -0.6630 C   0  0  0  0  0
   12.0260   -2.0420   -1.6690 O   0  0  0  0  0
   10.4230    0.7370    2.7410 C   0  0  0  0  0
    9.4230   -0.0370    3.5930 C   0  0  0  0  0
    8.9300    0.7710    4.7820 C   0  0  0  0  0
   10.0970    1.3670    5.5480 C   0  0  0  0  0
   10.9310    2.1550    4.5890 N   0  0  0  0  0
   11.5610    1.3030    3.5450 C   0  0  0  0  0
   11.9330    3.3830    5.2320 S   0  0  0  0  0
   11.1750    4.0580    6.2740 O   0  0  0  0  0
   12.5560    4.0590    4.1090 O   0  0  0  0  0
   13.2160    2.4030    5.9740 C   0  0  0  0  0
   13.0310    1.9180    7.2510 C   0  0  0  0  0
   14.0170    1.1330    7.8140 C   0  0  0  0  0
   15.1540    0.8420    7.0920 C   0  0  0  0  0
   15.3290    1.3350    5.8110 C   0  0  0  0  0
   14.3640    2.1410    5.2480 C   0  0  0  0  0
   16.4990    1.0890    5.1120 O   0  0  0  0  0
   16.5550    0.0590    4.1810 C   0  0  0  0  0
   15.8180   -1.1100    4.2390 C   0  0  0  0  0
   15.9910   -2.0740    3.2620 C   0  0  0  0  0
   16.8910   -1.8860    2.2330 C   0  0  0  0  0
   17.6210   -0.7180    2.1830 C   0  0  0  0  0
   17.4530    0.2450    3.1530 C   0  0  0  0  0
   18.7460   -0.3830    0.9210 Cl  0  0  0  0  0
   16.1120    0.0490    7.6740 O   0  0  0  0  0
   13.2272   -3.3228    1.5431 H   0  0  0  0  0
   11.5853   -3.9913    1.3744 H   0  0  0  0  0
   12.6209   -3.8005   -0.0616 H   0  0  0  0  0
   11.4747   -1.6780    2.7248 H   0  0  0  0  0
   11.1124    0.2999   -1.6242 H   0  0  0  0  0
    9.8544    1.5809    2.3504 H   0  0  0  0  0
    9.9219   -0.9282    3.9736 H   0  0  0  0  0
    8.5628   -0.2786    2.9686 H   0  0  0  0  0
    8.3715    0.1128    5.4476 H   0  0  0  0  0
    8.2969    1.5807    4.4191 H   0  0  0  0  0
   10.6932    0.5741    5.9996 H   0  0  0  0  0
    9.7309    2.0136    6.3455 H   0  0  0  0  0
   12.2422    1.8794    2.9190 H   0  0  0  0  0
   12.1663    0.5125    3.9887 H   0  0  0  0  0
   12.1223    2.1502    7.8063 H   0  0  0  0  0
   13.8967    0.7449    8.8255 H   0  0  0  0  0
   14.5020    2.5630    4.2525 H   0  0  0  0  0
   15.1061   -1.2705    5.0486 H   0  0  0  0  0
   15.4086   -2.9943    3.3056 H   0  0  0  0  0
   17.0230   -2.6520    1.4689 H   0  0  0  0  0
   18.0368    1.1643    3.1069 H   0  0  0  0  0
   16.8423   -0.0698    7.0623 H   0  0  0  0  0
  1  2  1  0  0  0
  2  3  2  0  0  0
  2  8  1  0  0  0
  3  4  1  0  0  0
  4  5  1  0  0  0
  4 10  1  0  0  0
  5  6  2  0  0  0
  5  7  1  0  0  0
  7  8  1  0  0  0
  8  9  2  0  0  0
 10 11  1  0  0  0
 10 15  1  0  0  0
 11 12  1  0  0  0
 12 13  1  0  0  0
 13 14  1  0  0  0
 14 15  1  0  0  0
 14 16  1  0  0  0
 16 17  2  0  0  0
 16 18  2  0  0  0
 16 19  1  0  0  0
 19 20  4  0  0  0
 19 24  4  0  0  0
 20 21  4  0  0  0
 21 22  4  0  0  0
 22 23  4  0  0  0
 22 33  1  0  0  0
 23 24  4  0  0  0
 23 25  1  0  0  0
 25 26  1  0  0  0
 26 27  4  0  0  0
 26 31  4  0  0  0
 27 28  4  0  0  0
 28 29  4  0  0  0
 29 30  4  0  0  0
 30 31  4  0  0  0
 30 32  1  0  0  0
  1 34  1  0  0  0
  1 35  1  0  0  0
  1 36  1  0  0  0
  3 37  1  0  0  0
  7 38  1  0  0  0
 10 39  1  0  0  0
 11 40  1  0  0  0
 11 41  1  0  0  0
 12 42  1  0  0  0
 12 43  1  0  0  0
 13 44  1  0  0  0
 13 45  1  0  0  0
 15 46  1  0  0  0
 15 47  1  0  0  0
 20 48  1  0  0  0
 21 49  1  0  0  0
 24 50  1  0  0  0
 27 51  1  0  0  0
 28 52  1  0  0  0
 29 53  1  0  0  0
 31 54  1  0  0  0
 33 55  1  0  0  0
M  END
$$$$
