6r4s_ligand
  -I-interpret- 

 47 49  0  0  0  0  0  0  0  0999 V2000
   22.5390   10.2670   27.9110 P   0  0  0  0  0
   22.1380   11.4160   28.7480 O   0  0  0  0  0
   24.0680   10.1170   27.7650 O   0  0  0  0  0
   21.9980   10.3660   26.4890 O   0  0  0  0  0
   22.7420    7.5450   28.8220 P   0  0  0  0  0
   21.7640    6.4500   28.8880 O   0  0  0  0  0
   23.8590    7.4540   27.7700 O   0  0  0  0  0
   21.9910    8.9250   28.5690 O   0  0  0  0  0
   24.7890    8.4210   30.7570 P   0  0  0  0  0
   24.5230    9.4800   31.7600 O   0  0  0  0  0
   25.5880    8.8710   29.5180 O   0  0  0  0  0
   23.4340    7.7610   30.2420 O   0  0  0  0  0
   25.5710    7.1540   31.3450 O   0  0  0  0  0
   25.5230    5.9300   30.5690 C   0  0  0  0  0
   25.1280    4.7420   31.3970 C   0  0  0  0  0
   25.6230    4.8630   32.7370 O   0  0  0  0  0
   23.6250    4.5750   31.5620 C   0  0  0  0  0
   23.0420    3.8580   30.4780 O   0  0  0  0  0
   23.4960    3.8250   32.8950 C   0  0  0  0  0
   23.2040    2.4540   32.6670 O   0  0  0  0  0
   24.8830    3.9620   33.5320 C   0  0  0  0  0
   24.8070    4.4980   34.8780 N   0  0  0  0  0
   24.5760    5.8110   35.2020 C   0  0  0  0  0
   24.4620    6.0330   36.4890 N   0  0  0  0  0
   24.6350    4.7790   37.0540 C   0  0  0  0  0
   24.6030    4.3320   38.3870 C   0  0  0  0  0
   24.3860    5.1320   39.4330 N   0  0  0  0  0
   24.7850    3.0130   38.6120 N   0  0  0  0  0
   24.9830    2.2020   37.5640 C   0  0  0  0  0
   25.0340    2.5130   36.2640 N   0  0  0  0  0
   24.8510    3.8230   36.0790 C   0  0  0  0  0
   24.2625    9.3563   27.2126 H   0  0  0  0  0
   22.2835    9.6003   25.9852 H   0  0  0  0  0
   24.4229    8.2281   27.8359 H   0  0  0  0  0
   25.7106    8.1231   28.9287 H   0  0  0  0  0
   26.5199    5.7454   30.1687 H   0  0  0  0  0
   24.7769    6.0572   29.7847 H   0  0  0  0  0
   25.5475    3.8953   30.8537 H   0  0  0  0  0
   23.0919    5.5257   31.5631 H   0  0  0  0  0
   22.0964    3.7757   30.6219 H   0  0  0  0  0
   22.6961    4.2204   33.5211 H   0  0  0  0  0
   23.1267    2.0001   33.5094 H   0  0  0  0  0
   25.3473    2.9774   33.5870 H   0  0  0  0  0
   24.4944    6.6004   34.4548 H   0  0  0  0  0
   24.2312    6.1298   39.2885 H   0  0  0  0  0
   24.3750    4.7456   40.3769 H   0  0  0  0  0
   25.1210    1.1475   37.8028 H   0  0  0  0  0
  1  2  2  0  0  0
  1  3  1  0  0  0
  1  4  1  0  0  0
  8  1  1  0  0  0
  5  6  2  0  0  0
  5  7  1  0  0  0
  5  8  1  0  0  0
 12  5  1  0  0  0
  9 10  2  0  0  0
  9 11  1  0  0  0
  9 12  1  0  0  0
  9 13  1  0  0  0
 13 14  1  0  0  0
 14 15  1  0  0  0
 15 16  1  0  0  0
 15 17  1  0  0  0
 16 21  1  0  0  0
 17 18  1  0  0  0
 17 19  1  0  0  0
 19 20  1  0  0  0
 19 21  1  0  0  0
 21 22  1  0  0  0
 22 23  4  0  0  0
 22 31  4  0  0  0
 23 24  4  0  0  0
 24 25  4  0  0  0
 25 26  4  0  0  0
 25 31  4  0  0  0
 26 27  1  0  0  0
 26 28  4  0  0  0
 28 29  4  0  0  0
 29 30  4  0  0  0
 30 31  4  0  0  0
  3 32  1  0  0  0
  4 33  1  0  0  0
  7 34  1  0  0  0
 11 35  1  0  0  0
 14 36  1  0  0  0
 14 37  1  0  0  0
 15 38  1  0  0  0
 17 39  1  0  0  0
 18 40  1  0  0  0
 19 41  1  0  0  0
 20 42  1  0  0  0
 21 43  1  0  0  0
 23 44  1  0  0  0
 27 45  1  0  0  0
 27 46  1  0  0  0
 29 47  1  0  0  0
M  END
$$$$
