### 
### Created by X-TOOL on Mon Aug  2 16:16:43 2021
### 

@<TRIPOS>MOLECULE
6r4s_ligand
   43    45     1     0     0
SMALL
GAST_HUCK


@<TRIPOS>ATOM
      1 PG         22.5390   10.2670   27.9110 P.3       1 ATP         0.1879
      2 O1G        22.1380   11.4160   28.7480 O.co2     1 ATP        -0.6091
      3 O2G        24.0680   10.1170   27.7650 O.co2     1 ATP        -0.6091
      4 O3G        21.9980   10.3660   26.4890 O.co2     1 ATP        -0.6091
      5 PB         22.7420    7.5450   28.8220 P.3       1 ATP         0.3553
      6 O1B        21.7640    6.4500   28.8880 O.co2     1 ATP        -0.5652
      7 O2B        23.8590    7.4540   27.7700 O.co2     1 ATP        -0.5652
      8 O3B        21.9910    8.9250   28.5690 O.3       1 ATP        -0.1546
      9 PA         24.7890    8.4210   30.7570 P.3       1 ATP         0.3266
     10 O1A        24.5230    9.4800   31.7600 O.co2     1 ATP        -0.5692
     11 O2A        25.5880    8.8710   29.5180 O.co2     1 ATP        -0.5692
     12 O3A        23.4340    7.7610   30.2420 O.3       1 ATP        -0.1171
     13 O5'        25.5710    7.1540   31.3450 O.3       1 ATP        -0.2441
     14 C5'        25.5230    5.9300   30.5690 C.3       1 ATP         0.1131
     15 C4'        25.1280    4.7420   31.3970 C.3       1 ATP         0.1189
     16 O4'        25.6230    4.8630   32.7370 O.3       1 ATP        -0.3364
     17 C3'        23.6250    4.5750   31.5620 C.3       1 ATP         0.1149
     18 O3'        23.0420    3.8580   30.4780 O.3       1 ATP        -0.3864
     19 C2'        23.4960    3.8250   32.8950 C.3       1 ATP         0.1385
     20 O2'        23.2040    2.4540   32.6670 O.3       1 ATP        -0.3836
     21 C1'        24.8830    3.9620   33.5320 C.3       1 ATP         0.2010
     22 N9         24.8070    4.4980   34.8780 N.pl3     1 ATP        -0.1919
     23 C8         24.5760    5.8110   35.2020 C.2       1 ATP         0.1123
     24 N7         24.4620    6.0330   36.4890 N.2       1 ATP        -0.2958
     25 C5         24.6350    4.7790   37.0540 C.ar      1 ATP         0.1045
     26 C6         24.6030    4.3320   38.3870 C.ar      1 ATP         0.1298
     27 N6         24.3860    5.1320   39.4330 N.pl3     1 ATP        -0.3152
     28 N1         24.7850    3.0130   38.6120 N.ar      1 ATP        -0.2698
     29 C2         24.9830    2.2020   37.5640 C.ar      1 ATP         0.0533
     30 N3         25.0340    2.5130   36.2640 N.ar      1 ATP        -0.2714
     31 C4         24.8510    3.8230   36.0790 C.ar      1 ATP         0.1613
     32 H1         26.5184    5.7453   30.1388 H         1 ATP         0.0648
     33 H2         24.7903    6.0545   29.7580 H         1 ATP         0.0648
     34 H3         25.5447    3.8414   30.9224 H         1 ATP         0.0651
     35 H4         23.1380    5.5589   31.6312 H         1 ATP         0.0648
     36 H5         23.4319    2.9933   30.4256 H         1 ATP         0.2100
     37 H6         22.7186    4.2747   33.5301 H         1 ATP         0.0676
     38 H7         23.9043    2.0626   32.1582 H         1 ATP         0.2101
     39 H8         25.3769    2.9795   33.5568 H         1 ATP         0.0996
     40 H9         24.4945    6.5997   34.4555 H         1 ATP         0.1349
     41 H10        24.3749    4.7419   40.3862 H         1 ATP         0.1820
     42 H11        24.2297    6.1396   39.2871 H         1 ATP         0.1820
     43 H12        25.1203    1.1533   37.8014 H         1 ATP         0.0996
@<TRIPOS>BOND
     1    1    2 ar 
     2    1    3 ar 
     3    1    4 ar 
     4    8    1 1  
     5    5    6 ar 
     6    5    7 ar 
     7    5    8 1  
     8   12    5 1  
     9    9   10 ar 
    10    9   11 ar 
    11    9   12 1  
    12    9   13 1  
    13   13   14 1  
    14   14   15 1  
    15   15   16 1  
    16   15   17 1  
    17   16   21 1  
    18   17   18 1  
    19   17   19 1  
    20   19   20 1  
    21   19   21 1  
    22   21   22 1  
    23   22   23 1  
    24   22   31 1  
    25   23   24 2  
    26   24   25 1  
    27   25   26 ar 
    28   25   31 ar 
    29   26   27 1  
    30   26   28 ar 
    31   28   29 ar 
    32   29   30 ar 
    33   30   31 ar 
    34   14   32 1  
    35   14   33 1  
    36   15   34 1  
    37   17   35 1  
    38   18   36 1  
    39   19   37 1  
    40   20   38 1  
    41   21   39 1  
    42   23   40 1  
    43   27   41 1  
    44   27   42 1  
    45   29   43 1  
@<TRIPOS>SUBSTRUCTURE
     1 ATP         1

