2weq_ligand
  -I-interpret- 

 90 91  0  0  0  0  0  0  0  0999 V2000
  -25.8340   34.5000   -5.5650 C   0  0  0  0  0
  -26.0650   34.2580   -4.0860 C   0  0  0  0  0
  -25.6400   32.9550   -3.4050 C   0  0  0  0  0
  -24.9030   31.8520   -4.1530 C   0  0  0  0  0
  -24.6800   32.0520   -5.6610 C   0  0  0  0  0
  -25.1390   33.3510   -6.3450 C   0  0  0  0  0
  -26.2860   35.8370   -6.1960 C   0  0  0  0  0
  -25.1800   36.9050   -6.2770 C   0  0  0  0  0
  -24.0350   36.4720   -7.2140 C   0  0  0  0  0
  -22.6690   37.2000   -7.0930 C   0  0  0  0  0
  -21.6520   36.6550   -8.1480 C   0  0  0  0  0
  -21.1010   35.2510   -7.8350 C   0  0  0  0  0
  -20.5560   35.2240   -6.4030 C   0  0  0  0  0
  -20.9350   34.0690   -5.4780 C   0  0  0  0  0
  -19.8930   34.0850   -4.3550 C   0  0  0  0  0
  -20.3740   34.1350   -2.8890 C   0  0  0  0  0
  -21.3060   35.2950   -2.6690 C   0  0  0  0  0
  -22.6980   35.5370   -2.1790 C   0  0  0  0  0
  -23.8280   34.6630   -1.7640 C   0  0  0  0  0
  -25.0340   35.2510   -1.0240 C   0  0  0  0  0
  -25.8040   33.9030   -0.9230 C   0  0  0  0  0
  -25.8990   32.9510   -1.9920 N   0  0  0  0  0
  -26.6840   35.2420   -3.3220 O   0  0  0  0  0
  -24.0490   31.0360   -6.3880 O   0  0  0  0  0
  -24.9200   33.5050   -7.6950 O   0  0  0  0  0
  -26.0860   33.6000   -8.5040 C   0  0  0  0  0
  -24.6330   37.2290   -4.8760 C   0  0  0  0  0
  -22.8710   38.5380   -7.5100 O   0  0  0  0  0
  -21.9810   39.5910   -7.1520 C   0  0  0  0  0
  -22.3070   36.5100   -9.3870 O   0  0  0  0  0
  -19.9320   34.9970   -8.8380 C   0  0  0  0  0
  -21.2230   32.7060   -6.1530 C   0  0  0  0  0
  -19.0150   33.0210   -4.4150 O   0  0  0  0  0
  -17.6990   33.1070   -4.8150 C   0  0  0  0  0
  -17.3920   33.9760   -5.5700 O   0  0  0  0  0
  -16.9780   31.8530   -4.7460 N   0  0  0  0  0
  -19.2120   34.4760   -2.1630 O   0  0  0  0  0
  -19.2400   34.6780   -0.7860 C   0  0  0  0  0
  -24.6260   35.9390    0.2960 C   0  0  0  0  0
  -25.5060   33.2390    0.0270 O   0  0  0  0  0
  -24.5483   30.9578   -3.6405 H   0  0  0  0  0
  -27.0756   36.2403   -5.5619 H   0  0  0  0  0
  -26.5981   35.6203   -7.2176 H   0  0  0  0  0
  -25.6280   37.8059   -6.6961 H   0  0  0  0  0
  -24.3894   36.6934   -8.2207 H   0  0  0  0  0
  -23.8300   35.4333   -6.9548 H   0  0  0  0  0
  -22.3065   37.0758   -6.0726 H   0  0  0  0  0
  -20.8332   37.3745   -8.1465 H   0  0  0  0  0
  -21.8771   34.4912   -7.9273 H   0  0  0  0  0
  -20.9787   36.1096   -5.9285 H   0  0  0  0  0
  -19.4752   35.1434   -6.5190 H   0  0  0  0  0
  -21.9315   34.2219   -5.0637 H   0  0  0  0  0
  -19.4349   35.0486   -4.5779 H   0  0  0  0  0
  -20.8645   33.2014   -2.6135 H   0  0  0  0  0
  -21.4890   35.5241   -3.7188 H   0  0  0  0  0
  -20.7837   35.7301   -1.8169 H   0  0  0  0  0
  -23.1276   35.9301   -3.1004 H   0  0  0  0  0
  -22.4550   35.9606   -1.2045 H   0  0  0  0  0
  -23.3840   33.9720   -1.0475 H   0  0  0  0  0
  -24.2421   34.2954   -2.7029 H   0  0  0  0  0
  -25.6001   36.0694   -1.4688 H   0  0  0  0  0
  -26.7711   34.4052   -0.8998 H   0  0  0  0  0
  -26.2345   32.0441   -1.6675 H   0  0  0  0  0
  -26.7574   34.9411   -2.4133 H   0  0  0  0  0
  -23.9791   31.2989   -7.3087 H   0  0  0  0  0
  -26.6790   32.6923   -8.3924 H   0  0  0  0  0
  -26.6753   34.4615   -8.1900 H   0  0  0  0  0
  -25.7940   33.7188   -9.5474 H   0  0  0  0  0
  -25.4418   37.6054   -4.2497 H   0  0  0  0  0
  -24.2181   36.3245   -4.4312 H   0  0  0  0  0
  -23.8529   37.9858   -4.9580 H   0  0  0  0  0
  -21.9442   39.6806   -6.0663 H   0  0  0  0  0
  -20.9845   39.3682   -7.5334 H   0  0  0  0  0
  -22.3356   40.5271   -7.5833 H   0  0  0  0  0
  -21.6864   36.1754  -10.0385 H   0  0  0  0  0
  -20.3128   35.0472   -9.8581 H   0  0  0  0  0
  -19.1633   35.7570   -8.6980 H   0  0  0  0  0
  -19.5066   34.0101   -8.6558 H   0  0  0  0  0
  -22.0549   32.8152   -6.8488 H   0  0  0  0  0
  -20.3363   32.3753   -6.6939 H   0  0  0  0  0
  -21.4799   31.9712   -5.3900 H   0  0  0  0  0
  -16.1775   31.6907   -5.3570 H   0  0  0  0  0
  -17.2706   31.1321   -4.0864 H   0  0  0  0  0
  -19.9237   35.4945   -0.5537 H   0  0  0  0  0
  -19.5794   33.7669   -0.2932 H   0  0  0  0  0
  -18.2388   34.9302   -0.4366 H   0  0  0  0  0
  -24.1470   35.2110    0.9507 H   0  0  0  0  0
  -23.9300   36.7500    0.0815 H   0  0  0  0  0
  -25.5139   36.3402    0.7847 H   0  0  0  0  0
  -26.0188   32.4275    0.0223 H   0  0  0  0  0
  1  2  4  0  0  0
  1  6  4  0  0  0
  1  7  1  0  0  0
  2  3  4  0  0  0
  2 23  1  0  0  0
  3  4  4  0  0  0
  3 22  1  0  0  0
  4  5  4  0  0  0
  5  6  4  0  0  0
  5 24  1  0  0  0
  6 25  1  0  0  0
  7  8  1  0  0  0
  8  9  1  0  0  0
  8 27  1  0  0  0
  9 10  1  0  0  0
 10 11  1  0  0  0
 10 28  1  0  0  0
 11 12  1  0  0  0
 11 30  1  0  0  0
 12 13  1  0  0  0
 12 31  1  0  0  0
 13 14  1  0  0  0
 14 15  1  0  0  0
 14 32  1  0  0  0
 15 16  1  0  0  0
 15 33  1  0  0  0
 16 17  1  0  0  0
 16 37  1  0  0  0
 17 18  1  0  0  0
 18 19  1  0  0  0
 19 20  1  0  0  0
 20 21  1  0  0  0
 20 39  1  0  0  0
 21 22  1  0  0  0
 21 40  1  0  0  0
 25 26  1  0  0  0
 28 29  1  0  0  0
 33 34  1  0  0  0
 34 35  2  0  0  0
 34 36  1  0  0  0
 37 38  1  0  0  0
  4 41  1  0  0  0
  7 42  1  0  0  0
  7 43  1  0  0  0
  8 44  1  0  0  0
  9 45  1  0  0  0
  9 46  1  0  0  0
 10 47  1  0  0  0
 11 48  1  0  0  0
 12 49  1  0  0  0
 13 50  1  0  0  0
 13 51  1  0  0  0
 14 52  1  0  0  0
 15 53  1  0  0  0
 16 54  1  0  0  0
 17 55  1  0  0  0
 17 56  1  0  0  0
 18 57  1  0  0  0
 18 58  1  0  0  0
 19 59  1  0  0  0
 19 60  1  0  0  0
 20 61  1  0  0  0
 21 62  1  0  0  0
 22 63  1  0  0  0
 23 64  1  0  0  0
 24 65  1  0  0  0
 26 66  1  0  0  0
 26 67  1  0  0  0
 26 68  1  0  0  0
 27 69  1  0  0  0
 27 70  1  0  0  0
 27 71  1  0  0  0
 29 72  1  0  0  0
 29 73  1  0  0  0
 29 74  1  0  0  0
 30 75  1  0  0  0
 31 76  1  0  0  0
 31 77  1  0  0  0
 31 78  1  0  0  0
 32 79  1  0  0  0
 32 80  1  0  0  0
 32 81  1  0  0  0
 36 82  1  0  0  0
 36 83  1  0  0  0
 38 84  1  0  0  0
 38 85  1  0  0  0
 38 86  1  0  0  0
 39 87  1  0  0  0
 39 88  1  0  0  0
 39 89  1  0  0  0
 40 90  1  0  0  0
M  END
$$$$
