4qxr_ligand
  -I-interpret- 

 35 37  0  0  0  0  0  0  0  0999 V2000
  113.4620  -38.0190  -10.5590 O   0  0  0  0  0
  113.3970  -39.1770  -10.1660 C   0  0  0  0  0
  113.5800  -40.2490  -11.0220 C   0  0  0  0  0
  113.8550  -40.0350  -12.3690 C   0  0  0  0  0
  114.0570  -41.1340  -13.1960 C   0  0  0  0  0
  113.9820  -42.4360  -12.6890 C   0  0  0  0  0
  114.1830  -43.5370  -13.5180 C   0  0  0  0  0
  113.7100  -42.6440  -11.3360 C   0  0  0  0  0
  113.6220  -43.9060  -10.7500 C   0  0  0  0  0
  113.4990  -41.5530  -10.5320 C   0  0  0  0  0
  113.2670  -41.8280   -9.2350 O   0  0  0  0  0
  113.1120  -40.7930   -8.3730 C   0  0  0  0  0
  113.1910  -39.4660   -8.8350 C   0  0  0  0  0
  113.0480  -38.4230   -7.9300 C   0  0  0  0  0
  112.8180  -38.7230   -6.5950 C   0  0  0  0  0
  112.7410  -40.0420   -6.1500 C   0  0  0  0  0
  112.8790  -41.1000   -7.0400 C   0  0  0  0  0
  112.7920  -42.4150   -6.5690 C   0  0  0  0  0
  114.0020  -43.3310   -6.8580 C   0  0  0  0  0
  113.7970  -44.5590   -6.7130 O   0  0  0  0  0
  115.0830  -42.7980   -7.2020 O   0  0  0  0  0
  113.9111  -39.0226  -12.7691 H   0  0  0  0  0
  114.2765  -40.9796  -14.2524 H   0  0  0  0  0
  113.4405  -43.5297  -14.3160 H   0  0  0  0  0
  115.1826  -43.4875  -13.9497 H   0  0  0  0  0
  114.0826  -44.4524  -12.9349 H   0  0  0  0  0
  112.8260  -44.4740  -11.2314 H   0  0  0  0  0
  114.5699  -44.4297  -10.8740 H   0  0  0  0  0
  113.4016  -43.7975   -9.6880 H   0  0  0  0  0
  113.1152  -37.3870   -8.2622 H   0  0  0  0  0
  112.6949  -37.9103   -5.8791 H   0  0  0  0  0
  112.5707  -40.2454   -5.0928 H   0  0  0  0  0
  111.9428  -42.8647   -7.0835 H   0  0  0  0  0
  112.7197  -42.3432   -5.4838 H   0  0  0  0  0
  112.8862  -44.7008   -6.4449 H   0  0  0  0  0
  1  2  2  0  0  0
  2  3  1  0  0  0
  2 13  1  0  0  0
  3  4  4  0  0  0
  3 10  4  0  0  0
  4  5  4  0  0  0
  5  6  4  0  0  0
  6  7  1  0  0  0
  6  8  4  0  0  0
  8  9  1  0  0  0
  8 10  4  0  0  0
 10 11  1  0  0  0
 11 12  1  0  0  0
 12 13  4  0  0  0
 12 17  4  0  0  0
 13 14  4  0  0  0
 14 15  4  0  0  0
 15 16  4  0  0  0
 16 17  4  0  0  0
 17 18  1  0  0  0
 18 19  1  0  0  0
 19 20  1  0  0  0
 19 21  2  0  0  0
  4 22  1  0  0  0
  5 23  1  0  0  0
  7 24  1  0  0  0
  7 25  1  0  0  0
  7 26  1  0  0  0
  9 27  1  0  0  0
  9 28  1  0  0  0
  9 29  1  0  0  0
 14 30  1  0  0  0
 15 31  1  0  0  0
 16 32  1  0  0  0
 18 33  1  0  0  0
 18 34  1  0  0  0
 20 35  1  0  0  0
M  END
$$$$
