1lah_ligand
  -I-interpret- 

 23 22  0  0  0  0  0  0  0  0999 V2000
   31.6610   30.0560   67.9460 N   0  3  0  0  0
   31.8960   28.7210   67.5140 C   0  0  0  0  0
   31.2990   27.9130   68.6750 C   0  0  0  0  0
   30.9390   28.4620   69.7170 O   0  0  0  0  0
   33.4100   28.4100   67.3660 C   0  0  0  0  0
   34.3690   28.8510   68.5040 C   0  0  0  0  0
   35.5940   27.9370   68.5380 C   0  0  0  0  0
   36.5720   28.3860   69.5370 N   0  3  0  0  0
   31.1990   26.7110   68.5430 O   0  0  0  0  0
   32.0193   30.7064   67.2467 H   0  0  0  0  0
   30.6586   30.2019   68.0658 H   0  0  0  0  0
   32.1372   30.2135   68.8342 H   0  0  0  0  0
   31.4685   28.5060   66.5347 H   0  0  0  0  0
   31.0893   29.4076   69.6476 H   0  0  0  0  0
   33.7322   28.9696   66.4879 H   0  0  0  0  0
   33.4772   27.3224   67.3411 H   0  0  0  0  0
   33.8467   28.7867   69.4585 H   0  0  0  0  0
   34.6914   29.8766   68.3244 H   0  0  0  0  0
   36.0680   27.9579   67.5567 H   0  0  0  0  0
   35.2674   26.9311   68.8020 H   0  0  0  0  0
   37.3740   27.7558   69.5331 H   0  0  0  0  0
   36.8797   29.3313   69.3088 H   0  0  0  0  0
   36.1392   28.3817   70.4606 H   0  0  0  0  0
  2  5  1  0  0  0
  2  3  1  0  0  0
  2  1  1  0  0  0
  3  9  2  0  0  0
  3  4  1  0  0  0
  5  6  1  0  0  0
  6  7  1  0  0  0
  7  8  1  0  0  0
  1 10  1  0  0  0
  1 11  1  0  0  0
  1 12  1  0  0  0
  2 13  1  0  0  0
  4 14  1  0  0  0
  5 15  1  0  0  0
  5 16  1  0  0  0
  6 17  1  0  0  0
  6 18  1  0  0  0
  7 19  1  0  0  0
  7 20  1  0  0  0
  8 21  1  0  0  0
  8 22  1  0  0  0
  8 23  1  0  0  0
M  END
$$$$
