5du8_ligand
  -I-interpret- 

 53 56  0  0  0  0  0  0  0  0999 V2000
  -18.5940   26.0920  -34.4540 C   0  0  0  0  0
  -17.9570   24.7380  -34.0640 C   0  0  0  0  0
  -16.9810   24.1820  -35.1120 C   0  0  0  0  0
  -18.3940   25.4680  -36.7720 C   0  0  0  0  0
  -19.6570   26.3780  -33.4650 C   0  0  0  0  0
  -20.9470   25.8480  -33.5780 C   0  0  0  0  0
  -21.9110   26.1400  -32.5940 C   0  0  0  0  0
  -21.5860   26.9690  -31.5010 C   0  0  0  0  0
  -20.2920   27.4850  -31.4070 C   0  0  0  0  0
  -19.3420   27.1890  -32.3800 C   0  0  0  0  0
  -16.8590   22.6640  -35.1080 C   0  0  0  0  0
  -18.4860   25.5100  -38.2450 C   0  0  0  0  0
  -17.5290   24.6160  -38.7000 C   0  0  0  0  0
  -19.3950   26.4110  -38.9790 C   0  0  0  0  0
  -20.2630   27.2090  -41.1350 C   0  0  0  0  0
  -19.2740   27.9890  -41.9780 C   0  0  0  0  0
  -19.4050   28.0220  -43.3660 C   0  0  0  0  0
  -18.4730   28.7330  -44.1130 C   0  0  0  0  0
  -17.4290   29.3840  -43.4670 C   0  0  0  0  0
  -17.3210   29.3250  -42.0840 C   0  0  0  0  0
  -22.5830   27.3200  -30.3950 C   0  0  0  0  0
  -15.8920   22.2900  -35.9160 F   0  0  0  0  0
  -16.5910   22.2590  -33.8910 F   0  0  0  0  0
  -17.9700   22.1150  -35.5500 F   0  0  0  0  0
  -23.9530   27.7250  -30.9150 C   0  0  0  0  0
  -19.0940   26.1490  -35.8330 N   0  0  0  0  0
  -17.4710   24.6100  -36.4360 N   0  0  0  0  0
  -16.9220   24.0540  -37.6130 N   0  0  0  0  0
  -20.0260   27.2230  -38.3190 O   0  0  0  0  0
  -19.4370   26.3310  -40.3180 N   0  0  0  0  0
  -18.2360   28.6360  -41.3850 N   0  0  0  0  0
  -16.5300   30.0700  -44.1840 F   0  0  0  0  0
  -17.8213   26.8605  -34.4315 H   0  0  0  0  0
  -18.7677   24.0166  -33.9622 H   0  0  0  0  0
  -17.3898   24.8995  -33.1473 H   0  0  0  0  0
  -15.9894   24.5672  -34.8743 H   0  0  0  0  0
  -21.2047   25.2115  -34.4245 H   0  0  0  0  0
  -22.9144   25.7226  -32.6779 H   0  0  0  0  0
  -20.0240   28.1241  -30.5657 H   0  0  0  0  0
  -18.3360   27.5989  -32.2904 H   0  0  0  0  0
  -17.3007   24.3993  -39.7436 H   0  0  0  0  0
  -20.9693   26.6496  -41.7485 H   0  0  0  0  0
  -20.8862   27.8646  -40.5268 H   0  0  0  0  0
  -20.2252   27.4986  -43.8573 H   0  0  0  0  0
  -18.5605   28.7796  -45.1985 H   0  0  0  0  0
  -16.5030   29.8321  -41.5724 H   0  0  0  0  0
  -22.1771   28.1707  -29.8476 H   0  0  0  0  0
  -22.7170   26.4290  -29.7816 H   0  0  0  0  0
  -23.8529   28.6025  -31.5537 H   0  0  0  0  0
  -24.3799   26.9028  -31.4893 H   0  0  0  0  0
  -24.6050   27.9590  -30.0734 H   0  0  0  0  0
  -19.9320   26.6783  -36.0738 H   0  0  0  0  0
  -18.8661   25.6252  -40.7832 H   0  0  0  0  0
  1  2  1  0  0  0
  1  5  1  0  0  0
 26  1  1  0  0  0
  3  2  1  0  0  0
  3 11  1  0  0  0
 27  3  1  0  0  0
 12  4  4  0  0  0
  4 26  1  0  0  0
  4 27  4  0  0  0
  5  6  4  0  0  0
  5 10  4  0  0  0
  6  7  4  0  0  0
  7  8  4  0  0  0
  9  8  4  0  0  0
  8 21  1  0  0  0
 10  9  4  0  0  0
 11 22  1  0  0  0
 11 23  1  0  0  0
 11 24  1  0  0  0
 12 13  4  0  0  0
 14 12  1  0  0  0
 13 28  4  0  0  0
 14 29  2  0  0  0
 30 14  1  0  0  0
 15 16  1  0  0  0
 15 30  1  0  0  0
 16 17  4  0  0  0
 16 31  4  0  0  0
 17 18  4  0  0  0
 18 19  4  0  0  0
 19 20  4  0  0  0
 19 32  1  0  0  0
 20 31  4  0  0  0
 21 25  1  0  0  0
 27 28  4  0  0  0
  1 33  1  0  0  0
  2 34  1  0  0  0
  2 35  1  0  0  0
  3 36  1  0  0  0
  6 37  1  0  0  0
  7 38  1  0  0  0
  9 39  1  0  0  0
 10 40  1  0  0  0
 13 41  1  0  0  0
 15 42  1  0  0  0
 15 43  1  0  0  0
 17 44  1  0  0  0
 18 45  1  0  0  0
 20 46  1  0  0  0
 21 47  1  0  0  0
 21 48  1  0  0  0
 25 49  1  0  0  0
 25 50  1  0  0  0
 25 51  1  0  0  0
 26 52  1  0  0  0
 30 53  1  0  0  0
M  END
$$$$
