6pka_ligand
  -I-interpret- 

105111  0  0  0  0  0  0  0  0999 V2000
  -18.5260   67.9380  -40.3930 C   0  0  0  0  0
  -19.4660   68.6290  -40.7440 O   0  0  0  0  0
  -17.7160   67.2300  -41.3110 N   0  0  0  0  0
  -17.8410   67.3160  -42.7480 C   0  0  0  0  0
  -17.8630   66.1610  -43.5060 C   0  0  0  0  0
  -17.9090   66.2750  -44.8900 C   0  0  0  0  0
  -17.8990   67.5240  -45.4980 C   0  0  0  0  0
  -17.9500   67.6110  -47.0070 C   0  0  0  0  0
  -17.8580   68.6790  -44.7410 C   0  0  0  0  0
  -17.8050   68.5790  -43.3400 C   0  0  0  0  0
  -18.2700   69.7220  -37.9100 C   0  0  0  0  0
  -18.1450   67.7140  -39.0320 N   0  0  0  0  0
  -17.4170   70.0120  -37.1300 O   0  0  0  0  0
  -22.4380   64.8470  -35.5370 F   0  0  0  0  0
  -18.6650   62.7340  -37.3200 F   0  0  0  0  0
  -18.8260   68.2980  -37.9570 C   0  0  0  0  0
  -18.5070   67.5540  -36.6820 C   0  0  0  0  0
  -19.2590   66.2090  -36.5780 C   0  0  0  0  0
  -20.5880   63.7280  -36.4100 C   0  0  0  0  0
  -20.5430   66.1290  -36.0750 C   0  0  0  0  0
  -18.6460   65.0430  -36.9960 C   0  0  0  0  0
  -21.2070   64.8930  -36.0150 C   0  0  0  0  0
  -19.3050   63.8210  -36.8960 C   0  0  0  0  0
  -18.7720   70.7000  -38.8530 N   0  0  0  0  0
  -18.2870   72.0240  -38.8790 C   0  0  0  0  0
  -19.4000   73.0480  -38.5930 C   0  0  0  0  0
  -20.5140   72.8810  -39.0000 O   0  0  0  0  0
  -17.7510   72.3130  -40.2550 C   0  0  0  0  0
  -16.5530   71.5740  -40.2830 O   0  0  0  0  0
  -19.0580   74.2270  -37.8420 N   0  0  0  0  0
  -17.8550   74.4780  -37.3610 C   0  0  0  0  0
  -17.6010   73.5670  -36.1630 C   0  0  0  0  0
  -18.4900   73.1370  -35.4660 O   0  0  0  0  0
  -17.9120   75.9430  -36.7460 C   0  0  0  0  0
  -19.4010   76.1260  -36.4920 C   0  0  0  0  0
  -20.0410   75.4330  -37.4420 C   0  0  0  0  0
  -14.1930   72.3900  -36.8330 C   0  0  0  0  0
  -16.2600   73.1230  -35.7860 N   0  0  0  0  0
  -12.9890   72.5030  -36.9100 O   0  0  0  0  0
  -15.0290   73.5610  -36.4410 C   0  0  0  0  0
  -14.2530   74.4010  -35.4260 C   0  0  0  0  0
  -15.4650   73.1980  -33.5490 C   0  0  0  0  0
  -16.1470   72.3150  -34.5690 C   0  0  0  0  0
  -14.1790   73.7790  -34.0540 C   0  0  0  0  0
  -14.8100   71.1120  -37.1150 N   0  0  0  0  0
  -13.9720   69.9900  -37.3800 C   0  0  0  0  0
  -14.3800   69.1260  -38.5330 C   0  0  0  0  0
  -14.6410   67.9530  -38.3850 O   0  0  0  0  0
  -13.9810   69.2260  -36.0620 C   0  0  0  0  0
  -15.2850   72.1800  -39.9740 C   0  0  0  0  0
  -14.3740   69.7110  -39.8100 N   0  0  0  0  0
  -15.1460   73.3320  -39.6260 O   0  0  0  0  0
  -14.0410   71.2670  -40.1700 C   0  0  0  0  0
  -13.6720   71.2460  -41.4590 C   0  0  0  0  0
  -14.7260   69.0500  -41.1570 C   0  0  0  0  0
  -13.8790   69.5360  -43.3690 C   0  0  0  0  0
  -14.5700   70.0310  -42.1220 C   0  0  0  0  0
  -16.3980   71.7430  -40.1690 O   0  0  0  0  0
  -16.9941   66.6166  -40.9328 H   0  0  0  0  0
  -17.8447   65.1813  -43.0285 H   0  0  0  0  0
  -17.9534   65.3758  -45.5045 H   0  0  0  0  0
  -17.0866   67.0964  -47.4287 H   0  0  0  0  0
  -18.8657   67.1412  -47.3660 H   0  0  0  0  0
  -17.9343   68.6579  -47.3100 H   0  0  0  0  0
  -17.8666   69.6559  -45.2244 H   0  0  0  0  0
  -17.7367   69.4759  -42.7244 H   0  0  0  0  0
  -17.3486   67.1070  -38.8380 H   0  0  0  0  0
  -19.9103   68.2762  -38.0665 H   0  0  0  0  0
  -18.8154   68.1774  -35.8427 H   0  0  0  0  0
  -17.4377   67.3428  -36.6745 H   0  0  0  0  0
  -21.0968   62.7666  -36.3399 H   0  0  0  0  0
  -21.0439   67.0307  -35.7225 H   0  0  0  0  0
  -17.6374   65.0806  -37.4077 H   0  0  0  0  0
  -19.4959   70.4237  -39.5163 H   0  0  0  0  0
  -17.5185   72.1121  -38.1111 H   0  0  0  0  0
  -18.5098   72.9054  -40.7662 H   0  0  0  0  0
  -17.1024   74.3485  -38.1388 H   0  0  0  0  0
  -17.4913   76.7028  -37.4046 H   0  0  0  0  0
  -17.3051   76.0565  -35.8477 H   0  0  0  0  0
  -19.8579   76.7083  -35.6919 H   0  0  0  0  0
  -21.0261   75.6437  -37.8583 H   0  0  0  0  0
  -15.2683   74.1283  -37.3404 H   0  0  0  0  0
  -14.7742   75.3529  -35.3245 H   0  0  0  0  0
  -13.2321   74.4974  -35.7955 H   0  0  0  0  0
  -15.2358   72.5860  -32.6766 H   0  0  0  0  0
  -16.1377   74.0242  -33.3186 H   0  0  0  0  0
  -15.5758   71.4044  -34.7497 H   0  0  0  0  0
  -17.1258   71.9878  -34.2184 H   0  0  0  0  0
  -13.9017   74.5751  -33.3631 H   0  0  0  0  0
  -13.4676   72.9559  -34.1206 H   0  0  0  0  0
  -15.8254   71.0159  -37.1240 H   0  0  0  0  0
  -12.9845   70.3220  -37.7004 H   0  0  0  0  0
  -13.5860   69.8637  -35.2712 H   0  0  0  0  0
  -15.0030   68.9348  -35.8193 H   0  0  0  0  0
  -13.3605   68.3348  -36.1559 H   0  0  0  0  0
  -14.2145   73.5097  -39.4764 H   0  0  0  0  0
  -13.2677   71.6729  -39.5178 H   0  0  0  0  0
  -12.6018   71.0755  -41.5762 H   0  0  0  0  0
  -13.8490   72.2021  -41.9516 H   0  0  0  0  0
  -15.7454   68.6641  -41.1505 H   0  0  0  0  0
  -14.0784   68.1963  -41.3566 H   0  0  0  0  0
  -13.7854   70.3561  -44.0809 H   0  0  0  0  0
  -12.8880   69.1631  -43.1100 H   0  0  0  0  0
  -14.4662   68.7325  -43.8136 H   0  0  0  0  0
  -15.5619   70.3655  -42.4257 H   0  0  0  0  0
  1  2  2  0  0  0
  1  3  1  0  0  0
 12  1  1  0  0  0
  3  4  1  0  0  0
  4  5  4  0  0  0
  4 10  4  0  0  0
  5  6  4  0  0  0
  6  7  4  0  0  0
  7  8  1  0  0  0
  9  7  4  0  0  0
 10  9  4  0  0  0
 11 13  2  0  0  0
 11 16  1  0  0  0
 24 11  1  0  0  0
 16 12  1  0  0  0
 22 14  1  0  0  0
 23 15  1  0  0  0
 16 17  1  0  0  0
 17 18  1  0  0  0
 18 20  4  0  0  0
 18 21  4  0  0  0
 22 19  4  0  0  0
 23 19  4  0  0  0
 20 22  4  0  0  0
 21 23  4  0  0  0
 25 24  1  0  0  0
 26 25  1  0  0  0
 25 28  1  0  0  0
 26 27  2  0  0  0
 30 26  1  0  0  0
 28 29  1  0  0  0
 28 58  1  0  0  0
 29 50  1  0  0  0
 31 30  1  0  0  0
 30 36  1  0  0  0
 32 31  1  0  0  0
 31 34  1  0  0  0
 32 33  2  0  0  0
 38 32  1  0  0  0
 34 35  1  0  0  0
 35 36  2  0  0  0
 37 39  2  0  0  0
 40 37  1  0  0  0
 37 45  1  0  0  0
 38 40  1  0  0  0
 38 43  1  0  0  0
 40 41  1  0  0  0
 41 44  1  0  0  0
 43 42  1  0  0  0
 42 44  1  0  0  0
 45 46  1  0  0  0
 46 47  1  0  0  0
 46 49  1  0  0  0
 47 48  2  0  0  0
 47 51  1  0  0  0
 50 52  1  0  0  0
 50 53  1  0  0  0
 50 58  1  0  0  0
 51 53  1  0  0  0
 51 55  1  0  0  0
 53 54  1  0  0  0
 54 57  1  0  0  0
 55 57  1  0  0  0
 57 56  1  0  0  0
  3 59  1  0  0  0
  5 60  1  0  0  0
  6 61  1  0  0  0
  8 62  1  0  0  0
  8 63  1  0  0  0
  8 64  1  0  0  0
  9 65  1  0  0  0
 10 66  1  0  0  0
 12 67  1  0  0  0
 16 68  1  0  0  0
 17 69  1  0  0  0
 17 70  1  0  0  0
 19 71  1  0  0  0
 20 72  1  0  0  0
 21 73  1  0  0  0
 24 74  1  0  0  0
 25 75  1  0  0  0
 28 76  1  0  0  0
 31 77  1  0  0  0
 34 78  1  0  0  0
 34 79  1  0  0  0
 35 80  1  0  0  0
 36 81  1  0  0  0
 40 82  1  0  0  0
 41 83  1  0  0  0
 41 84  1  0  0  0
 42 85  1  0  0  0
 42 86  1  0  0  0
 43 87  1  0  0  0
 43 88  1  0  0  0
 44 89  1  0  0  0
 44 90  1  0  0  0
 45 91  1  0  0  0
 46 92  1  0  0  0
 49 93  1  0  0  0
 49 94  1  0  0  0
 49 95  1  0  0  0
 52 96  1  0  0  0
 53 97  1  0  0  0
 54 98  1  0  0  0
 54 99  1  0  0  0
 55100  1  0  0  0
 55101  1  0  0  0
 56102  1  0  0  0
 56103  1  0  0  0
 56104  1  0  0  0
 57105  1  0  0  0
M  END
$$$$
