3oxc_ligand
  -I-interpret- 

100104  0  0  0  0  0  0  0  0999 V2000
    6.1770   -6.4120   18.3710 C   0  0  0  0  0
    6.7550   -5.9360   19.3950 O   0  0  0  0  0
    4.9600   -8.2310   17.1490 N   0  0  0  0  0
    5.1600   -7.5720   18.3300 C   0  0  0  0  0
    4.4570   -7.9930   19.4390 C   0  0  0  0  0
    3.4980   -9.0230   19.3430 C   0  0  0  0  0
    2.4130  -10.7300   18.0240 C   0  0  0  0  0
    2.3200  -11.4040   16.8280 C   0  0  0  0  0
    3.0110  -10.9320   15.7240 C   0  0  0  0  0
    3.9420   -9.9240   15.8020 C   0  0  0  0  0
    3.3460   -9.6790   18.1210 C   0  0  0  0  0
    4.0940   -9.2390   17.0270 C   0  0  0  0  0
    6.4880   -5.9480   17.1620 N   0  0  0  0  0
    7.2860   -4.7110   16.9570 C   0  0  0  0  0
    6.5450   -3.7840   15.9510 C   0  0  0  0  0
    6.5510   -3.9780   14.7190 O   0  0  0  0  0
    8.6740   -5.0780   16.4420 C   0  0  0  0  0
    9.4610   -5.8910   17.4900 C   0  0  0  0  0
    9.8230   -5.3730   18.5300 O   0  0  0  0  0
    9.6760   -7.1570   17.2010 N   0  0  0  0  0
    5.6350   -0.3890   16.1730 C   0  0  0  0  0
    5.3610    0.0030   17.5450 O   0  0  0  0  0
    5.0990   -1.7890   15.8360 C   0  0  0  0  0
    5.8840   -2.7870   16.5750 N   0  0  0  0  0
    3.6060   -1.9610   16.0990 C   0  0  0  0  0
    3.0680   -3.3780   16.1940 C   0  0  0  0  0
    2.6420   -4.0520   15.0640 C   0  0  0  0  0
    2.9570   -4.0030   17.4320 C   0  0  0  0  0
    2.1460   -5.3490   15.1660 C   0  0  0  0  0
    2.4840   -5.3150   17.5500 C   0  0  0  0  0
    2.1210   -6.0060   16.3870 C   0  0  0  0  0
    5.9060    0.6920   13.9550 N   0  3  0  0  0
    5.1910    0.7120   15.2220 C   0  0  0  0  0
    5.1690    1.2770   12.8350 C   0  0  0  0  0
    3.8210    0.6310   12.5220 C   0  0  0  0  0
    3.8210   -0.5980   12.3830 O   0  0  0  0  0
    5.9850    1.1910   11.5490 C   0  0  0  0  0
    7.3300    1.9030   11.6680 C   0  0  0  0  0
    8.1840    1.8200   10.3990 C   0  0  0  0  0
    8.5800    0.3350   10.1580 C   0  0  0  0  0
    9.4840   -0.0220   11.3390 C   0  0  0  0  0
    8.5130   -0.0840   12.5620 C   0  0  0  0  0
    8.0800    1.3620   12.8860 C   0  0  0  0  0
    7.2120    1.4010   14.1400 C   0  0  0  0  0
    2.7730    1.4410   12.3490 N   0  0  0  0  0
    1.3960    1.0040   12.0530 C   0  0  0  0  0
    0.5600    2.2900   11.9480 C   0  0  0  0  0
    0.8740    0.1950   13.2370 C   0  0  0  0  0
    1.3740    0.1330   10.7970 C   0  0  0  0  0
    4.6451   -7.5229   20.4042 H   0  0  0  0  0
    2.8896   -9.3001   20.2039 H   0  0  0  0  0
    1.7833  -11.0013   18.8714 H   0  0  0  0  0
    1.7075  -12.3022   16.7499 H   0  0  0  0  0
    2.8075  -11.3795   14.7512 H   0  0  0  0  0
    4.5498   -9.6592   14.9368 H   0  0  0  0  0
    6.1652   -6.4629   16.3428 H   0  0  0  0  0
    7.4011   -4.1788   17.9012 H   0  0  0  0  0
    9.2213   -4.1591   16.2320 H   0  0  0  0  0
    8.5624   -5.6846   15.5433 H   0  0  0  0  0
   10.1682   -7.7551   17.8646 H   0  0  0  0  0
    9.3504   -7.5399   16.3134 H   0  0  0  0  0
    6.7120   -0.4961   16.0435 H   0  0  0  0  0
    5.7152    0.8813   17.7025 H   0  0  0  0  0
    5.2136   -1.9320   14.7615 H   0  0  0  0  0
    5.9308   -2.7242   17.5920 H   0  0  0  0  0
    3.1041   -1.5141   15.2408 H   0  0  0  0  0
    3.4274   -1.5138   17.0769 H   0  0  0  0  0
    2.6947   -3.5660   14.0898 H   0  0  0  0  0
    3.2451   -3.4582   18.3310 H   0  0  0  0  0
    1.7728   -5.8542   14.2752 H   0  0  0  0  0
    2.3998   -5.7896   18.5276 H   0  0  0  0  0
    1.8210   -7.0525   16.4413 H   0  0  0  0  0
    6.0419   -0.2869   13.7026 H   0  0  0  0  0
    5.3951    1.6685   15.7032 H   0  0  0  0  0
    4.1331    0.5595   15.0085 H   0  0  0  0  0
    4.9873    2.3003   13.1636 H   0  0  0  0  0
    5.4159    1.6735   10.7544 H   0  0  0  0  0
    6.1767    0.1386   11.3398 H   0  0  0  0  0
    7.1273    2.9656   11.8016 H   0  0  0  0  0
    9.0814    2.4273   10.5172 H   0  0  0  0  0
    7.6168    2.1942    9.5467 H   0  0  0  0  0
    9.0864    0.1990    9.2024 H   0  0  0  0  0
    7.7068   -0.3151   10.1031 H   0  0  0  0  0
   10.2797    0.7089   11.4829 H   0  0  0  0  0
   10.0098   -0.9641   11.1838 H   0  0  0  0  0
    9.0108   -0.5339   13.4210 H   0  0  0  0  0
    7.6437   -0.6982   12.3272 H   0  0  0  0  0
    8.9505    1.9848   13.0920 H   0  0  0  0  0
    7.7558    0.9009   14.9414 H   0  0  0  0  0
    6.9986    2.4450   14.3692 H   0  0  0  0  0
    2.9388    2.4443   12.4281 H   0  0  0  0  0
    0.6085    2.8315   12.8927 H   0  0  0  0  0
    0.9568    2.9155   11.1484 H   0  0  0  0  0
   -0.4759    2.0315   11.7287 H   0  0  0  0  0
    1.5135   -0.6740   13.3919 H   0  0  0  0  0
    0.8812    0.8172   14.1320 H   0  0  0  0  0
   -0.1443   -0.1340   13.0299 H   0  0  0  0  0
    1.7553    0.7064    9.9521 H   0  0  0  0  0
    2.0005   -0.7450   10.9543 H   0  0  0  0  0
    0.3506   -0.1813   10.5922 H   0  0  0  0  0
  1  2  2  0  0  0
  1  4  1  0  0  0
 13  1  1  0  0  0
  4  3  4  0  0  0
  3 12  4  0  0  0
  4  5  4  0  0  0
  5  6  4  0  0  0
  6 11  4  0  0  0
  7  8  4  0  0  0
 11  7  4  0  0  0
  9  8  4  0  0  0
 10  9  4  0  0  0
 12 10  4  0  0  0
 12 11  4  0  0  0
 14 13  1  0  0  0
 15 14  1  0  0  0
 14 17  1  0  0  0
 15 16  2  0  0  0
 24 15  1  0  0  0
 17 18  1  0  0  0
 18 19  2  0  0  0
 18 20  1  0  0  0
 21 22  1  0  0  0
 23 21  1  0  0  0
 21 33  1  0  0  0
 23 24  1  0  0  0
 23 25  1  0  0  0
 25 26  1  0  0  0
 26 27  4  0  0  0
 26 28  4  0  0  0
 27 29  4  0  0  0
 28 30  4  0  0  0
 29 31  4  0  0  0
 30 31  4  0  0  0
 33 32  1  0  0  0
 32 34  1  0  0  0
 32 44  1  0  0  0
 34 35  1  0  0  0
 34 37  1  0  0  0
 35 36  2  0  0  0
 35 45  1  0  0  0
 37 38  1  0  0  0
 38 39  1  0  0  0
 38 43  1  0  0  0
 39 40  1  0  0  0
 40 41  1  0  0  0
 41 42  1  0  0  0
 42 43  1  0  0  0
 43 44  1  0  0  0
 45 46  1  0  0  0
 46 47  1  0  0  0
 46 48  1  0  0  0
 46 49  1  0  0  0
  5 50  1  0  0  0
  6 51  1  0  0  0
  7 52  1  0  0  0
  8 53  1  0  0  0
  9 54  1  0  0  0
 10 55  1  0  0  0
 13 56  1  0  0  0
 14 57  1  0  0  0
 17 58  1  0  0  0
 17 59  1  0  0  0
 20 60  1  0  0  0
 20 61  1  0  0  0
 21 62  1  0  0  0
 22 63  1  0  0  0
 23 64  1  0  0  0
 24 65  1  0  0  0
 25 66  1  0  0  0
 25 67  1  0  0  0
 27 68  1  0  0  0
 28 69  1  0  0  0
 29 70  1  0  0  0
 30 71  1  0  0  0
 31 72  1  0  0  0
 32 73  1  0  0  0
 33 74  1  0  0  0
 33 75  1  0  0  0
 34 76  1  0  0  0
 37 77  1  0  0  0
 37 78  1  0  0  0
 38 79  1  0  0  0
 39 80  1  0  0  0
 39 81  1  0  0  0
 40 82  1  0  0  0
 40 83  1  0  0  0
 41 84  1  0  0  0
 41 85  1  0  0  0
 42 86  1  0  0  0
 42 87  1  0  0  0
 43 88  1  0  0  0
 44 89  1  0  0  0
 44 90  1  0  0  0
 45 91  1  0  0  0
 47 92  1  0  0  0
 47 93  1  0  0  0
 47 94  1  0  0  0
 48 95  1  0  0  0
 48 96  1  0  0  0
 48 97  1  0  0  0
 49 98  1  0  0  0
 49 99  1  0  0  0
 49100  1  0  0  0
M  END
$$$$
