4tyt_ligand
  -I-interpret- 

 20 20  0  0  0  0  0  0  0  0999 V2000
   59.7920    9.7190   27.8470 C   0  0  0  0  0
   59.0950   11.1340   25.5830 C   0  0  0  0  0
   61.4990   10.7100   24.3820 Cl  0  0  0  0  0
   60.3500   10.5520   25.6850 C   0  0  0  0  0
   60.7000    9.8400   26.8060 C   0  0  0  0  0
   62.0800    9.2180   26.8960 C   0  0  0  0  0
   62.2850    7.9990   26.2560 C   0  0  0  0  0
   63.6240    7.3190   26.4750 C   0  0  0  0  0
   64.3640    7.6810   27.4310 O   0  0  0  0  0
   64.0040    6.3880   25.7170 O   0  0  0  0  0
   61.3110    7.4950   24.9820 S   0  0  0  0  0
   60.2090    8.8290   29.2860 Cl  0  0  0  0  0
   58.5330   10.2980   27.7540 C   0  0  0  0  0
   57.3950   10.1350   29.0660 Cl  0  0  0  0  0
   58.1800   11.0100   26.6170 C   0  0  0  0  0
   58.8270   11.6915   24.6855 H   0  0  0  0  0
   62.8845    9.7090   27.4435 H   0  0  0  0  0
   63.9379    8.3946   27.9115 H   0  0  0  0  0
   61.7214    6.3035   24.5567 H   0  0  0  0  0
   57.1937   11.4671   26.5375 H   0  0  0  0  0
  5  1  4  0  0  0
  1 12  1  0  0  0
  1 13  4  0  0  0
  4  2  4  0  0  0
  2 15  4  0  0  0
  4  3  1  0  0  0
  4  5  4  0  0  0
  5  6  1  0  0  0
  6  7  2  0  0  0
  7  8  1  0  0  0
  7 11  1  0  0  0
  8  9  1  0  0  0
  8 10  2  0  0  0
 13 14  1  0  0  0
 13 15  4  0  0  0
  2 16  1  0  0  0
  6 17  1  0  0  0
  9 18  1  0  0  0
 11 19  1  0  0  0
 15 20  1  0  0  0
M  END
$$$$
