4n7g_ligand
  -I-interpret- 

161160  0  0  0  0  0  0  0  0999 V2000
   66.9870   -8.8550   20.2290 N   0  3  0  0  0
   67.0540   -7.5680   21.0210 C   0  0  0  0  0
   65.6890   -7.1600   21.6070 C   0  0  0  0  0
   65.5130   -7.2340   22.8420 O   0  0  0  0  0
   67.6100   -6.4080   20.2110 C   0  0  0  0  0
   67.7050   -5.1270   21.0440 C   0  0  0  0  0
   69.1010   -4.5130   20.9810 C   0  0  0  0  0
   69.8100   -4.4440   21.9920 O   0  0  0  0  0
   69.5130   -4.0880   19.7820 N   0  0  0  0  0
   64.7920   -6.6910   20.7110 N   0  0  0  0  0
   63.3300   -6.7840   20.8370 C   0  0  0  0  0
   63.0320   -8.2790   21.1090 C   0  0  0  0  0
   62.2450   -8.5810   21.9960 O   0  0  0  0  0
   63.6600   -9.1900   20.3430 N   0  0  0  0  0
   63.4170  -10.6240   20.4430 C   0  0  0  0  0
   63.9530  -11.1790   21.7850 C   0  0  0  0  0
   63.2180  -11.8970   22.4350 O   0  0  0  0  0
   63.9460  -11.4430   19.2540 C   0  0  0  0  0
   63.8480  -12.9720   19.3500 C   0  0  0  0  0
   62.3670  -13.3230   19.4460 C   0  0  0  0  0
   64.4560  -13.5710   18.0660 C   0  0  0  0  0
   65.1330  -10.7710   22.2140 N   0  0  0  0  0
   65.6700  -11.2450   23.4740 C   0  0  0  0  0
   64.7530  -10.8800   24.6200 C   0  0  0  0  0
   64.4860  -11.6850   25.4710 O   0  0  0  0  0
   67.0710  -10.7240   23.7750 C   0  0  0  0  0
   68.1770  -11.5020   23.0940 C   0  0  0  0  0
   69.5250  -10.8260   23.3310 C   0  0  0  0  0
   68.2070  -12.9540   23.5340 C   0  0  0  0  0
   64.2230   -9.6800   24.5840 N   0  0  0  0  0
   63.4060   -9.2090   25.6400 C   0  0  0  0  0
   62.0530   -9.9340   25.5650 C   0  0  0  0  0
   61.4530  -10.2840   26.5990 O   0  0  0  0  0
   63.2470   -7.6680   25.4840 C   0  0  0  0  0
   62.6360   -7.0040   26.7250 C   0  0  0  0  0
   62.7080   -7.5400   27.8550 O   0  0  0  0  0
   62.0810   -5.9070   26.5750 O   0  0  0  0  0
   61.5630  -10.1580   24.3450 N   0  0  0  0  0
   60.2920  -10.7550   24.1690 C   0  0  0  0  0
   60.3420  -12.2390   24.6570 C   0  0  0  0  0
   59.3000  -12.8020   24.9900 O   0  0  0  0  0
   59.8530  -10.7540   22.6800 C   0  0  0  0  0
   61.5230  -12.8570   24.6640 N   0  0  0  0  0
   61.6290  -14.2680   25.0050 C   0  0  0  0  0
   61.5080  -14.5200   26.5150 C   0  0  0  0  0
   61.4720  -15.6840   26.9320 O   0  0  0  0  0
   62.9920  -14.8290   24.5300 C   0  0  0  0  0
   62.8740  -15.1120   23.0000 C   0  0  0  0  0
   64.2330  -15.3510   22.4340 C   0  0  0  0  0
   62.0020  -16.3560   22.8780 C   0  0  0  0  0
   61.4070  -13.4690   27.3270 N   0  0  0  0  0
   61.0240  -13.6680   28.7900 C   0  0  0  0  0
   61.9890  -14.7020   29.4500 C   0  0  0  0  0
   61.6030  -15.6930   30.0540 O   0  0  0  0  0
   59.5520  -14.0830   28.8530 C   0  0  0  0  0
   58.9840  -14.0700   30.3160 C   0  0  0  0  0
   59.6900  -13.5330   31.2150 O   0  0  0  0  0
   57.8400  -14.5740   30.5090 O   0  0  0  0  0
   63.2800  -14.4640   29.2440 N   0  0  0  0  0
   64.2690  -15.4220   29.6140 C   0  0  0  0  0
   64.2720  -15.6560   31.1380 C   0  0  0  0  0
   64.2690  -14.6810   31.9010 O   0  0  0  0  0
   65.6410  -14.8950   29.1710 C   0  0  0  0  0
   65.7350  -14.7500   27.6290 C   0  0  0  0  0
   67.0700  -14.0740   27.3180 C   0  0  0  0  0
   65.5970  -16.1720   27.0160 C   0  0  0  0  0
   64.3130  -16.9210   31.5770 N   0  0  0  0  0
   64.4490  -17.2310   33.0520 C   0  0  0  0  0
   65.8700  -16.8550   33.5330 C   0  0  0  0  0
   66.7480  -16.4960   32.7320 O   0  0  0  0  0
   64.1400  -18.6880   33.3280 C   0  0  0  0  0
   66.1570  -16.8410   34.8090 N   0  0  0  0  0
   67.4880  -16.2430   35.2100 C   0  0  0  0  0
   68.7400  -17.0100   34.7620 C   0  0  0  0  0
   68.7120  -18.2290   34.7710 O   0  0  0  0  0
   67.5570  -15.9910   36.7210 C   0  0  0  0  0
   66.8500  -14.8040   37.0160 O   0  0  0  0  0
   69.7747  -16.3930   34.3928 O   0  0  0  0  0
   66.6083   -9.5963   20.8185 H   0  0  0  0  0
   66.3833   -8.7224   19.4176 H   0  0  0  0  0
   67.9243   -9.1111   19.9187 H   0  0  0  0  0
   67.7390   -7.7829   21.8412 H   0  0  0  0  0
   66.9386   -6.2226   19.3726 H   0  0  0  0  0
   68.6125   -6.6737   19.8755 H   0  0  0  0  0
   67.4866   -5.3763   22.0824 H   0  0  0  0  0
   66.9941   -4.4042   20.6437 H   0  0  0  0  0
   70.4452   -3.6879   19.6754 H   0  0  0  0  0
   68.8951   -4.1639   18.9740 H   0  0  0  0  0
   65.1606   -6.2339   19.8769 H   0  0  0  0  0
   62.8285   -6.4347   19.9345 H   0  0  0  0  0
   62.9575   -6.1499   21.6415 H   0  0  0  0  0
   64.3402   -8.8606   19.6580 H   0  0  0  0  0
   62.3337  -10.7409   20.4113 H   0  0  0  0  0
   65.0112  -11.2197   19.1936 H   0  0  0  0  0
   63.3254  -11.1613   18.4034 H   0  0  0  0  0
   64.3815  -13.3644   20.2157 H   0  0  0  0  0
   61.9405  -12.8542   20.3328 H   0  0  0  0  0
   61.8505  -12.9599   18.5575 H   0  0  0  0  0
   62.2551  -14.4050   19.5161 H   0  0  0  0  0
   63.8998  -13.2115   17.2002 H   0  0  0  0  0
   65.4988  -13.2649   17.9822 H   0  0  0  0  0
   64.3977  -14.6585   18.1110 H   0  0  0  0  0
   65.6736  -10.1139   21.6516 H   0  0  0  0  0
   65.7390  -12.3280   23.3719 H   0  0  0  0  0
   67.2259  -10.8156   24.8500 H   0  0  0  0  0
   67.1214   -9.6998   23.4054 H   0  0  0  0  0
   67.9709  -11.5018   22.0237 H   0  0  0  0  0
   69.4991   -9.8146   22.9253 H   0  0  0  0  0
   69.7259  -10.7844   24.4015 H   0  0  0  0  0
   70.3091  -11.3980   22.8348 H   0  0  0  0  0
   68.3697  -13.0028   24.6107 H   0  0  0  0  0
   67.2564  -13.4268   23.2871 H   0  0  0  0  0
   69.0163  -13.4717   23.0191 H   0  0  0  0  0
   64.4027   -9.0764   23.7816 H   0  0  0  0  0
   63.8480   -9.4110   26.6156 H   0  0  0  0  0
   62.5770   -7.4851   24.6439 H   0  0  0  0  0
   64.2397   -7.2438   25.3333 H   0  0  0  0  0
   63.1682   -8.3793   27.7811 H   0  0  0  0  0
   62.1124   -9.8952   23.5268 H   0  0  0  0  0
   59.5755  -10.1717   24.7474 H   0  0  0  0  0
   59.8014   -9.7270   22.3184 H   0  0  0  0  0
   60.5781  -11.3128   22.0884 H   0  0  0  0  0
   58.8723  -11.2215   22.5914 H   0  0  0  0  0
   62.3654  -12.3330   24.4267 H   0  0  0  0  0
   60.8023  -14.7708   24.5031 H   0  0  0  0  0
   63.2369  -15.7439   25.0695 H   0  0  0  0  0
   63.7889  -14.1113   24.7249 H   0  0  0  0  0
   62.4382  -14.2763   22.4525 H   0  0  0  0  0
   64.8525  -14.4687   22.5948 H   0  0  0  0  0
   64.6858  -16.2097   22.9297 H   0  0  0  0  0
   64.1505  -15.5487   21.3653 H   0  0  0  0  0
   62.4794  -17.1854   23.3998 H   0  0  0  0  0
   61.0262  -16.1591   23.3221 H   0  0  0  0  0
   61.8789  -16.6100   21.8252 H   0  0  0  0  0
   61.5859  -12.5303   26.9702 H   0  0  0  0  0
   61.1301  -12.7445   29.3593 H   0  0  0  0  0
   59.4737  -15.1011   28.4716 H   0  0  0  0  0
   58.9766  -13.3695   28.2632 H   0  0  0  0  0
   57.5002  -14.9203   29.6806 H   0  0  0  0  0
   63.5673  -13.5841   28.8154 H   0  0  0  0  0
   64.0465  -16.3726   29.1293 H   0  0  0  0  0
   66.4009  -15.6064   29.4943 H   0  0  0  0  0
   65.7892  -13.9113   29.6164 H   0  0  0  0  0
   64.9462  -14.1337   27.1977 H   0  0  0  0  0
   67.1010  -13.0958   27.7979 H   0  0  0  0  0
   67.8851  -14.6914   27.6956 H   0  0  0  0  0
   67.1727  -13.9544   26.2395 H   0  0  0  0  0
   66.4009  -16.8066   27.3890 H   0  0  0  0  0
   64.6347  -16.5973   27.3010 H   0  0  0  0  0
   65.6590  -16.1056   25.9298 H   0  0  0  0  0
   64.2516  -17.6873   30.9066 H   0  0  0  0  0
   63.7255  -16.6360   33.6094 H   0  0  0  0  0
   63.1189  -18.9070   33.0157 H   0  0  0  0  0
   64.8345  -19.3172   32.7713 H   0  0  0  0  0
   64.2450  -18.8846   34.3950 H   0  0  0  0  0
   65.5116  -17.2169   35.5037 H   0  0  0  0  0
   67.5124  -15.3031   34.6586 H   0  0  0  0  0
   68.5967  -15.8892   37.0319 H   0  0  0  0  0
   67.1118  -16.8295   37.2565 H   0  0  0  0  0
   66.8872  -14.6371   37.9606 H   0  0  0  0  0
   69.6192  -15.4474   34.4491 H   0  0  0  0  0
  1  2  1  0  0  0
  2  3  1  0  0  0
  2  5  1  0  0  0
  3  4  2  0  0  0
  3 10  1  0  0  0
  5  6  1  0  0  0
  6  7  1  0  0  0
  7  8  2  0  0  0
  7  9  1  0  0  0
 10 11  1  0  0  0
 11 12  1  0  0  0
 12 13  2  0  0  0
 12 14  1  0  0  0
 14 15  1  0  0  0
 15 16  1  0  0  0
 15 18  1  0  0  0
 16 17  2  0  0  0
 16 22  1  0  0  0
 18 19  1  0  0  0
 19 20  1  0  0  0
 19 21  1  0  0  0
 22 23  1  0  0  0
 23 24  1  0  0  0
 23 26  1  0  0  0
 24 25  2  0  0  0
 24 30  1  0  0  0
 26 27  1  0  0  0
 27 28  1  0  0  0
 27 29  1  0  0  0
 30 31  1  0  0  0
 31 32  1  0  0  0
 31 34  1  0  0  0
 32 33  2  0  0  0
 32 38  1  0  0  0
 34 35  1  0  0  0
 35 36  1  0  0  0
 35 37  2  0  0  0
 38 39  1  0  0  0
 39 40  1  0  0  0
 39 42  1  0  0  0
 40 41  2  0  0  0
 40 43  1  0  0  0
 43 44  1  0  0  0
 44 45  1  0  0  0
 44 47  1  0  0  0
 45 46  2  0  0  0
 45 51  1  0  0  0
 47 48  1  0  0  0
 48 49  1  0  0  0
 48 50  1  0  0  0
 51 52  1  0  0  0
 52 53  1  0  0  0
 52 55  1  0  0  0
 53 54  2  0  0  0
 53 59  1  0  0  0
 55 56  1  0  0  0
 56 57  2  0  0  0
 56 58  1  0  0  0
 59 60  1  0  0  0
 60 61  1  0  0  0
 60 63  1  0  0  0
 61 62  2  0  0  0
 61 67  1  0  0  0
 63 64  1  0  0  0
 64 65  1  0  0  0
 64 66  1  0  0  0
 67 68  1  0  0  0
 68 69  1  0  0  0
 68 71  1  0  0  0
 69 70  2  0  0  0
 69 72  1  0  0  0
 72 73  1  0  0  0
 73 74  1  0  0  0
 73 76  1  0  0  0
 74 75  2  0  0  0
 76 77  1  0  0  0
 74 78  1  0  0  0
  1 79  1  0  0  0
  1 80  1  0  0  0
  1 81  1  0  0  0
  2 82  1  0  0  0
  5 83  1  0  0  0
  5 84  1  0  0  0
  6 85  1  0  0  0
  6 86  1  0  0  0
  9 87  1  0  0  0
  9 88  1  0  0  0
 10 89  1  0  0  0
 11 90  1  0  0  0
 11 91  1  0  0  0
 14 92  1  0  0  0
 15 93  1  0  0  0
 18 94  1  0  0  0
 18 95  1  0  0  0
 19 96  1  0  0  0
 20 97  1  0  0  0
 20 98  1  0  0  0
 20 99  1  0  0  0
 21100  1  0  0  0
 21101  1  0  0  0
 21102  1  0  0  0
 22103  1  0  0  0
 23104  1  0  0  0
 26105  1  0  0  0
 26106  1  0  0  0
 27107  1  0  0  0
 28108  1  0  0  0
 28109  1  0  0  0
 28110  1  0  0  0
 29111  1  0  0  0
 29112  1  0  0  0
 29113  1  0  0  0
 30114  1  0  0  0
 31115  1  0  0  0
 34116  1  0  0  0
 34117  1  0  0  0
 36118  1  0  0  0
 38119  1  0  0  0
 39120  1  0  0  0
 42121  1  0  0  0
 42122  1  0  0  0
 42123  1  0  0  0
 43124  1  0  0  0
 44125  1  0  0  0
 47126  1  0  0  0
 47127  1  0  0  0
 48128  1  0  0  0
 49129  1  0  0  0
 49130  1  0  0  0
 49131  1  0  0  0
 50132  1  0  0  0
 50133  1  0  0  0
 50134  1  0  0  0
 51135  1  0  0  0
 52136  1  0  0  0
 55137  1  0  0  0
 55138  1  0  0  0
 58139  1  0  0  0
 59140  1  0  0  0
 60141  1  0  0  0
 63142  1  0  0  0
 63143  1  0  0  0
 64144  1  0  0  0
 65145  1  0  0  0
 65146  1  0  0  0
 65147  1  0  0  0
 66148  1  0  0  0
 66149  1  0  0  0
 66150  1  0  0  0
 67151  1  0  0  0
 68152  1  0  0  0
 71153  1  0  0  0
 71154  1  0  0  0
 71155  1  0  0  0
 72156  1  0  0  0
 73157  1  0  0  0
 76158  1  0  0  0
 76159  1  0  0  0
 77160  1  0  0  0
 78161  1  0  0  0
M  END
$$$$
