### 
### Created by X-TOOL on Mon Sep 10 21:13:18 2018
### 

@<TRIPOS>MOLECULE
4n7g_ligand
  158   157     1     0     0
SMALL
GAST_HUCK


@<TRIPOS>ATOM
      1 N          66.9870   -8.8550   20.2290 N.4       1 GLN         0.2380
      2 CA         67.0540   -7.5680   21.0210 C.3       1 GLN         0.0671
      3 C          65.6890   -7.1600   21.6070 C.2       1 GLN         0.2267
      4 O          65.5130   -7.2340   22.8420 O.2       1 GLN        -0.3907
      5 CB         67.6100   -6.4080   20.2110 C.3       1 GLN         0.0247
      6 CG         67.7050   -5.1270   21.0440 C.3       1 GLN         0.0443
      7 CD         69.1010   -4.5130   20.9810 C.2       1 GLN         0.1738
      8 OE1        69.8100   -4.4440   21.9920 O.2       1 GLN        -0.3973
      9 NE2        69.5130   -4.0880   19.7820 N.am      1 GLN        -0.3009
     10 N          64.7920   -6.6910   20.7110 N.am      1 GLY        -0.2637
     11 CA         63.3300   -6.7840   20.8370 C.3       1 GLY         0.1202
     12 C          63.0320   -8.2790   21.1090 C.2       1 GLY         0.2007
     13 O          62.2450   -8.5810   21.9960 O.2       1 GLY        -0.3947
     14 N          63.6600   -9.1900   20.3430 N.am      1 LEU        -0.2640
     15 CA         63.4170  -10.6240   20.4430 C.3       1 LEU         0.1312
     16 C          63.9530  -11.1790   21.7850 C.2       1 LEU         0.2039
     17 O          63.2180  -11.8970   22.4350 O.2       1 LEU        -0.3944
     18 CB         63.9460  -11.4430   19.2540 C.3       1 LEU        -0.0101
     19 CG         63.8480  -12.9720   19.3500 C.3       1 LEU        -0.0425
     20 CD1        62.3670  -13.3230   19.4460 C.3       1 LEU        -0.0625
     21 CD2        64.4560  -13.5710   18.0660 C.3       1 LEU        -0.0625
     22 N          65.1330  -10.7710   22.2140 N.am      1 LEU        -0.2637
     23 CA         65.6700  -11.2450   23.4740 C.3       1 LEU         0.1312
     24 C          64.7530  -10.8800   24.6200 C.2       1 LEU         0.2040
     25 O          64.4860  -11.6850   25.4710 O.2       1 LEU        -0.3944
     26 CB         67.0710  -10.7240   23.7750 C.3       1 LEU        -0.0101
     27 CG         68.1770  -11.5020   23.0940 C.3       1 LEU        -0.0425
     28 CD1        69.5250  -10.8260   23.3310 C.3       1 LEU        -0.0625
     29 CD2        68.2070  -12.9540   23.5340 C.3       1 LEU        -0.0625
     30 N          64.2230   -9.6800   24.5840 N.am      1 ASP        -0.2622
     31 CA         63.4060   -9.2090   25.6400 C.3       1 ASP         0.1423
     32 C          62.0530   -9.9340   25.5650 C.2       1 ASP         0.2056
     33 O          61.4530  -10.2840   26.5990 O.2       1 ASP        -0.3943
     34 CB         63.2470   -7.6680   25.4840 C.3       1 ASP         0.0406
     35 CG         62.6360   -7.0040   26.7250 C.2       1 ASP         0.0393
     36 OD1        62.7080   -7.5400   27.8550 O.co2     1 ASP        -0.5688
     37 OD2        62.0810   -5.9070   26.5750 O.co2     1 ASP        -0.5688
     38 N          61.5630  -10.1580   24.3450 N.am      1 ALA        -0.2639
     39 CA         60.2920  -10.7550   24.1690 C.3       1 ALA         0.1282
     40 C          60.3420  -12.2390   24.6570 C.2       1 ALA         0.2036
     41 O          59.3000  -12.8020   24.9900 O.2       1 ALA        -0.3944
     42 CB         59.8530  -10.7540   22.6800 C.3       1 ALA        -0.0244
     43 N          61.5230  -12.8570   24.6640 N.am      1 LEU        -0.2637
     44 CA         61.6290  -14.2680   25.0050 C.3       1 LEU         0.1312
     45 C          61.5080  -14.5200   26.5150 C.2       1 LEU         0.2040
     46 O          61.4720  -15.6840   26.9320 O.2       1 LEU        -0.3944
     47 CB         62.9920  -14.8290   24.5300 C.3       1 LEU        -0.0101
     48 CG         62.8740  -15.1120   23.0000 C.3       1 LEU        -0.0425
     49 CD1        64.2330  -15.3510   22.4340 C.3       1 LEU        -0.0625
     50 CD2        62.0020  -16.3560   22.8780 C.3       1 LEU        -0.0625
     51 N          61.4070  -13.4690   27.3270 N.am      1 ASP        -0.2622
     52 CA         61.0240  -13.6680   28.7900 C.3       1 ASP         0.1423
     53 C          61.9890  -14.7020   29.4500 C.2       1 ASP         0.2056
     54 O          61.6030  -15.6930   30.0540 O.2       1 ASP        -0.3943
     55 CB         59.5520  -14.0830   28.8530 C.3       1 ASP         0.0406
     56 CG         58.9840  -14.0700   30.3160 C.2       1 ASP         0.0393
     57 OD1        59.6900  -13.5330   31.2150 O.co2     1 ASP        -0.5688
     58 OD2        57.8400  -14.5740   30.5090 O.co2     1 ASP        -0.5688
     59 N          63.2800  -14.4640   29.2440 N.am      1 LEU        -0.2636
     60 CA         64.2690  -15.4220   29.6140 C.3       1 LEU         0.1312
     61 C          64.2720  -15.6560   31.1380 C.2       1 LEU         0.2039
     62 O          64.2690  -14.6810   31.9010 O.2       1 LEU        -0.3944
     63 CB         65.6410  -14.8950   29.1710 C.3       1 LEU        -0.0101
     64 CG         65.7350  -14.7500   27.6290 C.3       1 LEU        -0.0425
     65 CD1        67.0700  -14.0740   27.3180 C.3       1 LEU        -0.0625
     66 CD2        65.5970  -16.1720   27.0160 C.3       1 LEU        -0.0625
     67 N          64.3130  -16.9210   31.5770 N.am      1 ALA        -0.2640
     68 CA         64.4490  -17.2310   33.0520 C.3       1 ALA         0.1282
     69 C          65.8700  -16.8550   33.5330 C.2       1 ALA         0.2032
     70 O          66.7480  -16.4960   32.7320 O.2       1 ALA        -0.3944
     71 CB         64.1400  -18.6880   33.3280 C.3       1 ALA        -0.0244
     72 N          66.1570  -16.8410   34.8090 N.am      1 SER        -0.2648
     73 CA         67.4880  -16.2430   35.2100 C.3       1 SER         0.1454
     74 C          68.7400  -17.0100   34.7620 C.2       1 SER         0.2172
     75 O          68.7120  -18.2290   34.7710 O.co2     1 SER        -0.4119
     76 CB         67.5570  -15.9910   36.7210 C.3       1 SER         0.0812
     77 OG         66.8500  -14.8040   37.0160 O.3       1 SER        -0.3909
     78 H          67.9022   -9.0760   19.8691 H         1 GLN         0.2015
     79 H          66.3421   -8.7445   19.4622 H         1 GLN         0.2015
     80 H          66.6721   -9.6021   20.8279 H         1 GLN         0.2015
     81 H          67.7392   -7.7454   21.8630 H         1 GLN         0.1100
     82 H          66.9491   -6.2252   19.3509 H         1 GLN         0.0370
     83 H          68.6149   -6.6741   19.8513 H         1 GLN         0.0370
     84 H          67.4674   -5.3647   22.0914 H         1 GLN         0.0506
     85 H          66.9773   -4.3973   20.6595 H         1 GLN         0.0506
     86 H          70.4191   -3.6771   19.6814 H         1 GLN         0.1814
     87 H          68.9150   -4.1810   18.9859 H         1 GLN         0.1814
     88 H          65.1533   -6.2429   19.8933 H         1 GLY         0.1882
     89 H          62.8425   -6.4581   19.9064 H         1 GLY         0.0763
     90 H          62.9760   -6.1632   21.6733 H         1 GLY         0.0763
     91 H          64.3269   -8.8671   19.6714 H         1 LEU         0.1883
     92 H          62.3250  -10.7560   20.4503 H         1 LEU         0.0800
     93 H          65.0081  -11.1880   19.1242 H         1 LEU         0.0315
     94 H          63.3825  -11.1317   18.3621 H         1 LEU         0.0315
     95 H          64.3872  -13.3432   20.2340 H         1 LEU         0.0298
     96 H          62.2528  -14.4148   19.5168 H         1 LEU         0.0232
     97 H          61.8446  -12.9571   18.5498 H         1 LEU         0.0232
     98 H          61.9354  -12.8505   20.3406 H         1 LEU         0.0232
     99 H          65.5232  -13.3105   18.0096 H         1 LEU         0.0232
    100 H          63.9325  -13.1645   17.1881 H         1 LEU         0.0232
    101 H          64.3462  -14.6653   18.0842 H         1 LEU         0.0232
    102 H          65.6630  -10.1267   21.6626 H         1 LEU         0.1883
    103 H          65.7270  -12.3419   23.4142 H         1 LEU         0.0800
    104 H          67.2322  -10.7733   24.8620 H         1 LEU         0.0315
    105 H          67.1295   -9.6770   23.4427 H         1 LEU         0.0315
    106 H          67.9782  -11.4880   22.0122 H         1 LEU         0.0298
    107 H          70.3172  -11.4023   22.8307 H         1 LEU         0.0232
    108 H          69.7290  -10.7834   24.4111 H         1 LEU         0.0232
    109 H          69.5003   -9.8052   22.9220 H         1 LEU         0.0232
    110 H          67.2242  -13.4129   23.3511 H         1 LEU         0.0232
    111 H          68.4425  -13.0072   24.6072 H         1 LEU         0.0232
    112 H          68.9760  -13.4945   22.9626 H         1 LEU         0.0232
    113 H          64.3992   -9.0882   23.7974 H         1 ASP         0.1884
    114 H          63.8808   -9.4279   26.6078 H         1 ASP         0.0819
    115 H          62.5946   -7.4676   24.6213 H         1 ASP         0.0478
    116 H          64.2392   -7.2289   25.3033 H         1 ASP         0.0478
    117 H          62.1016   -9.9003   23.5428 H         1 ALA         0.1883
    118 H          59.5529  -10.1966   24.7622 H         1 ALA         0.0797
    119 H          58.8634  -11.2256   22.5892 H         1 ALA         0.0277
    120 H          60.5840  -11.3177   22.0818 H         1 ALA         0.0277
    121 H          59.8005   -9.7181   22.3139 H         1 ALA         0.0277
    122 H          62.3489  -12.3433   24.4314 H         1 LEU         0.1883
    123 H          60.8190  -14.8079   24.4928 H         1 LEU         0.0800
    124 H          63.2229  -15.7604   25.0676 H         1 LEU         0.0315
    125 H          63.7870  -14.0918   24.7155 H         1 LEU         0.0315
    126 H          62.4031  -14.2630   22.4829 H         1 LEU         0.0298
    127 H          64.1510  -15.5506   21.3554 H         1 LEU         0.0232
    128 H          64.6911  -16.2174   22.9334 H         1 LEU         0.0232
    129 H          64.8592  -14.4612   22.5956 H         1 LEU         0.0232
    130 H          61.0083  -16.1503   23.3026 H         1 LEU         0.0232
    131 H          62.4700  -17.1870   23.4260 H         1 LEU         0.0232
    132 H          61.8982  -16.6285   21.8174 H         1 LEU         0.0232
    133 H          61.5824  -12.5487   26.9772 H         1 ASP         0.1884
    134 H          61.1350  -12.7118   29.3223 H         1 ASP         0.0819
    135 H          59.4550  -15.1005   28.4464 H         1 ASP         0.0478
    136 H          58.9626  -13.3853   28.2400 H         1 ASP         0.0478
    137 H          63.5617  -13.6014   28.8238 H         1 LEU         0.1883
    138 H          64.0591  -16.3747   29.1058 H         1 LEU         0.0800
    139 H          66.4177  -15.5962   29.5102 H         1 LEU         0.0315
    140 H          65.8094  -13.9104   29.6316 H         1 LEU         0.0315
    141 H          64.9165  -14.1177   27.2544 H         1 LEU         0.0298
    142 H          67.1748  -13.9528   26.2297 H         1 LEU         0.0232
    143 H          67.8935  -14.6961   27.6986 H         1 LEU         0.0232
    144 H          67.1025  -13.0866   27.8017 H         1 LEU         0.0232
    145 H          64.6156  -16.5920   27.2814 H         1 LEU         0.0232
    146 H          66.3925  -16.8206   27.4116 H         1 LEU         0.0232
    147 H          65.6852  -16.1096   25.9213 H         1 LEU         0.0232
    148 H          64.2528  -17.6722   30.9197 H         1 ALA         0.1883
    149 H          63.7228  -16.6172   33.6050 H         1 ALA         0.0797
    150 H          64.2456  -18.8876   34.4046 H         1 ALA         0.0277
    151 H          64.8403  -19.3241   32.7667 H         1 ALA         0.0277
    152 H          63.1097  -18.9104   33.0132 H         1 ALA         0.0277
    153 H          65.5243  -17.2095   35.4901 H         1 SER         0.1877
    154 H          67.5365  -15.2617   34.7153 H         1 SER         0.0774
    155 O1         69.7747  -16.3930   34.3928 O.co2     1 SER        -0.4119
    156 H          68.6070  -15.8828   37.0305 H         1 SER         0.0600
    157 H          67.1016  -16.8360   37.2582 H         1 SER         0.0600
    158 H          66.8868  -14.6388   37.9508 H         1 SER         0.2096
@<TRIPOS>BOND
     1    1    2 1  
     2    2    3 1  
     3    2    5 1  
     4    3    4 2  
     5    3   10 am 
     6    5    6 1  
     7    6    7 1  
     8    7    8 2  
     9    7    9 am 
    10   10   11 1  
    11   11   12 1  
    12   12   13 2  
    13   12   14 am 
    14   14   15 1  
    15   15   16 1  
    16   15   18 1  
    17   16   17 2  
    18   16   22 am 
    19   18   19 1  
    20   19   20 1  
    21   19   21 1  
    22   22   23 1  
    23   23   24 1  
    24   23   26 1  
    25   24   25 2  
    26   24   30 am 
    27   26   27 1  
    28   27   28 1  
    29   27   29 1  
    30   30   31 1  
    31   31   32 1  
    32   31   34 1  
    33   32   33 2  
    34   32   38 am 
    35   34   35 1  
    36   35   36 ar 
    37   35   37 ar 
    38   38   39 1  
    39   39   40 1  
    40   39   42 1  
    41   40   41 2  
    42   40   43 am 
    43   43   44 1  
    44   44   45 1  
    45   44   47 1  
    46   45   46 2  
    47   45   51 am 
    48   47   48 1  
    49   48   49 1  
    50   48   50 1  
    51   51   52 1  
    52   52   53 1  
    53   52   55 1  
    54   53   54 2  
    55   53   59 am 
    56   55   56 1  
    57   56   57 ar 
    58   56   58 ar 
    59   59   60 1  
    60   60   61 1  
    61   60   63 1  
    62   61   62 2  
    63   61   67 am 
    64   63   64 1  
    65   64   65 1  
    66   64   66 1  
    67   67   68 1  
    68   68   69 1  
    69   68   71 1  
    70   69   70 2  
    71   69   72 am 
    72   72   73 1  
    73   73   74 1  
    74   73   76 1  
    75   74   75 ar 
    76   76   77 1  
    77    1   78 1  
    78    1   79 1  
    79    1   80 1  
    80    2   81 1  
    81    5   82 1  
    82    5   83 1  
    83    6   84 1  
    84    6   85 1  
    85    9   86 1  
    86    9   87 1  
    87   10   88 1  
    88   11   89 1  
    89   11   90 1  
    90   14   91 1  
    91   15   92 1  
    92   18   93 1  
    93   18   94 1  
    94   19   95 1  
    95   20   96 1  
    96   20   97 1  
    97   20   98 1  
    98   21   99 1  
    99   21  100 1  
   100   21  101 1  
   101   22  102 1  
   102   23  103 1  
   103   26  104 1  
   104   26  105 1  
   105   27  106 1  
   106   28  107 1  
   107   28  108 1  
   108   28  109 1  
   109   29  110 1  
   110   29  111 1  
   111   29  112 1  
   112   30  113 1  
   113   31  114 1  
   114   34  115 1  
   115   34  116 1  
   116   38  117 1  
   117   39  118 1  
   118   42  119 1  
   119   42  120 1  
   120   42  121 1  
   121   43  122 1  
   122   44  123 1  
   123   47  124 1  
   124   47  125 1  
   125   48  126 1  
   126   49  127 1  
   127   49  128 1  
   128   49  129 1  
   129   50  130 1  
   130   50  131 1  
   131   50  132 1  
   132   51  133 1  
   133   52  134 1  
   134   55  135 1  
   135   55  136 1  
   136   59  137 1  
   137   60  138 1  
   138   63  139 1  
   139   63  140 1  
   140   64  141 1  
   141   65  142 1  
   142   65  143 1  
   143   65  144 1  
   144   66  145 1  
   145   66  146 1  
   146   66  147 1  
   147   67  148 1  
   148   68  149 1  
   149   71  150 1  
   150   71  151 1  
   151   71  152 1  
   152   72  153 1  
   153   73  154 1  
   154   74  155 ar 
   155   76  156 1  
   156   76  157 1  
   157   77  158 1  
@<TRIPOS>SUBSTRUCTURE
     1 GLN         1

