6inm_ligand
  -I-interpret- 

 50 53  0  0  0  0  0  0  0  0999 V2000
   25.1930   76.3470   24.7450 C   0  0  0  0  0
   25.4360   75.8130   28.9290 C   0  0  0  0  0
   24.4670   77.2420   25.5400 C   0  0  0  0  0
   23.4530   78.0000   24.9620 C   0  0  0  0  0
   26.6080   74.5490   23.1730 C   0  0  0  0  0
   24.8280   77.3680   27.0000 C   0  0  0  0  0
   22.7700   78.6860   27.2560 C   0  0  0  0  0
   22.6430   78.9720   25.7790 C   0  0  0  0  0
   22.7150   77.5770   20.8340 C   0  0  0  0  0
   24.8520   79.4460   28.3410 C   0  0  0  0  0
   24.4860   76.0730   27.7640 C   0  0  0  0  0
   24.1850   78.5460   27.5920 N   0  0  0  0  0
   25.0910   72.6610   30.8390 N   0  0  0  0  0
   24.9190   76.1980   23.4070 C   0  0  0  0  0
   23.1790   77.8450   23.5960 C   0  0  0  0  0
   25.3720   74.4140   29.4630 C   0  0  0  0  0
   25.0360   74.0250   30.7280 C   0  0  0  0  0
   25.4720   72.1290   29.6340 C   0  0  0  0  0
   25.6600   73.2030   28.7370 C   0  0  0  0  0
   25.6670   70.8000   29.2560 C   0  0  0  0  0
   23.8910   76.9610   22.8170 C   0  0  0  0  0
   26.0560   70.5610   27.9580 C   0  0  0  0  0
   26.2470   71.6060   27.0530 C   0  0  0  0  0
   26.0550   72.9190   27.4250 C   0  0  0  0  0
   23.6860   76.7580   21.4770 O   0  0  0  0  0
   25.5870   75.3420   22.5780 O   0  0  0  0  0
   24.3580   80.4630   28.7930 O   0  0  0  0  0
   25.9909   75.7571   25.1962 H   0  0  0  0  0
   25.1473   76.4830   29.7389 H   0  0  0  0  0
   26.4500   75.9746   28.5632 H   0  0  0  0  0
   27.3679   75.2009   23.6040 H   0  0  0  0  0
   26.1737   73.9278   23.9563 H   0  0  0  0  0
   27.0617   73.9131   22.4129 H   0  0  0  0  0
   25.9053   77.5120   27.0818 H   0  0  0  0  0
   22.2410   77.7646   27.4993 H   0  0  0  0  0
   22.3351   79.5054   27.8283 H   0  0  0  0  0
   21.5950   78.8747   25.4955 H   0  0  0  0  0
   23.0131   79.9792   25.5874 H   0  0  0  0  0
   21.7434   77.4232   21.3036 H   0  0  0  0  0
   23.0042   78.6237   20.9288 H   0  0  0  0  0
   22.6566   77.3090   19.7791 H   0  0  0  0  0
   25.9025   79.2508   28.5563 H   0  0  0  0  0
   23.4791   76.1773   28.1683 H   0  0  0  0  0
   24.5724   75.2391   27.0674 H   0  0  0  0  0
   22.3851   78.4372   23.1408 H   0  0  0  0  0
   24.7626   74.7042   31.5355 H   0  0  0  0  0
   25.5170   69.9829   29.9616 H   0  0  0  0  0
   26.2183   69.5343   27.6299 H   0  0  0  0  0
   26.5540   71.3793   26.0320 H   0  0  0  0  0
   26.2087   73.7249   26.7074 H   0  0  0  0  0
  1  3  4  0  0  0
 14  1  4  0  0  0
 11  2  1  0  0  0
  2 16  1  0  0  0
  4  3  4  0  0  0
  3  6  1  0  0  0
  4  8  1  0  0  0
 15  4  4  0  0  0
 26  5  1  0  0  0
  6 11  1  0  0  0
  6 12  1  0  0  0
  8  7  1  0  0  0
  7 12  1  0  0  0
 25  9  1  0  0  0
 12 10  1  0  0  0
 10 27  2  0  0  0
 17 13  4  0  0  0
 18 13  4  0  0  0
 21 14  4  0  0  0
 14 26  1  0  0  0
 21 15  4  0  0  0
 16 17  4  0  0  0
 16 19  4  0  0  0
 19 18  4  0  0  0
 18 20  4  0  0  0
 19 24  4  0  0  0
 20 22  4  0  0  0
 21 25  1  0  0  0
 22 23  4  0  0  0
 23 24  4  0  0  0
  1 28  1  0  0  0
  2 29  1  0  0  0
  2 30  1  0  0  0
  5 31  1  0  0  0
  5 32  1  0  0  0
  5 33  1  0  0  0
  6 34  1  0  0  0
  7 35  1  0  0  0
  7 36  1  0  0  0
  8 37  1  0  0  0
  8 38  1  0  0  0
  9 39  1  0  0  0
  9 40  1  0  0  0
  9 41  1  0  0  0
 10 42  1  0  0  0
 11 43  1  0  0  0
 11 44  1  0  0  0
 15 45  1  0  0  0
 17 46  1  0  0  0
 20 47  1  0  0  0
 22 48  1  0  0  0
 23 49  1  0  0  0
 24 50  1  0  0  0
M  END
$$$$
