2cbj_ligand
  -I-interpret- 

 44 45  0  0  0  0  0  0  0  0999 V2000
   36.3610   41.1260   22.3470 C   0  0  0  0  0
   34.8320   41.1180   22.1590 C   0  0  0  0  0
   34.1590   40.1370   22.4990 O   0  0  0  0  0
   34.3300   42.2390   21.6190 N   0  0  0  0  0
   32.8900   42.4920   21.4040 C   0  0  0  0  0
   32.2170   42.7650   22.7850 C   0  0  0  0  0
   32.2670   44.1500   23.1080 O   0  0  0  0  0
   30.7780   42.2830   22.8100 C   0  0  0  0  0
   30.1620   42.6060   24.0510 O   0  0  0  0  0
   30.7730   40.7580   22.5960 C   0  0  0  0  0
   29.4330   39.9750   22.7330 C   0  0  0  0  0
   28.3700   40.6860   22.0980 O   0  0  0  0  0
   31.3210   40.4870   21.2800 O   0  0  0  0  0
   32.1910   41.3470   20.6590 C   0  0  0  0  0
   32.4020   41.1960   19.3420 N   0  0  0  0  0
   31.8010   40.2090   18.5730 O   0  0  0  0  0
   31.1530   40.6970   17.4770 C   0  0  0  0  0
   31.5130   41.7790   16.9930 O   0  0  0  0  0
   30.1400   39.9400   16.9710 N   0  0  0  0  0
   29.3650   40.2860   15.8890 C   0  0  0  0  0
   29.8740   40.9900   14.7690 C   0  0  0  0  0
   29.0530   41.3450   13.6810 C   0  0  0  0  0
   27.7010   41.0000   13.6980 C   0  0  0  0  0
   27.1720   40.2930   14.7890 C   0  0  0  0  0
   28.0010   39.9390   15.8650 C   0  0  0  0  0
   36.5964   41.0066   23.4046 H   0  0  0  0  0
   36.7997   40.3044   21.7808 H   0  0  0  0  0
   36.7650   42.0727   21.9882 H   0  0  0  0  0
   34.9873   42.9664   21.3376 H   0  0  0  0  0
   32.7868   43.3667   20.7618 H   0  0  0  0  0
   32.7783   42.2047   23.5328 H   0  0  0  0  0
   33.1792   44.4488   23.0906 H   0  0  0  0  0
   30.2129   42.7751   22.0184 H   0  0  0  0  0
   30.1710   43.5581   24.1732 H   0  0  0  0  0
   31.3634   40.3872   23.4339 H   0  0  0  0  0
   29.1981   39.8583   23.7910 H   0  0  0  0  0
   29.5419   39.0012   22.2556 H   0  0  0  0  0
   27.5536   40.1898   22.1921 H   0  0  0  0  0
   29.9415   39.0503   17.4287 H   0  0  0  0  0
   30.9288   41.2639   14.7492 H   0  0  0  0  0
   29.4708   41.8855   12.8316 H   0  0  0  0  0
   27.0563   41.2793   12.8647 H   0  0  0  0  0
   26.1171   40.0188   14.8007 H   0  0  0  0  0
   27.5786   39.3824   16.7016 H   0  0  0  0  0
  1  2  1  0  0  0
  2  3  2  0  0  0
  2  4  1  0  0  0
  4  5  1  0  0  0
  5  6  1  0  0  0
  5 14  1  0  0  0
  6  7  1  0  0  0
  6  8  1  0  0  0
  8  9  1  0  0  0
  8 10  1  0  0  0
 10 11  1  0  0  0
 10 13  1  0  0  0
 11 12  1  0  0  0
 13 14  1  0  0  0
 14 15  2  0  0  0
 15 16  1  0  0  0
 16 17  1  0  0  0
 17 18  2  0  0  0
 17 19  1  0  0  0
 19 20  1  0  0  0
 20 21  4  0  0  0
 20 25  4  0  0  0
 21 22  4  0  0  0
 22 23  4  0  0  0
 23 24  4  0  0  0
 24 25  4  0  0  0
  1 26  1  0  0  0
  1 27  1  0  0  0
  1 28  1  0  0  0
  4 29  1  0  0  0
  5 30  1  0  0  0
  6 31  1  0  0  0
  7 32  1  0  0  0
  8 33  1  0  0  0
  9 34  1  0  0  0
 10 35  1  0  0  0
 11 36  1  0  0  0
 11 37  1  0  0  0
 12 38  1  0  0  0
 19 39  1  0  0  0
 21 40  1  0  0  0
 22 41  1  0  0  0
 23 42  1  0  0  0
 24 43  1  0  0  0
 25 44  1  0  0  0
M  END
$$$$
