3g7l_ligand
  -I-interpret- 

132131  0  0  0  0  0  0  0  0999 V2000
    3.3880   -5.8910  -16.6450 N   0  3  0  0  0
    2.0520   -6.3510  -16.2470 C   0  0  0  0  0
    1.9040   -7.8550  -16.4580 C   0  0  0  0  0
    1.8720   -8.3420  -17.5930 O   0  0  0  0  0
    0.9710   -5.6100  -17.0310 C   0  0  0  0  0
   -0.4120   -5.6450  -16.3900 C   0  0  0  0  0
   -1.3020   -6.7040  -17.0080 C   0  0  0  0  0
   -2.7690   -6.4000  -16.7460 C   0  0  0  0  0
   -3.1220   -6.6140  -15.3240 N   0  3  0  0  0
    1.8110   -8.5800  -15.3490 N   0  0  0  0  0
    1.8510  -10.0370  -15.3590 C   0  0  0  0  0
    0.4690  -10.5920  -15.1130 C   0  0  0  0  0
   -0.2050  -10.1710  -14.1810 O   0  0  0  0  0
    2.8060  -10.5190  -14.2750 C   0  0  0  0  0
    4.1960   -9.9150  -14.3960 C   0  0  0  0  0
    4.9070  -10.3680  -15.6640 C   0  0  0  0  0
    5.1970  -11.5510  -15.8330 O   0  0  0  0  0
    5.1990   -9.4280  -16.5550 N   0  0  0  0  0
    0.0440  -11.5280  -15.9550 N   0  0  0  0  0
   -1.3010  -12.0950  -15.8700 C   0  0  0  0  0
   -1.2410  -13.6190  -15.8130 C   0  0  0  0  0
   -0.3030  -14.2370  -16.3050 O   0  0  0  0  0
   -2.1910  -11.6710  -17.0790 C   0  0  0  0  0
   -1.6720  -12.2400  -18.2900 O   0  0  0  0  0
   -2.2560  -10.1660  -17.2000 C   0  0  0  0  0
   -2.2570  -14.2140  -15.2100 N   0  0  0  0  0
   -2.3460  -15.6600  -15.0820 C   0  0  0  0  0
   -3.8250  -16.0430  -14.9200 C   0  0  0  0  0
   -4.6330  -15.2190  -14.5140 O   0  0  0  0  0
   -1.5460  -16.1240  -13.8860 C   0  0  0  0  0
   -4.1760  -17.2810  -15.2470 N   0  0  0  0  0
   -5.5280  -17.7710  -15.0010 C   0  0  0  0  0
   -5.6460  -18.2610  -13.5570 C   0  0  0  0  0
   -4.8000  -19.0300  -13.0700 O   0  0  0  0  0
   -5.8620  -18.9040  -15.9840 C   0  0  0  0  0
   -7.1910  -19.6350  -15.7350 C   0  0  0  0  0
   -7.3580  -20.7650  -16.7690 C   0  0  0  0  0
   -8.5780  -21.5560  -16.6140 N   0  0  0  0  0
   -9.8110  -21.0890  -16.8260 C   0  0  0  0  0
  -10.8600  -21.8870  -16.6700 N   0  0  0  0  0
  -10.0060  -19.8220  -17.1770 N   0  0  0  0  0
   -6.6850  -17.8030  -12.8650 N   0  0  0  0  0
   -6.9390  -18.2200  -11.4400 C   0  0  0  0  0
   -7.3600  -17.0200  -10.5840 C   0  0  0  0  0
   -7.9290  -17.4330   -9.2180 C   0  0  0  0  0
   -8.0340  -16.2650   -8.2270 C   0  0  0  0  0
   -8.9560  -15.1680   -8.7660 C   0  0  0  0  0
   -9.2530  -14.0970   -7.7930 N   0  3  0  0  0
   -8.0450  -19.2220  -11.4190 C   0  0  0  0  0
   -9.1680  -18.8630  -11.7290 O   0  0  0  0  0
  -10.6380  -13.6720   -8.0020 C   0  0  0  0  0
   -8.4130  -12.9150   -8.0260 C   0  0  0  0  0
   -9.0730  -14.5670   -6.4060 C   0  0  0  0  0
   -7.7410  -20.4680  -11.0760 N   0  0  0  0  0
   -8.7510  -21.5050  -10.8600 C   0  0  0  0  0
   -9.9600  -21.0090  -10.0470 C   0  0  0  0  0
  -10.7748  -21.8167   -9.5262 O   0  0  0  0  0
   -8.1040  -22.6870  -10.1360 C   0  0  0  0  0
   -6.9530  -23.1370  -10.8340 O   0  0  0  0  0
  -10.1385  -19.7705   -9.8992 O   0  0  0  0  0
    4.0939   -6.3975  -16.1106 H   0  0  0  0  0
    3.5237   -6.0655  -17.6408 H   0  0  0  0  0
    3.4715   -4.8915  -16.4592 H   0  0  0  0  0
    1.9309   -6.1358  -15.1853 H   0  0  0  0  0
    0.8859   -6.1022  -17.9998 H   0  0  0  0  0
    1.2733   -4.5639  -17.0800 H   0  0  0  0  0
   -0.8824   -4.6740  -16.5447 H   0  0  0  0  0
   -0.2900   -5.8792  -15.3325 H   0  0  0  0  0
   -1.0591   -7.6692  -16.5635 H   0  0  0  0  0
   -1.1338   -6.7186  -18.0848 H   0  0  0  0  0
   -3.3747   -7.0695  -17.3566 H   0  0  0  0  0
   -2.9548   -5.3551  -16.9944 H   0  0  0  0  0
   -4.1098   -6.4015  -15.1844 H   0  0  0  0  0
   -2.9434   -7.5864  -15.0732 H   0  0  0  0  0
   -2.5551   -6.0010  -14.7382 H   0  0  0  0  0
    1.7076   -8.0985  -14.4558 H   0  0  0  0  0
    2.1995  -10.3849  -16.3314 H   0  0  0  0  0
    2.9039  -11.5999  -14.3755 H   0  0  0  0  0
    2.3951  -10.2161  -13.3119 H   0  0  0  0  0
    4.7854  -10.2424  -13.5395 H   0  0  0  0  0
    4.0942   -8.8303  -14.4315 H   0  0  0  0  0
    5.6818   -9.6762  -17.4186 H   0  0  0  0  0
    4.9405   -8.4577  -16.3760 H   0  0  0  0  0
    0.6757  -11.8613  -16.6832 H   0  0  0  0  0
   -1.7478  -11.7054  -14.9553 H   0  0  0  0  0
   -3.2014  -12.0433  -16.9098 H   0  0  0  0  0
   -2.2243  -11.9750  -19.0291 H   0  0  0  0  0
   -2.6810   -9.7474  -16.2877 H   0  0  0  0  0
   -1.2510   -9.7710  -17.3487 H   0  0  0  0  0
   -2.8827   -9.8979  -18.0506 H   0  0  0  0  0
   -3.0041  -13.6386  -14.8212 H   0  0  0  0  0
   -1.9369  -16.1413  -15.9703 H   0  0  0  0  0
   -0.5021  -15.8386  -14.0159 H   0  0  0  0  0
   -1.9416  -15.6586  -12.9832 H   0  0  0  0  0
   -1.6196  -17.2081  -13.7997 H   0  0  0  0  0
   -3.4889  -17.8999  -15.6774 H   0  0  0  0  0
   -6.2391  -16.9591  -15.1538 H   0  0  0  0  0
   -5.0749  -19.6498  -15.8733 H   0  0  0  0  0
   -5.9436  -18.4434  -16.9685 H   0  0  0  0  0
   -8.0167  -18.9300  -15.8311 H   0  0  0  0  0
   -7.1896  -20.0590  -14.7308 H   0  0  0  0  0
   -6.5178  -21.4462  -16.6345 H   0  0  0  0  0
   -7.4069  -20.2936  -17.7506 H   0  0  0  0  0
   -8.4808  -22.5293  -16.3247 H   0  0  0  0  0
  -10.7248  -22.8579  -16.3880 H   0  0  0  0  0
  -10.9533  -19.4733  -17.3232 H   0  0  0  0  0
   -9.2083  -19.1983  -17.3001 H   0  0  0  0  0
   -7.3288  -17.1503  -13.3121 H   0  0  0  0  0
   -6.0193  -18.6416  -11.0344 H   0  0  0  0  0
   -8.1413  -16.4837  -11.1226 H   0  0  0  0  0
   -6.4744  -16.4101  -10.4059 H   0  0  0  0  0
   -7.2516  -18.1707   -8.7879 H   0  0  0  0  0
   -8.9356  -17.8175   -9.3825 H   0  0  0  0  0
   -7.0400  -15.8435   -8.0772 H   0  0  0  0  0
   -8.4461  -16.6383   -7.2895 H   0  0  0  0  0
   -9.9035  -15.6412   -9.0236 H   0  0  0  0  0
   -8.4457  -14.7041   -9.6101 H   0  0  0  0  0
  -10.7530  -13.3005   -9.0203 H   0  0  0  0  0
  -11.3045  -14.5203   -7.8460 H   0  0  0  0  0
  -10.8843  -12.8799   -7.2949 H   0  0  0  0  0
   -7.3633  -13.1917   -7.9278 H   0  0  0  0  0
   -8.5968  -12.5324   -9.0300 H   0  0  0  0  0
   -8.6577  -12.1467   -7.2926 H   0  0  0  0  0
   -9.7454  -15.4038   -6.2172 H   0  0  0  0  0
   -8.0414  -14.8889   -6.2638 H   0  0  0  0  0
   -9.2997  -13.7542   -5.7160 H   0  0  0  0  0
   -6.7582  -20.7139  -10.9575 H   0  0  0  0  0
   -9.1266  -21.8010  -11.8395 H   0  0  0  0  0
   -8.8242  -23.5034  -10.0828 H   0  0  0  0  0
   -7.8067  -22.3673   -9.1373 H   0  0  0  0  0
   -6.5637  -23.8775  -10.3631 H   0  0  0  0  0
   -9.4398  -19.2915  -10.3509 H   0  0  0  0  0
  1  2  1  0  0  0
  2  3  1  0  0  0
  2  5  1  0  0  0
  3  4  2  0  0  0
  3 10  1  0  0  0
  5  6  1  0  0  0
  6  7  1  0  0  0
  7  8  1  0  0  0
  8  9  1  0  0  0
 10 11  1  0  0  0
 11 12  1  0  0  0
 11 14  1  0  0  0
 12 13  2  0  0  0
 12 19  1  0  0  0
 14 15  1  0  0  0
 15 16  1  0  0  0
 16 17  2  0  0  0
 16 18  1  0  0  0
 19 20  1  0  0  0
 20 21  1  0  0  0
 20 23  1  0  0  0
 21 22  2  0  0  0
 21 26  1  0  0  0
 23 24  1  0  0  0
 23 25  1  0  0  0
 26 27  1  0  0  0
 27 28  1  0  0  0
 27 30  1  0  0  0
 28 29  2  0  0  0
 28 31  1  0  0  0
 31 32  1  0  0  0
 32 33  1  0  0  0
 32 35  1  0  0  0
 33 34  2  0  0  0
 33 42  1  0  0  0
 35 36  1  0  0  0
 36 37  1  0  0  0
 37 38  1  0  0  0
 38 39  1  0  0  0
 39 40  2  0  0  0
 39 41  1  0  0  0
 42 43  1  0  0  0
 43 44  1  0  0  0
 43 49  1  0  0  0
 44 45  1  0  0  0
 45 46  1  0  0  0
 46 47  1  0  0  0
 47 48  1  0  0  0
 48 51  1  0  0  0
 48 52  1  0  0  0
 48 53  1  0  0  0
 49 50  2  0  0  0
 49 54  1  0  0  0
 54 55  1  0  0  0
 55 56  1  0  0  0
 55 58  1  0  0  0
 56 57  2  0  0  0
 58 59  1  0  0  0
 56 60  1  0  0  0
  1 61  1  0  0  0
  1 62  1  0  0  0
  1 63  1  0  0  0
  2 64  1  0  0  0
  5 65  1  0  0  0
  5 66  1  0  0  0
  6 67  1  0  0  0
  6 68  1  0  0  0
  7 69  1  0  0  0
  7 70  1  0  0  0
  8 71  1  0  0  0
  8 72  1  0  0  0
  9 73  1  0  0  0
  9 74  1  0  0  0
  9 75  1  0  0  0
 10 76  1  0  0  0
 11 77  1  0  0  0
 14 78  1  0  0  0
 14 79  1  0  0  0
 15 80  1  0  0  0
 15 81  1  0  0  0
 18 82  1  0  0  0
 18 83  1  0  0  0
 19 84  1  0  0  0
 20 85  1  0  0  0
 23 86  1  0  0  0
 24 87  1  0  0  0
 25 88  1  0  0  0
 25 89  1  0  0  0
 25 90  1  0  0  0
 26 91  1  0  0  0
 27 92  1  0  0  0
 30 93  1  0  0  0
 30 94  1  0  0  0
 30 95  1  0  0  0
 31 96  1  0  0  0
 32 97  1  0  0  0
 35 98  1  0  0  0
 35 99  1  0  0  0
 36100  1  0  0  0
 36101  1  0  0  0
 37102  1  0  0  0
 37103  1  0  0  0
 38104  1  0  0  0
 40105  1  0  0  0
 41106  1  0  0  0
 41107  1  0  0  0
 42108  1  0  0  0
 43109  1  0  0  0
 44110  1  0  0  0
 44111  1  0  0  0
 45112  1  0  0  0
 45113  1  0  0  0
 46114  1  0  0  0
 46115  1  0  0  0
 47116  1  0  0  0
 47117  1  0  0  0
 51118  1  0  0  0
 51119  1  0  0  0
 51120  1  0  0  0
 52121  1  0  0  0
 52122  1  0  0  0
 52123  1  0  0  0
 53124  1  0  0  0
 53125  1  0  0  0
 53126  1  0  0  0
 54127  1  0  0  0
 55128  1  0  0  0
 58129  1  0  0  0
 58130  1  0  0  0
 59131  1  0  0  0
 60132  1  0  0  0
M  END
$$$$
