### 
### Created by X-TOOL on Mon Sep 10 21:13:00 2018
### 

@<TRIPOS>MOLECULE
3g7l_ligand
  132   131     1     0     0
SMALL
GAST_HUCK


@<TRIPOS>ATOM
      1 N           3.3880   -5.8910  -16.6450 N.4       1 LYS         0.2379
      2 CA          2.0520   -6.3510  -16.2470 C.3       1 LYS         0.0650
      3 C           1.9040   -7.8550  -16.4580 C.2       1 LYS         0.2267
      4 O           1.8720   -8.3420  -17.5930 O.2       1 LYS        -0.3907
      5 CB          0.9710   -5.6100  -17.0310 C.3       1 LYS         0.0080
      6 CG         -0.4120   -5.6450  -16.3900 C.3       1 LYS        -0.0410
      7 CD         -1.3020   -6.7040  -17.0080 C.3       1 LYS        -0.0123
      8 CE         -2.7690   -6.4000  -16.7460 C.3       1 LYS        -0.0354
      9 NZ         -3.1220   -6.6140  -15.3240 N.4       1 LYS         0.2185
     10 N           1.8110   -8.5800  -15.3490 N.am      1 GLN        -0.2609
     11 CA          1.8510  -10.0370  -15.3590 C.3       1 GLN         0.1331
     12 C           0.4690  -10.5920  -15.1130 C.2       1 GLN         0.2041
     13 O          -0.2050  -10.1710  -14.1810 O.2       1 GLN        -0.3944
     14 CB          2.8060  -10.5190  -14.2750 C.3       1 GLN         0.0045
     15 CG          4.1960   -9.9150  -14.3960 C.3       1 GLN         0.0412
     16 CD          4.9070  -10.3680  -15.6640 C.2       1 GLN         0.1737
     17 OE1         5.1970  -11.5510  -15.8330 O.2       1 GLN        -0.3973
     18 NE2         5.1990   -9.4280  -16.5550 N.am      1 GLN        -0.3009
     19 N           0.0440  -11.5280  -15.9550 N.am      1 THR        -0.2613
     20 CA         -1.3010  -12.0950  -15.8700 C.3       1 THR         0.1565
     21 C          -1.2410  -13.6190  -15.8130 C.2       1 THR         0.2065
     22 O          -0.3030  -14.2370  -16.3050 O.2       1 THR        -0.3943
     23 CB         -2.1910  -11.6710  -17.0790 C.3       1 THR         0.0924
     24 OG1        -1.6720  -12.2400  -18.2900 O.3       1 THR        -0.3874
     25 CG2        -2.2560  -10.1660  -17.2000 C.3       1 THR        -0.0346
     26 N          -2.2570  -14.2140  -15.2100 N.am      1 ALA        -0.2639
     27 CA         -2.3460  -15.6600  -15.0820 C.3       1 ALA         0.1282
     28 C          -3.8250  -16.0430  -14.9200 C.2       1 ALA         0.2036
     29 O          -4.6330  -15.2190  -14.5140 O.2       1 ALA        -0.3944
     30 CB         -1.5460  -16.1240  -13.8860 C.3       1 ALA        -0.0244
     31 N          -4.1760  -17.2810  -15.2470 N.am      1 ARG        -0.2637
     32 CA         -5.5280  -17.7710  -15.0010 C.3       1 ARG         0.1311
     33 C          -5.6460  -18.2610  -13.5570 C.2       1 ARG         0.2039
     34 O          -4.8000  -19.0300  -13.0700 O.2       1 ARG        -0.3944
     35 CB         -5.8620  -18.9040  -15.9840 C.3       1 ARG        -0.0092
     36 CG         -7.1910  -19.6350  -15.7350 C.3       1 ARG        -0.0156
     37 CD         -7.3580  -20.7650  -16.7690 C.3       1 ARG         0.0627
     38 NE         -8.5780  -21.5560  -16.6140 N.pl3     1 ARG        -0.2723
     39 CZ         -9.8110  -21.0890  -16.8260 C.cat     1 ARG         0.2882
     40 NH1       -10.8600  -21.8870  -16.6700 N.pl3     1 ARG        -0.2849
     41 NH2       -10.0060  -19.8220  -17.1770 N.pl3     1 ARG        -0.2849
     42 N          -6.6850  -17.8030  -12.8650 N.am      1 M3L        -0.2637
     43 CA         -6.9390  -18.2200  -11.4400 C.3       1 M3L         0.1309
     44 CB         -7.3600  -17.0200  -10.5840 C.3       1 M3L        -0.0122
     45 CG         -7.9290  -17.4330   -9.2180 C.3       1 M3L        -0.0440
     46 CD         -8.0340  -16.2650   -8.2270 C.3       1 M3L        -0.0123
     47 CE         -8.9560  -15.1680   -8.7660 C.3       1 M3L        -0.0309
     48 NZ         -9.2530  -14.0970   -7.7930 N.4       1 M3L         0.2369
     49 C          -8.0450  -19.2220  -11.4190 C.2       1 M3L         0.2034
     50 O          -9.1680  -18.8630  -11.7290 O.2       1 M3L        -0.3944
     51 CM1       -10.6380  -13.6720   -8.0020 C.3       1 M3L        -0.0418
     52 CM2        -8.4130  -12.9150   -8.0260 C.3       1 M3L        -0.0418
     53 CM3        -9.0730  -14.5670   -6.4060 C.3       1 M3L        -0.0418
     54 N          -7.7410  -20.4680  -11.0760 N.am      1 SER        -0.2672
     55 CA         -8.7510  -21.5050  -10.8600 C.3       1 SER         0.1173
     56 C          -9.9600  -21.0090  -10.0470 C.2       1 SER         0.0623
     57 O         -10.7748  -21.8167   -9.5262 O.co2     1 SER        -0.5665
     58 CB         -8.1040  -22.6870  -10.1360 C.3       1 SER         0.0789
     59 OG         -6.9530  -23.1370  -10.8340 O.3       1 SER        -0.3910
     60 O70       -10.1385  -19.7705   -9.8992 O.co2     1 SER        -0.5665
     61 H1          3.4592   -4.8966  -16.4959 H         1 LYS         0.2015
     62 H2          3.5372   -6.0960  -17.6206 H         1 LYS         0.2015
     63 H3          4.0850   -6.3644  -16.0917 H         1 LYS         0.2015
     64 H4          1.9176   -6.1349  -15.1769 H         1 LYS         0.1098
     65 H5          0.8982   -6.0651  -18.0298 H         1 LYS         0.0346
     66 H6          1.2777   -4.5582  -17.1288 H         1 LYS         0.0346
     67 H7         -0.8880   -4.6620  -16.5204 H         1 LYS         0.0270
     68 H8         -0.2999   -5.8586  -15.3168 H         1 LYS         0.0270
     69 H9         -1.0535   -7.6828  -16.5718 H         1 LYS         0.0317
     70 H10        -1.1283   -6.7317  -18.0938 H         1 LYS         0.0317
     71 H11        -3.3881   -7.0602  -17.3712 H         1 LYS         0.0813
     72 H12        -2.9694   -5.3511  -17.0100 H         1 LYS         0.0813
     73 H13        -4.0981   -6.4043  -15.1849 H         1 LYS         0.1994
     74 H14        -2.5623   -6.0086  -14.7441 H         1 LYS         0.1994
     75 H15        -2.9460   -7.5748  -15.0750 H         1 LYS         0.1994
     76 H16         1.7096   -8.1080  -14.4733 H         1 GLN         0.1885
     77 H17         2.2095  -10.3839  -16.3393 H         1 GLN         0.0801
     78 H18         2.8921  -11.6134  -14.3451 H         1 GLN         0.0337
     79 H19         2.3895  -10.2460  -13.2942 H         1 GLN         0.0337
     80 H20         4.7936  -10.2220  -13.5250 H         1 GLN         0.0504
     81 H21         4.1067   -8.8188  -14.4115 H         1 GLN         0.0504
     82 H22         5.6658   -9.6724  -17.4049 H         1 GLN         0.1814
     83 H23         4.9521   -8.4756  -16.3762 H         1 GLN         0.1814
     84 H24         0.6633  -11.8547  -16.6690 H         1 THR         0.1884
     85 H25        -1.7698  -11.7254  -14.9461 H         1 THR         0.0826
     86 H26        -3.2094  -12.0535  -16.9162 H         1 THR         0.0639
     87 H27        -1.6703  -13.1873  -18.2182 H         1 THR         0.2101
     88 H28        -2.8882   -9.8941  -18.0581 H         1 THR         0.0257
     89 H29        -1.2423   -9.7661  -17.3501 H         1 THR         0.0257
     90 H30        -2.6848   -9.7423  -16.2799 H         1 THR         0.0257
     91 H31        -2.9894  -13.6498  -14.8289 H         1 ALA         0.1883
     92 H32        -1.9434  -16.1339  -15.9893 H         1 ALA         0.0797
     93 H33        -1.6195  -17.2180  -13.7978 H         1 ALA         0.0277
     94 H34        -1.9442  -15.6551  -12.9741 H         1 ALA         0.0277
     95 H35        -0.4922  -15.8367  -14.0159 H         1 ALA         0.0277
     96 H36        -3.5024  -17.8878  -15.6690 H         1 ARG         0.1883
     97 H37        -6.2400  -16.9469  -15.1554 H         1 ARG         0.0800
     98 H38        -5.0528  -19.6471  -15.9302 H         1 ARG         0.0313
     99 H39        -5.8979  -18.4736  -16.9956 H         1 ARG         0.0313
    100 H40        -8.0244  -18.9236  -15.8317 H         1 ARG         0.0301
    101 H41        -7.1898  -20.0628  -14.7216 H         1 ARG         0.0301
    102 H42        -6.4961  -21.4425  -16.6792 H         1 ARG         0.0689
    103 H43        -7.3668  -20.3137  -17.7721 H         1 ARG         0.0689
    104 H44        -8.4798  -22.5388  -16.3219 H         1 ARG         0.2642
    105 H45       -11.8106  -21.5259  -16.8337 H         1 ARG         0.2615
    106 H46       -10.7234  -22.8674  -16.3852 H         1 ARG         0.2615
    107 H47        -9.2005  -19.1922  -17.3014 H         1 ARG         0.2615
    108 H48       -10.9626  -19.4699  -17.3247 H         1 ARG         0.2615
    109 H49        -7.3161  -17.1631  -13.3034 H         1 M3L         0.1883
    110 H50        -6.0238  -18.6648  -11.0222 H         1 M3L         0.0800
    111 H51        -8.1295  -16.4529  -11.1282 H         1 M3L         0.0312
    112 H52        -6.4806  -16.3800  -10.4193 H         1 M3L         0.0312
    113 H53        -7.2725  -18.2015   -8.7839 H         1 M3L         0.0269
    114 H54        -8.9341  -17.8530   -9.3707 H         1 M3L         0.0269
    115 H55        -7.0318  -15.8429   -8.0612 H         1 M3L         0.0317
    116 H56        -8.4374  -16.6374   -7.2738 H         1 M3L         0.0317
    117 H57        -9.9059  -15.6330   -9.0683 H         1 M3L         0.0815
    118 H58        -8.4746  -14.7129   -9.6442 H         1 M3L         0.0815
    119 H59       -10.8878  -12.8726   -7.2889 H         1 M3L         0.0778
    120 H60       -11.3117  -14.5272   -7.8448 H         1 M3L         0.0778
    121 H61       -10.7554  -13.2968   -9.0293 H         1 M3L         0.0778
    122 H62        -7.3558  -13.1821   -7.8808 H         1 M3L         0.0778
    123 H63        -8.6915  -12.1217   -7.3167 H         1 M3L         0.0778
    124 H64        -8.5624  -12.5560   -9.0550 H         1 M3L         0.0778
    125 H65        -9.7031  -15.4521   -6.2341 H         1 M3L         0.0778
    126 H66        -9.3641  -13.7686   -5.7076 H         1 M3L         0.0778
    127 H67        -8.0177  -14.8308   -6.2422 H         1 M3L         0.0778
    128 H68        -6.7775  -20.7091  -10.9599 H         1 SER         0.1876
    129 H69        -9.1134  -21.8423  -11.8423 H         1 SER         0.0749
    130 H70        -8.8302  -23.5105  -10.0695 H         1 SER         0.0599
    131 H71        -7.8116  -22.3732   -9.1231 H         1 SER         0.0599
    132 H72        -6.3217  -22.4293  -10.8909 H         1 SER         0.2096
@<TRIPOS>BOND
     1    1    2 1  
     2    2    3 1  
     3    2    5 1  
     4    3    4 2  
     5    3   10 am 
     6    5    6 1  
     7    6    7 1  
     8    7    8 1  
     9    8    9 1  
    10   10   11 1  
    11   11   12 1  
    12   11   14 1  
    13   12   13 2  
    14   12   19 am 
    15   14   15 1  
    16   15   16 1  
    17   16   17 2  
    18   16   18 am 
    19   19   20 1  
    20   20   21 1  
    21   20   23 1  
    22   21   22 2  
    23   21   26 am 
    24   23   24 1  
    25   23   25 1  
    26   26   27 1  
    27   27   28 1  
    28   27   30 1  
    29   28   29 2  
    30   28   31 am 
    31   31   32 1  
    32   32   33 1  
    33   32   35 1  
    34   33   34 2  
    35   33   42 am 
    36   35   36 1  
    37   36   37 1  
    38   37   38 1  
    39   38   39 ar 
    40   39   40 ar 
    41   39   41 ar 
    42   42   43 1  
    43   43   44 1  
    44   43   49 1  
    45   44   45 1  
    46   45   46 1  
    47   46   47 1  
    48   47   48 1  
    49   48   51 1  
    50   48   52 1  
    51   48   53 1  
    52   49   50 2  
    53   49   54 am 
    54   54   55 1  
    55   55   56 1  
    56   55   58 1  
    57   56   57 ar 
    58   58   59 1  
    59   56   60 ar 
    60    1   61 1  
    61    1   62 1  
    62    1   63 1  
    63    2   64 1  
    64    5   65 1  
    65    5   66 1  
    66    6   67 1  
    67    6   68 1  
    68    7   69 1  
    69    7   70 1  
    70    8   71 1  
    71    8   72 1  
    72    9   73 1  
    73    9   74 1  
    74    9   75 1  
    75   10   76 1  
    76   11   77 1  
    77   14   78 1  
    78   14   79 1  
    79   15   80 1  
    80   15   81 1  
    81   18   82 1  
    82   18   83 1  
    83   19   84 1  
    84   20   85 1  
    85   23   86 1  
    86   24   87 1  
    87   25   88 1  
    88   25   89 1  
    89   25   90 1  
    90   26   91 1  
    91   27   92 1  
    92   30   93 1  
    93   30   94 1  
    94   30   95 1  
    95   31   96 1  
    96   32   97 1  
    97   35   98 1  
    98   35   99 1  
    99   36  100 1  
   100   36  101 1  
   101   37  102 1  
   102   37  103 1  
   103   38  104 1  
   104   40  105 1  
   105   40  106 1  
   106   41  107 1  
   107   41  108 1  
   108   42  109 1  
   109   43  110 1  
   110   44  111 1  
   111   44  112 1  
   112   45  113 1  
   113   45  114 1  
   114   46  115 1  
   115   46  116 1  
   116   47  117 1  
   117   47  118 1  
   118   51  119 1  
   119   51  120 1  
   120   51  121 1  
   121   52  122 1  
   122   52  123 1  
   123   52  124 1  
   124   53  125 1  
   125   53  126 1  
   126   53  127 1  
   127   54  128 1  
   128   55  129 1  
   129   58  130 1  
   130   58  131 1  
   131   59  132 1  
@<TRIPOS>SUBSTRUCTURE
     1 LYS         1

