5dqe_ligand
  -I-interpret- 

 27 28  0  0  0  0  0  0  0  0999 V2000
   47.5940   42.9870  -13.1300 O   0  0  0  0  0
   47.1610   41.9880  -13.7520 C   0  0  0  0  0
   47.8020   40.9100  -13.7000 O   0  0  0  0  0
   45.8640   42.1100  -14.5500 C   0  0  0  0  0
   45.2030   41.0460  -14.9760 C   0  0  0  0  0
   43.9010   41.2200  -15.7610 C   0  0  0  0  0
   43.4590   42.4340  -16.0260 C   0  0  0  0  0
   44.2370   43.6630  -15.5400 C   0  0  0  0  0
   45.3540   43.5120  -14.8580 C   0  0  0  0  0
   46.1480   44.6230  -14.3710 N   0  0  0  0  0
   46.1290   45.9700  -14.9280 C   0  0  0  0  0
   44.9620   46.6470  -14.8740 C   0  0  0  0  0
   44.8860   47.9240  -15.3660 C   0  0  0  0  0
   43.1330   48.7280  -15.2730 Br  0  0  0  0  0
   45.9940   48.5820  -15.8760 C   0  0  0  0  0
   47.1980   47.9110  -15.9240 C   0  0  0  0  0
   47.2650   46.6090  -15.4320 C   0  0  0  0  0
   47.3487   40.2440  -14.2221 H   0  0  0  0  0
   45.5854   40.0467  -14.7681 H   0  0  0  0  0
   43.3428   40.3468  -16.0987 H   0  0  0  0  0
   42.5371   42.5643  -16.5927 H   0  0  0  0  0
   43.8649   44.6638  -15.7594 H   0  0  0  0  0
   46.7666   44.4490  -13.5789 H   0  0  0  0  0
   44.0797   46.1776  -14.4388 H   0  0  0  0  0
   45.9155   49.6092  -16.2320 H   0  0  0  0  0
   48.0833   48.3916  -16.3403 H   0  0  0  0  0
   48.2184   46.0807  -15.4404 H   0  0  0  0  0
  1  2  2  0  0  0
  2  3  1  0  0  0
  2  4  1  0  0  0
  4  5  4  0  0  0
  4  9  4  0  0  0
  5  6  4  0  0  0
  6  7  4  0  0  0
  7  8  4  0  0  0
  8  9  4  0  0  0
  9 10  1  0  0  0
 10 11  1  0  0  0
 11 12  4  0  0  0
 11 17  4  0  0  0
 12 13  4  0  0  0
 13 14  1  0  0  0
 13 15  4  0  0  0
 15 16  4  0  0  0
 16 17  4  0  0  0
  3 18  1  0  0  0
  5 19  1  0  0  0
  6 20  1  0  0  0
  7 21  1  0  0  0
  8 22  1  0  0  0
 10 23  1  0  0  0
 12 24  1  0  0  0
 15 25  1  0  0  0
 16 26  1  0  0  0
 17 27  1  0  0  0
M  END
$$$$
