6p85_ligand
  -I-interpret- 

 43 45  0  0  0  0  0  0  0  0999 V2000
  -11.6280   27.5730   15.3520 C   0  0  0  0  0
  -11.8030   27.8890   16.7450 C   0  0  0  0  0
  -14.0450   29.9010   18.1750 C   0  0  0  0  0
   -9.7360   29.7660   14.6650 C   0  0  0  0  0
   -9.4980   28.8180   12.4700 C   0  0  0  0  0
   -9.0090   30.0340   11.9890 C   0  0  0  0  0
   -9.2540   30.9850   14.1960 C   0  0  0  0  0
   -8.8860   31.1150   12.8710 C   0  0  0  0  0
  -14.5350   27.6070   18.8200 C   0  0  0  0  0
  -14.7760   30.3860   19.2520 C   0  0  0  0  0
  -13.5350   32.1380   17.4420 C   0  0  0  0  0
   -8.3480   32.3940   12.3930 C   0  0  0  0  0
  -15.2660   28.0830   19.9050 C   0  0  0  0  0
  -12.4400   32.6330   16.4910 C   0  0  0  0  0
  -15.3810   29.4680   20.1120 C   0  0  0  0  0
  -13.9350   28.5370   17.9710 C   0  0  0  0  0
   -9.8560   28.6700   13.8230 C   0  0  0  0  0
  -10.9000   27.9710   17.7780 N   0  0  0  0  0
  -13.2070   28.1150   16.8530 N   0  0  0  0  0
  -12.9210   27.6200   14.7570 N   0  0  0  0  0
  -13.8170   27.9280   15.6130 N   0  0  0  0  0
   -9.3040   26.7990   15.3210 O   0  0  0  0  0
  -13.4000   30.7110   17.2740 O   0  0  0  0  0
  -10.6750   26.3630   13.3280 O   0  0  0  0  0
  -10.3260   27.2160   14.4210 S   0  0  0  0  0
  -10.0241   29.6711   15.7119 H   0  0  0  0  0
   -9.6038   27.9731   11.7895 H   0  0  0  0  0
   -8.7269   30.1406   10.9416 H   0  0  0  0  0
   -9.1672   31.8349   14.8729 H   0  0  0  0  0
  -14.4343   26.5369   18.6389 H   0  0  0  0  0
  -14.8748   31.4582   19.4216 H   0  0  0  0  0
  -14.5298   32.5222   17.2165 H   0  0  0  0  0
  -13.4210   32.4795   18.4708 H   0  0  0  0  0
   -7.3361   32.2432   12.0169 H   0  0  0  0  0
   -8.9812   32.7767   11.5926 H   0  0  0  0  0
   -8.3285   33.1087   13.2157 H   0  0  0  0  0
  -15.7466   27.3849   20.5904 H   0  0  0  0  0
  -11.4756   32.2409   16.8139 H   0  0  0  0  0
  -12.6546   32.2864   15.4801 H   0  0  0  0  0
  -12.4137   33.7226   16.5050 H   0  0  0  0  0
  -15.9554   29.8337   20.9631 H   0  0  0  0  0
   -9.9111   27.7894   17.6065 H   0  0  0  0  0
  -11.2188   28.2134   18.7161 H   0  0  0  0  0
  1  2  4  0  0  0
  1 20  4  0  0  0
 25  1  1  0  0  0
  2 18  1  0  0  0
  2 19  4  0  0  0
  3 10  4  0  0  0
 16  3  4  0  0  0
  3 23  1  0  0  0
  4  7  4  0  0  0
 17  4  4  0  0  0
  5  6  4  0  0  0
 17  5  4  0  0  0
  6  8  4  0  0  0
  7  8  4  0  0  0
  8 12  1  0  0  0
  9 13  4  0  0  0
 16  9  4  0  0  0
 10 15  4  0  0  0
 11 14  1  0  0  0
 23 11  1  0  0  0
 13 15  4  0  0  0
 19 16  1  0  0  0
 17 25  1  0  0  0
 19 21  4  0  0  0
 20 21  4  0  0  0
 25 22  2  0  0  0
 25 24  2  0  0  0
  4 26  1  0  0  0
  5 27  1  0  0  0
  6 28  1  0  0  0
  7 29  1  0  0  0
  9 30  1  0  0  0
 10 31  1  0  0  0
 11 32  1  0  0  0
 11 33  1  0  0  0
 12 34  1  0  0  0
 12 35  1  0  0  0
 12 36  1  0  0  0
 13 37  1  0  0  0
 14 38  1  0  0  0
 14 39  1  0  0  0
 14 40  1  0  0  0
 15 41  1  0  0  0
 18 42  1  0  0  0
 18 43  1  0  0  0
M  END
$$$$
