5al4_ligand
  -I-interpret- 

 39 41  0  0  0  0  0  0  0  0999 V2000
  -39.8590  -12.0780    9.5770 C   0  0  0  0  0
  -39.1500  -12.1660    8.3060 C   0  0  0  0  0
  -38.7950  -10.8460    7.7910 N   0  3  0  0  0
  -38.1140  -11.0210    6.4820 C   0  0  0  0  0
  -37.8320  -10.1500    8.6400 C   0  0  0  0  0
  -38.3060  -10.1150   10.0610 C   0  0  0  0  0
  -38.9480  -11.3820   10.5380 N   0  0  0  0  0
  -38.9330  -11.6850   11.8720 C   0  0  0  0  0
  -39.7650  -12.6050   12.3590 N   0  0  0  0  0
  -39.7980  -12.9740   13.6730 C   0  0  0  0  0
  -40.7260  -13.9770   13.9600 C   0  0  0  0  0
  -40.4000  -14.6370   15.2780 C   0  0  0  0  0
  -40.2600  -13.5470   16.3640 C   0  0  0  0  0
  -39.0340  -12.6340   16.0330 C   0  0  0  0  0
  -39.0160  -12.3240   14.6150 C   0  0  0  0  0
  -38.1100  -11.3290   14.1070 C   0  0  0  0  0
  -37.3180  -10.6960   14.8070 O   0  0  0  0  0
  -38.0790  -11.0290   12.7660 N   0  0  0  0  0
  -40.1199  -13.0711    9.9429 H   0  0  0  0  0
  -40.7919  -11.5263    9.4611 H   0  0  0  0  0
  -39.8037  -12.6521    7.5818 H   0  0  0  0  0
  -38.2312  -12.7307    8.4644 H   0  0  0  0  0
  -39.6596  -10.3074    7.7386 H   0  0  0  0  0
  -37.8559  -10.0435    6.0746 H   0  0  0  0  0
  -37.2068  -11.6089    6.6216 H   0  0  0  0  0
  -38.7814  -11.5385    5.7930 H   0  0  0  0  0
  -37.7206   -9.1270    8.2807 H   0  0  0  0  0
  -36.8798  -10.6790    8.5993 H   0  0  0  0  0
  -39.0624   -9.3327   10.1241 H   0  0  0  0  0
  -37.4274   -9.9501   10.6846 H   0  0  0  0  0
  -40.4128  -13.0584   11.7146 H   0  0  0  0  0
  -41.5678  -14.2458   13.3219 H   0  0  0  0  0
  -39.4657  -15.1916   15.1907 H   0  0  0  0  0
  -41.1977  -15.3279   15.5508 H   0  0  0  0  0
  -40.1093  -14.0192   17.3348 H   0  0  0  0  0
  -41.1664  -12.9421   16.3901 H   0  0  0  0  0
  -38.1150  -13.1568   16.2980 H   0  0  0  0  0
  -39.1121  -11.7077   16.6021 H   0  0  0  0  0
  -39.7629  -12.4538   15.3982 H   0  0  0  0  0
  1  2  1  0  0  0
  1  7  1  0  0  0
  2  3  1  0  0  0
  3  4  1  0  0  0
  3  5  1  0  0  0
  5  6  1  0  0  0
  6  7  1  0  0  0
  7  8  1  0  0  0
  8  9  1  0  0  0
  8 18  4  0  0  0
  9 10  1  0  0  0
 10 11  2  0  0  0
 10 15  1  0  0  0
 11 12  1  0  0  0
 12 13  1  0  0  0
 13 14  1  0  0  0
 14 15  1  0  0  0
 15 16  1  0  0  0
 16 17  2  0  0  0
 16 18  1  0  0  0
  1 19  1  0  0  0
  1 20  1  0  0  0
  2 21  1  0  0  0
  2 22  1  0  0  0
  3 23  1  0  0  0
  4 24  1  0  0  0
  4 25  1  0  0  0
  4 26  1  0  0  0
  5 27  1  0  0  0
  5 28  1  0  0  0
  6 29  1  0  0  0
  6 30  1  0  0  0
  9 31  1  0  0  0
 11 32  1  0  0  0
 12 33  1  0  0  0
 12 34  1  0  0  0
 13 35  1  0  0  0
 13 36  1  0  0  0
 14 37  1  0  0  0
 14 38  1  0  0  0
 15 39  1  0  0  0
M  END
$$$$
