2ggb_ligand
  -I-interpret- 

 56 55  0  0  0  0  0  0  0  0999 V2000
   11.7200    0.1630   18.2710 O   0  0  0  0  0
   11.8330   -0.5760   17.3440 C   0  0  0  0  0
   11.3310    0.0510   16.0890 C   0  0  0  0  0
   12.1140    1.3370   15.8870 C   0  0  0  0  0
   13.6030    1.1350   16.1440 C   0  0  0  0  0
   14.6520    0.8930   15.4580 C   0  0  0  0  0
   15.8260    0.8810   15.1350 C   0  0  0  0  0
   17.0790    1.0250   15.0260 C   0  0  0  0  0
   11.5590    2.2330   14.8480 N   0  3  0  0  0
    9.9660    0.3670   16.3480 O   0  0  0  0  0
   12.3270   -1.8050   17.4010 N   0  0  0  0  0
   12.6730   -2.5020   18.6490 C   0  0  0  0  0
   11.5530   -3.4290   19.2040 C   0  0  0  0  0
   11.9070   -4.6400   19.9070 O   0  0  0  0  0
   13.9840   -3.1920   18.3740 C   0  0  0  0  0
   13.9350   -3.8170   17.3340 O   0  0  0  0  0
   15.0520   -3.0880   19.1930 N   0  0  0  0  0
   16.2600   -3.9270   19.2180 C   0  0  0  0  0
   17.4030   -3.0110   19.6870 C   0  0  0  0  0
   18.7160   -2.9570   18.8890 C   0  0  0  0  0
   18.9710   -1.4930   18.5410 C   0  0  0  0  0
   19.9340   -3.5930   19.5860 C   0  0  0  0  0
   16.1670   -5.1550   20.1320 C   0  0  0  0  0
   15.7340   -5.0330   21.2750 O   0  0  0  0  0
   16.5750   -6.5220   19.7510 O   0  0  0  0  0
   16.4580   -7.6700   20.6100 C   0  0  0  0  0
   11.4351   -0.5868   15.2113 H   0  0  0  0  0
   11.9443    2.0715   16.6743 H   0  0  0  0  0
   13.5324    0.1687   16.6434 H   0  0  0  0  0
   13.8426    2.1635   16.4141 H   0  0  0  0  0
   17.3150    2.0852   14.9344 H   0  0  0  0  0
   17.5686    0.6176   15.9106 H   0  0  0  0  0
   17.4285    0.4957   14.1395 H   0  0  0  0  0
   10.5401    2.1939   14.8759 H   0  0  0  0  0
   11.8687    3.1887   15.0241 H   0  0  0  0  0
   11.8870    1.9317   13.9304 H   0  0  0  0  0
    9.4695   -0.4446   16.4759 H   0  0  0  0  0
   12.4769   -2.2996   16.5216 H   0  0  0  0  0
   12.7766   -1.7947   19.4719 H   0  0  0  0  0
   11.0173   -3.7722   18.3189 H   0  0  0  0  0
   11.0371   -2.8212   19.9473 H   0  0  0  0  0
   11.1073   -5.0944   20.1821 H   0  0  0  0  0
   15.0170   -2.3344   19.8795 H   0  0  0  0  0
   16.4164   -4.3389   18.2210 H   0  0  0  0  0
   17.6903   -3.4080   20.6606 H   0  0  0  0  0
   16.9949   -2.0031   19.6115 H   0  0  0  0  0
   18.5917   -3.5706   17.9968 H   0  0  0  0  0
   18.1421   -1.1132   17.9437 H   0  0  0  0  0
   19.0550   -0.9119   19.4593 H   0  0  0  0  0
   19.8974   -1.4121   17.9723 H   0  0  0  0  0
   20.1215   -3.0783   20.5284 H   0  0  0  0  0
   19.7311   -4.6462   19.7799 H   0  0  0  0  0
   20.8081   -3.5028   18.9411 H   0  0  0  0  0
   17.0453   -7.5073   21.5138 H   0  0  0  0  0
   15.4115   -7.8174   20.8768 H   0  0  0  0  0
   16.8289   -8.5521   20.0880 H   0  0  0  0  0
  1  2  2  0  0  0
  2  3  1  0  0  0
  2 11  1  0  0  0
  3  4  1  0  0  0
  3 10  1  0  0  0
  4  5  1  0  0  0
  4  9  1  0  0  0
  5  6  1  0  0  0
  6  7  3  0  0  0
  7  8  1  0  0  0
 11 12  1  0  0  0
 12 13  1  0  0  0
 12 15  1  0  0  0
 13 14  1  0  0  0
 15 16  2  0  0  0
 15 17  1  0  0  0
 17 18  1  0  0  0
 18 19  1  0  0  0
 18 23  1  0  0  0
 19 20  1  0  0  0
 20 21  1  0  0  0
 20 22  1  0  0  0
 23 24  2  0  0  0
 23 25  1  0  0  0
 25 26  1  0  0  0
  3 27  1  0  0  0
  4 28  1  0  0  0
  5 29  1  0  0  0
  5 30  1  0  0  0
  8 31  1  0  0  0
  8 32  1  0  0  0
  8 33  1  0  0  0
  9 34  1  0  0  0
  9 35  1  0  0  0
  9 36  1  0  0  0
 10 37  1  0  0  0
 11 38  1  0  0  0
 12 39  1  0  0  0
 13 40  1  0  0  0
 13 41  1  0  0  0
 14 42  1  0  0  0
 17 43  1  0  0  0
 18 44  1  0  0  0
 19 45  1  0  0  0
 19 46  1  0  0  0
 20 47  1  0  0  0
 21 48  1  0  0  0
 21 49  1  0  0  0
 21 50  1  0  0  0
 22 51  1  0  0  0
 22 52  1  0  0  0
 22 53  1  0  0  0
 26 54  1  0  0  0
 26 55  1  0  0  0
 26 56  1  0  0  0
M  END
$$$$
