2pj5_ligand
  -I-interpret- 

 66 67  0  0  0  0  0  0  0  0999 V2000
   39.0030   13.9720   66.6010 C   0  0  0  0  0
   39.9780   13.8570   67.6070 C   0  0  0  0  0
   39.5870   13.6950   68.9470 C   0  0  0  0  0
   38.2220   13.6480   69.2790 C   0  0  0  0  0
   37.2460   13.7630   68.2730 C   0  0  0  0  0
   37.6340   13.9250   66.9330 C   0  0  0  0  0
   36.6650   14.0440   65.9340 C   0  0  0  0  0
   37.0690   14.0330   64.5460 O   0  0  0  0  0
   36.0370   14.2140   63.6620 C   0  0  0  0  0
   34.8720   14.3090   64.0730 O   0  0  0  0  0
   36.3650   14.2810   62.3700 N   0  0  0  0  0
   35.3790   14.3660   61.2820 C   0  0  0  0  0
   35.8670   15.3800   60.2280 C   0  0  0  0  0
   36.2600   16.7290   60.8540 C   0  0  0  0  0
   35.0760   17.4290   61.5370 C   0  0  0  0  0
   35.5270   18.7070   62.2640 C   0  0  0  0  0
   36.0990   19.7490   61.2950 C   0  0  0  0  0
   35.2350   12.6980   60.5390 P   0  0  0  0  0
   34.1810   12.7180   59.5050 O   0  0  0  0  0
   35.1050   11.7340   61.6590 O   0  0  0  0  0
   36.6630   12.4820   59.8220 O   0  0  0  0  0
   37.0150   11.1670   59.3810 C   0  0  0  0  0
   37.6150   10.3610   60.5500 C   0  0  0  0  0
   37.3390    9.1420   60.5920 O   0  0  0  0  0
   38.3260   10.9810   61.3730 O   0  0  0  0  0
   38.0050   11.2240   58.1950 C   0  0  0  0  0
   38.6800   10.0600   57.8080 C   0  0  0  0  0
   38.2210   12.4210   57.4840 C   0  0  0  0  0
   39.1130   12.4390   56.3920 C   0  0  0  0  0
   39.7900   11.2620   56.0110 C   0  0  0  0  0
   39.5720   10.0680   56.7230 C   0  0  0  0  0
   40.1890    8.9300   56.3630 N   0  0  0  0  0
   41.0020    8.2540   57.2030 C   0  0  0  0  0
   41.2940    8.7300   58.4190 N   0  0  0  0  0
   41.5440    7.1060   56.8080 N   0  0  0  0  0
   39.3064   14.0978   65.5617 H   0  0  0  0  0
   41.0362   13.8934   67.3480 H   0  0  0  0  0
   40.3417   13.6059   69.7284 H   0  0  0  0  0
   37.9192   13.5221   70.3185 H   0  0  0  0  0
   36.1882   13.7264   68.5334 H   0  0  0  0  0
   36.2290   15.0311   66.0875 H   0  0  0  0  0
   36.0403   13.1580   66.0474 H   0  0  0  0  0
   37.3547   14.2728   62.1234 H   0  0  0  0  0
   34.4099   14.6976   61.6549 H   0  0  0  0  0
   35.0518   15.5574   59.5265 H   0  0  0  0  0
   36.7487   14.9636   59.7408 H   0  0  0  0  0
   36.6186   17.3782   60.0552 H   0  0  0  0  0
   37.0203   16.5389   61.6116 H   0  0  0  0  0
   34.6448   16.7467   62.2695 H   0  0  0  0  0
   34.3472   17.7024   60.7740 H   0  0  0  0  0
   36.3088   18.4370   62.9739 H   0  0  0  0  0
   34.6583   19.1422   62.7580 H   0  0  0  0  0
   36.9619   19.3282   60.7789 H   0  0  0  0  0
   35.3361   20.0229   60.5662 H   0  0  0  0  0
   36.4040   20.6339   61.8536 H   0  0  0  0  0
   35.8543   11.8304   62.2513 H   0  0  0  0  0
   36.1102   10.6671   59.0353 H   0  0  0  0  0
   38.3818   11.9039   61.1146 H   0  0  0  0  0
   38.5107    9.1337   58.3569 H   0  0  0  0  0
   37.6993   13.3319   57.7776 H   0  0  0  0  0
   39.2796   13.3647   55.8412 H   0  0  0  0  0
   40.4801   11.2771   55.1674 H   0  0  0  0  0
   40.0381    8.5641   55.4229 H   0  0  0  0  0
   41.9257    8.2132   59.0308 H   0  0  0  0  0
   40.8849    9.6096   58.7341 H   0  0  0  0  0
   41.3447    6.7418   55.8763 H   0  0  0  0  0
  1  2  4  0  0  0
  1  6  4  0  0  0
  2  3  4  0  0  0
  3  4  4  0  0  0
  4  5  4  0  0  0
  5  6  4  0  0  0
  6  7  1  0  0  0
  7  8  1  0  0  0
  8  9  1  0  0  0
  9 10  2  0  0  0
  9 11  1  0  0  0
 11 12  1  0  0  0
 12 13  1  0  0  0
 12 18  1  0  0  0
 13 14  1  0  0  0
 14 15  1  0  0  0
 15 16  1  0  0  0
 16 17  1  0  0  0
 18 19  2  0  0  0
 18 20  1  0  0  0
 18 21  1  0  0  0
 21 22  1  0  0  0
 22 23  1  0  0  0
 22 26  1  0  0  0
 23 24  2  0  0  0
 23 25  1  0  0  0
 26 27  4  0  0  0
 26 28  4  0  0  0
 27 31  4  0  0  0
 28 29  4  0  0  0
 29 30  4  0  0  0
 30 31  4  0  0  0
 31 32  1  0  0  0
 32 33  1  0  0  0
 33 34  1  0  0  0
 33 35  2  0  0  0
  1 36  1  0  0  0
  2 37  1  0  0  0
  3 38  1  0  0  0
  4 39  1  0  0  0
  5 40  1  0  0  0
  7 41  1  0  0  0
  7 42  1  0  0  0
 11 43  1  0  0  0
 12 44  1  0  0  0
 13 45  1  0  0  0
 13 46  1  0  0  0
 14 47  1  0  0  0
 14 48  1  0  0  0
 15 49  1  0  0  0
 15 50  1  0  0  0
 16 51  1  0  0  0
 16 52  1  0  0  0
 17 53  1  0  0  0
 17 54  1  0  0  0
 17 55  1  0  0  0
 20 56  1  0  0  0
 22 57  1  0  0  0
 25 58  1  0  0  0
 27 59  1  0  0  0
 28 60  1  0  0  0
 29 61  1  0  0  0
 30 62  1  0  0  0
 32 63  1  0  0  0
 34 64  1  0  0  0
 34 65  1  0  0  0
 35 66  1  0  0  0
M  END
$$$$
