### 
### Created by X-TOOL on Mon Sep 10 21:12:57 2018
### 

@<TRIPOS>MOLECULE
2pj5_ligand
   65    66     1     0     0
SMALL
GAST_HUCK


@<TRIPOS>ATOM
      1 C39        39.0030   13.9720   66.6010 C.ar      1 11B        -0.0578
      2 C40        39.9780   13.8570   67.6070 C.ar      1 11B        -0.0685
      3 C41        39.5870   13.6950   68.9470 C.ar      1 11B        -0.0687
      4 C42        38.2220   13.6480   69.2790 C.ar      1 11B        -0.0685
      5 C43        37.2460   13.7630   68.2730 C.ar      1 11B        -0.0578
      6 C38        37.6340   13.9250   66.9330 C.ar      1 11B        -0.0130
      7 C35        36.6650   14.0440   65.9340 C.3       1 11B         0.1113
      8 O34        37.0690   14.0330   64.5460 O.3       1 11B        -0.2506
      9 C32        36.0370   14.2140   63.6620 C.2       1 11B         0.3231
     10 O33        34.8720   14.3090   64.0730 O.2       1 11B        -0.3774
     11 N31        36.3650   14.2810   62.3700 N.am      1 11B        -0.2415
     12 C25        35.3790   14.3660   61.2820 C.3       1 11B         0.1330
     13 C26        35.8670   15.3800   60.2280 C.3       1 11B        -0.0113
     14 C27        36.2600   16.7290   60.8540 C.3       1 11B        -0.0494
     15 C28        35.0760   17.4290   61.5370 C.3       1 11B        -0.0532
     16 C29        35.5270   18.7070   62.2640 C.3       1 11B        -0.0559
     17 C30        36.0990   19.7490   61.2950 C.3       1 11B        -0.0653
     18 P24        35.2350   12.6980   60.5390 P.3       1 11B         0.1518
     19 O36        34.1810   12.7180   59.5050 O.co2     1 11B        -0.6186
     20 O37        35.1050   11.7340   61.6590 O.co2     1 11B        -0.6186
     21 O23        36.6630   12.4820   59.8220 O.3       1 11B        -0.2435
     22 C1         37.0150   11.1670   59.3810 C.3       1 11B         0.2349
     23 C2         37.6150   10.3610   60.5500 C.2       1 11B         0.3908
     24 O14        37.3390    9.1420   60.5920 O.co2     1 11B        -0.2562
     25 O13        38.3260   10.9810   61.3730 O.co2     1 11B        -0.2562
     26 C3         38.0050   11.2240   58.1950 C.ar      1 11B         0.0004
     27 C8         38.6800   10.0600   57.8080 C.ar      1 11B        -0.0331
     28 C4         38.2210   12.4210   57.4840 C.ar      1 11B        -0.0664
     29 C5         39.1130   12.4390   56.3920 C.ar      1 11B        -0.0769
     30 C6         39.7900   11.2620   56.0110 C.ar      1 11B        -0.0455
     31 C7         39.5720   10.0680   56.7230 C.ar      1 11B         0.0445
     32 N9         40.1890    8.9300   56.3630 N.pl3     1 11B        -0.3025
     33 C10        41.0020    8.2540   57.2030 C.cat     1 11B         0.1283
     34 N12        41.2940    8.7300   58.4190 N.pl3     1 11B        -0.3577
     35 N11        41.5440    7.1060   56.8080 N.pl3     1 11B        -0.3577
     36 H1         39.3047   14.0971   65.5674 H         1 11B         0.0557
     37 H2         41.0303   13.8932   67.3494 H         1 11B         0.0599
     38 H3         40.3376   13.6063   69.7241 H         1 11B         0.0559
     39 H4         37.9209   13.5228   70.3128 H         1 11B         0.0599
     40 H5         36.1940   13.7266   68.5319 H         1 11B         0.0557
     41 H6         36.1418   14.9959   66.1074 H         1 11B         0.0776
     42 H7         35.9617   13.2091   66.0692 H         1 11B         0.0776
     43 H8         37.3353   14.2730   62.1282 H         1 11B         0.1887
     44 H9         34.4041   14.6861   61.6782 H         1 11B         0.0785
     45 H10        35.0600   15.5496   59.5000 H         1 11B         0.0304
     46 H11        36.7436   14.9604   59.7127 H         1 11B         0.0304
     47 H12        36.6482   17.3857   60.0615 H         1 11B         0.0267
     48 H13        37.0461   16.5543   61.6033 H         1 11B         0.0267
     49 H14        34.6258   16.7410   62.2677 H         1 11B         0.0265
     50 H15        34.3287   17.6950   60.7749 H         1 11B         0.0265
     51 H16        36.3017   18.4428   62.9988 H         1 11B         0.0263
     52 H17        34.6617   19.1435   62.7843 H         1 11B         0.0263
     53 H18        36.4072   20.6426   61.8576 H         1 11B         0.0230
     54 H19        35.3300   20.0263   60.5590 H         1 11B         0.0230
     55 H20        36.9700   19.3256   60.7735 H         1 11B         0.0230
     56 H21        36.1002   10.6592   59.0415 H         1 11B         0.1046
     57 H22        38.5117    9.1388   58.3539 H         1 11B         0.0482
     58 H23        37.7022   13.3269   57.7760 H         1 11B         0.0471
     59 H24        39.2787   13.3596   55.8442 H         1 11B         0.0573
     60 H25        40.4763   11.2770   55.1721 H         1 11B         0.0487
     61 H26        40.0366    8.5605   55.4137 H         1 11B         0.1952
     62 H27        41.9164    8.1985   59.0443 H         1 11B         0.1636
     63 H28        40.8964    9.6279   58.7297 H         1 11B         0.1636
     64 H29        41.3275    6.7286   55.8744 H         1 11B         0.1636
     65 H30        42.1804    6.5941   57.4356 H         1 11B         0.1636
@<TRIPOS>BOND
     1    1    2 ar 
     2    1    6 ar 
     3    2    3 ar 
     4    3    4 ar 
     5    4    5 ar 
     6    5    6 ar 
     7    6    7 1  
     8    7    8 1  
     9    8    9 1  
    10    9   10 2  
    11    9   11 am 
    12   11   12 1  
    13   12   13 1  
    14   12   18 1  
    15   13   14 1  
    16   14   15 1  
    17   15   16 1  
    18   16   17 1  
    19   18   19 ar 
    20   18   20 ar 
    21   18   21 1  
    22   21   22 1  
    23   22   23 1  
    24   22   26 1  
    25   23   24 ar 
    26   23   25 ar 
    27   26   27 ar 
    28   26   28 ar 
    29   27   31 ar 
    30   28   29 ar 
    31   29   30 ar 
    32   30   31 ar 
    33   31   32 1  
    34   32   33 ar 
    35   33   34 ar 
    36   33   35 ar 
    37    1   36 1  
    38    2   37 1  
    39    3   38 1  
    40    4   39 1  
    41    5   40 1  
    42    7   41 1  
    43    7   42 1  
    44   11   43 1  
    45   12   44 1  
    46   13   45 1  
    47   13   46 1  
    48   14   47 1  
    49   14   48 1  
    50   15   49 1  
    51   15   50 1  
    52   16   51 1  
    53   16   52 1  
    54   17   53 1  
    55   17   54 1  
    56   17   55 1  
    57   22   56 1  
    58   27   57 1  
    59   28   58 1  
    60   29   59 1  
    61   30   60 1  
    62   32   61 1  
    63   34   62 1  
    64   34   63 1  
    65   35   64 1  
    66   35   65 1  
@<TRIPOS>SUBSTRUCTURE
     1 11B         1

