1zrz_ligand
  -I-interpret- 

 55 59  0  0  0  0  0  0  0  0999 V2000
  -11.2450   24.7870   23.0670 C   0  0  0  0  0
  -10.9000   23.6670   22.2090 N   0  3  0  0  0
  -10.9470   22.3110   22.7580 C   0  0  0  0  0
  -10.5320   24.0460   20.8220 C   0  0  0  0  0
  -10.1970   22.8530   19.9290 C   0  0  0  0  0
   -8.8690   23.1630   19.2510 C   0  0  0  0  0
   -8.5150   22.0610   18.3450 N   0  0  0  0  0
   -8.0690   20.8400   18.7800 C   0  0  0  0  0
   -8.5850   22.0960   16.9930 C   0  0  0  0  0
   -8.9720   23.1040   16.0530 C   0  0  0  0  0
   -8.9440   22.8450   14.6690 C   0  0  0  0  0
   -8.5300   21.5660   14.1790 C   0  0  0  0  0
   -8.1390   20.5410   15.0950 C   0  0  0  0  0
   -8.1700   20.8210   16.5000 C   0  0  0  0  0
   -7.8580   20.0740   17.6410 C   0  0  0  0  0
   -7.3510   18.6300   17.7670 C   0  0  0  0  0
   -6.2980   18.0070   16.9250 C   0  0  0  0  0
   -5.6880   18.6160   15.9810 O   0  0  0  0  0
   -6.0130   16.7280   17.2250 N   0  0  0  0  0
   -6.8050   16.4080   18.2330 C   0  0  0  0  0
   -6.7460   15.2420   18.7350 O   0  0  0  0  0
   -7.7110   17.5110   18.6850 C   0  0  0  0  0
   -8.7160   17.4240   19.8290 C   0  0  0  0  0
  -10.0040   18.0400   19.9650 C   0  0  0  0  0
  -10.8120   18.9050   19.1480 C   0  0  0  0  0
  -12.0730   19.3400   19.6200 C   0  0  0  0  0
  -12.5100   18.9080   20.8960 C   0  0  0  0  0
  -11.7210   18.0440   21.7220 C   0  0  0  0  0
  -10.4360   17.6020   21.2400 C   0  0  0  0  0
   -9.4660   16.7930   21.7840 N   0  0  0  0  0
   -8.4020   16.6600   20.9590 C   0  0  0  0  0
  -10.3941   25.4646   23.1376 H   0  0  0  0  0
  -12.0989   25.3168   22.6449 H   0  0  0  0  0
  -11.5000   24.4172   24.0601 H   0  0  0  0  0
  -10.6933   22.7137   21.9108 H   0  0  0  0  0
  -11.6653   21.7165   22.1934 H   0  0  0  0  0
   -9.9592   21.8561   22.6842 H   0  0  0  0  0
  -11.2514   22.3541   23.8038 H   0  0  0  0  0
   -9.6406   24.6706   20.8800 H   0  0  0  0  0
  -11.3922   24.5511   20.3826 H   0  0  0  0  0
  -10.9804   22.6941   19.1880 H   0  0  0  0  0
  -10.1250   21.9387   20.5180 H   0  0  0  0  0
   -8.0920   23.2768   20.0069 H   0  0  0  0  0
   -8.9580   24.0882   18.6817 H   0  0  0  0  0
   -7.9114   20.5318   19.8136 H   0  0  0  0  0
   -9.2917   24.0822   16.4122 H   0  0  0  0  0
   -9.2397   23.6241   13.9664 H   0  0  0  0  0
   -8.5128   21.3733   13.1063 H   0  0  0  0  0
   -7.8227   19.5634   14.7312 H   0  0  0  0  0
   -5.3263   16.1278   16.7682 H   0  0  0  0  0
  -10.4544   19.2242   18.1691 H   0  0  0  0  0
  -12.6968   19.9957   19.0125 H   0  0  0  0  0
  -13.4800   19.2446   21.2620 H   0  0  0  0  0
  -12.0858   17.7259   22.6986 H   0  0  0  0  0
   -7.4950   16.0820   21.1362 H   0  0  0  0  0
  1  2  1  0  0  0
  2  3  1  0  0  0
  2  4  1  0  0  0
  4  5  1  0  0  0
  5  6  1  0  0  0
  6  7  1  0  0  0
  7  8  4  0  0  0
  7  9  4  0  0  0
  8 15  4  0  0  0
  9 10  4  0  0  0
  9 14  4  0  0  0
 10 11  4  0  0  0
 11 12  4  0  0  0
 12 13  4  0  0  0
 13 14  4  0  0  0
 14 15  4  0  0  0
 15 16  1  0  0  0
 16 17  1  0  0  0
 16 22  2  0  0  0
 17 18  2  0  0  0
 17 19  1  0  0  0
 19 20  1  0  0  0
 20 21  2  0  0  0
 20 22  1  0  0  0
 22 23  1  0  0  0
 23 24  4  0  0  0
 23 31  4  0  0  0
 24 25  4  0  0  0
 24 29  4  0  0  0
 25 26  4  0  0  0
 26 27  4  0  0  0
 27 28  4  0  0  0
 28 29  4  0  0  0
 29 30  4  0  0  0
 30 31  4  0  0  0
  1 32  1  0  0  0
  1 33  1  0  0  0
  1 34  1  0  0  0
  2 35  1  0  0  0
  3 36  1  0  0  0
  3 37  1  0  0  0
  3 38  1  0  0  0
  4 39  1  0  0  0
  4 40  1  0  0  0
  5 41  1  0  0  0
  5 42  1  0  0  0
  6 43  1  0  0  0
  6 44  1  0  0  0
  8 45  1  0  0  0
 10 46  1  0  0  0
 11 47  1  0  0  0
 12 48  1  0  0  0
 13 49  1  0  0  0
 19 50  1  0  0  0
 25 51  1  0  0  0
 26 52  1  0  0  0
 27 53  1  0  0  0
 28 54  1  0  0  0
 31 55  1  0  0  0
M  END
$$$$
