6t1n_ligand
  -I-interpret- 

 47 50  0  0  0  0  0  0  0  0999 V2000
    4.0340   15.8150   13.7920 C   0  0  0  0  0
    2.7900   15.8190   14.4060 C   0  0  0  0  0
   -6.6260   12.9750   19.3900 N   0  3  0  0  0
    1.7800   14.9520   13.9850 C   0  0  0  0  0
    2.0510   14.0660   12.9440 C   0  0  0  0  0
    3.2900   14.0580   12.3230 C   0  0  0  0  0
    0.4030   15.0260   14.5750 C   0  0  0  0  0
   -0.7880   15.2480   16.7740 C   0  0  0  0  0
   -0.5950   15.6660   18.1030 C   0  0  0  0  0
   -1.6300   15.5870   19.0260 C   0  0  0  0  0
   -2.8600   15.1010   18.6060 C   0  0  0  0  0
   -4.9510   14.4490   18.3530 C   0  0  0  0  0
   -6.3960   14.2380   18.6770 C   0  0  0  0  0
   -6.2690   13.1010   20.8170 C   0  0  0  0  0
   -6.4730   11.7900   21.5760 C   0  0  0  0  0
   -7.8970   11.2890   21.4310 C   0  0  0  0  0
   -8.3020   11.2430   19.9680 C   0  0  0  0  0
   -8.0400   12.5750   19.2870 C   0  0  0  0  0
   -3.0790   14.6910   17.2970 C   0  0  0  0  0
   -2.0380   14.7630   16.3630 C   0  0  0  0  0
   -0.5920   14.9110   13.8630 O   0  0  0  0  0
    4.2680   14.9420   12.7540 C   0  0  0  0  0
    5.8330   14.9470   11.9610 Cl  0  0  0  0  0
    0.3480   15.2740   15.9150 N   0  0  0  0  0
   -4.4120   14.2740   17.1580 N   0  0  0  0  0
   -4.0720   14.9360   19.2590 N   0  0  0  0  0
    4.8168   16.4952   14.1276 H   0  0  0  0  0
    2.5985   16.5084   15.2283 H   0  0  0  0  0
   -6.0348   12.2654   18.9571 H   0  0  0  0  0
    1.2790   13.3708   12.6141 H   0  0  0  0  0
    3.4933   13.3656   11.5061 H   0  0  0  0  0
    0.3753   16.0553   18.4114 H   0  0  0  0  0
   -1.4791   15.9003   20.0590 H   0  0  0  0  0
   -6.7220   15.0550   19.3207 H   0  0  0  0  0
   -6.9522   14.2047   17.7402 H   0  0  0  0  0
   -6.9137   13.8577   21.2642 H   0  0  0  0  0
   -5.2153   13.3722   20.8821 H   0  0  0  0  0
   -6.2713   11.9645   22.6329 H   0  0  0  0  0
   -5.7967   11.0407   21.1646 H   0  0  0  0  0
   -8.5655   11.9675   21.9610 H   0  0  0  0  0
   -7.9614   10.2835   21.8468 H   0  0  0  0  0
   -9.3680   11.0237   19.9076 H   0  0  0  0  0
   -7.7147   10.4733   19.4672 H   0  0  0  0  0
   -8.2910   12.4745   18.2311 H   0  0  0  0  0
   -8.6472   13.3355   19.7780 H   0  0  0  0  0
   -2.1969   14.4468   15.3320 H   0  0  0  0  0
    1.2355   15.5085   16.3598 H   0  0  0  0  0
  2  1  4  0  0  0
  1 22  4  0  0  0
  4  2  4  0  0  0
 13  3  1  0  0  0
  3 14  1  0  0  0
  3 18  1  0  0  0
  4  5  4  0  0  0
  7  4  1  0  0  0
  5  6  4  0  0  0
  6 22  4  0  0  0
  7 21  2  0  0  0
 24  7  1  0  0  0
  9  8  4  0  0  0
  8 20  4  0  0  0
  8 24  1  0  0  0
 10  9  4  0  0  0
 11 10  4  0  0  0
 11 19  4  0  0  0
 26 11  4  0  0  0
 12 13  1  0  0  0
 12 25  4  0  0  0
 12 26  4  0  0  0
 14 15  1  0  0  0
 15 16  1  0  0  0
 16 17  1  0  0  0
 17 18  1  0  0  0
 19 20  4  0  0  0
 19 25  4  0  0  0
 22 23  1  0  0  0
  1 27  1  0  0  0
  2 28  1  0  0  0
  3 29  1  0  0  0
  5 30  1  0  0  0
  6 31  1  0  0  0
  9 32  1  0  0  0
 10 33  1  0  0  0
 13 34  1  0  0  0
 13 35  1  0  0  0
 14 36  1  0  0  0
 14 37  1  0  0  0
 15 38  1  0  0  0
 15 39  1  0  0  0
 16 40  1  0  0  0
 16 41  1  0  0  0
 17 42  1  0  0  0
 17 43  1  0  0  0
 18 44  1  0  0  0
 18 45  1  0  0  0
 20 46  1  0  0  0
 24 47  1  0  0  0
M  END
$$$$
