6cyg_ligand
  -I-interpret- 

 39 41  0  0  0  0  0  0  0  0999 V2000
   -6.3390  124.9580   47.4540 O   0  0  0  0  0
   -5.1840  124.4800   46.7580 C   0  0  0  0  0
   -4.5210  123.4350   47.6020 C   0  0  0  0  0
   -3.9180  124.0800   48.8040 N   0  0  0  0  0
   -2.5590  124.4970   48.7360 C   0  0  0  0  0
   -1.9330  124.3150   47.7320 O   0  0  0  0  0
   -1.9200  125.0960   49.9030 C   0  0  0  0  0
   -1.0870  124.0470   50.6010 O   0  0  0  0  0
   -0.8960  126.2560   49.5960 C   0  0  0  0  0
   -1.6080  127.6050   49.5560 O   0  0  0  0  0
   -0.0920  126.1850   50.5280 C   0  0  0  0  0
   -0.5850  126.9020   51.7410 O   0  0  0  0  0
    0.0350  124.5870   50.8840 C   0  0  0  0  0
    1.1070  124.0350   50.1120 N   0  0  0  0  0
    1.0320  123.5250   48.8500 C   0  0  0  0  0
    2.2660  123.1380   48.4780 N   0  0  0  0  0
    3.1380  123.4080   49.5120 C   0  0  0  0  0
    2.4060  123.9760   50.5390 C   0  0  0  0  0
    3.0340  124.3440   51.7120 N   0  0  0  0  0
    4.3460  124.1470   51.8680 C   0  0  0  0  0
    5.0790  123.5890   50.8600 N   0  0  0  0  0
    4.5120  123.2060   49.7000 C   0  0  0  0  0
    5.3290  122.6620   48.6890 N   0  0  0  0  0
   -6.7752  125.6295   46.9245 H   0  0  0  0  0
   -4.4934  125.3028   46.5729 H   0  0  0  0  0
   -5.4770  124.0534   45.7987 H   0  0  0  0  0
   -3.7405  122.9406   47.0236 H   0  0  0  0  0
   -5.2597  122.6976   47.9161 H   0  0  0  0  0
   -4.4657  124.2187   49.6532 H   0  0  0  0  0
   -2.7506  125.4986   50.4827 H   0  0  0  0  0
   -0.4092  126.1603   48.6255 H   0  0  0  0  0
   -0.9697  128.2970   49.3683 H   0  0  0  0  0
    0.8558  126.6408   50.2417 H   0  0  0  0  0
    0.0652  126.8251   52.4431 H   0  0  0  0  0
    0.2581  124.4097   51.9361 H   0  0  0  0  0
    0.1281  123.4445   48.2462 H   0  0  0  0  0
    4.8321  124.4320   52.8011 H   0  0  0  0  0
    4.9233  122.4031   47.7897 H   0  0  0  0  0
    6.3261  122.5271   48.8565 H   0  0  0  0  0
  1  2  1  0  0  0
  2  3  1  0  0  0
  3  4  1  0  0  0
  4  5  1  0  0  0
  5  6  2  0  0  0
  5  7  1  0  0  0
  7  8  1  0  0  0
  7  9  1  0  0  0
  8 13  1  0  0  0
  9 10  1  0  0  0
  9 11  1  0  0  0
 11 12  1  0  0  0
 11 13  1  0  0  0
 13 14  1  0  0  0
 14 15  4  0  0  0
 14 18  4  0  0  0
 15 16  4  0  0  0
 16 17  4  0  0  0
 17 18  4  0  0  0
 17 22  4  0  0  0
 18 19  4  0  0  0
 19 20  4  0  0  0
 20 21  4  0  0  0
 21 22  4  0  0  0
 22 23  1  0  0  0
  1 24  1  0  0  0
  2 25  1  0  0  0
  2 26  1  0  0  0
  3 27  1  0  0  0
  3 28  1  0  0  0
  4 29  1  0  0  0
  7 30  1  0  0  0
  9 31  1  0  0  0
 10 32  1  0  0  0
 11 33  1  0  0  0
 12 34  1  0  0  0
 13 35  1  0  0  0
 15 36  1  0  0  0
 20 37  1  0  0  0
 23 38  1  0  0  0
 23 39  1  0  0  0
M  END
$$$$
