1b5h_ligand
  -I-interpret- 

 61 60  0  0  0  0  0  0  0  0999 V2000
    6.8510   16.4590   15.1270 N   0  3  0  0  0
    6.3990   17.7750   14.5860 C   0  0  0  0  0
    5.1800   18.3030   15.3350 C   0  0  0  0  0
    4.3960   17.5280   15.8720 O   0  0  0  0  0
    6.1500   17.7010   13.0690 C   0  0  0  0  0
    5.1600   16.6480   12.6150 C   0  0  0  0  0
    5.0520   16.5520   11.0840 C   0  0  0  0  0
    6.3270   15.9790   10.4570 C   0  0  0  0  0
    6.5300   14.5420   10.8510 N   0  3  0  0  0
    5.0290   19.6060   15.4070 N   0  0  0  0  0
    3.9730   20.2810   16.1400 C   0  0  0  0  0
    2.6380   20.2790   15.4270 C   0  0  0  0  0
    2.6220   20.5680   14.2230 O   0  0  0  0  0
    4.3340   21.7650   16.3790 C   0  0  0  0  0
    5.2700   21.7450   17.5120 N   0  3  0  0  0
    1.5580   19.9130   16.1280 N   0  0  0  0  0
    0.2770   19.8620   15.4450 C   0  0  0  0  0
   -0.8060   20.6720   16.1850 C   0  0  0  0  0
   -1.7740   21.0270   15.4930 O   0  0  0  0  0
   -0.2610   18.4320   15.2570 C   0  0  0  0  0
   -1.3260   18.4390   14.1370 C   0  0  0  0  0
   -1.8600   17.1080   13.7590 C   0  0  0  0  0
   -2.9320   17.0490   12.6730 C   0  0  0  0  0
   -3.6490   18.3570   12.6010 N   0  3  0  0  0
   -0.6430   20.9740   17.3660 O   0  0  0  0  0
    7.0069   16.5412   16.1317 H   0  0  0  0  0
    6.1342   15.7554   14.9494 H   0  0  0  0  0
    7.7196   16.1844   14.6683 H   0  0  0  0  0
    7.2058   18.4899   14.7479 H   0  0  0  0  0
    7.1054   17.4431   12.6121 H   0  0  0  0  0
    5.7305   18.6641   12.7782 H   0  0  0  0  0
    4.1790   16.9233   13.0022 H   0  0  0  0  0
    5.5053   15.6831   12.9864 H   0  0  0  0  0
    4.8976   17.5559   10.6884 H   0  0  0  0  0
    4.2228   15.8878   10.8406 H   0  0  0  0  0
    7.1791   16.5598   10.8101 H   0  0  0  0  0
    6.2349   16.0321    9.3722 H   0  0  0  0  0
    7.3843   14.1898   10.4192 H   0  0  0  0  0
    6.6087   14.4768   11.8659 H   0  0  0  0  0
    5.7342   13.9882   10.5342 H   0  0  0  0  0
    5.7044   20.1872   14.9106 H   0  0  0  0  0
    3.8837   19.7213   17.0711 H   0  0  0  0  0
    3.4516   22.3684   16.5918 H   0  0  0  0  0
    4.7768   22.2228   15.4944 H   0  0  0  0  0
    5.5566   22.6990   17.7315 H   0  0  0  0  0
    4.8109   21.3314   18.3235 H   0  0  0  0  0
    6.0898   21.1908   17.2645 H   0  0  0  0  0
    1.6327   19.6758   17.1172 H   0  0  0  0  0
    0.4781   20.2975   14.4662 H   0  0  0  0  0
   -1.6809   20.6692   14.6071 H   0  0  0  0  0
   -0.7080   18.0819   16.1874 H   0  0  0  0  0
    0.5562   17.7646   14.9833 H   0  0  0  0  0
   -0.8409   18.8436   13.2487 H   0  0  0  0  0
   -2.1697   19.0176   14.5132 H   0  0  0  0  0
   -2.3381   16.7215   14.6591 H   0  0  0  0  0
   -1.0092   16.5584   13.3562 H   0  0  0  0  0
   -3.6445   16.2593   12.9115 H   0  0  0  0  0
   -2.4613   16.8419   11.7119 H   0  0  0  0  0
   -4.3635   18.3122   11.8745 H   0  0  0  0  0
   -4.0887   18.5523   13.5004 H   0  0  0  0  0
   -2.9828   19.0968   12.3791 H   0  0  0  0  0
  3  2  1  0  0  0
  2  5  1  0  0  0
  2  1  1  0  0  0
  5  6  1  0  0  0
  6  7  1  0  0  0
  7  8  1  0  0  0
  8  9  1  0  0  0
  3  4  2  0  0  0
 11 10  1  0  0  0
 11 14  1  0  0  0
 12 11  1  0  0  0
 12 13  2  0  0  0
 14 15  1  0  0  0
 17 18  1  0  0  0
 17 20  1  0  0  0
 16 17  1  0  0  0
 20 21  1  0  0  0
 21 22  1  0  0  0
 22 23  1  0  0  0
 23 24  1  0  0  0
 18 25  2  0  0  0
 18 19  1  0  0  0
 10  3  1  0  0  0
 12 16  1  0  0  0
  1 26  1  0  0  0
  1 27  1  0  0  0
  1 28  1  0  0  0
  2 29  1  0  0  0
  5 30  1  0  0  0
  5 31  1  0  0  0
  6 32  1  0  0  0
  6 33  1  0  0  0
  7 34  1  0  0  0
  7 35  1  0  0  0
  8 36  1  0  0  0
  8 37  1  0  0  0
  9 38  1  0  0  0
  9 39  1  0  0  0
  9 40  1  0  0  0
 10 41  1  0  0  0
 11 42  1  0  0  0
 14 43  1  0  0  0
 14 44  1  0  0  0
 15 45  1  0  0  0
 15 46  1  0  0  0
 15 47  1  0  0  0
 16 48  1  0  0  0
 17 49  1  0  0  0
 19 50  1  0  0  0
 20 51  1  0  0  0
 20 52  1  0  0  0
 21 53  1  0  0  0
 21 54  1  0  0  0
 22 55  1  0  0  0
 22 56  1  0  0  0
 23 57  1  0  0  0
 23 58  1  0  0  0
 24 59  1  0  0  0
 24 60  1  0  0  0
 24 61  1  0  0  0
M  END
$$$$
