6q3z_ligand
  -I-interpret- 

 77 81  0  0  0  0  0  0  0  0999 V2000
   17.6130  -13.5400   16.4450 O   0  0  0  0  0
   18.2670  -14.3060   17.1320 C   0  0  0  0  0
   19.6370  -14.3770   17.0450 N   0  0  0  0  0
   20.3250  -13.5060   16.0910 C   0  0  0  0  0
   17.5750  -15.3100   18.0330 C   0  0  0  0  0
   16.7650  -16.3010   17.1890 C   0  0  0  0  0
   17.6170  -17.0410   16.1880 C   0  0  0  0  0
   18.4550  -16.0230   18.9580 N   0  0  0  0  0
   17.8570  -16.6250   20.1400 C   0  0  0  0  0
   17.8760  -15.7240   21.3360 C   0  0  0  0  0
   16.4570  -15.3920   22.1850 S   0  0  0  0  0
   17.2540  -14.3480   23.2860 C   0  0  0  0  0
   18.5320  -14.2700   23.0480 C   0  0  0  0  0
   19.4730  -13.5130   23.9240 C   0  0  0  0  0
   18.9330  -15.0730   21.8770 C   0  0  0  0  0
   19.7780  -16.0820   18.7990 C   0  0  0  0  0
   20.3850  -15.3280   17.7790 C   0  0  0  0  0
   20.4500  -16.8920   19.6220 N   0  0  0  0  0
   21.7490  -16.9970   19.4040 C   0  0  0  0  0
   22.4370  -16.4140   18.4150 N   0  0  0  0  0
   21.7330  -15.5910   17.6190 C   0  0  0  0  0
   22.4320  -17.7410   20.3310 N   0  0  0  0  0
   23.7910  -17.9070   20.5810 C   0  0  0  0  0
   24.7530  -17.0460   20.0710 C   0  0  0  0  0
   26.0880  -17.2740   20.3210 C   0  0  0  0  0
   26.5030  -18.3590   21.0810 C   0  0  0  0  0
   25.5510  -19.2490   21.5640 C   0  0  0  0  0
   24.2050  -19.0250   21.3200 C   0  0  0  0  0
   23.1900  -19.8510   21.7260 O   0  0  0  0  0
   23.4770  -20.8590   22.7010 C   0  0  0  0  0
   22.2620  -21.6130   22.9330 C   0  0  0  0  0
   27.9670  -18.5300   21.4210 C   0  0  0  0  0
   28.6200  -17.2090   21.8480 C   0  0  0  0  0
   30.1240  -17.3680   22.0640 C   0  0  0  0  0
   30.7700  -17.9070   20.8730 N   0  3  0  0  0
   32.2400  -17.9660   21.0460 C   0  0  0  0  0
   30.2260  -19.2270   20.5960 C   0  0  0  0  0
   28.7480  -19.1460   20.2650 C   0  0  0  0  0
   21.0746  -12.9142   16.6164 H   0  0  0  0  0
   20.8104  -14.1157   15.3289 H   0  0  0  0  0
   19.6007  -12.8417   15.6197 H   0  0  0  0  0
   16.9150  -14.7224   18.6711 H   0  0  0  0  0
   16.0132  -15.7363   16.6376 H   0  0  0  0  0
   16.3253  -17.0355   17.8637 H   0  0  0  0  0
   18.0832  -16.3257   15.5104 H   0  0  0  0  0
   18.3896  -17.6015   16.7143 H   0  0  0  0  0
   16.9917  -17.7286   15.6185 H   0  0  0  0  0
   18.4376  -17.5138   20.3872 H   0  0  0  0  0
   16.8146  -16.8430   19.9077 H   0  0  0  0  0
   16.7505  -13.8123   24.0907 H   0  0  0  0  0
   19.1747  -12.4651   23.9555 H   0  0  0  0  0
   19.4457  -13.9303   24.9306 H   0  0  0  0  0
   20.4837  -13.5925   23.5236 H   0  0  0  0  0
   19.9521  -15.1345   21.4953 H   0  0  0  0  0
   22.2563  -15.1013   16.7977 H   0  0  0  0  0
   21.8291  -18.2748   20.9570 H   0  0  0  0  0
   24.4511  -16.1874   19.4712 H   0  0  0  0  0
   26.8327  -16.5897   19.9145 H   0  0  0  0  0
   25.8630  -20.1235   22.1349 H   0  0  0  0  0
   23.8195  -20.4003   23.6286 H   0  0  0  0  0
   24.2673  -21.5179   22.3413 H   0  0  0  0  0
   21.4845  -20.9429   23.2999 H   0  0  0  0  0
   21.9369  -22.0721   21.9994 H   0  0  0  0  0
   22.4536  -22.3894   23.6737 H   0  0  0  0  0
   28.0032  -19.2154   22.2678 H   0  0  0  0  0
   28.1692  -16.8904   22.7879 H   0  0  0  0  0
   28.4616  -16.4756   21.0573 H   0  0  0  0  0
   30.2869  -18.0577   22.8922 H   0  0  0  0  0
   30.5512  -16.3888   22.2802 H   0  0  0  0  0
   30.5833  -17.2914   20.0814 H   0  0  0  0  0
   32.6237  -16.9622   21.2281 H   0  0  0  0  0
   32.4793  -18.6073   21.8943 H   0  0  0  0  0
   32.6949  -18.3718   20.1424 H   0  0  0  0  0
   30.3530  -19.8507   21.4808 H   0  0  0  0  0
   30.7535  -19.6508   19.7414 H   0  0  0  0  0
   28.6195  -18.5208   19.3814 H   0  0  0  0  0
   28.3726  -20.1533   20.0845 H   0  0  0  0  0
  1  2  2  0  0  0
  2  3  1  0  0  0
  2  5  1  0  0  0
  3  4  1  0  0  0
  3 17  1  0  0  0
  5  6  1  0  0  0
  5  8  1  0  0  0
  6  7  1  0  0  0
  8  9  1  0  0  0
  8 16  1  0  0  0
  9 10  1  0  0  0
 10 11  4  0  0  0
 10 15  4  0  0  0
 11 12  4  0  0  0
 12 13  4  0  0  0
 13 14  1  0  0  0
 13 15  4  0  0  0
 16 17  4  0  0  0
 16 18  4  0  0  0
 17 21  4  0  0  0
 18 19  4  0  0  0
 19 20  4  0  0  0
 19 22  1  0  0  0
 20 21  4  0  0  0
 22 23  1  0  0  0
 23 24  4  0  0  0
 23 28  4  0  0  0
 24 25  4  0  0  0
 25 26  4  0  0  0
 26 27  4  0  0  0
 26 32  1  0  0  0
 27 28  4  0  0  0
 28 29  1  0  0  0
 29 30  1  0  0  0
 30 31  1  0  0  0
 32 33  1  0  0  0
 32 38  1  0  0  0
 33 34  1  0  0  0
 34 35  1  0  0  0
 35 36  1  0  0  0
 35 37  1  0  0  0
 37 38  1  0  0  0
  4 39  1  0  0  0
  4 40  1  0  0  0
  4 41  1  0  0  0
  5 42  1  0  0  0
  6 43  1  0  0  0
  6 44  1  0  0  0
  7 45  1  0  0  0
  7 46  1  0  0  0
  7 47  1  0  0  0
  9 48  1  0  0  0
  9 49  1  0  0  0
 12 50  1  0  0  0
 14 51  1  0  0  0
 14 52  1  0  0  0
 14 53  1  0  0  0
 15 54  1  0  0  0
 21 55  1  0  0  0
 22 56  1  0  0  0
 24 57  1  0  0  0
 25 58  1  0  0  0
 27 59  1  0  0  0
 30 60  1  0  0  0
 30 61  1  0  0  0
 31 62  1  0  0  0
 31 63  1  0  0  0
 31 64  1  0  0  0
 32 65  1  0  0  0
 33 66  1  0  0  0
 33 67  1  0  0  0
 34 68  1  0  0  0
 34 69  1  0  0  0
 35 70  1  0  0  0
 36 71  1  0  0  0
 36 72  1  0  0  0
 36 73  1  0  0  0
 37 74  1  0  0  0
 37 75  1  0  0  0
 38 76  1  0  0  0
 38 77  1  0  0  0
M  END
$$$$
