4elf_ligand
  -I-interpret- 

 69 72  0  0  0  0  0  0  0  0999 V2000
   23.2270  -28.2740   -0.6260 O   0  0  0  0  0
   22.8000  -29.0390   -1.4580 C   0  0  0  0  0
   23.6710  -29.9550   -2.1110 N   0  0  0  0  0
   23.1480  -30.8060   -3.0350 N   0  3  0  0  0
   24.0010  -31.4500   -3.9580 C   0  0  0  0  0
   25.4080  -31.0170   -4.0250 C   0  0  0  0  0
   26.2050  -31.3270   -5.1930 C   0  0  0  0  0
   27.5180  -30.9130   -5.2350 C   0  0  0  0  0
   28.0680  -30.2150   -4.1760 C   0  0  0  0  0
   27.2930  -29.9140   -3.0430 C   0  0  0  0  0
   25.9420  -30.3360   -3.0020 C   0  0  0  0  0
   25.0900  -30.0270   -1.7900 C   0  0  0  0  0
   25.3430  -31.1450   -0.7670 C   0  0  0  0  0
   26.5700  -31.0400    0.1180 C   0  0  0  0  0
   26.5410  -31.6420    1.5120 C   0  0  0  0  0
   27.1340  -32.8450    1.4340 F   0  0  0  0  0
   25.2870  -31.7820    1.9770 F   0  0  0  0  0
   27.2200  -30.8160    2.3330 F   0  0  0  0  0
   21.3270  -29.0580   -1.8570 C   0  0  0  0  0
   20.4530  -28.1010   -1.3570 C   0  0  0  0  0
   18.9760  -27.9780   -1.8170 C   0  0  0  0  0
   18.2080  -26.9800   -1.2680 C   0  0  0  0  0
   18.7400  -26.1270   -0.2900 O   0  0  0  0  0
   18.6430  -26.5200    1.0550 C   0  0  0  0  0
   16.8680  -26.8180   -1.6520 C   0  0  0  0  0
   16.1070  -25.8160   -1.0810 O   0  0  0  0  0
   14.8780  -25.5130   -1.6230 C   0  0  0  0  0
   16.3070  -27.6760   -2.6110 C   0  0  0  0  0
   17.0570  -28.6930   -3.1770 C   0  0  0  0  0
   16.3660  -29.6020   -4.2500 C   0  0  0  0  0
   16.4370  -31.1080   -4.0120 C   0  0  0  0  0
   16.9020  -31.6640   -2.8120 C   0  0  0  0  0
   16.9430  -33.0140   -2.6760 N   0  0  0  0  0
   16.5340  -33.8430   -3.6800 C   0  0  0  0  0
   16.6010  -35.2510   -3.5030 N   0  0  0  0  0
   16.0860  -33.3350   -4.8470 N   0  0  0  0  0
   16.0140  -32.0020   -5.0410 C   0  0  0  0  0
   15.5150  -31.4860   -6.2820 N   0  0  0  0  0
   18.4160  -28.8420   -2.7860 C   0  0  0  0  0
   22.5432  -30.2199   -3.6103 H   0  0  0  0  0
   22.7447  -31.5649   -2.4856 H   0  0  0  0  0
   23.5841  -31.2256   -4.9398 H   0  0  0  0  0
   24.0356  -32.4917   -3.6391 H   0  0  0  0  0
   25.7725  -31.8799   -6.0269 H   0  0  0  0  0
   28.1281  -31.1374   -6.1099 H   0  0  0  0  0
   29.1094  -29.8961   -4.2201 H   0  0  0  0  0
   27.7257  -29.3635   -2.2077 H   0  0  0  0  0
   25.3634  -29.0482   -1.3958 H   0  0  0  0  0
   25.4909  -32.0486   -1.3584 H   0  0  0  0  0
   24.4927  -31.1101   -0.0859 H   0  0  0  0  0
   26.7023  -29.9705    0.2815 H   0  0  0  0  0
   27.3405  -31.6020   -0.4098 H   0  0  0  0  0
   20.9591  -29.8260   -2.5374 H   0  0  0  0  0
   20.8223  -27.4031   -0.6056 H   0  0  0  0  0
   17.5930  -26.6374    1.3231 H   0  0  0  0  0
   19.1628  -27.4680    1.1936 H   0  0  0  0  0
   19.0981  -25.7586    1.6884 H   0  0  0  0  0
   15.0065  -25.1996   -2.6590 H   0  0  0  0  0
   14.2384  -26.3948   -1.5855 H   0  0  0  0  0
   14.4196  -24.7055   -1.0520 H   0  0  0  0  0
   15.2687  -27.5400   -2.9136 H   0  0  0  0  0
   16.8930  -29.4186   -5.1863 H   0  0  0  0  0
   15.3076  -29.3422   -4.2301 H   0  0  0  0  0
   17.2274  -31.0186   -1.9962 H   0  0  0  0  0
   16.9538  -35.6388   -2.6280 H   0  0  0  0  0
   16.2963  -35.8741   -4.2509 H   0  0  0  0  0
   15.4618  -30.4783   -6.4308 H   0  0  0  0  0
   15.2132  -32.1266   -7.0162 H   0  0  0  0  0
   19.0278  -29.6246   -3.2346 H   0  0  0  0  0
  1  2  2  0  0  0
  2  3  1  0  0  0
  2 19  1  0  0  0
  3  4  1  0  0  0
  3 12  1  0  0  0
  4  5  1  0  0  0
  5  6  1  0  0  0
  6  7  4  0  0  0
  6 11  4  0  0  0
  7  8  4  0  0  0
  8  9  4  0  0  0
  9 10  4  0  0  0
 10 11  4  0  0  0
 11 12  1  0  0  0
 12 13  1  0  0  0
 13 14  1  0  0  0
 14 15  1  0  0  0
 15 16  1  0  0  0
 15 17  1  0  0  0
 15 18  1  0  0  0
 19 20  2  0  0  0
 20 21  1  0  0  0
 21 22  4  0  0  0
 21 39  4  0  0  0
 22 23  1  0  0  0
 22 25  4  0  0  0
 23 24  1  0  0  0
 25 26  1  0  0  0
 25 28  4  0  0  0
 26 27  1  0  0  0
 28 29  4  0  0  0
 29 30  1  0  0  0
 29 39  4  0  0  0
 30 31  1  0  0  0
 31 32  4  0  0  0
 31 37  4  0  0  0
 32 33  4  0  0  0
 33 34  4  0  0  0
 34 35  1  0  0  0
 34 36  4  0  0  0
 36 37  4  0  0  0
 37 38  1  0  0  0
  4 40  1  0  0  0
  4 41  1  0  0  0
  5 42  1  0  0  0
  5 43  1  0  0  0
  7 44  1  0  0  0
  8 45  1  0  0  0
  9 46  1  0  0  0
 10 47  1  0  0  0
 12 48  1  0  0  0
 13 49  1  0  0  0
 13 50  1  0  0  0
 14 51  1  0  0  0
 14 52  1  0  0  0
 19 53  1  0  0  0
 20 54  1  0  0  0
 24 55  1  0  0  0
 24 56  1  0  0  0
 24 57  1  0  0  0
 27 58  1  0  0  0
 27 59  1  0  0  0
 27 60  1  0  0  0
 28 61  1  0  0  0
 30 62  1  0  0  0
 30 63  1  0  0  0
 32 64  1  0  0  0
 35 65  1  0  0  0
 35 66  1  0  0  0
 38 67  1  0  0  0
 38 68  1  0  0  0
 39 69  1  0  0  0
M  END
$$$$
