3tz2_ligand
  -I-interpret- 

 24 24  0  0  0  0  0  0  0  0999 V2000
   -8.6830  -30.5350   13.8320 C   0  0  0  0  0
   -8.6110  -30.7960   15.3300 C   0  0  0  0  0
   -9.6020  -31.8570   15.8270 C   0  0  0  0  0
   -9.1840  -32.0500   17.2600 C   0  0  0  0  0
   -8.3560  -33.1120   17.6030 C   0  0  0  0  0
   -9.5810  -31.1320   18.2230 C   0  0  0  0  0
   -7.9520  -33.2580   18.9230 C   0  0  0  0  0
   -9.1740  -31.2800   19.5440 C   0  0  0  0  0
   -8.3550  -32.3430   19.8960 C   0  0  0  0  0
   -7.8670  -31.5690   13.0930 C   0  0  0  0  0
   -8.0970  -31.7600   11.8760 O   0  0  0  0  0
   -6.9920  -32.1990   13.7260 O   0  0  0  0  0
   -8.2853  -29.5427   13.6195 H   0  0  0  0  0
   -9.7212  -30.5942   13.5053 H   0  0  0  0  0
   -8.8585  -29.8614   15.8333 H   0  0  0  0  0
   -7.6080  -31.1639   15.5463 H   0  0  0  0  0
   -9.5679  -32.7781   15.2452 H   0  0  0  0  0
  -10.6427  -31.5498   15.7241 H   0  0  0  0  0
   -8.0275  -33.8222   16.8442 H   0  0  0  0  0
  -10.2150  -30.2911   17.9419 H   0  0  0  0  0
   -7.3134  -34.0961   19.2021 H   0  0  0  0  0
   -9.4969  -30.5641   20.2998 H   0  0  0  0  0
   -8.0277  -32.4628   20.9288 H   0  0  0  0  0
   -8.8028  -31.1758   11.5893 H   0  0  0  0  0
  1  2  1  0  0  0
  1 10  1  0  0  0
  2  3  1  0  0  0
  3  4  1  0  0  0
  4  5  4  0  0  0
  4  6  4  0  0  0
  5  7  4  0  0  0
  6  8  4  0  0  0
  7  9  4  0  0  0
  8  9  4  0  0  0
 10 11  1  0  0  0
 10 12  2  0  0  0
  1 13  1  0  0  0
  1 14  1  0  0  0
  2 15  1  0  0  0
  2 16  1  0  0  0
  3 17  1  0  0  0
  3 18  1  0  0  0
  5 19  1  0  0  0
  6 20  1  0  0  0
  7 21  1  0  0  0
  8 22  1  0  0  0
  9 23  1  0  0  0
 11 24  1  0  0  0
M  END
$$$$
