4qpl_ligand
  -I-interpret- 

 59 62  0  0  0  0  0  0  0  0999 V2000
   52.5290   14.8710   34.4630 N   0  0  0  0  0
   52.9040   15.0800   33.1840 C   0  0  0  0  0
   53.3170   14.0750   32.3950 N   0  0  0  0  0
   53.3850   12.8010   32.8710 C   0  0  0  0  0
   53.0310   12.5130   34.1730 C   0  0  0  0  0
   52.5870   13.6290   35.0070 C   0  0  0  0  0
   52.2210   13.3930   36.2720 N   0  0  0  0  0
   53.1750   11.1860   34.3810 N   0  0  0  0  0
   53.6240   10.6580   33.2240 C   0  0  0  0  0
   53.7210   11.6470   32.3070 N   0  0  0  0  0
   55.1230    6.9310   32.3350 P   0  0  0  0  0
   62.4850   12.4390   32.6960 P   0  0  0  0  0
   57.4840   12.7200   32.0670 C   0  0  0  0  0
   54.2310   11.5250   30.9300 C   0  0  0  0  0
   55.5390    7.2870   33.7280 O   0  0  0  0  0
   61.9500   11.0680   33.0570 O   0  0  0  0  0
   57.9840   14.1640   32.1490 C   0  0  0  0  0
   56.9250   15.1250   32.2880 O   0  0  0  0  0
   55.7470   11.3500   31.0420 C   0  0  0  0  0
   56.4240   12.6050   31.1260 O   0  0  0  0  0
   53.6550    6.6420   32.2150 O   0  0  0  0  0
   63.6010   12.4520   31.6960 O   0  0  0  0  0
   58.8220   14.2890   30.8780 C   0  0  0  0  0
   58.0740   14.7780   29.7460 O   0  0  0  0  0
   56.0840   10.5430   29.8140 C   0  0  0  0  0
   56.3740   11.4140   28.7140 O   0  0  0  0  0
   56.0240    5.9270   31.6700 O   0  0  0  0  0
   62.7380   13.3520   33.8680 O   0  0  0  0  0
   59.2720   12.8500   30.5910 C   0  0  0  0  0
   58.6280   12.0230   31.5660 O   0  0  0  0  0
   54.8260    9.7300   29.5660 C   0  0  0  0  0
   53.7440   10.3850   30.2400 O   0  0  0  0  0
   60.7970   12.6920   30.6520 C   0  0  0  0  0
   61.2950   13.1850   31.9030 O   0  0  0  0  0
   54.9420    8.2980   30.0840 C   0  0  0  0  0
   55.3140    8.2730   31.4660 O   0  0  0  0  0
   52.8708   16.0919   32.7802 H   0  0  0  0  0
   51.8865   14.1584   36.8574 H   0  0  0  0  0
   52.2765   12.4477   36.6511 H   0  0  0  0  0
   53.8680    9.6090   33.0561 H   0  0  0  0  0
   57.1054   12.3472   33.0187 H   0  0  0  0  0
   53.9120   12.4091   30.3780 H   0  0  0  0  0
   61.2427   11.1607   33.6995 H   0  0  0  0  0
   58.5679   14.3826   33.0431 H   0  0  0  0  0
   57.2995   16.0078   32.3340 H   0  0  0  0  0
   56.0695   10.8468   31.9535 H   0  0  0  0  0
   53.4470    6.4208   31.3043 H   0  0  0  0  0
   59.6333   15.0021   31.0245 H   0  0  0  0  0
   58.6524   14.8343   28.9819 H   0  0  0  0  0
   56.9651    9.9128   29.9349 H   0  0  0  0  0
   56.5868   10.8889   27.9390 H   0  0  0  0  0
   55.7005    5.7455   30.7846 H   0  0  0  0  0
   61.9955   13.3052   34.4747 H   0  0  0  0  0
   58.9920   12.5632   29.5774 H   0  0  0  0  0
   54.6606    9.6693   28.4903 H   0  0  0  0  0
   61.2479   13.2608   29.8388 H   0  0  0  0  0
   61.0509   11.6362   30.5575 H   0  0  0  0  0
   55.7107    7.7822   29.5085 H   0  0  0  0  0
   53.9728    7.8108   29.9768 H   0  0  0  0  0
  2  1  4  0  0  0
  6  1  4  0  0  0
  3  2  4  0  0  0
  4  3  4  0  0  0
  4  5  4  0  0  0
 10  4  4  0  0  0
  5  6  4  0  0  0
  8  5  4  0  0  0
  6  7  1  0  0  0
  9  8  4  0  0  0
 10  9  4  0  0  0
 14 10  1  0  0  0
 11 15  2  0  0  0
 11 21  1  0  0  0
 11 27  1  0  0  0
 36 11  1  0  0  0
 12 16  1  0  0  0
 12 22  2  0  0  0
 12 28  1  0  0  0
 34 12  1  0  0  0
 13 17  1  0  0  0
 20 13  1  0  0  0
 13 30  1  0  0  0
 14 19  1  0  0  0
 32 14  1  0  0  0
 17 18  1  0  0  0
 17 23  1  0  0  0
 19 20  1  0  0  0
 25 19  1  0  0  0
 23 24  1  0  0  0
 29 23  1  0  0  0
 25 26  1  0  0  0
 31 25  1  0  0  0
 30 29  1  0  0  0
 29 33  1  0  0  0
 31 32  1  0  0  0
 35 31  1  0  0  0
 33 34  1  0  0  0
 35 36  1  0  0  0
  2 37  1  0  0  0
  7 38  1  0  0  0
  7 39  1  0  0  0
  9 40  1  0  0  0
 13 41  1  0  0  0
 14 42  1  0  0  0
 16 43  1  0  0  0
 17 44  1  0  0  0
 18 45  1  0  0  0
 19 46  1  0  0  0
 21 47  1  0  0  0
 23 48  1  0  0  0
 24 49  1  0  0  0
 25 50  1  0  0  0
 26 51  1  0  0  0
 27 52  1  0  0  0
 28 53  1  0  0  0
 29 54  1  0  0  0
 31 55  1  0  0  0
 33 56  1  0  0  0
 33 57  1  0  0  0
 35 58  1  0  0  0
 35 59  1  0  0  0
M  END
$$$$
