5wmt_ligand
  -I-interpret- 

 46 48  0  0  0  0  0  0  0  0999 V2000
  -11.2600  -30.2980  -47.5150 C   0  0  0  0  0
   -9.0430  -25.3840  -46.2710 C   0  0  0  0  0
   -9.6940  -24.5610  -45.3590 C   0  0  0  0  0
   -9.2310  -26.7600  -46.2130 C   0  0  0  0  0
  -13.8000  -24.6720  -41.8780 C   0  0  0  0  0
  -10.5280  -25.1090  -44.3910 C   0  0  0  0  0
  -10.0660  -27.3060  -45.2460 C   0  0  0  0  0
  -12.5920  -25.2280  -42.0000 C   0  0  0  0  0
  -16.3390  -28.5840  -48.8000 C   0  0  0  0  0
  -14.4810  -27.1670  -44.4070 C   0  0  0  0  0
  -14.0690  -26.6980  -45.8040 C   0  0  0  0  0
  -11.5460  -27.0720  -43.3680 C   0  0  0  0  0
  -13.2120  -29.2180  -46.9780 C   0  0  0  0  0
  -10.7230  -26.4850  -44.3330 C   0  0  0  0  0
  -16.7400  -27.3820  -48.2320 C   0  0  0  0  0
  -15.1560  -29.1570  -48.3530 C   0  0  0  0  0
  -15.9850  -26.7660  -47.2410 C   0  0  0  0  0
  -13.9180  -26.2160  -43.3470 C   0  0  0  0  0
  -14.8030  -27.3540  -46.7940 C   0  0  0  0  0
  -14.3820  -28.5640  -47.3610 C   0  0  0  0  0
  -14.6310  -25.2880  -42.7170 N   0  0  0  0  0
  -12.6570  -26.1880  -42.9240 N   0  0  0  0  0
  -12.9730  -29.4890  -45.8020 O   0  0  0  0  0
  -17.8800  -26.7420  -48.6080 O   0  0  0  0  0
  -14.6900  -30.3320  -48.8550 O   0  0  0  0  0
  -12.4050  -29.5900  -48.0110 O   0  0  0  0  0
  -16.5310  -25.2670  -46.5600 Cl  0  0  0  0  0
  -10.7000  -29.6522  -46.8386 H   0  0  0  0  0
  -11.5890  -31.1887  -46.9798 H   0  0  0  0  0
  -10.6241  -30.5891  -48.3511 H   0  0  0  0  0
   -8.3882  -24.9522  -47.0280 H   0  0  0  0  0
   -9.5499  -23.4815  -45.4031 H   0  0  0  0  0
   -8.7237  -27.4103  -46.9257 H   0  0  0  0  0
  -14.0612  -23.8540  -41.2066 H   0  0  0  0  0
  -11.0306  -24.4584  -43.6753 H   0  0  0  0  0
  -10.2080  -28.3858  -45.2016 H   0  0  0  0  0
  -11.7017  -24.9448  -41.4385 H   0  0  0  0  0
  -16.9363  -29.0642  -49.5751 H   0  0  0  0  0
  -14.0874  -28.1688  -44.2348 H   0  0  0  0  0
  -15.5688  -27.1762  -44.3385 H   0  0  0  0  0
  -13.0121  -26.9222  -45.9485 H   0  0  0  0  0
  -14.2593  -25.6276  -45.8817 H   0  0  0  0  0
  -10.9285  -27.2876  -42.4960 H   0  0  0  0  0
  -11.9913  -27.9620  -43.8127 H   0  0  0  0  0
  -17.9750  -25.9340  -48.0984 H   0  0  0  0  0
  -13.8649  -30.5596  -48.4203 H   0  0  0  0  0
 26  1  1  0  0  0
  3  2  4  0  0  0
  4  2  4  0  0  0
  6  3  4  0  0  0
  7  4  4  0  0  0
  5  8  4  0  0  0
 21  5  4  0  0  0
 14  6  4  0  0  0
 14  7  4  0  0  0
  8 22  4  0  0  0
 15  9  4  0  0  0
  9 16  4  0  0  0
 10 11  1  0  0  0
 18 10  1  0  0  0
 11 19  1  0  0  0
 12 14  1  0  0  0
 22 12  1  0  0  0
 20 13  1  0  0  0
 13 23  2  0  0  0
 13 26  1  0  0  0
 17 15  4  0  0  0
 15 24  1  0  0  0
 16 20  4  0  0  0
 16 25  1  0  0  0
 19 17  4  0  0  0
 17 27  1  0  0  0
 18 21  4  0  0  0
 18 22  4  0  0  0
 19 20  4  0  0  0
  1 28  1  0  0  0
  1 29  1  0  0  0
  1 30  1  0  0  0
  2 31  1  0  0  0
  3 32  1  0  0  0
  4 33  1  0  0  0
  5 34  1  0  0  0
  6 35  1  0  0  0
  7 36  1  0  0  0
  8 37  1  0  0  0
  9 38  1  0  0  0
 10 39  1  0  0  0
 10 40  1  0  0  0
 11 41  1  0  0  0
 11 42  1  0  0  0
 12 43  1  0  0  0
 12 44  1  0  0  0
 24 45  1  0  0  0
 25 46  1  0  0  0
M  END
$$$$
