2wzz_ligand
  -I-interpret- 

 45 46  0  0  0  0  0  0  0  0999 V2000
    1.5880   10.3640   18.4360 S   0  0  0  0  0
    1.5560   10.6450   17.0140 O   0  0  0  0  0
    0.8620   11.3130   19.2630 O   0  0  0  0  0
    1.3150    8.9720   18.7560 O   0  0  0  0  0
    3.2260   10.5980   18.8580 N   0  0  0  0  0
    3.6870   11.9850   19.0960 C   0  0  0  0  0
    3.5670   12.9030   17.8920 C   0  0  0  0  0
    4.7940   13.8020   17.9480 C   0  0  0  0  0
    5.7340   13.0670   18.7610 N   0  0  0  0  0
    5.1640   11.8880   19.3320 C   0  0  0  0  0
    5.6420   10.7470   18.4870 C   0  0  0  0  0
    5.7090   10.6310   17.2650 O   0  0  0  0  0
    7.0810   13.3490   18.9080 C   0  0  0  0  0
    7.8710   12.5290   19.3640 O   0  0  0  0  0
    7.4480   14.6140   18.5170 N   0  0  0  0  0
    8.8310   15.0070   18.6520 C   0  0  0  0  0
    8.9030   16.1480   19.6510 C   0  0  0  0  0
   10.3160   16.3560   20.1500 C   0  0  0  0  0
   11.0640   17.3930   19.3340 C   0  0  0  0  0
   10.9100   17.1790   17.8650 N   0  3  0  0  0
   10.8700   15.7690   17.3910 C   0  0  0  0  0
    9.4050   15.3770   17.2960 C   0  0  0  0  0
    1.3505    8.8507   19.7076 H   0  0  0  0  0
    3.8659    9.8083   18.9433 H   0  0  0  0  0
    3.0809   12.3893   19.9067 H   0  0  0  0  0
    2.6440   13.4821   17.9196 H   0  0  0  0  0
    3.5253   12.3390   16.9602 H   0  0  0  0  0
    4.5669   14.7827   18.3662 H   0  0  0  0  0
    5.1901   14.0200   16.9562 H   0  0  0  0  0
    5.4153   11.7674   20.3858 H   0  0  0  0  0
    5.9866    9.8778   19.0472 H   0  0  0  0  0
    6.7574   15.2625   18.1389 H   0  0  0  0  0
    9.4378   14.1826   19.0266 H   0  0  0  0  0
    8.2676   15.9035   20.5023 H   0  0  0  0  0
    8.5720   17.0618   19.1574 H   0  0  0  0  0
   10.8487   15.4088   20.0656 H   0  0  0  0  0
   10.2638   16.7079   21.1803 H   0  0  0  0  0
   12.1235   17.3140   19.5774 H   0  0  0  0  0
   10.6545   18.3735   19.5771 H   0  0  0  0  0
   11.7354   17.5954   17.4340 H   0  0  0  0  0
   10.0068   17.5829   17.6170 H   0  0  0  0  0
   11.4018   15.1138   18.0809 H   0  0  0  0  0
   11.3598   15.6726   16.4220 H   0  0  0  0  0
    8.8468   16.2294   16.9088 H   0  0  0  0  0
    9.3244   14.5091   16.6416 H   0  0  0  0  0
  1  2  2  0  0  0
  1  3  2  0  0  0
  1  4  1  0  0  0
  1  5  1  0  0  0
  5  6  1  0  0  0
  6  7  1  0  0  0
  6 10  1  0  0  0
  7  8  1  0  0  0
  8  9  1  0  0  0
  9 10  1  0  0  0
  9 13  1  0  0  0
 10 11  1  0  0  0
 11 12  2  0  0  0
 13 14  2  0  0  0
 13 15  1  0  0  0
 15 16  1  0  0  0
 16 17  1  0  0  0
 16 22  1  0  0  0
 17 18  1  0  0  0
 18 19  1  0  0  0
 19 20  1  0  0  0
 20 21  1  0  0  0
 21 22  1  0  0  0
  4 23  1  0  0  0
  5 24  1  0  0  0
  6 25  1  0  0  0
  7 26  1  0  0  0
  7 27  1  0  0  0
  8 28  1  0  0  0
  8 29  1  0  0  0
 10 30  1  0  0  0
 11 31  1  0  0  0
 15 32  1  0  0  0
 16 33  1  0  0  0
 17 34  1  0  0  0
 17 35  1  0  0  0
 18 36  1  0  0  0
 18 37  1  0  0  0
 19 38  1  0  0  0
 19 39  1  0  0  0
 20 40  1  0  0  0
 20 41  1  0  0  0
 21 42  1  0  0  0
 21 43  1  0  0  0
 22 44  1  0  0  0
 22 45  1  0  0  0
M  END
$$$$
