1ek1_ligand
  -I-interpret- 

 34 35  0  0  0  0  0  0  0  0999 V2000
  -41.1220 -112.5040  -27.0300 C   0  0  0  0  0
  -41.9080 -112.5300  -28.3670 C   0  0  0  0  0
  -42.3200 -114.0150  -28.7860 C   0  0  0  0  0
  -41.0400 -114.9820  -28.8970 C   0  0  0  0  0
  -40.2090 -115.0200  -27.5390 C   0  0  0  0  0
  -39.8890 -113.5370  -26.9840 C   0  0  0  0  0
  -43.0510 -113.9290  -30.0920 N   0  0  0  0  0
  -44.2300 -114.3770  -30.4060 C   0  0  0  0  0
  -44.9460 -114.6160  -29.4520 O   0  0  0  0  0
  -44.5890 -114.5410  -31.6730 N   0  0  0  0  0
  -45.7510 -115.0180  -32.3580 C   0  0  0  0  0
  -49.9230 -116.6940  -34.8360 I   0  0  0  0  0
  -46.8790 -115.4950  -31.6590 C   0  0  0  0  0
  -48.0160 -115.9610  -32.3430 C   0  0  0  0  0
  -48.0590 -115.9600  -33.7790 C   0  0  0  0  0
  -46.8840 -115.4630  -34.5060 C   0  0  0  0  0
  -45.7500 -115.0010  -33.7950 C   0  0  0  0  0
  -41.8155 -112.7889  -26.2388 H   0  0  0  0  0
  -40.7114 -111.5011  -26.9129 H   0  0  0  0  0
  -41.2681 -112.1194  -29.1480 H   0  0  0  0  0
  -42.8191 -111.9454  -28.2396 H   0  0  0  0  0
  -42.9604 -114.4513  -28.0195 H   0  0  0  0  0
  -40.3907 -114.6022  -29.6858 H   0  0  0  0  0
  -41.3904 -115.9913  -29.1129 H   0  0  0  0  0
  -39.2618 -115.5232  -27.7329 H   0  0  0  0  0
  -40.8034 -115.5434  -26.7901 H   0  0  0  0  0
  -39.6149 -113.6490  -25.9350 H   0  0  0  0  0
  -39.1120 -113.1241  -27.6274 H   0  0  0  0  0
  -42.5516 -113.4503  -30.8416 H   0  0  0  0  0
  -43.8533 -114.2560  -32.3195 H   0  0  0  0  0
  -46.8695 -115.5027  -30.5691 H   0  0  0  0  0
  -48.8733 -116.3267  -31.7779 H   0  0  0  0  0
  -46.8847 -115.4497  -35.5959 H   0  0  0  0  0
  -44.8783 -114.6333  -34.3363 H   0  0  0  0  0
  2  1  1  0  0  0
  1  6  1  0  0  0
  3  2  1  0  0  0
  3  4  1  0  0  0
  7  3  1  0  0  0
  4  5  1  0  0  0
  5  6  1  0  0  0
  8  7  1  0  0  0
  8  9  2  0  0  0
 10  8  1  0  0  0
 11 10  1  0  0  0
 13 11  4  0  0  0
 11 17  4  0  0  0
 15 12  1  0  0  0
 14 13  4  0  0  0
 14 15  4  0  0  0
 15 16  4  0  0  0
 16 17  4  0  0  0
  1 18  1  0  0  0
  1 19  1  0  0  0
  2 20  1  0  0  0
  2 21  1  0  0  0
  3 22  1  0  0  0
  4 23  1  0  0  0
  4 24  1  0  0  0
  5 25  1  0  0  0
  5 26  1  0  0  0
  6 27  1  0  0  0
  6 28  1  0  0  0
  7 29  1  0  0  0
 10 30  1  0  0  0
 13 31  1  0  0  0
 14 32  1  0  0  0
 16 33  1  0  0  0
 17 34  1  0  0  0
M  END
$$$$
