6hrz_ligand
  -I-interpret- 

 21 22  0  0  0  0  0  0  0  0999 V2000
   10.7330  -22.6940  -17.5590 C   0  0  0  0  0
    8.7180  -21.6090  -18.2750 C   0  0  0  0  0
    7.9220  -22.5480  -17.6990 C   0  0  0  0  0
    8.5260  -23.6280  -17.0530 C   0  0  0  0  0
    9.9260  -23.6650  -17.0080 C   0  0  0  0  0
   13.8580  -21.3150  -18.4810 N   0  0  0  0  0
   16.0840  -21.8190  -18.6020 N   0  0  0  0  0
   10.0730  -21.6710  -18.2780 C   0  0  0  0  0
   14.6830  -22.9050  -17.1200 N   0  0  0  0  0
   12.5670  -21.6360  -18.2840 C   0  0  0  0  0
   14.8810  -22.0110  -18.0910 C   0  0  0  0  0
   11.2620  -20.6520  -18.8510 S   0  0  0  0  0
   12.0660  -22.6580  -17.5720 N   0  0  0  0  0
    8.2408  -20.7585  -18.7618 H   0  0  0  0  0
    6.8364  -22.4597  -17.7405 H   0  0  0  0  0
    7.9277  -24.4174  -16.5981 H   0  0  0  0  0
   10.4029  -24.5088  -16.5094 H   0  0  0  0  0
   14.0499  -20.4472  -18.9815 H   0  0  0  0  0
   16.8775  -22.3577  -18.2548 H   0  0  0  0  0
   15.4665  -23.4514  -16.7623 H   0  0  0  0  0
   13.7482  -23.0418  -16.7356 H   0  0  0  0  0
  1  5  4  0  0  0
  8  1  4  0  0  0
  1 13  4  0  0  0
  2  3  4  0  0  0
  8  2  4  0  0  0
  3  4  4  0  0  0
  5  4  4  0  0  0
 10  6  1  0  0  0
  6 11  1  0  0  0
 11  7  2  0  0  0
 12  8  4  0  0  0
 11  9  1  0  0  0
 10 12  4  0  0  0
 10 13  4  0  0  0
  2 14  1  0  0  0
  3 15  1  0  0  0
  4 16  1  0  0  0
  5 17  1  0  0  0
  6 18  1  0  0  0
  7 19  1  0  0  0
  9 20  1  0  0  0
  9 21  1  0  0  0
M  END
$$$$
