3vuc_ligand
  -I-interpret- 

 86 90  0  0  0  0  0  0  0  0999 V2000
  181.3610  200.6240  104.6390 C   0  0  0  0  0
  182.7800  200.1490  104.3010 C   0  0  0  0  0
  181.3830  201.1180  106.0820 C   0  0  0  0  0
  183.1360  198.9610  105.2020 C   0  0  0  0  0
  181.6980  199.9620  107.0290 C   0  0  0  0  0
  183.0880  199.3960  106.6890 C   0  0  0  0  0
  182.4530  202.2570  106.2670 C   0  0  0  0  0
  183.8770  201.7320  106.0050 C   0  0  0  0  0
  183.8690  201.2650  104.5360 C   0  0  0  0  0
  184.1580  200.5000  106.9130 C   0  0  0  0  0
  183.2390  198.2400  107.5260 O   0  0  0  0  0
  181.0440  201.7890  103.8030 N   0  0  0  0  0
  179.4740  202.0200  100.3570 C   0  0  0  0  0
  178.6660  201.8430   99.0580 C   0  0  0  0  0
  179.1540  200.6930   98.1580 C   0  0  0  0  0
  178.7680  203.1200   98.3150 N   0  3  0  0  0
  178.1460  200.3700   97.1090 N   0  3  0  0  0
  176.9800  199.6990   97.6980 C   0  0  0  0  0
  175.9630  199.2990   96.6590 C   0  0  0  0  0
  176.2450  199.2080   95.3400 N   0  0  0  0  0
  177.5750  199.5210   94.7950 C   0  0  0  0  0
  178.6490  199.5790   95.9080 C   0  0  0  0  0
  179.8700  200.2460   95.2570 C   0  0  0  0  0
  179.0290  198.1260   96.2900 C   0  0  0  0  0
  175.2630  198.8500   94.4160 C   0  0  0  0  0
  174.6600  199.8690   93.7030 C   0  0  0  0  0
  173.7290  199.5400   92.7430 C   0  0  0  0  0
  173.3490  198.2260   92.5060 C   0  0  0  0  0
  173.9440  197.1980   93.2340 C   0  0  0  0  0
  174.9000  197.5480   94.1600 C   0  0  0  0  0
  174.8500  199.0340   97.0370 O   0  0  0  0  0
  175.5760  196.2760   95.0430 Cl  0  0  0  0  0
  178.7280  203.0250  101.2650 C   0  0  0  0  0
  179.4640  203.3230  102.5850 C   0  0  0  0  0
  179.7790  202.1090  103.4450 C   0  0  0  0  0
  178.8650  201.4320  103.8320 O   0  0  0  0  0
  178.6260  204.3300  103.4020 C   0  0  0  0  0
  180.8320  202.4490  100.0650 O   0  0  0  0  0
  179.3790  204.7090  104.7070 C   0  0  0  0  0
  180.6411  199.8205  104.4834 H   0  0  0  0  0
  182.7824  199.8814  103.2444 H   0  0  0  0  0
  180.3981  201.5213  106.3174 H   0  0  0  0  0
  184.1407  198.6142  104.9605 H   0  0  0  0  0
  182.4182  198.1572  105.0385 H   0  0  0  0  0
  180.9465  199.1806  106.9160 H   0  0  0  0  0
  181.6897  200.3193  108.0588 H   0  0  0  0  0
  182.3998  202.6208  107.2931 H   0  0  0  0  0
  182.2395  203.0537  105.5544 H   0  0  0  0  0
  184.6322  202.4919  106.2059 H   0  0  0  0  0
  183.6363  202.1189  103.8998 H   0  0  0  0  0
  184.8488  200.8523  104.2959 H   0  0  0  0  0
  185.1389  200.0953  106.6636 H   0  0  0  0  0
  184.1246  200.8162  107.9556 H   0  0  0  0  0
  182.5433  197.6091  107.3270 H   0  0  0  0  0
  181.8087  202.3812  103.4790 H   0  0  0  0  0
  179.5577  201.0680  100.8813 H   0  0  0  0  0
  177.6429  201.5842   99.3308 H   0  0  0  0  0
  179.3112  199.8087   98.7755 H   0  0  0  0  0
  180.0795  200.9995   97.6706 H   0  0  0  0  0
  178.2443  203.0472   97.4427 H   0  0  0  0  0
  178.3819  203.8742   98.8829 H   0  0  0  0  0
  179.7478  203.3150   98.1094 H   0  0  0  0  0
  177.8908  201.2815   96.7289 H   0  0  0  0  0
  176.5024  200.3950   98.3876 H   0  0  0  0  0
  177.3273  198.7941   98.1966 H   0  0  0  0  0
  177.5277  200.4968   94.3116 H   0  0  0  0  0
  177.8515  198.7363   94.0908 H   0  0  0  0  0
  179.5991  201.2465   94.9197 H   0  0  0  0  0
  180.6775  200.3132   95.9861 H   0  0  0  0  0
  180.1968  199.6500   94.4049 H   0  0  0  0  0
  179.8178  198.1439   97.0420 H   0  0  0  0  0
  178.1533  197.6166   96.6922 H   0  0  0  0  0
  179.3822  197.5992   95.4035 H   0  0  0  0  0
  174.9159  200.9107   93.8964 H   0  0  0  0  0
  173.2766  200.3357   92.1511 H   0  0  0  0  0
  172.5909  198.0003   91.7560 H   0  0  0  0  0
  173.6632  196.1567   93.0763 H   0  0  0  0  0
  177.7641  202.5842  101.5193 H   0  0  0  0  0
  178.6452  203.9634  100.7167 H   0  0  0  0  0
  180.4352  203.7284  102.3011 H   0  0  0  0  0
  177.6686  203.8764  103.6583 H   0  0  0  0  0
  178.4635  205.2286  102.8069 H   0  0  0  0  0
  181.3172  202.5531  100.8868 H   0  0  0  0  0
  179.5449  203.8115  105.3029 H   0  0  0  0  0
  180.3380  205.1608  104.4535 H   0  0  0  0  0
  178.7805  205.4197  105.2770 H   0  0  0  0  0
  1  2  1  0  0  0
  1  3  1  0  0  0
 12  1  1  0  0  0
  2  4  1  0  0  0
  2  9  1  0  0  0
  3  5  1  0  0  0
  3  7  1  0  0  0
  4  6  1  0  0  0
  5  6  1  0  0  0
  6 10  1  0  0  0
  6 11  1  0  0  0
  7  8  1  0  0  0
  9  8  1  0  0  0
  8 10  1  0  0  0
 35 12  1  0  0  0
 13 14  1  0  0  0
 33 13  1  0  0  0
 13 38  1  0  0  0
 14 15  1  0  0  0
 14 16  1  0  0  0
 15 17  1  0  0  0
 17 18  1  0  0  0
 17 22  1  0  0  0
 18 19  1  0  0  0
 19 20  1  0  0  0
 19 31  2  0  0  0
 21 20  1  0  0  0
 20 25  1  0  0  0
 22 21  1  0  0  0
 22 23  1  0  0  0
 22 24  1  0  0  0
 25 26  4  0  0  0
 25 30  4  0  0  0
 26 27  4  0  0  0
 27 28  4  0  0  0
 29 28  4  0  0  0
 30 29  4  0  0  0
 30 32  1  0  0  0
 34 33  1  0  0  0
 34 35  1  0  0  0
 34 37  1  0  0  0
 35 36  2  0  0  0
 37 39  1  0  0  0
  1 40  1  0  0  0
  2 41  1  0  0  0
  3 42  1  0  0  0
  4 43  1  0  0  0
  4 44  1  0  0  0
  5 45  1  0  0  0
  5 46  1  0  0  0
  7 47  1  0  0  0
  7 48  1  0  0  0
  8 49  1  0  0  0
  9 50  1  0  0  0
  9 51  1  0  0  0
 10 52  1  0  0  0
 10 53  1  0  0  0
 11 54  1  0  0  0
 12 55  1  0  0  0
 13 56  1  0  0  0
 14 57  1  0  0  0
 15 58  1  0  0  0
 15 59  1  0  0  0
 16 60  1  0  0  0
 16 61  1  0  0  0
 16 62  1  0  0  0
 17 63  1  0  0  0
 18 64  1  0  0  0
 18 65  1  0  0  0
 21 66  1  0  0  0
 21 67  1  0  0  0
 23 68  1  0  0  0
 23 69  1  0  0  0
 23 70  1  0  0  0
 24 71  1  0  0  0
 24 72  1  0  0  0
 24 73  1  0  0  0
 26 74  1  0  0  0
 27 75  1  0  0  0
 28 76  1  0  0  0
 29 77  1  0  0  0
 33 78  1  0  0  0
 33 79  1  0  0  0
 34 80  1  0  0  0
 37 81  1  0  0  0
 37 82  1  0  0  0
 38 83  1  0  0  0
 39 84  1  0  0  0
 39 85  1  0  0  0
 39 86  1  0  0  0
M  END
$$$$
