### 
### Created by X-TOOL on Mon Sep 10 21:13:25 2018
### 

@<TRIPOS>MOLECULE
4xgz_ligand
  208   207     1     0     0
SMALL
GAST_HUCK


@<TRIPOS>ATOM
      1 N          22.1530    2.8900  -30.1030 N.4       1 ASN         0.2396
      2 CA         21.7420    2.0600  -31.2690 C.3       1 ASN         0.0818
      3 C          21.6380    2.8640  -32.5670 C.2       1 ASN         0.2291
      4 O          22.1840    2.4320  -33.5690 O.2       1 ASN        -0.3905
      5 CB         20.4390    1.2890  -30.9780 C.3       1 ASN         0.0972
      6 CG         20.0550    0.3450  -32.1350 C.2       1 ASN         0.1813
      7 OD1        19.2130    0.6500  -32.9980 O.2       1 ASN        -0.3969
      8 ND2        20.7210   -0.8070  -32.1750 N.am      1 ASN        -0.3006
      9 N          20.9500    4.0110  -32.5530 N.am      1 LEU        -0.2609
     10 CA         21.0090    4.9910  -33.6580 C.3       1 LEU         0.1313
     11 C          22.4620    5.3480  -33.9610 C.2       1 LEU         0.2040
     12 O          22.8730    5.3670  -35.1180 O.2       1 LEU        -0.3944
     13 CB         20.2110    6.2620  -33.2980 C.3       1 LEU        -0.0101
     14 CG         20.4560    7.5990  -34.0320 C.3       1 LEU        -0.0425
     15 CD1        20.4780    7.4800  -35.5420 C.3       1 LEU        -0.0625
     16 CD2        19.4130    8.6270  -33.6200 C.3       1 LEU        -0.0625
     17 N          23.2370    5.5830  -32.9040 N.am      1 SER        -0.2616
     18 CA         24.6290    6.0140  -33.0260 C.3       1 SER         0.1539
     19 C          25.5880    4.9360  -33.5390 C.2       1 SER         0.2062
     20 O          26.7380    5.2400  -33.8530 O.2       1 SER        -0.3943
     21 CB         25.1340    6.5280  -31.6750 C.3       1 SER         0.0843
     22 OG         24.9760    5.5530  -30.6630 O.3       1 SER        -0.3903
     23 N          25.1240    3.6900  -33.6280 N.am      1 GLU        -0.2636
     24 CA         25.9790    2.5780  -34.0400 C.3       1 GLU         0.1325
     25 C          25.5640    1.9620  -35.4030 C.2       1 GLU         0.2040
     26 O          26.2800    1.1210  -35.9520 O.2       1 GLU        -0.3944
     27 CB         26.0190    1.5050  -32.9220 C.3       1 GLU        -0.0008
     28 CG         26.4030    2.0240  -31.4670 C.3       1 GLU         0.0044
     29 CD         27.9060    2.1190  -31.2600 C.2       1 GLU         0.0350
     30 OE1        28.6350    2.0690  -32.2640 O.co2     1 GLU        -0.5690
     31 OE2        28.3720    2.2400  -30.1000 O.co2     1 GLU        -0.5690
     32 N          24.4380    2.4030  -35.9660 N.am      1 LEU        -0.2637
     33 CA         23.9020    1.8200  -37.2090 C.3       1 LEU         0.1312
     34 C          24.6980    2.1810  -38.4600 C.2       1 LEU         0.2040
     35 O          24.8240    1.3550  -39.3640 O.2       1 LEU        -0.3944
     36 CB         22.4360    2.2240  -37.4070 C.3       1 LEU        -0.0101
     37 CG         21.3670    1.4550  -36.6430 C.3       1 LEU        -0.0425
     38 CD1        21.8760    0.5300  -35.5400 C.3       1 LEU        -0.0625
     39 CD2        20.2720    2.3810  -36.1330 C.3       1 LEU        -0.0625
     40 N          25.2180    3.4060  -38.5210 N.am      1 ASP        -0.2622
     41 CA         25.9770    3.8540  -39.6940 C.3       1 ASP         0.1423
     42 C          27.2730    3.0650  -39.8810 C.2       1 ASP         0.2056
     43 O          27.6520    2.7640  -41.0140 O.2       1 ASP        -0.3943
     44 CB         26.2800    5.3570  -39.6320 C.3       1 ASP         0.0406
     45 CG         25.0940    6.2110  -40.0430 C.2       1 ASP         0.0393
     46 OD1        24.6980    6.1530  -41.2290 O.co2     1 ASP        -0.5688
     47 OD2        24.5600    6.9440  -39.1870 O.co2     1 ASP        -0.5688
     48 N          27.9460    2.7320  -38.7780 N.am      1 ARG        -0.2636
     49 CA         29.1410    1.8830  -38.8370 C.3       1 ARG         0.1311
     50 C          28.8210    0.5300  -39.4760 C.2       1 ARG         0.2039
     51 O          29.5770    0.0450  -40.3180 O.2       1 ARG        -0.3944
     52 CB         29.7460    1.6720  -37.4430 C.3       1 ARG        -0.0092
     53 CG         30.8930    0.6670  -37.4160 C.3       1 ARG        -0.0156
     54 CD         31.7340    0.7210  -36.1510 C.3       1 ARG         0.0627
     55 NE         32.8690    1.6490  -36.2500 N.pl3     1 ARG        -0.2723
     56 CZ         32.8850    2.9250  -35.8470 C.cat     1 ARG         0.2882
     57 NH1        31.8200    3.4960  -35.2930 N.pl3     1 ARG        -0.2849
     58 NH2        33.9930    3.6440  -36.0010 N.pl3     1 ARG        -0.2849
     59 N          27.6910   -0.0580  -39.0830 N.am      1 LEU        -0.2637
     60 CA         27.2600   -1.3490  -39.6160 C.3       1 LEU         0.1312
     61 C          26.9440   -1.2810  -41.1180 C.2       1 LEU         0.2039
     62 O          27.3020   -2.1930  -41.8670 O.2       1 LEU        -0.3944
     63 CB         26.0490   -1.8820  -38.8360 C.3       1 LEU        -0.0101
     64 CG         26.2410   -2.1790  -37.3370 C.3       1 LEU        -0.0425
     65 CD1        24.8900   -2.2820  -36.6390 C.3       1 LEU        -0.0625
     66 CD2        27.0690   -3.4410  -37.1150 C.3       1 LEU        -0.0625
     67 N          26.2890   -0.2010  -41.5500 N.am      1 LEU        -0.2637
     68 CA         25.9610    0.0050  -42.9710 C.3       1 LEU         0.1312
     69 C          27.2010    0.2310  -43.8410 C.2       1 LEU         0.2039
     70 O          27.2790   -0.2830  -44.9600 O.2       1 LEU        -0.3944
     71 CB         24.9770    1.1750  -43.1540 C.3       1 LEU        -0.0101
     72 CG         23.4600    0.8940  -42.9600 C.3       1 LEU        -0.0425
     73 CD1        22.6740    2.1960  -42.9260 C.3       1 LEU        -0.0625
     74 CD2        22.9640   -0.0080  -44.0800 C.3       1 LEU        -0.0625
     75 N          28.1630    0.9970  -43.3310 N.am      1 LEU        -0.2637
     76 CA         29.4060    1.2660  -44.0670 C.3       1 LEU         0.1312
     77 C          30.2640    0.0050  -44.2420 C.2       1 LEU         0.2039
     78 O          31.0400   -0.0870  -45.1920 O.2       1 LEU        -0.3944
     79 CB         30.2160    2.3870  -43.3930 C.3       1 LEU        -0.0101
     80 CG         29.7390    3.8330  -43.6530 C.3       1 LEU        -0.0425
     81 CD1        30.0790    4.7310  -42.4750 C.3       1 LEU        -0.0625
     82 CD2        30.3370    4.3780  -44.9430 C.3       1 LEU        -0.0625
     83 N          30.1110   -0.9610  -43.3360 N.am      1 GLU        -0.2636
     84 CA         30.8130   -2.2460  -43.4370 C.3       1 GLU         0.1324
     85 C          30.1960   -3.1570  -44.5150 C.2       1 GLU         0.2034
     86 O          30.9080   -3.9440  -45.1450 O.2       1 GLU        -0.3944
     87 CB         30.8710   -2.9390  -42.0640 C.3       1 GLU        -0.0008
     88 CG         31.8050   -2.2100  -41.0520 C.3       1 GLU         0.0044
     89 CD         31.6220   -2.6890  -39.6120 C.2       1 GLU         0.0350
     90 OE1        32.1010   -2.3200  -38.4390 O.co2     1 GLU        -0.5690
     91 OE2        30.8710   -3.5740  -39.7590 O.co2     1 GLU        -0.5690
     92 N          28.8860   -3.0370  -44.7380 N.am      1 LEU        -0.2695
     93 CA         28.2260   -3.7170  -45.8600 C.3       1 LEU         0.0946
     94 C          28.5470   -2.9980  -47.1720 C.2       1 LEU         0.0601
     95 O          29.4880   -3.3610  -47.8820 O.co2     1 LEU        -0.5666
     96 CB         26.7020   -3.7790  -45.6580 C.3       1 LEU        -0.0156
     97 CG         26.1350   -4.8940  -44.7670 C.3       1 LEU        -0.0431
     98 CD1        26.6180   -4.7810  -43.3270 C.3       1 LEU        -0.0625
     99 CD2        24.6130   -4.8990  -44.8170 C.3       1 LEU        -0.0625
    100 OXT        27.8730   -2.0380  -47.5520 O.co2     1 LEU        -0.5666
    101 H1         22.2048    2.3106  -29.2798 H         1 ASN         0.2017
    102 H2         21.4760    3.6223  -29.9565 H         1 ASN         0.2017
    103 H3         23.0565    3.2989  -30.2834 H         1 ASN         0.2017
    104 H4         22.5336    1.3116  -31.4214 H         1 ASN         0.1125
    105 H5         19.6248    2.0127  -30.8252 H         1 ASN         0.0585
    106 H6         20.5759    0.6927  -30.0639 H         1 ASN         0.0585
    107 H7         20.5275   -1.4716  -32.8967 H         1 ASN         0.1814
    108 H8         21.4148   -1.0077  -31.4834 H         1 ASN         0.1814
    109 H9         20.3720    4.2138  -31.7626 H         1 LEU         0.1885
    110 H10        20.5619    4.5379  -34.5551 H         1 LEU         0.0800
    111 H11        20.3968    6.4543  -32.2310 H         1 LEU         0.0315
    112 H12        19.1494    6.0154  -33.4467 H         1 LEU         0.0315
    113 H13        21.4433    7.9675  -33.7167 H         1 LEU         0.0298
    114 H14        20.6567    8.4707  -35.9853 H         1 LEU         0.0232
    115 H15        19.5112    7.0902  -35.8932 H         1 LEU         0.0232
    116 H16        21.2820    6.7928  -35.8440 H         1 LEU         0.0232
    117 H17        19.3968    8.7137  -32.5235 H         1 LEU         0.0232
    118 H18        18.4227    8.3081  -33.9773 H         1 LEU         0.0232
    119 H19        19.6654    9.6025  -34.0612 H         1 LEU         0.0232
    120 H20        22.8514    5.4597  -31.9896 H         1 SER         0.1884
    121 H21        24.6521    6.8459  -33.7452 H         1 SER         0.0823
    122 H22        24.5645    7.4274  -31.3981 H         1 SER         0.0606
    123 H23        26.2005    6.7823  -31.7642 H         1 SER         0.0606
    124 H24        25.2970    5.8991  -29.8385 H         1 SER         0.2097
    125 H25        24.1653    3.5108  -33.4071 H         1 GLU         0.1883
    126 H26        26.9981    2.9739  -34.1612 H         1 GLU         0.0801
    127 H27        26.7577    0.7437  -33.2130 H         1 GLU         0.0330
    128 H28        25.0218    1.0445  -32.8622 H         1 GLU         0.0330
    129 H29        25.9880    1.3278  -30.7233 H         1 GLU         0.0433
    130 H30        25.9632    3.0216  -31.3210 H         1 GLU         0.0433
    131 H31        23.9413    3.1537  -35.5305 H         1 LEU         0.1883
    132 H32        23.9426    0.7264  -37.0978 H         1 LEU         0.0800
    133 H33        22.2106    2.1180  -38.4784 H         1 LEU         0.0315
    134 H34        22.3472    3.2812  -37.1164 H         1 LEU         0.0315
    135 H35        20.8933    0.7950  -37.3846 H         1 LEU         0.0298
    136 H36        21.0230    0.0293  -35.0587 H         1 LEU         0.0232
    137 H37        22.4251    1.1197  -34.7912 H         1 LEU         0.0232
    138 H38        22.5465   -0.2255  -35.9754 H         1 LEU         0.0232
    139 H39        19.9304    3.0309  -36.9521 H         1 LEU         0.0232
    140 H40        20.6673    3.0002  -35.3143 H         1 LEU         0.0232
    141 H41        19.4269    1.7812  -35.7641 H         1 LEU         0.0232
    142 H42        25.0885    4.0324  -37.7523 H         1 ASP         0.1884
    143 H43        25.3480    3.6753  -40.5785 H         1 ASP         0.0819
    144 H44        27.1210    5.5746  -40.3068 H         1 ASP         0.0478
    145 H45        26.5605    5.6173  -38.6007 H         1 ASP         0.0478
    146 H46        27.6288    3.0686  -37.8914 H         1 ARG         0.1883
    147 H47        29.8889    2.3919  -39.4628 H         1 ARG         0.0800
    148 H48        28.9529    1.3113  -36.7716 H         1 ARG         0.0313
    149 H49        30.1233    2.6389  -37.0786 H         1 ARG         0.0313
    150 H50        31.5489    0.8678  -38.2759 H         1 ARG         0.0301
    151 H51        30.4690   -0.3440  -37.5063 H         1 ARG         0.0301
    152 H52        32.1235   -0.2872  -35.9468 H         1 ARG         0.0689
    153 H53        31.0918    1.0418  -35.3176 H         1 ARG         0.0689
    154 H54        33.7352    1.2823  -36.6697 H         1 ARG         0.2642
    155 H55        31.8613    4.4802  -34.9922 H         1 ARG         0.2615
    156 H56        30.9535    2.9542  -35.1645 H         1 ARG         0.2615
    157 H57        34.8279    3.2183  -36.4283 H         1 ARG         0.2615
    158 H58        34.0163    4.6266  -35.6930 H         1 ARG         0.2615
    159 H59        27.1196    0.3990  -38.4014 H         1 LEU         0.1883
    160 H60        28.0895   -2.0587  -39.4811 H         1 LEU         0.0800
    161 H61        25.7325   -2.8182  -39.3190 H         1 LEU         0.0315
    162 H62        25.2465   -1.1348  -38.9233 H         1 LEU         0.0315
    163 H63        26.7897   -1.3353  -36.8930 H         1 LEU         0.0298
    164 H64        25.0445   -2.4941  -35.5707 H         1 LEU         0.0232
    165 H65        24.3037   -3.0944  -37.0930 H         1 LEU         0.0232
    166 H66        24.3469   -1.3318  -36.7493 H         1 LEU         0.0232
    167 H67        28.0366   -3.3397  -37.6284 H         1 LEU         0.0232
    168 H68        26.5288   -4.3098  -37.5190 H         1 LEU         0.0232
    169 H69        27.2388   -3.5834  -36.0376 H         1 LEU         0.0232
    170 H70        26.0112    0.4926  -40.8854 H         1 LEU         0.1883
    171 H71        25.4671   -0.9107  -43.3282 H         1 LEU         0.0800
    172 H72        25.1101    1.5567  -44.1770 H         1 LEU         0.0315
    173 H73        25.2595    1.9552  -42.4319 H         1 LEU         0.0315
    174 H74        23.3168    0.3756  -42.0005 H         1 LEU         0.0298
    175 H75        21.6052    1.9755  -42.7883 H         1 LEU         0.0232
    176 H76        22.8178    2.7360  -43.8735 H         1 LEU         0.0232
    177 H77        23.0305    2.8179  -42.0917 H         1 LEU         0.0232
    178 H78        23.5464   -0.9412  -44.0843 H         1 LEU         0.0232
    179 H79        23.0863    0.5050  -45.0453 H         1 LEU         0.0232
    180 H80        21.9007   -0.2401  -43.9202 H         1 LEU         0.0232
    181 H81        28.0365    1.3994  -42.4243 H         1 LEU         0.1883
    182 H82        29.1242    1.6150  -45.0714 H         1 LEU         0.0800
    183 H83        31.2544    2.3087  -43.7475 H         1 LEU         0.0315
    184 H84        30.1853    2.2151  -42.3070 H         1 LEU         0.0315
    185 H85        28.6449    3.8167  -43.7651 H         1 LEU         0.0298
    186 H86        29.7309    5.7539  -42.6813 H         1 LEU         0.0232
    187 H87        31.1682    4.7383  -42.3218 H         1 LEU         0.0232
    188 H88        29.5839    4.3509  -41.5693 H         1 LEU         0.0232
    189 H89        30.0768    3.7111  -45.7782 H         1 LEU         0.0232
    190 H90        31.4312    4.4333  -44.8452 H         1 LEU         0.0232
    191 H91        29.9350    5.3832  -45.1375 H         1 LEU         0.0232
    192 H92        29.4975   -0.8049  -42.5619 H         1 GLU         0.1883
    193 H93        31.8478   -2.0337  -43.7439 H         1 GLU         0.0801
    194 H94        31.2405   -3.9655  -42.2049 H         1 GLU         0.0330
    195 H95        29.8549   -2.9694  -41.6437 H         1 GLU         0.0330
    196 H96        31.5902   -1.1319  -41.0919 H         1 GLU         0.0433
    197 H97        32.8491   -2.3872  -41.3494 H         1 GLU         0.0433
    198 H98        28.3384   -2.4683  -44.1242 H         1 LEU         0.1875
    199 H99        28.6116   -4.7456  -45.9180 H         1 LEU         0.0726
    200 H100       26.2451   -3.8914  -46.6523 H         1 LEU         0.0308
    201 H101       26.3916   -2.8198  -45.2180 H         1 LEU         0.0308
    202 H102       26.4922   -5.8549  -45.1659 H         1 LEU         0.0297
    203 H103       26.1867   -5.5983  -42.7304 H         1 LEU         0.0232
    204 H104       26.3005   -3.8145  -42.9085 H         1 LEU         0.0232
    205 H105       27.7156   -4.8486  -43.3020 H         1 LEU         0.0232
    206 H106       24.2808   -4.9810  -45.8624 H         1 LEU         0.0232
    207 H107       24.2288   -3.9644  -44.3825 H         1 LEU         0.0232
    208 H108       24.2300   -5.7552  -44.2424 H         1 LEU         0.0232
@<TRIPOS>BOND
     1    1    2 1  
     2    2    3 1  
     3    2    5 1  
     4    3    4 2  
     5    3    9 am 
     6    5    6 1  
     7    6    7 2  
     8    6    8 am 
     9    9   10 1  
    10   10   11 1  
    11   10   13 1  
    12   11   12 2  
    13   11   17 am 
    14   13   14 1  
    15   14   15 1  
    16   14   16 1  
    17   17   18 1  
    18   18   19 1  
    19   18   21 1  
    20   19   20 2  
    21   19   23 am 
    22   21   22 1  
    23   23   24 1  
    24   24   25 1  
    25   24   27 1  
    26   25   26 2  
    27   25   32 am 
    28   27   28 1  
    29   28   29 1  
    30   29   30 ar 
    31   29   31 ar 
    32   32   33 1  
    33   33   34 1  
    34   33   36 1  
    35   34   35 2  
    36   34   40 am 
    37   36   37 1  
    38   37   38 1  
    39   37   39 1  
    40   40   41 1  
    41   41   42 1  
    42   41   44 1  
    43   42   43 2  
    44   42   48 am 
    45   44   45 1  
    46   45   46 ar 
    47   45   47 ar 
    48   48   49 1  
    49   49   50 1  
    50   49   52 1  
    51   50   51 2  
    52   50   59 am 
    53   52   53 1  
    54   53   54 1  
    55   54   55 1  
    56   55   56 ar 
    57   56   57 ar 
    58   56   58 ar 
    59   59   60 1  
    60   60   61 1  
    61   60   63 1  
    62   61   62 2  
    63   61   67 am 
    64   63   64 1  
    65   64   65 1  
    66   64   66 1  
    67   67   68 1  
    68   68   69 1  
    69   68   71 1  
    70   69   70 2  
    71   69   75 am 
    72   71   72 1  
    73   72   73 1  
    74   72   74 1  
    75   75   76 1  
    76   76   77 1  
    77   76   79 1  
    78   77   78 2  
    79   77   83 am 
    80   79   80 1  
    81   80   81 1  
    82   80   82 1  
    83   83   84 1  
    84   84   85 1  
    85   84   87 1  
    86   85   86 2  
    87   85   92 am 
    88   87   88 1  
    89   88   89 1  
    90   89   90 ar 
    91   89   91 ar 
    92   92   93 1  
    93   93   94 1  
    94   93   96 1  
    95   94   95 ar 
    96   94  100 ar 
    97   96   97 1  
    98   97   98 1  
    99   97   99 1  
   100    1  101 1  
   101    1  102 1  
   102    1  103 1  
   103    2  104 1  
   104    5  105 1  
   105    5  106 1  
   106    8  107 1  
   107    8  108 1  
   108    9  109 1  
   109   10  110 1  
   110   13  111 1  
   111   13  112 1  
   112   14  113 1  
   113   15  114 1  
   114   15  115 1  
   115   15  116 1  
   116   16  117 1  
   117   16  118 1  
   118   16  119 1  
   119   17  120 1  
   120   18  121 1  
   121   21  122 1  
   122   21  123 1  
   123   22  124 1  
   124   23  125 1  
   125   24  126 1  
   126   27  127 1  
   127   27  128 1  
   128   28  129 1  
   129   28  130 1  
   130   32  131 1  
   131   33  132 1  
   132   36  133 1  
   133   36  134 1  
   134   37  135 1  
   135   38  136 1  
   136   38  137 1  
   137   38  138 1  
   138   39  139 1  
   139   39  140 1  
   140   39  141 1  
   141   40  142 1  
   142   41  143 1  
   143   44  144 1  
   144   44  145 1  
   145   48  146 1  
   146   49  147 1  
   147   52  148 1  
   148   52  149 1  
   149   53  150 1  
   150   53  151 1  
   151   54  152 1  
   152   54  153 1  
   153   55  154 1  
   154   57  155 1  
   155   57  156 1  
   156   58  157 1  
   157   58  158 1  
   158   59  159 1  
   159   60  160 1  
   160   63  161 1  
   161   63  162 1  
   162   64  163 1  
   163   65  164 1  
   164   65  165 1  
   165   65  166 1  
   166   66  167 1  
   167   66  168 1  
   168   66  169 1  
   169   67  170 1  
   170   68  171 1  
   171   71  172 1  
   172   71  173 1  
   173   72  174 1  
   174   73  175 1  
   175   73  176 1  
   176   73  177 1  
   177   74  178 1  
   178   74  179 1  
   179   74  180 1  
   180   75  181 1  
   181   76  182 1  
   182   79  183 1  
   183   79  184 1  
   184   80  185 1  
   185   81  186 1  
   186   81  187 1  
   187   81  188 1  
   188   82  189 1  
   189   82  190 1  
   190   82  191 1  
   191   83  192 1  
   192   84  193 1  
   193   87  194 1  
   194   87  195 1  
   195   88  196 1  
   196   88  197 1  
   197   92  198 1  
   198   93  199 1  
   199   96  200 1  
   200   96  201 1  
   201   97  202 1  
   202   98  203 1  
   203   98  204 1  
   204   98  205 1  
   205   99  206 1  
   206   99  207 1  
   207   99  208 1  
@<TRIPOS>SUBSTRUCTURE
     1 ASN         1

