4xgz_ligand
  -I-interpret- 

211210  0  0  0  0  0  0  0  0999 V2000
   22.1530    2.8900  -30.1030 N   0  3  0  0  0
   21.7420    2.0600  -31.2690 C   0  0  0  0  0
   21.6380    2.8640  -32.5670 C   0  0  0  0  0
   22.1840    2.4320  -33.5690 O   0  0  0  0  0
   20.4390    1.2890  -30.9780 C   0  0  0  0  0
   20.0550    0.3450  -32.1350 C   0  0  0  0  0
   19.2130    0.6500  -32.9980 O   0  0  0  0  0
   20.7210   -0.8070  -32.1750 N   0  0  0  0  0
   20.9500    4.0110  -32.5530 N   0  0  0  0  0
   21.0090    4.9910  -33.6580 C   0  0  0  0  0
   22.4620    5.3480  -33.9610 C   0  0  0  0  0
   22.8730    5.3670  -35.1180 O   0  0  0  0  0
   20.2110    6.2620  -33.2980 C   0  0  0  0  0
   20.4560    7.5990  -34.0320 C   0  0  0  0  0
   20.4780    7.4800  -35.5420 C   0  0  0  0  0
   19.4130    8.6270  -33.6200 C   0  0  0  0  0
   23.2370    5.5830  -32.9040 N   0  0  0  0  0
   24.6290    6.0140  -33.0260 C   0  0  0  0  0
   25.5880    4.9360  -33.5390 C   0  0  0  0  0
   26.7380    5.2400  -33.8530 O   0  0  0  0  0
   25.1340    6.5280  -31.6750 C   0  0  0  0  0
   24.9760    5.5530  -30.6630 O   0  0  0  0  0
   25.1240    3.6900  -33.6280 N   0  0  0  0  0
   25.9790    2.5780  -34.0400 C   0  0  0  0  0
   25.5640    1.9620  -35.4030 C   0  0  0  0  0
   26.2800    1.1210  -35.9520 O   0  0  0  0  0
   26.0190    1.5050  -32.9220 C   0  0  0  0  0
   26.4030    2.0240  -31.4670 C   0  0  0  0  0
   27.9060    2.1190  -31.2600 C   0  0  0  0  0
   28.6350    2.0690  -32.2640 O   0  0  0  0  0
   28.3720    2.2400  -30.1000 O   0  0  0  0  0
   24.4380    2.4030  -35.9660 N   0  0  0  0  0
   23.9020    1.8200  -37.2090 C   0  0  0  0  0
   24.6980    2.1810  -38.4600 C   0  0  0  0  0
   24.8240    1.3550  -39.3640 O   0  0  0  0  0
   22.4360    2.2240  -37.4070 C   0  0  0  0  0
   21.3670    1.4550  -36.6430 C   0  0  0  0  0
   21.8760    0.5300  -35.5400 C   0  0  0  0  0
   20.2720    2.3810  -36.1330 C   0  0  0  0  0
   25.2180    3.4060  -38.5210 N   0  0  0  0  0
   25.9770    3.8540  -39.6940 C   0  0  0  0  0
   27.2730    3.0650  -39.8810 C   0  0  0  0  0
   27.6520    2.7640  -41.0140 O   0  0  0  0  0
   26.2800    5.3570  -39.6320 C   0  0  0  0  0
   25.0940    6.2110  -40.0430 C   0  0  0  0  0
   24.6980    6.1530  -41.2290 O   0  0  0  0  0
   24.5600    6.9440  -39.1870 O   0  0  0  0  0
   27.9460    2.7320  -38.7780 N   0  0  0  0  0
   29.1410    1.8830  -38.8370 C   0  0  0  0  0
   28.8210    0.5300  -39.4760 C   0  0  0  0  0
   29.5770    0.0450  -40.3180 O   0  0  0  0  0
   29.7460    1.6720  -37.4430 C   0  0  0  0  0
   30.8930    0.6670  -37.4160 C   0  0  0  0  0
   31.7340    0.7210  -36.1510 C   0  0  0  0  0
   32.8690    1.6490  -36.2500 N   0  0  0  0  0
   32.8850    2.9250  -35.8470 C   0  0  0  0  0
   31.8200    3.4960  -35.2930 N   0  0  0  0  0
   33.9930    3.6440  -36.0010 N   0  0  0  0  0
   27.6910   -0.0580  -39.0830 N   0  0  0  0  0
   27.2600   -1.3490  -39.6160 C   0  0  0  0  0
   26.9440   -1.2810  -41.1180 C   0  0  0  0  0
   27.3020   -2.1930  -41.8670 O   0  0  0  0  0
   26.0490   -1.8820  -38.8360 C   0  0  0  0  0
   26.2410   -2.1790  -37.3370 C   0  0  0  0  0
   24.8900   -2.2820  -36.6390 C   0  0  0  0  0
   27.0690   -3.4410  -37.1150 C   0  0  0  0  0
   26.2890   -0.2010  -41.5500 N   0  0  0  0  0
   25.9610    0.0050  -42.9710 C   0  0  0  0  0
   27.2010    0.2310  -43.8410 C   0  0  0  0  0
   27.2790   -0.2830  -44.9600 O   0  0  0  0  0
   24.9770    1.1750  -43.1540 C   0  0  0  0  0
   23.4600    0.8940  -42.9600 C   0  0  0  0  0
   22.6740    2.1960  -42.9260 C   0  0  0  0  0
   22.9640   -0.0080  -44.0800 C   0  0  0  0  0
   28.1630    0.9970  -43.3310 N   0  0  0  0  0
   29.4060    1.2660  -44.0670 C   0  0  0  0  0
   30.2640    0.0050  -44.2420 C   0  0  0  0  0
   31.0400   -0.0870  -45.1920 O   0  0  0  0  0
   30.2160    2.3870  -43.3930 C   0  0  0  0  0
   29.7390    3.8330  -43.6530 C   0  0  0  0  0
   30.0790    4.7310  -42.4750 C   0  0  0  0  0
   30.3370    4.3780  -44.9430 C   0  0  0  0  0
   30.1110   -0.9610  -43.3360 N   0  0  0  0  0
   30.8130   -2.2460  -43.4370 C   0  0  0  0  0
   30.1960   -3.1570  -44.5150 C   0  0  0  0  0
   30.9080   -3.9440  -45.1450 O   0  0  0  0  0
   30.8710   -2.9390  -42.0640 C   0  0  0  0  0
   31.8050   -2.2100  -41.0520 C   0  0  0  0  0
   31.6220   -2.6890  -39.6120 C   0  0  0  0  0
   32.1010   -2.3200  -38.4390 O   0  0  0  0  0
   30.8710   -3.5740  -39.7590 O   0  0  0  0  0
   28.8860   -3.0370  -44.7380 N   0  0  0  0  0
   28.2260   -3.7170  -45.8600 C   0  0  0  0  0
   28.5470   -2.9980  -47.1720 C   0  0  0  0  0
   29.4880   -3.3610  -47.8820 O   0  0  0  0  0
   26.7020   -3.7790  -45.6580 C   0  0  0  0  0
   26.1350   -4.8940  -44.7670 C   0  0  0  0  0
   26.6180   -4.7810  -43.3270 C   0  0  0  0  0
   24.6130   -4.8990  -44.8170 C   0  0  0  0  0
   27.8730   -2.0380  -47.5520 O   0  0  0  0  0
   23.0157    3.3857  -30.3273 H   0  0  0  0  0
   21.4174    3.5641  -29.8909 H   0  0  0  0  0
   22.3063    2.2867  -29.2949 H   0  0  0  0  0
   22.5382    1.3318  -31.4235 H   0  0  0  0  0
   19.6356    2.0143  -30.8492 H   0  0  0  0  0
   20.5927    0.6860  -30.0831 H   0  0  0  0  0
   20.5471   -1.4707  -32.9298 H   0  0  0  0  0
   21.4052   -1.0260  -31.4509 H   0  0  0  0  0
   20.3605    4.2179  -31.7467 H   0  0  0  0  0
   20.5612    4.5436  -34.5454 H   0  0  0  0  0
   20.5026    6.4713  -32.2688 H   0  0  0  0  0
   19.1829    6.0070  -33.5550 H   0  0  0  0  0
   21.4527    7.9213  -33.7307 H   0  0  0  0  0
   21.2750    6.7988  -35.8399 H   0  0  0  0  0
   19.5196    7.0937  -35.8887 H   0  0  0  0  0
   20.6552    8.4623  -35.9800 H   0  0  0  0  0
   18.4198    8.2574  -33.8751 H   0  0  0  0  0
   19.4747    8.7944  -32.5447 H   0  0  0  0  0
   19.5998    9.5632  -34.1461 H   0  0  0  0  0
   22.8437    5.4573  -31.9713 H   0  0  0  0  0
   24.6241    6.8037  -33.7773 H   0  0  0  0  0
   24.5551    7.4099  -31.4007 H   0  0  0  0  0
   26.1942    6.7635  -31.7675 H   0  0  0  0  0
   25.3003    5.9027  -29.8299 H   0  0  0  0  0
   24.1461    3.5072  -33.4026 H   0  0  0  0  0
   26.9821    2.9767  -34.1917 H   0  0  0  0  0
   26.7953    0.7952  -33.2077 H   0  0  0  0  0
   25.0079    1.1049  -32.8465 H   0  0  0  0  0
   26.0081    1.3128  -30.7414 H   0  0  0  0  0
   25.9831    3.0224  -31.3447 H   0  0  0  0  0
   27.6506    2.2589  -29.4669 H   0  0  0  0  0
   23.9314    3.1687  -35.5217 H   0  0  0  0  0
   23.9872    0.7408  -37.0819 H   0  0  0  0  0
   22.2265    2.0370  -38.4602 H   0  0  0  0  0
   22.3688    3.2487  -37.0415 H   0  0  0  0  0
   20.9449    0.7771  -37.3849 H   0  0  0  0  0
   22.5403   -0.2181  -35.9727 H   0  0  0  0  0
   22.4199    1.1155  -34.7988 H   0  0  0  0  0
   21.0299    0.0345  -35.0639 H   0  0  0  0  0
   20.7080    3.1236  -35.4647 H   0  0  0  0  0
   19.7999    2.8830  -36.9775 H   0  0  0  0  0
   19.5267    1.7972  -35.5928 H   0  0  0  0  0
   25.0859    4.0449  -37.7370 H   0  0  0  0  0
   25.3410    3.6636  -40.5585 H   0  0  0  0  0
   27.0965    5.5627  -40.3242 H   0  0  0  0  0
   26.5302    5.6058  -38.6007 H   0  0  0  0  0
   25.2434    5.5319  -41.7173 H   0  0  0  0  0
   27.6224    3.0754  -37.8737 H   0  0  0  0  0
   29.8745    2.3994  -39.4562 H   0  0  0  0  0
   28.9562    1.2814  -36.8014 H   0  0  0  0  0
   30.1460    2.6309  -37.1135 H   0  0  0  0  0
   31.5510    0.9053  -38.2517 H   0  0  0  0  0
   30.4516   -0.3283  -37.4682 H   0  0  0  0  0
   32.1372   -0.2770  -35.9794 H   0  0  0  0  0
   31.0919    1.0694  -35.3420 H   0  0  0  0  0
   33.7268    1.2858  -36.6657 H   0  0  0  0  0
   30.9619    2.9594  -35.1658 H   0  0  0  0  0
   34.0160    4.6171  -35.6960 H   0  0  0  0  0
   34.8198    3.2224  -36.4241 H   0  0  0  0  0
   27.1082    0.4082  -38.3877 H   0  0  0  0  0
   28.0931   -2.0406  -39.4907 H   0  0  0  0  0
   25.8036   -2.8397  -39.2951 H   0  0  0  0  0
   25.2991   -1.0924  -38.8843 H   0  0  0  0  0
   26.7951   -1.3485  -36.8995 H   0  0  0  0  0
   24.3528   -1.3400  -36.7491 H   0  0  0  0  0
   24.3100   -3.0873  -37.0898 H   0  0  0  0  0
   25.0444   -2.4922  -35.5806 H   0  0  0  0  0
   26.5629   -4.2912  -37.5724 H   0  0  0  0  0
   28.0516   -3.3140  -37.5694 H   0  0  0  0  0
   27.1820   -3.6164  -36.0451 H   0  0  0  0  0
   26.0057    0.5065  -40.8721 H   0  0  0  0  0
   25.4879   -0.9184  -43.3053 H   0  0  0  0  0
   25.0827    1.4802  -44.1951 H   0  0  0  0  0
   25.2381    1.8951  -42.3785 H   0  0  0  0  0
   23.3089    0.3893  -42.0058 H   0  0  0  0  0
   23.0283    2.8113  -42.0989 H   0  0  0  0  0
   22.8174    2.7301  -43.8653 H   0  0  0  0  0
   21.6151    1.9762  -42.7895 H   0  0  0  0  0
   23.1231    0.4848  -45.0391 H   0  0  0  0  0
   23.5141   -0.9487  -44.0578 H   0  0  0  0  0
   21.9006   -0.2042  -43.9428 H   0  0  0  0  0
   28.0340    1.4074  -42.4062 H   0  0  0  0  0
   29.1167    1.5992  -45.0637 H   0  0  0  0  0
   31.2228    2.3222  -43.8057 H   0  0  0  0  0
   30.1197    2.2256  -42.3193 H   0  0  0  0  0
   28.6550    3.8182  -43.7658 H   0  0  0  0  0
   29.5878    4.3533  -41.5782 H   0  0  0  0  0
   31.1585    4.7373  -42.3243 H   0  0  0  0  0
   29.7336    5.7442  -42.6806 H   0  0  0  0  0
   31.4244    4.3750  -44.8676 H   0  0  0  0  0
   30.0278    3.7504  -45.7789 H   0  0  0  0  0
   29.9854    5.3973  -45.1027 H   0  0  0  0  0
   29.4853   -0.8018  -42.5464 H   0  0  0  0  0
   31.8360   -2.0439  -43.7545 H   0  0  0  0  0
   31.2661   -3.9435  -42.2158 H   0  0  0  0  0
   29.8636   -2.9353  -41.6477 H   0  0  0  0  0
   31.5593   -1.1484  -41.0810 H   0  0  0  0  0
   32.8345   -2.4200  -41.3419 H   0  0  0  0  0
   32.6962   -1.5761  -38.5573 H   0  0  0  0  0
   28.3275   -2.4569  -44.1119 H   0  0  0  0  0
   28.6050   -4.7381  -45.9033 H   0  0  0  0  0
   29.9250   -4.1116  -47.4730 H   0  0  0  0  0
   26.2871   -3.9630  -46.6490 H   0  0  0  0  0
   26.4396   -2.8476  -45.1562 H   0  0  0  0  0
   26.5066   -5.8397  -45.1615 H   0  0  0  0  0
   27.7057   -4.8481  -43.3036 H   0  0  0  0  0
   26.3028   -3.8230  -42.9135 H   0  0  0  0  0
   26.1899   -5.5913  -42.7369 H   0  0  0  0  0
   24.2360   -3.9389  -44.4647 H   0  0  0  0  0
   24.2850   -5.0652  -45.8431 H   0  0  0  0  0
   24.2324   -5.6965  -44.1788 H   0  0  0  0  0
  1  2  1  0  0  0
  2  3  1  0  0  0
  2  5  1  0  0  0
  3  4  2  0  0  0
  3  9  1  0  0  0
  5  6  1  0  0  0
  6  7  2  0  0  0
  6  8  1  0  0  0
  9 10  1  0  0  0
 10 11  1  0  0  0
 10 13  1  0  0  0
 11 12  2  0  0  0
 11 17  1  0  0  0
 13 14  1  0  0  0
 14 15  1  0  0  0
 14 16  1  0  0  0
 17 18  1  0  0  0
 18 19  1  0  0  0
 18 21  1  0  0  0
 19 20  2  0  0  0
 19 23  1  0  0  0
 21 22  1  0  0  0
 23 24  1  0  0  0
 24 25  1  0  0  0
 24 27  1  0  0  0
 25 26  2  0  0  0
 25 32  1  0  0  0
 27 28  1  0  0  0
 28 29  1  0  0  0
 29 30  2  0  0  0
 29 31  1  0  0  0
 32 33  1  0  0  0
 33 34  1  0  0  0
 33 36  1  0  0  0
 34 35  2  0  0  0
 34 40  1  0  0  0
 36 37  1  0  0  0
 37 38  1  0  0  0
 37 39  1  0  0  0
 40 41  1  0  0  0
 41 42  1  0  0  0
 41 44  1  0  0  0
 42 43  2  0  0  0
 42 48  1  0  0  0
 44 45  1  0  0  0
 45 46  1  0  0  0
 45 47  2  0  0  0
 48 49  1  0  0  0
 49 50  1  0  0  0
 49 52  1  0  0  0
 50 51  2  0  0  0
 50 59  1  0  0  0
 52 53  1  0  0  0
 53 54  1  0  0  0
 54 55  1  0  0  0
 55 56  1  0  0  0
 56 57  2  0  0  0
 56 58  1  0  0  0
 59 60  1  0  0  0
 60 61  1  0  0  0
 60 63  1  0  0  0
 61 62  2  0  0  0
 61 67  1  0  0  0
 63 64  1  0  0  0
 64 65  1  0  0  0
 64 66  1  0  0  0
 67 68  1  0  0  0
 68 69  1  0  0  0
 68 71  1  0  0  0
 69 70  2  0  0  0
 69 75  1  0  0  0
 71 72  1  0  0  0
 72 73  1  0  0  0
 72 74  1  0  0  0
 75 76  1  0  0  0
 76 77  1  0  0  0
 76 79  1  0  0  0
 77 78  2  0  0  0
 77 83  1  0  0  0
 79 80  1  0  0  0
 80 81  1  0  0  0
 80 82  1  0  0  0
 83 84  1  0  0  0
 84 85  1  0  0  0
 84 87  1  0  0  0
 85 86  2  0  0  0
 85 92  1  0  0  0
 87 88  1  0  0  0
 88 89  1  0  0  0
 89 90  1  0  0  0
 89 91  2  0  0  0
 92 93  1  0  0  0
 93 94  1  0  0  0
 93 96  1  0  0  0
 94 95  1  0  0  0
 94100  2  0  0  0
 96 97  1  0  0  0
 97 98  1  0  0  0
 97 99  1  0  0  0
  1101  1  0  0  0
  1102  1  0  0  0
  1103  1  0  0  0
  2104  1  0  0  0
  5105  1  0  0  0
  5106  1  0  0  0
  8107  1  0  0  0
  8108  1  0  0  0
  9109  1  0  0  0
 10110  1  0  0  0
 13111  1  0  0  0
 13112  1  0  0  0
 14113  1  0  0  0
 15114  1  0  0  0
 15115  1  0  0  0
 15116  1  0  0  0
 16117  1  0  0  0
 16118  1  0  0  0
 16119  1  0  0  0
 17120  1  0  0  0
 18121  1  0  0  0
 21122  1  0  0  0
 21123  1  0  0  0
 22124  1  0  0  0
 23125  1  0  0  0
 24126  1  0  0  0
 27127  1  0  0  0
 27128  1  0  0  0
 28129  1  0  0  0
 28130  1  0  0  0
 31131  1  0  0  0
 32132  1  0  0  0
 33133  1  0  0  0
 36134  1  0  0  0
 36135  1  0  0  0
 37136  1  0  0  0
 38137  1  0  0  0
 38138  1  0  0  0
 38139  1  0  0  0
 39140  1  0  0  0
 39141  1  0  0  0
 39142  1  0  0  0
 40143  1  0  0  0
 41144  1  0  0  0
 44145  1  0  0  0
 44146  1  0  0  0
 46147  1  0  0  0
 48148  1  0  0  0
 49149  1  0  0  0
 52150  1  0  0  0
 52151  1  0  0  0
 53152  1  0  0  0
 53153  1  0  0  0
 54154  1  0  0  0
 54155  1  0  0  0
 55156  1  0  0  0
 57157  1  0  0  0
 58158  1  0  0  0
 58159  1  0  0  0
 59160  1  0  0  0
 60161  1  0  0  0
 63162  1  0  0  0
 63163  1  0  0  0
 64164  1  0  0  0
 65165  1  0  0  0
 65166  1  0  0  0
 65167  1  0  0  0
 66168  1  0  0  0
 66169  1  0  0  0
 66170  1  0  0  0
 67171  1  0  0  0
 68172  1  0  0  0
 71173  1  0  0  0
 71174  1  0  0  0
 72175  1  0  0  0
 73176  1  0  0  0
 73177  1  0  0  0
 73178  1  0  0  0
 74179  1  0  0  0
 74180  1  0  0  0
 74181  1  0  0  0
 75182  1  0  0  0
 76183  1  0  0  0
 79184  1  0  0  0
 79185  1  0  0  0
 80186  1  0  0  0
 81187  1  0  0  0
 81188  1  0  0  0
 81189  1  0  0  0
 82190  1  0  0  0
 82191  1  0  0  0
 82192  1  0  0  0
 83193  1  0  0  0
 84194  1  0  0  0
 87195  1  0  0  0
 87196  1  0  0  0
 88197  1  0  0  0
 88198  1  0  0  0
 90199  1  0  0  0
 92200  1  0  0  0
 93201  1  0  0  0
 95202  1  0  0  0
 96203  1  0  0  0
 96204  1  0  0  0
 97205  1  0  0  0
 98206  1  0  0  0
 98207  1  0  0  0
 98208  1  0  0  0
 99209  1  0  0  0
 99210  1  0  0  0
 99211  1  0  0  0
M  END
$$$$
