3oev_ligand
  -I-interpret- 

 80 83  0  0  0  0  0  0  0  0999 V2000
   11.8700 -137.3600   22.8030 C   0  0  0  0  0
   11.2630 -137.8010   21.4620 C   0  0  0  0  0
   11.5440 -138.9120   21.0040 O   0  0  0  0  0
   11.9500 -136.0040   23.1270 C   0  0  0  0  0
   12.5120 -135.6200   24.3430 C   0  0  0  0  0
   12.3590 -138.3250   23.6990 C   0  0  0  0  0
   12.9240 -137.9350   24.9160 C   0  0  0  0  0
   12.9940 -136.5770   25.2420 C   0  0  0  0  0
   13.5440 -136.1300   26.4090 O   0  0  0  0  0
   13.3750 -136.9300   27.5890 C   0  0  0  0  0
   14.3500 -136.8070   28.5710 C   0  0  0  0  0
   14.3020 -135.7340   29.4610 C   0  0  0  0  0
   15.2830 -135.6020   30.4430 C   0  0  0  0  0
   16.3170 -136.5360   30.5270 C   0  0  0  0  0
   16.3720 -137.6080   29.6350 C   0  0  0  0  0
   15.3870 -137.7410   28.6530 C   0  0  0  0  0
   10.4800 -136.9000   20.8520 N   0  0  0  0  0
    9.8050 -137.1480   19.5580 C   0  0  0  0  0
   10.7730 -136.9240   18.3760 C   0  0  0  0  0
   11.4700 -135.9110   18.2990 O   0  0  0  0  0
    8.5460 -136.2620   19.4740 C   0  0  0  0  0
    7.6470 -136.6540   20.5110 O   0  0  0  0  0
    7.8300 -136.3400   18.1220 C   0  0  0  0  0
   10.7940 -137.9210   17.4850 N   0  0  0  0  0
   11.6200 -137.9040   16.2610 C   0  0  0  0  0
   10.6910 -137.6750   15.0590 C   0  0  0  0  0
    9.6810 -138.3630   14.9150 O   0  0  0  0  0
   12.3610 -139.2350   16.0740 C   0  0  0  0  0
   13.2530 -139.6080   17.2610 C   0  0  0  0  0
   14.4130 -138.6280   17.4530 C   0  0  0  0  0
   15.3920 -138.4860   16.4640 C   0  0  0  0  0
   14.4890 -137.8790   18.6310 C   0  0  0  0  0
   16.4490 -137.5880   16.6480 C   0  0  0  0  0
   15.5430 -136.9820   18.8130 C   0  0  0  0  0
   16.5210 -136.8370   17.8230 C   0  0  0  0  0
    8.2110 -132.9110   13.6400 C   0  0  0  0  0
    9.4040 -132.6120   13.1090 C   0  0  0  0  0
   10.1950 -133.6770   12.8610 C   0  0  0  0  0
   11.5900 -133.5300   12.2740 C   0  0  0  0  0
    8.1300 -134.6030   13.8090 S   0  0  0  0  0
    9.6590 -134.9260   13.1890 C   0  0  0  0  0
   10.2540 -136.3410   13.0450 C   0  0  0  0  0
   11.0460 -136.6930   14.2320 N   0  0  0  0  0
   11.5754 -135.2511   22.4335 H   0  0  0  0  0
   12.5767 -134.5618   24.5964 H   0  0  0  0  0
   12.2974 -139.3829   23.4437 H   0  0  0  0  0
   13.3080 -138.6851   25.6074 H   0  0  0  0  0
   13.4129 -137.9673   27.2565 H   0  0  0  0  0
   12.4438 -136.5966   28.0470 H   0  0  0  0  0
   13.4992 -135.0002   29.3889 H   0  0  0  0  0
   15.2425 -134.7693   31.1452 H   0  0  0  0  0
   17.0850 -136.4276   31.2928 H   0  0  0  0  0
   17.1790 -138.3375   29.7041 H   0  0  0  0  0
   15.4271 -138.5734   27.9505 H   0  0  0  0  0
   10.3420 -135.9957   21.3033 H   0  0  0  0  0
    9.4922 -138.1902   19.4944 H   0  0  0  0  0
    8.8686 -135.2274   19.5907 H   0  0  0  0  0
    6.8571 -136.1099   20.4708 H   0  0  0  0  0
    8.5094 -136.0167   17.3333 H   0  0  0  0  0
    7.5183 -137.3678   17.9361 H   0  0  0  0  0
    6.9546 -135.6908   18.1379 H   0  0  0  0  0
   10.2079 -138.7372   17.6603 H   0  0  0  0  0
   12.3617 -137.1095   16.3431 H   0  0  0  0  0
   13.0041 -139.1324   15.1999 H   0  0  0  0  0
   11.6091 -140.0173   15.9702 H   0  0  0  0  0
   13.6745 -140.5945   17.0681 H   0  0  0  0  0
   12.6405 -139.5849   18.1623 H   0  0  0  0  0
   15.3313 -139.0755   15.5492 H   0  0  0  0  0
   13.7289 -137.9949   19.4036 H   0  0  0  0  0
   17.2123 -137.4752   15.8781 H   0  0  0  0  0
   15.6042 -136.3933   19.7283 H   0  0  0  0  0
   17.3421 -136.1353   17.9695 H   0  0  0  0  0
    7.4325 -132.1992   13.9144 H   0  0  0  0  0
    9.7118 -131.5887   12.8941 H   0  0  0  0  0
   11.5237 -133.0452   11.3000 H   0  0  0  0  0
   12.2019 -132.9239   12.9421 H   0  0  0  0  0
   12.0408 -134.5159   12.1606 H   0  0  0  0  0
   10.9020 -136.3640   12.1688 H   0  0  0  0  0
    9.4393 -137.0574   12.9391 H   0  0  0  0  0
   11.8973 -136.1669   14.4294 H   0  0  0  0  0
  2  1  1  0  0  0
  1  4  4  0  0  0
  1  6  4  0  0  0
  2  3  2  0  0  0
 17  2  1  0  0  0
  4  5  4  0  0  0
  5  8  4  0  0  0
  6  7  4  0  0  0
  7  8  4  0  0  0
  8  9  1  0  0  0
  9 10  1  0  0  0
 10 11  1  0  0  0
 11 12  4  0  0  0
 11 16  4  0  0  0
 12 13  4  0  0  0
 13 14  4  0  0  0
 15 14  4  0  0  0
 16 15  4  0  0  0
 18 17  1  0  0  0
 19 18  1  0  0  0
 18 21  1  0  0  0
 19 20  2  0  0  0
 24 19  1  0  0  0
 21 22  1  0  0  0
 21 23  1  0  0  0
 25 24  1  0  0  0
 26 25  1  0  0  0
 25 28  1  0  0  0
 26 27  2  0  0  0
 43 26  1  0  0  0
 28 29  1  0  0  0
 29 30  1  0  0  0
 30 31  4  0  0  0
 30 32  4  0  0  0
 31 33  4  0  0  0
 32 34  4  0  0  0
 33 35  4  0  0  0
 34 35  4  0  0  0
 36 37  4  0  0  0
 40 36  4  0  0  0
 38 37  4  0  0  0
 38 39  1  0  0  0
 41 38  4  0  0  0
 41 40  4  0  0  0
 42 41  1  0  0  0
 42 43  1  0  0  0
  4 44  1  0  0  0
  5 45  1  0  0  0
  6 46  1  0  0  0
  7 47  1  0  0  0
 10 48  1  0  0  0
 10 49  1  0  0  0
 12 50  1  0  0  0
 13 51  1  0  0  0
 14 52  1  0  0  0
 15 53  1  0  0  0
 16 54  1  0  0  0
 17 55  1  0  0  0
 18 56  1  0  0  0
 21 57  1  0  0  0
 22 58  1  0  0  0
 23 59  1  0  0  0
 23 60  1  0  0  0
 23 61  1  0  0  0
 24 62  1  0  0  0
 25 63  1  0  0  0
 28 64  1  0  0  0
 28 65  1  0  0  0
 29 66  1  0  0  0
 29 67  1  0  0  0
 31 68  1  0  0  0
 32 69  1  0  0  0
 33 70  1  0  0  0
 34 71  1  0  0  0
 35 72  1  0  0  0
 36 73  1  0  0  0
 37 74  1  0  0  0
 39 75  1  0  0  0
 39 76  1  0  0  0
 39 77  1  0  0  0
 42 78  1  0  0  0
 42 79  1  0  0  0
 43 80  1  0  0  0
M  END
$$$$
