5mo2_ligand
  -I-interpret- 

 22 22  0  0  0  0  0  0  0  0999 V2000
   -1.6950  -13.5420  -14.6370 C   0  0  0  0  0
   -1.3970  -15.0110  -14.8090 C   0  0  0  0  0
   -0.7740  -15.2810  -16.1540 C   0  0  0  0  0
   -1.6240  -14.7820  -17.2430 N   0  0  0  0  0
   -1.8990  -13.3380  -17.1000 C   0  0  0  0  0
   -2.5490  -13.0500  -15.7720 C   0  0  0  0  0
   -2.0520  -15.4990  -18.2710 C   0  0  0  0  0
   -1.7260  -16.7830  -18.3860 N   0  0  0  0  0
   -2.8000  -14.9840  -19.2240 N   0  0  0  0  0
   -0.7575  -12.9861  -14.6285 H   0  0  0  0  0
   -2.2286  -13.3934  -13.6982 H   0  0  0  0  0
   -2.3311  -15.5682  -14.7378 H   0  0  0  0  0
   -0.6983  -15.3197  -14.0314 H   0  0  0  0  0
   -0.6540  -16.3579  -16.2719 H   0  0  0  0  0
    0.1875  -14.7697  -16.2010 H   0  0  0  0  0
   -2.5733  -13.0266  -17.8978 H   0  0  0  0  0
   -0.9573  -12.7921  -17.1577 H   0  0  0  0  0
   -2.6774  -11.9722  -15.6717 H   0  0  0  0  0
   -3.5102  -13.5626  -15.7344 H   0  0  0  0  0
   -2.0540  -17.3227  -19.1870 H   0  0  0  0  0
   -1.1480  -17.2282  -17.6732 H   0  0  0  0  0
   -3.1027  -15.5657  -20.0052 H   0  0  0  0  0
  1  2  1  0  0  0
  1  6  1  0  0  0
  2  3  1  0  0  0
  3  4  1  0  0  0
  4  5  1  0  0  0
  4  7  1  0  0  0
  5  6  1  0  0  0
  7  8  1  0  0  0
  7  9  2  0  0  0
  1 10  1  0  0  0
  1 11  1  0  0  0
  2 12  1  0  0  0
  2 13  1  0  0  0
  3 14  1  0  0  0
  3 15  1  0  0  0
  5 16  1  0  0  0
  5 17  1  0  0  0
  6 18  1  0  0  0
  6 19  1  0  0  0
  8 20  1  0  0  0
  8 21  1  0  0  0
  9 22  1  0  0  0
M  END
$$$$
