### 
### Created by X-TOOL on Mon Sep 10 21:12:50 2018
### 

@<TRIPOS>MOLECULE
1mn9_ligand
   40    41     1     0     0
SMALL
GAST_HUCK


@<TRIPOS>ATOM
      1 PG         70.0200   29.1910    2.1890 P.3       1 RTP         0.1879
      2 O1G        70.4090   30.4430    2.9010 O.co2     1 RTP        -0.6091
      3 O2G        70.1770   27.9030    2.9240 O.co2     1 RTP        -0.6091
      4 O3G        70.6850   29.3210    0.8610 O.co2     1 RTP        -0.6091
      5 O3B        68.4370   29.3140    1.8860 O.3       1 RTP        -0.1546
      6 PB         67.3110   29.1810    0.7370 P.3       1 RTP         0.3553
      7 O1B        67.5840   27.9800   -0.0980 O.co2     1 RTP        -0.5652
      8 O2B        65.9830   29.3250    1.3750 O.co2     1 RTP        -0.5652
      9 O3A        67.4870   30.4490   -0.2150 O.3       1 RTP        -0.1171
     10 PA         68.2070   30.6740   -1.6210 P.3       1 RTP         0.3266
     11 O1A        67.1900   30.7300   -2.7040 O.co2     1 RTP        -0.5692
     12 O2A        69.3520   29.7350   -1.7300 O.co2     1 RTP        -0.5692
     13 O5         68.7850   32.1350   -1.3840 O.3       1 RTP        -0.2441
     14 C5         69.7850   32.3530   -0.4040 C.3       1 RTP         0.1131
     15 C4         69.3340   33.4110    0.5640 C.3       1 RTP         0.1191
     16 O4         69.3620   34.7110   -0.0840 O.3       1 RTP        -0.3341
     17 C1         68.2010   35.4600    0.2670 C.3       1 RTP         0.2177
     18 N1         67.3870   35.6090   -0.9340 N.pl3     1 RTP        -0.1389
     19 N2         66.7520   36.7470   -1.3400 N.2       1 RTP        -0.1583
     20 N3         65.2750   38.5860   -2.7230 N.am      1 RTP        -0.2984
     21 C6         65.3130   37.3100   -3.2900 C.2       1 RTP         0.2242
     22 O3         64.6960   37.0780   -4.3350 O.2       1 RTP        -0.3823
     23 C3         66.1010   36.4210   -2.5240 C.2       1 RTP         0.1768
     24 N4         66.3460   35.0870   -2.8370 N.2       1 RTP        -0.2689
     25 C5         67.1060   34.6510   -1.8730 C.2       1 RTP         0.1355
     26 C2         67.4720   34.6990    1.3770 C.3       1 RTP         0.1414
     27 O2         67.9550   35.1380    2.6350 O.3       1 RTP        -0.3834
     28 C3         67.9030   33.2870    1.0440 C.3       1 RTP         0.1152
     29 O3         67.7990   32.4120    2.1590 O.3       1 RTP        -0.3864
     30 H1         70.7122   32.6812   -0.8964 H         1 RTP         0.0648
     31 H2         69.9712   31.4160    0.1412 H         1 RTP         0.0648
     32 H3         70.0121   33.3957    1.4300 H         1 RTP         0.0651
     33 H4         68.4879   36.4553    0.6371 H         1 RTP         0.1031
     34 H5         65.7748   38.7724   -1.8772 H         1 RTP         0.1810
     35 H6         64.7479   39.3131   -3.1629 H         1 RTP         0.1810
     36 H7         67.4799   33.6296   -1.8188 H         1 RTP         0.1376
     37 H8         66.3796   34.8181    1.3281 H         1 RTP         0.0679
     38 H9         67.7943   36.0698    2.7270 H         1 RTP         0.2101
     39 H10        67.2728   32.8909    0.2341 H         1 RTP         0.0648
     40 H11        68.0789   31.5409    1.9037 H         1 RTP         0.2100
@<TRIPOS>BOND
     1    1    2 ar 
     2    1    3 ar 
     3    1    4 ar 
     4    5    1 1  
     5    6    5 1  
     6    6    7 ar 
     7    6    8 ar 
     8    9    6 1  
     9   10    9 1  
    10   10   11 ar 
    11   10   12 ar 
    12   13   10 1  
    13   14   13 1  
    14   15   14 1  
    15   16   15 1  
    16   15   28 1  
    17   17   16 1  
    18   18   17 1  
    19   17   26 1  
    20   19   18 1  
    21   18   25 1  
    22   23   19 2  
    23   21   20 am 
    24   21   22 2  
    25   21   23 1  
    26   23   24 1  
    27   24   25 2  
    28   26   27 1  
    29   26   28 1  
    30   28   29 1  
    31   14   30 1  
    32   14   31 1  
    33   15   32 1  
    34   17   33 1  
    35   20   34 1  
    36   20   35 1  
    37   25   36 1  
    38   26   37 1  
    39   27   38 1  
    40   28   39 1  
    41   29   40 1  
@<TRIPOS>SUBSTRUCTURE
     1 RTP         1

