1mn9_ligand
  -I-interpret- 

 44 45  0  0  0  0  0  0  0  0999 V2000
   70.0200   29.1910    2.1890 P   0  0  0  0  0
   70.4090   30.4430    2.9010 O   0  0  0  0  0
   70.1770   27.9030    2.9240 O   0  0  0  0  0
   70.6850   29.3210    0.8610 O   0  0  0  0  0
   68.4370   29.3140    1.8860 O   0  0  0  0  0
   67.3110   29.1810    0.7370 P   0  0  0  0  0
   67.5840   27.9800   -0.0980 O   0  0  0  0  0
   65.9830   29.3250    1.3750 O   0  0  0  0  0
   67.4870   30.4490   -0.2150 O   0  0  0  0  0
   68.2070   30.6740   -1.6210 P   0  0  0  0  0
   67.1900   30.7300   -2.7040 O   0  0  0  0  0
   69.3520   29.7350   -1.7300 O   0  0  0  0  0
   68.7850   32.1350   -1.3840 O   0  0  0  0  0
   69.7850   32.3530   -0.4040 C   0  0  0  0  0
   69.3340   33.4110    0.5640 C   0  0  0  0  0
   69.3620   34.7110   -0.0840 O   0  0  0  0  0
   68.2010   35.4600    0.2670 C   0  0  0  0  0
   67.3870   35.6090   -0.9340 N   0  0  0  0  0
   66.7520   36.7470   -1.3400 N   0  0  0  0  0
   65.2750   38.5860   -2.7230 N   0  0  0  0  0
   65.3130   37.3100   -3.2900 C   0  0  0  0  0
   64.6960   37.0780   -4.3350 O   0  0  0  0  0
   66.1010   36.4210   -2.5240 C   0  0  0  0  0
   66.3460   35.0870   -2.8370 N   0  0  0  0  0
   67.1060   34.6510   -1.8730 C   0  0  0  0  0
   67.4720   34.6990    1.3770 C   0  0  0  0  0
   67.9550   35.1380    2.6350 O   0  0  0  0  0
   67.9030   33.2870    1.0440 C   0  0  0  0  0
   67.7990   32.4120    2.1590 O   0  0  0  0  0
   70.0193   30.4451    3.7783 H   0  0  0  0  0
   69.7033   27.9517    3.7576 H   0  0  0  0  0
   68.4792   28.0272   -0.4414 H   0  0  0  0  0
   66.5223   31.3827   -2.4810 H   0  0  0  0  0
   70.7015   32.6822   -0.8938 H   0  0  0  0  0
   69.9648   31.4244    0.1377 H   0  0  0  0  0
   70.0156   33.2921    1.4062 H   0  0  0  0  0
   68.4391   36.4562    0.6398 H   0  0  0  0  0
   64.7374   39.3277   -3.1717 H   0  0  0  0  0
   65.7848   38.7761   -1.8603 H   0  0  0  0  0
   67.4802   33.6287   -1.8187 H   0  0  0  0  0
   66.3905   34.8227    1.4335 H   0  0  0  0  0
   67.5003   34.6631    3.3345 H   0  0  0  0  0
   67.2557   32.8467    0.2856 H   0  0  0  0  0
   66.8816   32.3567    2.4365 H   0  0  0  0  0
  1  2  1  0  0  0
  1  3  1  0  0  0
  1  4  2  0  0  0
  5  1  1  0  0  0
  6  5  1  0  0  0
  6  7  1  0  0  0
  6  8  2  0  0  0
  9  6  1  0  0  0
 10  9  1  0  0  0
 10 11  1  0  0  0
 10 12  2  0  0  0
 13 10  1  0  0  0
 14 13  1  0  0  0
 15 14  1  0  0  0
 16 15  1  0  0  0
 15 28  1  0  0  0
 17 16  1  0  0  0
 18 17  1  0  0  0
 17 26  1  0  0  0
 19 18  4  0  0  0
 18 25  4  0  0  0
 23 19  4  0  0  0
 21 20  1  0  0  0
 21 22  2  0  0  0
 21 23  1  0  0  0
 23 24  4  0  0  0
 24 25  4  0  0  0
 26 27  1  0  0  0
 26 28  1  0  0  0
 28 29  1  0  0  0
  2 30  1  0  0  0
  3 31  1  0  0  0
  7 32  1  0  0  0
 11 33  1  0  0  0
 14 34  1  0  0  0
 14 35  1  0  0  0
 15 36  1  0  0  0
 17 37  1  0  0  0
 20 38  1  0  0  0
 20 39  1  0  0  0
 25 40  1  0  0  0
 26 41  1  0  0  0
 27 42  1  0  0  0
 28 43  1  0  0  0
 29 44  1  0  0  0
M  END
$$$$
