4hxm_ligand
  -I-interpret- 

 44 46  0  0  0  0  0  0  0  0999 V2000
    2.7340   -8.6040    3.9760 C   0  0  0  0  0
    2.1750   -7.5330    3.1060 C   0  0  0  0  0
    2.6260   -7.7690    1.7080 C   0  0  0  0  0
    4.0850   -7.4850    1.5620 C   0  0  0  0  0
    4.6420   -6.6930    2.3070 O   0  0  0  0  0
    4.7660   -8.1700    0.5200 N   0  0  0  0  0
    6.1490   -8.0680    0.1710 C   0  0  0  0  0
    6.5910   -8.9160   -0.8280 C   0  0  0  0  0
    7.0280   -7.1700    0.7630 C   0  0  0  0  0
    8.3430   -7.1550    0.3480 C   0  0  0  0  0
    9.3090   -6.2040    0.9450 C   0  0  0  0  0
    9.0290   -5.2310    1.9660 C   0  0  0  0  0
   10.4570   -4.3790    2.2890 S   0  0  0  0  0
   11.4000   -5.1840    1.1640 C   0  0  0  0  0
   12.5880   -5.0180    0.9080 O   0  0  0  0  0
   10.6450   -6.0990    0.5710 N   0  0  0  0  0
    8.7970   -7.9940   -0.6510 C   0  0  0  0  0
    7.9150   -8.8780   -1.2380 C   0  0  0  0  0
    8.3560   -9.7050   -2.3000 N   0  0  0  0  0
    7.6770   -9.3290   -3.7530 S   0  0  0  0  0
    6.3710   -9.9480   -3.7540 O   0  0  0  0  0
    8.3230  -10.0440   -4.8380 O   0  0  0  0  0
    7.4640   -7.5900   -4.1600 C   0  0  0  0  0
    6.6430   -6.4990   -3.2720 S   0  0  0  0  0
    6.7420   -5.1400   -4.1570 C   0  0  0  0  0
    7.4740   -5.4390   -5.3330 C   0  0  0  0  0
    7.8970   -6.8890   -5.3510 C   0  0  0  0  0
    2.3773   -9.5742    3.6304 H   0  0  0  0  0
    3.8226   -8.5777    3.9284 H   0  0  0  0  0
    2.4099   -8.4414    5.0039 H   0  0  0  0  0
    2.5242   -6.5587    3.4479 H   0  0  0  0  0
    1.0861   -7.5503    3.1513 H   0  0  0  0  0
    2.0720   -7.1047    1.0447 H   0  0  0  0  0
    2.4456   -8.8134    1.4536 H   0  0  0  0  0
    4.2039   -8.8077   -0.0438 H   0  0  0  0  0
    5.8972   -9.6157   -1.2940 H   0  0  0  0  0
    6.6844   -6.4892    1.5418 H   0  0  0  0  0
    8.0650   -5.0696    2.4485 H   0  0  0  0  0
   11.0355   -6.7127   -0.1441 H   0  0  0  0  0
    9.8382   -7.9582   -0.9714 H   0  0  0  0  0
    9.0296  -10.4610   -2.1769 H   0  0  0  0  0
    6.3202   -4.1702   -3.8930 H   0  0  0  0  0
    7.7013   -4.7191   -6.1192 H   0  0  0  0  0
    8.4598   -7.3515   -6.1619 H   0  0  0  0  0
  1  2  1  0  0  0
  2  3  1  0  0  0
  3  4  1  0  0  0
  4  5  2  0  0  0
  4  6  1  0  0  0
  6  7  1  0  0  0
  7  8  4  0  0  0
  7  9  4  0  0  0
  8 18  4  0  0  0
  9 10  4  0  0  0
 10 11  1  0  0  0
 10 17  4  0  0  0
 11 12  2  0  0  0
 11 16  1  0  0  0
 12 13  1  0  0  0
 13 14  1  0  0  0
 14 15  2  0  0  0
 14 16  1  0  0  0
 17 18  4  0  0  0
 18 19  1  0  0  0
 19 20  1  0  0  0
 20 21  2  0  0  0
 20 22  2  0  0  0
 20 23  1  0  0  0
 23 24  4  0  0  0
 23 27  4  0  0  0
 24 25  4  0  0  0
 25 26  4  0  0  0
 26 27  4  0  0  0
  1 28  1  0  0  0
  1 29  1  0  0  0
  1 30  1  0  0  0
  2 31  1  0  0  0
  2 32  1  0  0  0
  3 33  1  0  0  0
  3 34  1  0  0  0
  6 35  1  0  0  0
  8 36  1  0  0  0
  9 37  1  0  0  0
 12 38  1  0  0  0
 16 39  1  0  0  0
 17 40  1  0  0  0
 19 41  1  0  0  0
 25 42  1  0  0  0
 26 43  1  0  0  0
 27 44  1  0  0  0
M  END
$$$$
