5lzh_ligand
  -I-interpret- 

 82 84  0  0  0  0  0  0  0  0999 V2000
  -19.4180    6.7020    0.7780 C   0  0  0  0  0
  -18.2810    7.7570    0.6250 C   0  0  0  0  0
  -16.9780    7.2510    1.1890 C   0  0  0  0  0
  -20.6530    7.1260   -0.0600 C   0  0  0  0  0
  -21.4300    7.9840   -2.1720 O   0  0  0  0  0
  -20.2530    7.3910   -1.4980 C   0  0  0  0  0
  -21.7340    6.1240   -0.0250 O   0  0  0  0  0
  -18.9930    5.4110    0.3650 O   0  0  0  0  0
  -16.1320    8.4200    1.2970 O   0  0  0  0  0
  -18.0050    7.9300   -0.7680 O   0  0  0  0  0
  -19.1510    8.4710   -1.5150 C   0  0  0  0  0
  -18.5730    8.7120   -2.8750 C   0  0  0  0  0
  -17.9950   10.1000   -2.7770 C   0  0  0  0  0
  -17.3730   10.5310   -4.0670 N   0  0  0  0  0
  -18.1200   10.9980   -5.0880 C   0  0  0  0  0
  -19.3470   10.9850   -5.0430 O   0  0  0  0  0
  -17.3790   11.5530   -6.3070 C   0  0  0  0  0
  -18.1010   12.8220   -6.8420 C   0  0  0  0  0
  -18.4150   13.8460   -5.7500 C   0  0  0  0  0
  -17.7950   14.0280   -4.5760 C   0  0  0  0  0
  -19.3970   14.7330   -5.8010 N   0  0  0  0  0
  -19.4330   15.4270   -4.6790 N   0  0  0  0  0
  -18.4020   14.9900   -3.8950 N   0  0  0  0  0
  -18.1750   15.5500   -2.6060 C   0  0  0  0  0
  -19.0930   14.7280   -1.6660 C   0  0  0  0  0
  -18.7200   13.5550   -1.3560 O   0  0  0  0  0
  -20.1360   15.2670   -1.2320 O   0  0  0  0  0
  -16.7450   15.3500   -2.3570 O   0  0  0  0  0
  -18.4590   17.0230   -2.5530 C   0  0  0  0  0
  -17.9930   17.5560   -1.1710 C   0  0  0  0  0
  -18.0560   19.0260   -1.0870 O   0  0  0  0  0
  -16.5040   17.1620   -0.9090 C   0  0  0  0  0
  -16.2520   17.5780    0.4540 N   0  0  0  0  0
  -14.9790   17.8930    0.8410 C   0  0  0  0  0
  -14.0420   17.8800    0.0630 O   0  0  0  0  0
  -14.9040   18.3650    2.2610 C   0  0  0  0  0
  -16.4110   15.6830   -1.0300 C   0  0  0  0  0
  -15.0270   15.0430   -0.8380 C   0  0  0  0  0
  -14.0480   15.7320   -1.6300 O   0  0  0  0  0
  -15.0450   13.5570   -1.2840 C   0  0  0  0  0
  -16.1830   12.8960   -0.6420 O   0  0  0  0  0
  -13.7900   12.8850   -0.7900 C   0  0  0  0  0
  -13.5730   11.7300   -1.5480 O   0  0  0  0  0
  -19.6826    6.6550    1.8344 H   0  0  0  0  0
  -18.6137    8.6618    1.1337 H   0  0  0  0  0
  -16.5318    6.4894    0.5495 H   0  0  0  0  0
  -17.1192    6.7662    2.1550 H   0  0  0  0  0
  -21.0369    8.0405    0.3922 H   0  0  0  0  0
  -22.1457    7.3443   -2.1854 H   0  0  0  0  0
  -19.9111    6.4731   -1.9762 H   0  0  0  0  0
  -21.9855    5.9579    0.8865 H   0  0  0  0  0
  -18.2287    5.1463    0.8822 H   0  0  0  0  0
  -15.2782    8.1639    1.6535 H   0  0  0  0  0
  -19.6040    9.3819   -1.1237 H   0  0  0  0  0
  -19.3194    8.6273   -3.6648 H   0  0  0  0  0
  -17.8240    7.9680   -3.1461 H   0  0  0  0  0
  -17.2235   10.0977   -2.0070 H   0  0  0  0  0
  -18.8017   10.7923   -2.5359 H   0  0  0  0  0
  -16.3608   10.4703   -4.1770 H   0  0  0  0  0
  -17.3623   10.7950   -7.0901 H   0  0  0  0  0
  -16.3619   11.8166   -6.0169 H   0  0  0  0  0
  -19.0484   12.5031   -7.2765 H   0  0  0  0  0
  -17.4359   13.3007   -7.5607 H   0  0  0  0  0
  -16.9238   13.4698   -4.2330 H   0  0  0  0  0
  -17.8959   13.3533   -1.8053 H   0  0  0  0  0
  -19.5257   17.2045   -2.6849 H   0  0  0  0  0
  -17.9257   17.5370   -3.3527 H   0  0  0  0  0
  -18.6660   17.1126   -0.4372 H   0  0  0  0  0
  -17.7599   19.3088   -0.2187 H   0  0  0  0  0
  -15.7913   17.6148   -1.5983 H   0  0  0  0  0
  -17.0201   17.6359    1.1226 H   0  0  0  0  0
  -14.1794   17.7598    2.8059 H   0  0  0  0  0
  -14.5937   19.4097    2.2794 H   0  0  0  0  0
  -15.8845   18.2676    2.7272 H   0  0  0  0  0
  -17.0596   15.3140   -0.2355 H   0  0  0  0  0
  -14.7744   15.1103    0.2202 H   0  0  0  0  0
  -13.1889   15.3233   -1.5015 H   0  0  0  0  0
  -15.1143   13.4948   -2.3700 H   0  0  0  0  0
  -16.2081   11.9740   -0.9084 H   0  0  0  0  0
  -13.8996   12.6226    0.2623 H   0  0  0  0  0
  -12.9417   13.5615   -0.8941 H   0  0  0  0  0
  -12.7750   11.2929   -1.2418 H   0  0  0  0  0
  1  2  1  0  0  0
  1  4  1  0  0  0
  1  8  1  0  0  0
  2  3  1  0  0  0
  2 10  1  0  0  0
  3  9  1  0  0  0
  4  6  1  0  0  0
  4  7  1  0  0  0
  6  5  1  0  0  0
  6 11  1  0  0  0
 10 11  1  0  0  0
 11 12  1  0  0  0
 12 13  1  0  0  0
 13 14  1  0  0  0
 14 15  1  0  0  0
 15 16  2  0  0  0
 15 17  1  0  0  0
 17 18  1  0  0  0
 18 19  1  0  0  0
 19 20  4  0  0  0
 19 21  4  0  0  0
 20 23  4  0  0  0
 21 22  4  0  0  0
 22 23  4  0  0  0
 23 24  1  0  0  0
 24 25  1  0  0  0
 24 28  1  0  0  0
 24 29  1  0  0  0
 25 26  1  0  0  0
 25 27  2  0  0  0
 28 37  1  0  0  0
 29 30  1  0  0  0
 30 31  1  0  0  0
 30 32  1  0  0  0
 32 33  1  0  0  0
 32 37  1  0  0  0
 33 34  1  0  0  0
 34 35  2  0  0  0
 34 36  1  0  0  0
 37 38  1  0  0  0
 38 39  1  0  0  0
 38 40  1  0  0  0
 40 41  1  0  0  0
 40 42  1  0  0  0
 42 43  1  0  0  0
  1 44  1  0  0  0
  2 45  1  0  0  0
  3 46  1  0  0  0
  3 47  1  0  0  0
  4 48  1  0  0  0
  5 49  1  0  0  0
  6 50  1  0  0  0
  7 51  1  0  0  0
  8 52  1  0  0  0
  9 53  1  0  0  0
 11 54  1  0  0  0
 12 55  1  0  0  0
 12 56  1  0  0  0
 13 57  1  0  0  0
 13 58  1  0  0  0
 14 59  1  0  0  0
 17 60  1  0  0  0
 17 61  1  0  0  0
 18 62  1  0  0  0
 18 63  1  0  0  0
 20 64  1  0  0  0
 26 65  1  0  0  0
 29 66  1  0  0  0
 29 67  1  0  0  0
 30 68  1  0  0  0
 31 69  1  0  0  0
 32 70  1  0  0  0
 33 71  1  0  0  0
 36 72  1  0  0  0
 36 73  1  0  0  0
 36 74  1  0  0  0
 37 75  1  0  0  0
 38 76  1  0  0  0
 39 77  1  0  0  0
 40 78  1  0  0  0
 41 79  1  0  0  0
 42 80  1  0  0  0
 42 81  1  0  0  0
 43 82  1  0  0  0
M  END
$$$$
