3d83_ligand
  -I-interpret- 

 65 69  0  0  0  0  0  0  0  0999 V2000
   46.2930   34.8180   30.9770 O   0  0  0  0  0
   46.0010   33.6850   30.5740 C   0  0  0  0  0
   46.7750   33.0420   29.6770 N   0  0  0  0  0
   47.9870   33.6210   29.0970 C   0  0  0  0  0
   49.0690   32.5610   28.8470 C   0  0  0  0  0
   50.4230   33.1260   29.2810 C   0  0  0  0  0
   49.7130   32.0970   30.1540 C   0  0  0  0  0
   44.7130   33.0050   31.0550 C   0  0  0  0  0
   44.3990   31.7120   30.6360 C   0  0  0  0  0
   43.2190   31.0710   31.0750 C   0  0  0  0  0
   43.8320   33.6670   31.9150 C   0  0  0  0  0
   42.6540   33.0280   32.3520 C   0  0  0  0  0
   42.3460   31.7220   31.9440 C   0  0  0  0  0
   41.1220   31.1280   32.3350 C   0  0  0  0  0
   39.9640   31.5260   31.6450 C   0  0  0  0  0
   40.0470   32.5660   30.5520 C   0  0  0  0  0
   40.9900   30.1500   33.3360 C   0  0  0  0  0
   39.7240   29.6130   33.6760 C   0  0  0  0  0
   38.5790   30.0370   32.9910 C   0  0  0  0  0
   38.7050   30.9950   31.9660 C   0  0  0  0  0
   39.5810   28.6850   34.6690 N   0  0  0  0  0
   40.2020   28.7100   35.8760 C   0  0  0  0  0
   41.1200   29.4700   36.1680 O   0  0  0  0  0
   39.7990   27.7130   36.9570 C   0  0  0  0  0
   40.1000   27.9850   38.3110 C   0  0  0  0  0
   39.7450   27.0410   39.2980 C   0  0  0  0  0
   39.1500   25.8840   38.9140 N   0  0  0  0  0
   38.8610   25.5970   37.6230 C   0  0  0  0  0
   39.1850   26.5000   36.6040 C   0  0  0  0  0
   40.0600   27.2770   40.6590 N   0  0  0  0  0
   39.9840   26.1460   41.5840 C   0  0  0  0  0
   39.8540   26.6370   43.0270 C   0  0  0  0  0
   40.7740   27.6980   43.2700 O   0  0  0  0  0
   40.3550   28.8400   42.5260 C   0  0  0  0  0
   40.5920   28.6050   41.0320 C   0  0  0  0  0
   46.5015   32.1030   29.3876 H   0  0  0  0  0
   48.3841   34.3539   29.7994 H   0  0  0  0  0
   47.7246   34.0721   28.1400 H   0  0  0  0  0
   48.6646   32.0524   27.9719 H   0  0  0  0  0
   50.9055   34.0972   29.3913 H   0  0  0  0  0
   51.4127   33.2929   28.8558 H   0  0  0  0  0
   49.9426   31.1614   30.6639 H   0  0  0  0  0
   49.4349   31.9663   31.1998 H   0  0  0  0  0
   45.0744   31.1882   29.9595 H   0  0  0  0  0
   42.9904   30.0619   30.7321 H   0  0  0  0  0
   44.0566   34.6801   32.2486 H   0  0  0  0  0
   41.9718   33.5571   33.0174 H   0  0  0  0  0
   40.4368   33.4960   30.9659 H   0  0  0  0  0
   40.7113   32.2109   29.7641 H   0  0  0  0  0
   39.0526   32.7387   30.1403 H   0  0  0  0  0
   41.8784   29.7982   33.8604 H   0  0  0  0  0
   37.6009   29.6303   33.2480 H   0  0  0  0  0
   37.8213   31.3252   31.4200 H   0  0  0  0  0
   38.9512   27.9035   34.4870 H   0  0  0  0  0
   40.6002   28.9126   38.5894 H   0  0  0  0  0
   38.3720   24.6549   37.3751 H   0  0  0  0  0
   38.9662   26.2676   35.5618 H   0  0  0  0  0
   40.8949   25.5543   41.4934 H   0  0  0  0  0
   39.1091   25.5452   41.3356 H   0  0  0  0  0
   40.0725   25.8125   43.7057 H   0  0  0  0  0
   38.8393   26.9998   43.1906 H   0  0  0  0  0
   40.9285   29.7091   42.8484 H   0  0  0  0  0
   39.2925   29.0112   42.6986 H   0  0  0  0  0
   40.0844   29.3779   40.4549 H   0  0  0  0  0
   41.6605   28.6439   40.8204 H   0  0  0  0  0
  1  2  2  0  0  0
  2  3  1  0  0  0
  2  8  1  0  0  0
  3  4  1  0  0  0
  4  5  1  0  0  0
  5  6  1  0  0  0
  5  7  1  0  0  0
  6  7  1  0  0  0
  8  9  4  0  0  0
  8 11  4  0  0  0
  9 10  4  0  0  0
 10 13  4  0  0  0
 11 12  4  0  0  0
 12 13  4  0  0  0
 13 14  1  0  0  0
 14 15  4  0  0  0
 14 17  4  0  0  0
 15 16  1  0  0  0
 15 20  4  0  0  0
 17 18  4  0  0  0
 18 19  4  0  0  0
 18 21  1  0  0  0
 19 20  4  0  0  0
 21 22  1  0  0  0
 22 23  2  0  0  0
 22 24  1  0  0  0
 24 25  4  0  0  0
 24 29  4  0  0  0
 25 26  4  0  0  0
 26 27  4  0  0  0
 26 30  1  0  0  0
 27 28  4  0  0  0
 28 29  4  0  0  0
 30 31  1  0  0  0
 30 35  1  0  0  0
 31 32  1  0  0  0
 32 33  1  0  0  0
 33 34  1  0  0  0
 34 35  1  0  0  0
  3 36  1  0  0  0
  4 37  1  0  0  0
  4 38  1  0  0  0
  5 39  1  0  0  0
  6 40  1  0  0  0
  6 41  1  0  0  0
  7 42  1  0  0  0
  7 43  1  0  0  0
  9 44  1  0  0  0
 10 45  1  0  0  0
 11 46  1  0  0  0
 12 47  1  0  0  0
 16 48  1  0  0  0
 16 49  1  0  0  0
 16 50  1  0  0  0
 17 51  1  0  0  0
 19 52  1  0  0  0
 20 53  1  0  0  0
 21 54  1  0  0  0
 25 55  1  0  0  0
 28 56  1  0  0  0
 29 57  1  0  0  0
 31 58  1  0  0  0
 31 59  1  0  0  0
 32 60  1  0  0  0
 32 61  1  0  0  0
 34 62  1  0  0  0
 34 63  1  0  0  0
 35 64  1  0  0  0
 35 65  1  0  0  0
M  END
$$$$
