6jan_ligand
  -I-interpret- 

 45 46  0  0  0  0  0  0  0  0999 V2000
   -6.2530  -32.2160  -13.7120 C   0  0  0  0  0
   -7.5990  -31.9080  -13.0220 C   0  0  0  0  0
   -8.4420  -30.8730  -13.7990 C   0  0  0  0  0
   -7.6070  -29.6330  -14.0220 C   0  0  0  0  0
   -6.2840  -30.0180  -14.7300 C   0  0  0  0  0
   -5.4430  -28.7400  -14.8250 C   0  0  0  0  0
   -6.6390  -32.9570  -14.8460 O   0  0  0  0  0
   -8.3780  -33.0740  -12.9200 O   0  0  0  0  0
   -9.6080  -30.5500  -13.0210 O   0  0  0  0  0
   -8.3830  -28.6790  -14.7520 O   0  0  0  0  0
   -5.5580  -31.0000  -14.0170 O   0  0  0  0  0
   -4.2340  -28.9540  -15.6010 O   0  0  0  0  0
   -5.4100  -36.5510  -16.6470 C   0  0  0  0  0
   -5.1080  -36.3770  -15.1770 C   0  0  0  0  0
   -5.8580  -35.2610  -14.5330 C   0  0  0  0  0
   -5.7210  -33.9440  -15.3300 C   0  0  0  0  0
   -5.9750  -34.1510  -16.8110 C   0  0  0  0  0
   -5.5870  -32.9630  -17.6870 C   0  0  0  0  0
   -6.7050  -36.9390  -16.7890 O   0  0  0  0  0
   -5.3500  -37.6380  -14.4950 O   0  0  0  0  0
   -5.3620  -35.1670  -13.1880 O   0  0  0  0  0
   -5.2110  -35.2450  -17.2940 O   0  0  0  0  0
   -4.1900  -32.6960  -17.6010 O   0  0  0  0  0
   -5.5447  -32.7750  -13.1005 H   0  0  0  0  0
   -7.3443  -31.5070  -12.0410 H   0  0  0  0  0
   -8.7514  -31.2762  -14.7632 H   0  0  0  0  0
   -7.3288  -29.1692  -13.0756 H   0  0  0  0  0
   -6.5105  -30.4403  -15.7090 H   0  0  0  0  0
   -5.1573  -28.4393  -13.8170 H   0  0  0  0  0
   -6.0380  -27.9713  -15.3182 H   0  0  0  0  0
   -7.8864  -33.7450  -12.4408 H   0  0  0  0  0
  -10.1307  -31.3437  -12.8853 H   0  0  0  0  0
   -9.1863  -28.4816  -14.2648 H   0  0  0  0  0
   -3.7318  -28.1368  -15.6409 H   0  0  0  0  0
   -4.7623  -37.3036  -17.0967 H   0  0  0  0  0
   -4.0588  -36.0947  -15.0901 H   0  0  0  0  0
   -6.9306  -35.4545  -14.5199 H   0  0  0  0  0
   -4.6957  -33.6017  -15.1897 H   0  0  0  0  0
   -7.0508  -34.3123  -16.8805 H   0  0  0  0  0
   -6.1317  -32.0837  -17.3431 H   0  0  0  0  0
   -5.8338  -33.1980  -18.7223 H   0  0  0  0  0
   -6.9038  -37.0515  -17.7214 H   0  0  0  0  0
   -5.1603  -37.5361  -13.5595 H   0  0  0  0  0
   -5.8174  -34.4574  -12.7290 H   0  0  0  0  0
   -3.9737  -31.9462  -18.1601 H   0  0  0  0  0
  1  2  1  0  0  0
  7  1  1  0  0  0
  1 11  1  0  0  0
  2  3  1  0  0  0
  2  8  1  0  0  0
  3  4  1  0  0  0
  3  9  1  0  0  0
  5  4  1  0  0  0
  4 10  1  0  0  0
  5  6  1  0  0  0
 11  5  1  0  0  0
  6 12  1  0  0  0
 16  7  1  0  0  0
 13 14  1  0  0  0
 13 19  1  0  0  0
 22 13  1  0  0  0
 15 14  1  0  0  0
 14 20  1  0  0  0
 16 15  1  0  0  0
 15 21  1  0  0  0
 17 16  1  0  0  0
 18 17  1  0  0  0
 17 22  1  0  0  0
 23 18  1  0  0  0
  1 24  1  0  0  0
  2 25  1  0  0  0
  3 26  1  0  0  0
  4 27  1  0  0  0
  5 28  1  0  0  0
  6 29  1  0  0  0
  6 30  1  0  0  0
  8 31  1  0  0  0
  9 32  1  0  0  0
 10 33  1  0  0  0
 12 34  1  0  0  0
 13 35  1  0  0  0
 14 36  1  0  0  0
 15 37  1  0  0  0
 16 38  1  0  0  0
 17 39  1  0  0  0
 18 40  1  0  0  0
 18 41  1  0  0  0
 19 42  1  0  0  0
 20 43  1  0  0  0
 21 44  1  0  0  0
 23 45  1  0  0  0
M  END
$$$$
