2q1q_ligand
  -I-interpret- 

 32 33  0  0  0  0  0  0  0  0999 V2000
   -5.2520    4.5090   11.2130 O   0  0  0  0  0
   -4.0070    5.1270   11.6080 S   0  0  0  0  0
   -2.9710    4.2460   11.1220 O   0  0  0  0  0
   -3.7850    6.6210   10.9110 C   0  0  0  0  0
   -2.5260    7.3020   11.4600 C   0  0  0  0  0
   -1.9850    6.6550   12.7350 C   0  0  0  0  0
   -3.0830    6.3190   13.7370 C   0  0  0  0  0
   -3.8530    5.2320   13.1420 N   0  0  0  0  0
   -4.3780    4.2460   14.0100 C   0  0  0  0  0
   -3.5850    3.1360   14.3000 C   0  0  0  0  0
   -4.0580    2.1420   15.1650 C   0  0  0  0  0
   -5.6540    4.3450   14.5730 C   0  0  0  0  0
   -6.1280    3.3490   15.4340 C   0  0  0  0  0
   -5.3370    2.2300   15.7390 C   0  0  0  0  0
   -5.8650    1.0470   16.7210 S   0  0  0  0  0
   -7.3000    1.0520   16.7650 O   0  0  0  0  0
   -5.3130    1.2480   18.0320 O   0  0  0  0  0
   -5.3580   -0.3420   16.1270 N   0  0  0  0  0
   -4.6485    7.2455   11.1402 H   0  0  0  0  0
   -3.6712    6.4913    9.8347 H   0  0  0  0  0
   -2.7913    8.3308   11.7034 H   0  0  0  0  0
   -1.7513    7.2187   10.6978 H   0  0  0  0  0
   -1.3066    7.3649   13.2081 H   0  0  0  0  0
   -1.4924    5.7241   12.4543 H   0  0  0  0  0
   -3.7133    7.1855   13.9367 H   0  0  0  0  0
   -2.6627    6.0243   14.6985 H   0  0  0  0  0
   -2.5955    3.0422   13.8525 H   0  0  0  0  0
   -3.4238    1.2863   15.3967 H   0  0  0  0  0
   -6.2836    5.2036   14.3397 H   0  0  0  0  0
   -7.1215    3.4429   15.8724 H   0  0  0  0  0
   -6.0328   -1.0547   15.8495 H   0  0  0  0  0
   -4.3586   -0.5184   16.0243 H   0  0  0  0  0
  1  2  2  0  0  0
  2  3  2  0  0  0
  2  4  1  0  0  0
  2  8  1  0  0  0
  4  5  1  0  0  0
  5  6  1  0  0  0
  6  7  1  0  0  0
  7  8  1  0  0  0
  8  9  1  0  0  0
  9 10  4  0  0  0
  9 12  4  0  0  0
 10 11  4  0  0  0
 11 14  4  0  0  0
 12 13  4  0  0  0
 13 14  4  0  0  0
 14 15  1  0  0  0
 15 16  2  0  0  0
 15 17  2  0  0  0
 15 18  1  0  0  0
  4 19  1  0  0  0
  4 20  1  0  0  0
  5 21  1  0  0  0
  5 22  1  0  0  0
  6 23  1  0  0  0
  6 24  1  0  0  0
  7 25  1  0  0  0
  7 26  1  0  0  0
 10 27  1  0  0  0
 11 28  1  0  0  0
 12 29  1  0  0  0
 13 30  1  0  0  0
 18 31  1  0  0  0
 18 32  1  0  0  0
M  END
$$$$
