5zkb_ligand
  -I-interpret- 

 75 78  0  0  0  0  0  0  0  0999 V2000
  -60.7580  -12.7980   12.5880 C   0  0  0  0  0
  -58.8130  -13.6420   11.7410 C   0  0  0  0  0
  -56.7290  -14.8380   12.1730 C   0  0  0  0  0
  -59.9970  -13.8700   12.3210 N   0  0  0  0  0
  -56.4900  -15.8350   13.1150 C   0  0  0  0  0
  -55.2690  -15.8810   13.7650 C   0  0  0  0  0
  -57.9940  -14.7760   11.5030 N   0  0  0  0  0
  -54.2920  -14.9480   13.4850 C   0  0  0  0  0
  -54.5200  -13.9510   12.5520 C   0  0  0  0  0
  -55.7420  -13.8820   11.8850 C   0  0  0  0  0
  -58.3980  -15.7930   10.5900 C   0  0  0  0  0
  -57.4570  -16.7000   10.3130 N   0  0  0  0  0
  -57.7750  -17.7920    9.4060 C   0  0  0  0  0
  -57.3640  -17.4720    7.9840 C   0  0  0  0  0
  -56.3800  -18.7520    6.1710 C   0  0  0  0  0
  -57.6260  -18.3520    6.8390 N   0  3  0  0  0
  -57.1000  -12.1540   10.7770 N   0  0  0  0  0
  -55.9090  -12.7680   10.9070 C   0  0  0  0  0
  -54.9570  -12.4310   10.2080 O   0  0  0  0  0
  -58.3520  -12.3630   11.4040 C   0  0  0  0  0
  -55.7640  -17.6060    5.4050 C   0  0  0  0  0
  -56.7390  -17.0520    4.3920 C   0  0  0  0  0
  -58.0500  -16.6570    5.0590 C   0  0  0  0  0
  -58.6100  -17.8120    5.8770 C   0  0  0  0  0
  -59.1650  -11.2730   11.6950 C   0  0  0  0  0
  -59.2480  -18.9340    5.0530 C   0  0  0  0  0
  -61.3410  -18.6460    6.2840 C   0  0  0  0  0
  -61.7190  -18.5810    7.7490 C   0  0  0  0  0
  -62.9060  -17.6840    7.9800 C   0  0  0  0  0
  -60.6320  -20.8690    5.5980 C   0  0  0  0  0
  -60.6590  -21.8640    6.7330 C   0  0  0  0  0
  -61.1090  -23.2050    6.2760 C   0  0  0  0  0
  -60.3890  -11.5020   12.2990 C   0  0  0  0  0
  -60.2000  -19.5260    6.0000 N   0  3  0  0  0
  -59.5260  -15.7850   10.1190 O   0  0  0  0  0
  -61.7259  -12.9618   13.0618 H   0  0  0  0  0
  -57.2592  -16.5741   13.3390 H   0  0  0  0  0
  -55.0779  -16.6598   14.5033 H   0  0  0  0  0
  -53.3337  -14.9962   14.0021 H   0  0  0  0  0
  -53.7420  -13.2181   12.3384 H   0  0  0  0  0
  -56.5295  -16.6279   10.7312 H   0  0  0  0  0
  -58.8528  -17.9534    9.4253 H   0  0  0  0  0
  -57.2313  -18.6792    9.7306 H   0  0  0  0  0
  -56.2756  -17.4696    8.0423 H   0  0  0  0  0
  -57.9620  -16.5906    7.7526 H   0  0  0  0  0
  -56.6094  -19.5517    5.4668 H   0  0  0  0  0
  -55.6709  -19.0764    6.9327 H   0  0  0  0  0
  -58.0611  -19.1870    7.2311 H   0  0  0  0  0
  -57.1004  -11.3934   10.0974 H   0  0  0  0  0
  -54.8802  -17.9688    4.8802 H   0  0  0  0  0
  -55.4998  -16.8155    6.1074 H   0  0  0  0  0
  -56.9429  -17.8197    3.6455 H   0  0  0  0  0
  -56.3001  -16.1674    3.9305 H   0  0  0  0  0
  -58.7714  -16.3915    4.2862 H   0  0  0  0  0
  -57.8658  -15.8127    5.7234 H   0  0  0  0  0
  -59.4278  -17.3624    6.4401 H   0  0  0  0  0
  -58.8450  -10.2596   11.4525 H   0  0  0  0  0
  -58.5200  -19.6523    4.6759 H   0  0  0  0  0
  -59.7231  -18.5747    4.1401 H   0  0  0  0  0
  -61.0567  -17.6391    5.9784 H   0  0  0  0  0
  -62.2001  -19.0466    5.7459 H   0  0  0  0  0
  -60.8718  -18.1785    8.3042 H   0  0  0  0  0
  -61.9790  -19.5861    8.0810 H   0  0  0  0  0
  -62.6688  -16.6753    7.6417 H   0  0  0  0  0
  -63.7613  -18.0643    7.4214 H   0  0  0  0  0
  -63.1442  -17.6653    9.0435 H   0  0  0  0  0
  -61.6493  -20.7831    5.2161 H   0  0  0  0  0
  -59.9162  -21.2344    4.8617 H   0  0  0  0  0
  -61.3584  -21.5054    7.4882 H   0  0  0  0  0
  -59.6491  -21.9577    7.1324 H   0  0  0  0  0
  -62.1143  -23.1278    5.8618 H   0  0  0  0  0
  -60.4266  -23.5744    5.5105 H   0  0  0  0  0
  -61.1149  -23.8926    7.1217 H   0  0  0  0  0
  -61.0506  -10.6706   12.5422 H   0  0  0  0  0
  -59.6895  -19.6312    6.8768 H   0  0  0  0  0
  4  1  4  0  0  0
  1 33  4  0  0  0
  2  4  4  0  0  0
  7  2  1  0  0  0
  2 20  4  0  0  0
  3  5  4  0  0  0
  7  3  1  0  0  0
  3 10  4  0  0  0
  5  6  4  0  0  0
  6  8  4  0  0  0
 11  7  1  0  0  0
  9  8  4  0  0  0
 10  9  4  0  0  0
 10 18  1  0  0  0
 12 11  1  0  0  0
 11 35  2  0  0  0
 13 12  1  0  0  0
 14 13  1  0  0  0
 16 14  1  0  0  0
 16 15  1  0  0  0
 15 21  1  0  0  0
 24 16  1  0  0  0
 18 17  1  0  0  0
 20 17  1  0  0  0
 18 19  2  0  0  0
 20 25  4  0  0  0
 22 21  1  0  0  0
 23 22  1  0  0  0
 24 23  1  0  0  0
 26 24  1  0  0  0
 25 33  4  0  0  0
 34 26  1  0  0  0
 27 28  1  0  0  0
 34 27  1  0  0  0
 28 29  1  0  0  0
 30 31  1  0  0  0
 30 34  1  0  0  0
 31 32  1  0  0  0
  1 36  1  0  0  0
  5 37  1  0  0  0
  6 38  1  0  0  0
  8 39  1  0  0  0
  9 40  1  0  0  0
 12 41  1  0  0  0
 13 42  1  0  0  0
 13 43  1  0  0  0
 14 44  1  0  0  0
 14 45  1  0  0  0
 15 46  1  0  0  0
 15 47  1  0  0  0
 16 48  1  0  0  0
 17 49  1  0  0  0
 21 50  1  0  0  0
 21 51  1  0  0  0
 22 52  1  0  0  0
 22 53  1  0  0  0
 23 54  1  0  0  0
 23 55  1  0  0  0
 24 56  1  0  0  0
 25 57  1  0  0  0
 26 58  1  0  0  0
 26 59  1  0  0  0
 27 60  1  0  0  0
 27 61  1  0  0  0
 28 62  1  0  0  0
 28 63  1  0  0  0
 29 64  1  0  0  0
 29 65  1  0  0  0
 29 66  1  0  0  0
 30 67  1  0  0  0
 30 68  1  0  0  0
 31 69  1  0  0  0
 31 70  1  0  0  0
 32 71  1  0  0  0
 32 72  1  0  0  0
 32 73  1  0  0  0
 33 74  1  0  0  0
 34 75  1  0  0  0
M  END
$$$$
