4kab_ligand
  -I-interpret- 

 13 14  0  0  0  0  0  0  0  0999 V2000
   -8.3810   26.1070  -41.9180 C   0  0  0  0  0
   -9.5010   26.3510  -42.7170 C   0  0  0  0  0
   -9.7540   27.3440  -40.7280 N   0  0  0  0  0
  -10.3630   27.1210  -41.9800 N   0  0  0  0  0
   -8.5980   26.7430  -40.6970 C   0  0  0  0  0
   -8.1110   25.1250  -43.8880 N   0  0  0  0  0
   -7.5090   25.3440  -42.6420 N   0  0  0  0  0
   -9.2790   25.7090  -43.9380 C   0  0  0  0  0
   -7.6450   26.6950  -39.5440 C   0  0  0  0  0
   -9.9628   25.6973  -44.7867 H   0  0  0  0  0
   -7.5042   25.6597  -39.2335 H   0  0  0  0  0
   -6.6875   27.1179  -39.8479 H   0  0  0  0  0
   -8.0517   27.2726  -38.7139 H   0  0  0  0  0
  1  2  4  0  0  0
  1  5  4  0  0  0
  1  7  4  0  0  0
  2  4  4  0  0  0
  2  8  4  0  0  0
  4  3  4  0  0  0
  3  5  4  0  0  0
  5  9  1  0  0  0
  7  6  4  0  0  0
  6  8  4  0  0  0
  8 10  1  0  0  0
  9 11  1  0  0  0
  9 12  1  0  0  0
  9 13  1  0  0  0
M  END
$$$$
