6gf9_ligand
  -I-interpret- 

 53 52  0  0  0  0  0  0  0  0999 V2000
    2.3270   -0.3780   54.6890 O   0  0  0  0  0
    2.5390   -0.7480   55.8680 C   0  0  0  0  0
    1.9040   -0.2810   56.8420 O   0  0  0  0  0
    3.6070   -1.8000   56.0860 C   0  0  0  0  0
    4.1560   -1.8090   57.5120 C   0  0  0  0  0
    5.2520   -0.7680   57.7250 C   0  0  0  0  0
    6.5700   -1.2140   57.1060 C   0  0  0  0  0
    7.7160   -0.3440   57.5960 C   0  0  0  0  0
    8.9120   -0.4530   56.6680 C   0  0  0  0  0
    9.3860   -1.8890   56.5910 C   0  0  0  0  0
   10.7600   -1.9590   55.9380 C   0  0  0  0  0
   12.9120   -3.1820   55.7680 C   0  0  0  0  0
   13.6300   -4.5110   55.7850 C   0  0  0  0  0
   15.0040   -4.2430   55.2350 C   0  0  0  0  0
   15.7490   -5.5350   55.0280 C   0  0  0  0  0
   17.2350   -5.2590   54.8740 C   0  0  0  0  0
   17.8260   -5.5460   53.5010 C   0  0  0  0  0
   17.7980   -4.3500   52.5740 C   0  0  0  0  0
   11.5020   -3.2360   56.3020 C   0  0  0  0  0
    2.9134   -0.8528   54.0955 H   0  0  0  0  0
    4.4350   -1.5762   55.4134 H   0  0  0  0  0
    3.1558   -2.7743   55.8983 H   0  0  0  0  0
    4.5864   -2.7927   57.6998 H   0  0  0  0  0
    3.3347   -1.5751   58.1893 H   0  0  0  0  0
    5.4002   -0.6358   58.7968 H   0  0  0  0  0
    4.9431    0.1623   57.2484 H   0  0  0  0  0
    6.4982   -1.1242   56.0221 H   0  0  0  0  0
    6.7633   -2.2469   57.3955 H   0  0  0  0  0
    8.0113   -0.6796   58.5901 H   0  0  0  0  0
    7.3836    0.6938   57.6198 H   0  0  0  0  0
    9.7200    0.1689   57.0533 H   0  0  0  0  0
    8.6217   -0.1195   55.6717 H   0  0  0  0  0
    8.6790   -2.4651   55.9941 H   0  0  0  0  0
    9.4508   -2.2965   57.5999 H   0  0  0  0  0
   11.3479   -1.1117   56.2911 H   0  0  0  0  0
   10.6239   -1.9413   54.8567 H   0  0  0  0  0
   12.8506   -2.8622   54.7278 H   0  0  0  0  0
   13.4740   -2.5039   56.4101 H   0  0  0  0  0
   13.1021   -5.2540   55.1872 H   0  0  0  0  0
   13.6802   -4.9211   56.7936 H   0  0  0  0  0
   15.5554   -3.6254   55.9439 H   0  0  0  0  0
   14.9090   -3.7311   54.2774 H   0  0  0  0  0
   15.3792   -6.0215   54.1254 H   0  0  0  0  0
   15.5920   -6.1818   55.8912 H   0  0  0  0  0
   17.7444   -5.9231   55.5723 H   0  0  0  0  0
   17.3685   -4.1914   55.0485 H   0  0  0  0  0
   17.2260   -6.3319   53.0423 H   0  0  0  0  0
   18.8694   -5.8270   53.6441 H   0  0  0  0  0
   16.7665   -4.0298   52.4272 H   0  0  0  0  0
   18.3731   -3.5361   53.0156 H   0  0  0  0  0
   18.2343   -4.6257   51.6140 H   0  0  0  0  0
   10.9845   -4.0893   55.8637 H   0  0  0  0  0
   11.5325   -3.3367   57.3869 H   0  0  0  0  0
  2  1  1  0  0  0
  2  3  2  0  0  0
  4  2  1  0  0  0
  5  4  1  0  0  0
  6  5  1  0  0  0
  7  6  1  0  0  0
  8  7  1  0  0  0
  9  8  1  0  0  0
 10  9  1  0  0  0
 11 10  1  0  0  0
 19 11  1  0  0  0
 12 13  1  0  0  0
 12 19  1  0  0  0
 13 14  1  0  0  0
 14 15  1  0  0  0
 15 16  1  0  0  0
 16 17  1  0  0  0
 17 18  1  0  0  0
  1 20  1  0  0  0
  4 21  1  0  0  0
  4 22  1  0  0  0
  5 23  1  0  0  0
  5 24  1  0  0  0
  6 25  1  0  0  0
  6 26  1  0  0  0
  7 27  1  0  0  0
  7 28  1  0  0  0
  8 29  1  0  0  0
  8 30  1  0  0  0
  9 31  1  0  0  0
  9 32  1  0  0  0
 10 33  1  0  0  0
 10 34  1  0  0  0
 11 35  1  0  0  0
 11 36  1  0  0  0
 12 37  1  0  0  0
 12 38  1  0  0  0
 13 39  1  0  0  0
 13 40  1  0  0  0
 14 41  1  0  0  0
 14 42  1  0  0  0
 15 43  1  0  0  0
 15 44  1  0  0  0
 16 45  1  0  0  0
 16 46  1  0  0  0
 17 47  1  0  0  0
 17 48  1  0  0  0
 18 49  1  0  0  0
 18 50  1  0  0  0
 18 51  1  0  0  0
 19 52  1  0  0  0
 19 53  1  0  0  0
M  END
$$$$
