### 
### Created by X-TOOL on Mon Sep 10 21:13:07 2018
### 

@<TRIPOS>MOLECULE
3mxc_ligand
  104   105     1     0     0
SMALL
GAST_HUCK


@<TRIPOS>ATOM
      1 N          11.7660   41.4570   45.8180 N.4       1 GLY         0.2357
      2 CA         10.5700   40.6370   45.8020 C.3       1 GLY         0.0545
      3 C           9.2920   41.4510   45.7980 C.2       1 GLY         0.2238
      4 O           9.3160   42.6820   45.7390 O.2       1 GLY        -0.3910
      5 N           8.1640   40.7610   45.8910 N.am      1 PTR        -0.2582
      6 CA          6.8810   41.4380   45.8610 C.3       1 PTR         0.1469
      7 C           6.0670   41.2680   47.1570 C.2       1 PTR         0.2074
      8 O           6.2620   40.3080   47.9060 O.2       1 PTR        -0.3941
      9 CB          6.0490   41.0120   44.7100 C.3       1 PTR         0.0400
     10 CG          6.7260   41.2860   43.3710 C.ar      1 PTR        -0.0004
     11 CD1         7.5800   40.3510   42.8140 C.ar      1 PTR        -0.0239
     12 CD2         6.4750   42.4420   42.6490 C.ar      1 PTR        -0.0239
     13 CE1         8.2030   40.5860   41.5830 C.ar      1 PTR         0.0115
     14 CE2         7.1030   42.7150   41.4280 C.ar      1 PTR         0.0115
     15 CZ          7.9630   41.7590   40.8890 C.ar      1 PTR         0.1728
     16 OH          8.4930   41.9930   39.7260 O.3       1 PTR        -0.2040
     17 P           9.8880   42.7790   39.5090 P.3       1 PTR         0.1348
     18 O1P        10.9500   41.7800   39.3660 O.co2     1 PTR        -0.6653
     19 O2P        10.0840   43.7030   40.6950 O.co2     1 PTR        -0.6653
     20 O3P         9.6100   43.5490   38.2500 O.co2     1 PTR        -0.6653
     21 N           5.1760   42.2200   47.4270 N.am      1 GLU        -0.2634
     22 CA          4.3420   42.1870   48.6310 C.3       1 GLU         0.1325
     23 C           3.3350   41.0460   48.6240 C.2       1 GLU         0.2041
     24 O           2.9860   40.5060   49.6740 O.2       1 GLU        -0.3944
     25 CB          3.5710   43.5000   48.7950 C.3       1 GLU        -0.0008
     26 CG          4.4260   44.7280   49.0070 C.3       1 GLU         0.0044
     27 CD          5.2610   44.6450   50.2650 C.2       1 GLU         0.0350
     28 OE1         4.6920   44.4090   51.3510 O.co2     1 GLU        -0.5690
     29 OE2         6.4910   44.8220   50.1730 O.co2     1 GLU        -0.5690
     30 N           2.8480   40.6930   47.4420 N.am      1 ASN        -0.2616
     31 CA          1.8710   39.6230   47.3330 C.3       1 ASN         0.1478
     32 C           2.5380   38.3210   46.9190 C.2       1 ASN         0.2088
     33 O           3.3180   38.2850   45.9670 O.2       1 ASN        -0.3940
     34 CB          0.7770   40.0070   46.3250 C.3       1 ASN         0.0773
     35 CG          1.3330   40.3220   44.9510 C.2       1 ASN         0.1780
     36 OD1         2.3960   40.9280   44.8280 O.2       1 ASN        -0.3970
     37 ND2         0.6070   39.9260   43.9090 N.am      1 ASN        -0.3007
     38 N           2.2450   37.1680   47.8100 N.am      1 PRO        -0.2497
     39 CA          2.8460   35.8600   47.5290 C.3       1 PRO         0.1338
     40 C           2.6190   35.5960   46.0260 C.2       1 PRO         0.2042
     41 O           1.5280   35.8480   45.5200 O.2       1 PRO        -0.3944
     42 CB          2.0800   34.9230   48.4730 C.3       1 PRO        -0.0104
     43 CG          0.7600   35.6300   48.6780 C.3       1 PRO        -0.0281
     44 CD          1.1720   37.0630   48.8110 C.3       1 PRO         0.0369
     45 N           3.6080   35.1780   45.1010 N.am      1 THR        -0.2613
     46 CA          3.4690   35.0130   43.6200 C.3       1 THR         0.1564
     47 C           3.2050   33.5920   43.0030 C.2       1 THR         0.2059
     48 O           3.1290   33.4310   41.7730 O.2       1 THR        -0.3943
     49 CB          4.7060   35.6540   42.9680 C.3       1 THR         0.0924
     50 OG1         5.8650   34.9210   43.3910 O.3       1 THR        -0.3874
     51 CG2         4.8360   37.1200   43.3620 C.3       1 THR        -0.0346
     52 N           3.0830   32.6460   43.9050 N.am      1 TYR        -0.2694
     53 CA          2.7920   31.2680   43.6390 C.3       1 TYR         0.0941
     54 C           1.5310   30.9260   44.3810 C.2       1 TYR         0.0601
     55 O           1.2900   31.4290   45.4780 O.co2     1 TYR        -0.5666
     56 CB          3.9210   30.3680   44.1290 C.3       1 TYR        -0.0208
     57 CG          4.0690   30.4590   45.5320 C.3       1 TYR        -0.0616
     58 OXT         0.6100   30.4090   43.7490 O.co2     1 TYR        -0.5666
     59 H          12.5895   40.8551   45.8200 H         1 GLY         0.2012
     60 H          11.7801   42.0518   44.9895 H         1 GLY         0.2012
     61 H          11.7667   42.0389   46.6558 H         1 GLY         0.2012
     62 H          10.5729   40.0290   46.7067 H         1 GLY         0.1061
     63 H          10.5875   40.0431   44.8882 H         1 GLY         0.1061
     64 H           8.1982   39.7459   45.9844 H         1 PTR         0.1887
     65 H           7.1320   42.4935   45.7559 H         1 PTR         0.0840
     66 H           5.1176   41.5775   44.7392 H         1 PTR         0.0584
     67 H           5.8849   39.9375   44.7916 H         1 PTR         0.0584
     68 H           7.7706   39.4167   43.3421 H         1 PTR         0.0703
     69 H           5.7626   43.1650   43.0463 H         1 PTR         0.0703
     70 H           8.8815   39.8405   41.1683 H         1 PTR         0.0736
     71 H           6.9232   43.6564   40.9089 H         1 PTR         0.0736
     72 H           5.0708   42.9971   46.7747 H         1 GLU         0.1883
     73 H           5.0307   42.0366   49.4624 H         1 GLU         0.0801
     74 H           2.9544   43.3908   49.6872 H         1 GLU         0.0330
     75 H           3.0221   43.6580   47.8666 H         1 GLU         0.0330
     76 H           3.7617   45.5870   49.1014 H         1 GLU         0.0433
     77 H           5.1050   44.8145   48.1588 H         1 GLU         0.0433
     78 H           3.1624   41.1774   46.6012 H         1 ASN         0.1885
     79 H           1.4137   39.4740   48.3111 H         1 ASN         0.0826
     80 H           0.2777   40.9015   46.6973 H         1 ASN         0.0551
     81 H           0.1002   39.1583   46.2259 H         1 ASN         0.0551
     82 H           0.9266   40.1226   42.9605 H         1 ASN         0.1814
     83 H          -0.2692   39.4257   44.0585 H         1 ASN         0.1814
     84 H           3.9169   35.7482   47.6989 H         1 PRO         0.0802
     85 H           2.6102   34.7487   49.4093 H         1 PRO         0.0313
     86 H           1.9578   33.9220   48.0593 H         1 PRO         0.0313
     87 H           0.2110   35.2630   49.5452 H         1 PRO         0.0287
     88 H           0.0570   35.4635   47.8618 H         1 PRO         0.0287
     89 H           0.3547   37.7642   48.6424 H         1 PRO         0.0524
     90 H           1.4943   37.3274   49.8181 H         1 PRO         0.0524
     91 H           4.5254   34.9637   45.4918 H         1 THR         0.1884
     92 H           2.5218   35.5032   43.3951 H         1 THR         0.0826
     93 H           4.6075   35.6154   41.8831 H         1 THR         0.0639
     94 H           6.6490   35.3069   42.9935 H         1 THR         0.2101
     95 H           3.9487   37.6626   43.0359 H         1 THR         0.0257
     96 H           4.9328   37.1966   44.4450 H         1 THR         0.0257
     97 H           5.7192   37.5459   42.8860 H         1 THR         0.0257
     98 H           3.2061   32.9153   44.8811 H         1 TYR         0.1875
     99 H           2.6802   31.1141   42.5657 H         1 TYR         0.0726
    100 H           4.8511   30.6860   43.6579 H         1 TYR         0.0303
    101 H           3.6839   29.3365   43.8686 H         1 TYR         0.0303
    102 H           4.2983   31.4888   45.8058 H         1 TYR         0.0232
    103 H           3.1414   30.1513   46.0146 H         1 TYR         0.0232
    104 H           4.8811   29.8068   45.8535 H         1 TYR         0.0232
@<TRIPOS>BOND
     1    1    2 1  
     2    2    3 1  
     3    3    4 2  
     4    3    5 am 
     5    5    6 1  
     6    6    7 1  
     7    6    9 1  
     8    7    8 2  
     9    7   21 am 
    10    9   10 1  
    11   10   11 ar 
    12   10   12 ar 
    13   11   13 ar 
    14   12   14 ar 
    15   13   15 ar 
    16   14   15 ar 
    17   15   16 1  
    18   16   17 1  
    19   17   18 ar 
    20   17   19 ar 
    21   17   20 ar 
    22   21   22 1  
    23   22   23 1  
    24   22   25 1  
    25   23   24 2  
    26   23   30 am 
    27   25   26 1  
    28   26   27 1  
    29   27   28 ar 
    30   27   29 ar 
    31   30   31 1  
    32   31   32 1  
    33   31   34 1  
    34   32   33 2  
    35   32   38 am 
    36   34   35 1  
    37   35   36 2  
    38   35   37 am 
    39   38   39 1  
    40   38   44 1  
    41   39   40 1  
    42   39   42 1  
    43   40   41 2  
    44   40   45 am 
    45   42   43 1  
    46   43   44 1  
    47   45   46 1  
    48   46   47 1  
    49   46   49 1  
    50   47   48 2  
    51   47   52 am 
    52   49   50 1  
    53   49   51 1  
    54   52   53 1  
    55   53   54 1  
    56   53   56 1  
    57   54   55 ar 
    58   54   58 ar 
    59   56   57 1  
    60    1   59 1  
    61    1   60 1  
    62    1   61 1  
    63    2   62 1  
    64    2   63 1  
    65    5   64 1  
    66    6   65 1  
    67    9   66 1  
    68    9   67 1  
    69   11   68 1  
    70   12   69 1  
    71   13   70 1  
    72   14   71 1  
    73   21   72 1  
    74   22   73 1  
    75   25   74 1  
    76   25   75 1  
    77   26   76 1  
    78   26   77 1  
    79   30   78 1  
    80   31   79 1  
    81   34   80 1  
    82   34   81 1  
    83   37   82 1  
    84   37   83 1  
    85   39   84 1  
    86   42   85 1  
    87   42   86 1  
    88   43   87 1  
    89   43   88 1  
    90   44   89 1  
    91   44   90 1  
    92   45   91 1  
    93   46   92 1  
    94   49   93 1  
    95   50   94 1  
    96   51   95 1  
    97   51   96 1  
    98   51   97 1  
    99   52   98 1  
   100   53   99 1  
   101   56  100 1  
   102   56  101 1  
   103   57  102 1  
   104   57  103 1  
   105   57  104 1  
@<TRIPOS>SUBSTRUCTURE
     1 GLY         1

