3mxc_ligand
  -I-interpret- 

108109  0  0  0  0  0  0  0  0999 V2000
   11.7660   41.4570   45.8180 N   0  3  0  0  0
   10.5700   40.6370   45.8020 C   0  0  0  0  0
    9.2920   41.4510   45.7980 C   0  0  0  0  0
    9.3160   42.6820   45.7390 O   0  0  0  0  0
    8.1640   40.7610   45.8910 N   0  0  0  0  0
    6.8810   41.4380   45.8610 C   0  0  0  0  0
    6.0670   41.2680   47.1570 C   0  0  0  0  0
    6.2620   40.3080   47.9060 O   0  0  0  0  0
    6.0490   41.0120   44.7100 C   0  0  0  0  0
    6.7260   41.2860   43.3710 C   0  0  0  0  0
    7.5800   40.3510   42.8140 C   0  0  0  0  0
    6.4750   42.4420   42.6490 C   0  0  0  0  0
    8.2030   40.5860   41.5830 C   0  0  0  0  0
    7.1030   42.7150   41.4280 C   0  0  0  0  0
    7.9630   41.7590   40.8890 C   0  0  0  0  0
    8.4930   41.9930   39.7260 O   0  0  0  0  0
    9.8880   42.7790   39.5090 P   0  0  0  0  0
   10.9500   41.7800   39.3660 O   0  0  0  0  0
   10.0840   43.7030   40.6950 O   0  0  0  0  0
    9.6100   43.5490   38.2500 O   0  0  0  0  0
    5.1760   42.2200   47.4270 N   0  0  0  0  0
    4.3420   42.1870   48.6310 C   0  0  0  0  0
    3.3350   41.0460   48.6240 C   0  0  0  0  0
    2.9860   40.5060   49.6740 O   0  0  0  0  0
    3.5710   43.5000   48.7950 C   0  0  0  0  0
    4.4260   44.7280   49.0070 C   0  0  0  0  0
    5.2610   44.6450   50.2650 C   0  0  0  0  0
    4.6920   44.4090   51.3510 O   0  0  0  0  0
    6.4910   44.8220   50.1730 O   0  0  0  0  0
    2.8480   40.6930   47.4420 N   0  0  0  0  0
    1.8710   39.6230   47.3330 C   0  0  0  0  0
    2.5380   38.3210   46.9190 C   0  0  0  0  0
    3.3180   38.2850   45.9670 O   0  0  0  0  0
    0.7770   40.0070   46.3250 C   0  0  0  0  0
    1.3330   40.3220   44.9510 C   0  0  0  0  0
    2.3960   40.9280   44.8280 O   0  0  0  0  0
    0.6070   39.9260   43.9090 N   0  0  0  0  0
    2.2450   37.1680   47.8100 N   0  0  0  0  0
    2.8460   35.8600   47.5290 C   0  0  0  0  0
    2.6190   35.5960   46.0260 C   0  0  0  0  0
    1.5280   35.8480   45.5200 O   0  0  0  0  0
    2.0800   34.9230   48.4730 C   0  0  0  0  0
    0.7600   35.6300   48.6780 C   0  0  0  0  0
    1.1720   37.0630   48.8110 C   0  0  0  0  0
    3.6080   35.1780   45.1010 N   0  0  0  0  0
    3.4690   35.0130   43.6200 C   0  0  0  0  0
    3.2050   33.5920   43.0030 C   0  0  0  0  0
    3.1290   33.4310   41.7730 O   0  0  0  0  0
    4.7060   35.6540   42.9680 C   0  0  0  0  0
    5.8650   34.9210   43.3910 O   0  0  0  0  0
    4.8360   37.1200   43.3620 C   0  0  0  0  0
    3.0830   32.6460   43.9050 N   0  0  0  0  0
    2.7920   31.2680   43.6390 C   0  0  0  0  0
    1.5310   30.9260   44.3810 C   0  0  0  0  0
    1.2900   31.4290   45.4780 O   0  0  0  0  0
    3.9210   30.3680   44.1290 C   0  0  0  0  0
    4.0690   30.4590   45.5320 C   0  0  0  0  0
    0.6100   30.4090   43.7490 O   0  0  0  0  0
   12.5895   40.8551   45.8200 H   0  0  0  0  0
   11.7801   42.0518   44.9895 H   0  0  0  0  0
   11.7667   42.0389   46.6558 H   0  0  0  0  0
   10.5729   40.0290   46.7067 H   0  0  0  0  0
   10.5875   40.0431   44.8882 H   0  0  0  0  0
    8.1982   39.7459   45.9844 H   0  0  0  0  0
    7.1320   42.4935   45.7559 H   0  0  0  0  0
    5.1176   41.5775   44.7392 H   0  0  0  0  0
    5.8849   39.9375   44.7916 H   0  0  0  0  0
    7.7706   39.4167   43.3421 H   0  0  0  0  0
    5.7626   43.1650   43.0463 H   0  0  0  0  0
    8.8815   39.8405   41.1683 H   0  0  0  0  0
    6.9232   43.6564   40.9089 H   0  0  0  0  0
    9.3588   44.3309   40.7333 H   0  0  0  0  0
    8.9077   44.1830   38.4125 H   0  0  0  0  0
    5.0708   42.9971   46.7747 H   0  0  0  0  0
    5.0307   42.0366   49.4624 H   0  0  0  0  0
    2.9544   43.3908   49.6872 H   0  0  0  0  0
    3.0221   43.6580   47.8666 H   0  0  0  0  0
    3.7617   45.5870   49.1014 H   0  0  0  0  0
    5.1050   44.8145   48.1588 H   0  0  0  0  0
    3.7494   44.3059   51.2013 H   0  0  0  0  0
    3.1624   41.1774   46.6012 H   0  0  0  0  0
    1.4137   39.4740   48.3111 H   0  0  0  0  0
    0.2777   40.9015   46.6973 H   0  0  0  0  0
    0.1002   39.1583   46.2259 H   0  0  0  0  0
    0.9266   40.1226   42.9605 H   0  0  0  0  0
   -0.2692   39.4257   44.0585 H   0  0  0  0  0
    3.9169   35.7482   47.6989 H   0  0  0  0  0
    2.6102   34.7487   49.4093 H   0  0  0  0  0
    1.9578   33.9220   48.0593 H   0  0  0  0  0
    0.2110   35.2630   49.5452 H   0  0  0  0  0
    0.0570   35.4635   47.8618 H   0  0  0  0  0
    0.3547   37.7642   48.6424 H   0  0  0  0  0
    1.4943   37.3274   49.8181 H   0  0  0  0  0
    4.5254   34.9637   45.4918 H   0  0  0  0  0
    2.5218   35.5032   43.3951 H   0  0  0  0  0
    4.6075   35.6154   41.8831 H   0  0  0  0  0
    6.6490   35.3069   42.9935 H   0  0  0  0  0
    3.9487   37.6626   43.0359 H   0  0  0  0  0
    4.9328   37.1966   44.4450 H   0  0  0  0  0
    5.7192   37.5459   42.8860 H   0  0  0  0  0
    3.2061   32.9153   44.8811 H   0  0  0  0  0
    2.6802   31.1141   42.5657 H   0  0  0  0  0
    4.8511   30.6860   43.6579 H   0  0  0  0  0
    3.6839   29.3365   43.8686 H   0  0  0  0  0
    4.2983   31.4888   45.8058 H   0  0  0  0  0
    3.1414   30.1513   46.0146 H   0  0  0  0  0
    4.8811   29.8068   45.8535 H   0  0  0  0  0
    0.9475   30.0621   42.9199 H   0  0  0  0  0
  1  2  1  0  0  0
  2  3  1  0  0  0
  3  4  2  0  0  0
  3  5  1  0  0  0
  5  6  1  0  0  0
  6  7  1  0  0  0
  6  9  1  0  0  0
  7  8  2  0  0  0
  7 21  1  0  0  0
  9 10  1  0  0  0
 10 11  4  0  0  0
 10 12  4  0  0  0
 11 13  4  0  0  0
 12 14  4  0  0  0
 13 15  4  0  0  0
 14 15  4  0  0  0
 15 16  1  0  0  0
 16 17  1  0  0  0
 17 18  2  0  0  0
 17 19  1  0  0  0
 17 20  1  0  0  0
 21 22  1  0  0  0
 22 23  1  0  0  0
 22 25  1  0  0  0
 23 24  2  0  0  0
 23 30  1  0  0  0
 25 26  1  0  0  0
 26 27  1  0  0  0
 27 28  1  0  0  0
 27 29  2  0  0  0
 30 31  1  0  0  0
 31 32  1  0  0  0
 31 34  1  0  0  0
 32 33  2  0  0  0
 32 38  1  0  0  0
 34 35  1  0  0  0
 35 36  2  0  0  0
 35 37  1  0  0  0
 38 39  1  0  0  0
 38 44  1  0  0  0
 39 40  1  0  0  0
 39 42  1  0  0  0
 40 41  2  0  0  0
 40 45  1  0  0  0
 42 43  1  0  0  0
 43 44  1  0  0  0
 45 46  1  0  0  0
 46 47  1  0  0  0
 46 49  1  0  0  0
 47 48  2  0  0  0
 47 52  1  0  0  0
 49 50  1  0  0  0
 49 51  1  0  0  0
 52 53  1  0  0  0
 53 54  1  0  0  0
 53 56  1  0  0  0
 54 55  2  0  0  0
 54 58  1  0  0  0
 56 57  1  0  0  0
  1 59  1  0  0  0
  1 60  1  0  0  0
  1 61  1  0  0  0
  2 62  1  0  0  0
  2 63  1  0  0  0
  5 64  1  0  0  0
  6 65  1  0  0  0
  9 66  1  0  0  0
  9 67  1  0  0  0
 11 68  1  0  0  0
 12 69  1  0  0  0
 13 70  1  0  0  0
 14 71  1  0  0  0
 19 72  1  0  0  0
 20 73  1  0  0  0
 21 74  1  0  0  0
 22 75  1  0  0  0
 25 76  1  0  0  0
 25 77  1  0  0  0
 26 78  1  0  0  0
 26 79  1  0  0  0
 28 80  1  0  0  0
 30 81  1  0  0  0
 31 82  1  0  0  0
 34 83  1  0  0  0
 34 84  1  0  0  0
 37 85  1  0  0  0
 37 86  1  0  0  0
 39 87  1  0  0  0
 42 88  1  0  0  0
 42 89  1  0  0  0
 43 90  1  0  0  0
 43 91  1  0  0  0
 44 92  1  0  0  0
 44 93  1  0  0  0
 45 94  1  0  0  0
 46 95  1  0  0  0
 49 96  1  0  0  0
 50 97  1  0  0  0
 51 98  1  0  0  0
 51 99  1  0  0  0
 51100  1  0  0  0
 52101  1  0  0  0
 53102  1  0  0  0
 56103  1  0  0  0
 56104  1  0  0  0
 57105  1  0  0  0
 57106  1  0  0  0
 57107  1  0  0  0
 58108  1  0  0  0
M  END
$$$$
