5jq5_ligand
  -I-interpret- 

 60 63  0  0  0  0  0  0  0  0999 V2000
    0.2680  -11.2240  -24.7900 O   0  0  0  0  0
   -0.8390  -10.3830  -24.5500 C   0  0  0  0  0
   -0.6800   -9.7690  -23.1590 C   0  0  0  0  0
   -1.5670   -8.6010  -23.0700 N   0  3  0  0  0
   -1.4990   -7.5600  -24.0730 C   0  0  0  0  0
   -1.5270   -8.0470  -25.5270 C   0  0  0  0  0
   -0.7070   -9.3540  -25.6580 C   0  0  0  0  0
   -0.8260   -9.9410  -27.0550 C   0  0  0  0  0
    0.4970   -9.7550  -27.6230 N   0  0  0  0  0
    0.9460   -8.5600  -28.1540 C   0  0  0  0  0
    2.2050   -8.4690  -28.7810 C   0  0  0  0  0
    2.6010   -7.2160  -29.3140 C   0  0  0  0  0
    1.7230   -6.1660  -29.2550 N   0  0  0  0  0
    1.9790   -4.8730  -29.6900 N   0  0  0  0  0
    0.8900   -4.1330  -29.3280 C   0  0  0  0  0
   -0.0060   -5.0130  -28.6980 C   0  0  0  0  0
   -1.3370   -4.5360  -28.1640 C   0  0  0  0  0
   -2.5370   -5.4560  -28.4440 C   0  0  0  0  0
   -1.2940   -4.4060  -26.6170 C   0  0  0  0  0
    0.5750   -6.2890  -28.6280 C   0  0  0  0  0
    0.1420   -7.4640  -28.1030 N   0  0  0  0  0
    3.7740   -7.0460  -29.9140 N   0  0  0  0  0
    4.9130   -7.8980  -29.5650 C   0  0  0  0  0
    5.0170   -8.9480  -30.6350 C   0  0  0  0  0
    4.9420  -10.2850  -30.2710 C   0  0  0  0  0
    5.0260  -11.2410  -31.2690 C   0  0  0  0  0
    5.1900  -10.8780  -32.6250 C   0  0  0  0  0
    5.2500   -9.5260  -32.9960 C   0  0  0  0  0
    5.1770   -8.5720  -31.9820 C   0  0  0  0  0
    0.2837  -11.9253  -24.1346 H   0  0  0  0  0
   -1.8156  -10.8669  -24.5598 H   0  0  0  0  0
    0.3550   -9.4673  -22.9982 H   0  0  0  0  0
   -0.9436  -10.4994  -22.3941 H   0  0  0  0  0
   -1.2915   -8.1380  -22.2039 H   0  0  0  0  0
   -2.5061   -8.9869  -23.1674 H   0  0  0  0  0
   -0.5443   -7.0532  -23.9322 H   0  0  0  0  0
   -2.3826   -6.9366  -23.9359 H   0  0  0  0  0
   -1.0927   -7.2828  -26.1716 H   0  0  0  0  0
   -2.5585   -8.2373  -25.8236 H   0  0  0  0  0
    0.3216   -9.0282  -25.5033 H   0  0  0  0  0
   -1.6028   -9.4543  -27.6447 H   0  0  0  0  0
   -1.1278  -10.9883  -27.0406 H   0  0  0  0  0
    1.1326  -10.5527  -27.6308 H   0  0  0  0  0
    2.8573   -9.3392  -28.8543 H   0  0  0  0  0
    0.7440   -3.0659  -29.4954 H   0  0  0  0  0
   -1.4826   -3.5915  -28.6882 H   0  0  0  0  0
   -2.6624   -5.5699  -29.5208 H   0  0  0  0  0
   -2.3582   -6.4318  -27.9925 H   0  0  0  0  0
   -3.4380   -5.0161  -28.0165 H   0  0  0  0  0
   -1.0657   -5.3773  -26.1783 H   0  0  0  0  0
   -0.5234   -3.6884  -26.3352 H   0  0  0  0  0
   -2.2628   -4.0613  -26.2556 H   0  0  0  0  0
    3.8819   -6.3187  -30.6210 H   0  0  0  0  0
    4.7677   -8.3561  -28.5867 H   0  0  0  0  0
    5.8305   -7.3124  -29.5075 H   0  0  0  0  0
    4.8202  -10.5748  -29.2273 H   0  0  0  0  0
    4.9643  -12.2963  -31.0032 H   0  0  0  0  0
    5.2704  -11.6530  -33.3873 H   0  0  0  0  0
    5.3502   -9.2319  -34.0408 H   0  0  0  0  0
    5.2451   -7.5145  -32.2372 H   0  0  0  0  0
  1  2  1  0  0  0
  2  3  1  0  0  0
  2  7  1  0  0  0
  3  4  1  0  0  0
  4  5  1  0  0  0
  5  6  1  0  0  0
  6  7  1  0  0  0
  7  8  1  0  0  0
  8  9  1  0  0  0
  9 10  1  0  0  0
 10 11  4  0  0  0
 10 21  4  0  0  0
 11 12  4  0  0  0
 12 13  4  0  0  0
 12 22  1  0  0  0
 13 14  4  0  0  0
 13 20  4  0  0  0
 14 15  4  0  0  0
 15 16  4  0  0  0
 16 17  1  0  0  0
 16 20  4  0  0  0
 17 18  1  0  0  0
 17 19  1  0  0  0
 20 21  4  0  0  0
 22 23  1  0  0  0
 23 24  1  0  0  0
 24 25  4  0  0  0
 24 29  4  0  0  0
 25 26  4  0  0  0
 26 27  4  0  0  0
 27 28  4  0  0  0
 28 29  4  0  0  0
  1 30  1  0  0  0
  2 31  1  0  0  0
  3 32  1  0  0  0
  3 33  1  0  0  0
  4 34  1  0  0  0
  4 35  1  0  0  0
  5 36  1  0  0  0
  5 37  1  0  0  0
  6 38  1  0  0  0
  6 39  1  0  0  0
  7 40  1  0  0  0
  8 41  1  0  0  0
  8 42  1  0  0  0
  9 43  1  0  0  0
 11 44  1  0  0  0
 15 45  1  0  0  0
 17 46  1  0  0  0
 18 47  1  0  0  0
 18 48  1  0  0  0
 18 49  1  0  0  0
 19 50  1  0  0  0
 19 51  1  0  0  0
 19 52  1  0  0  0
 22 53  1  0  0  0
 23 54  1  0  0  0
 23 55  1  0  0  0
 25 56  1  0  0  0
 26 57  1  0  0  0
 27 58  1  0  0  0
 28 59  1  0  0  0
 29 60  1  0  0  0
M  END
$$$$
