1xp0_ligand
  -I-interpret- 

 67 70  0  0  0  0  0  0  0  0999 V2000
  -17.3110   28.7690   59.4250 C   0  0  0  0  0
  -18.4240   27.7500   59.5520 C   0  0  0  0  0
  -19.4990   28.3170   60.2890 O   0  0  0  0  0
  -20.6790   27.6470   60.5320 C   0  0  0  0  0
  -20.8720   26.3220   60.1320 C   0  0  0  0  0
  -22.0880   25.7000   60.4070 C   0  0  0  0  0
  -23.1120   26.3870   61.0750 C   0  0  0  0  0
  -22.9030   27.7070   61.4740 C   0  0  0  0  0
  -21.7100   28.3360   61.1660 C   0  0  0  0  0
  -24.5130   25.6830   61.4210 S   0  0  0  0  0
  -25.6280   26.5010   61.0510 O   0  0  0  0  0
  -24.5590   24.4480   60.7000 O   0  0  0  0  0
  -23.9260   24.9690   67.8530 C   0  0  0  0  0
  -24.6520   25.3890   62.9190 N   0  0  0  0  0
  -23.5890   24.5300   63.4650 C   0  0  0  0  0
  -23.7010   24.3520   64.9680 C   0  0  0  0  0
  -23.9540   25.6730   65.5070 N   0  3  0  0  0
  -25.3030   26.1390   65.2360 C   0  0  0  0  0
  -25.4770   26.3040   63.7200 C   0  0  0  0  0
  -23.3800   25.9480   66.8200 C   0  0  0  0  0
  -21.3890   29.7160   61.6140 C   0  0  0  0  0
  -21.0380   30.7260   60.6430 N   0  0  0  0  0
  -20.9950   32.0290   60.9210 C   0  0  0  0  0
  -21.5360   32.3970   62.2430 C   0  0  0  0  0
  -21.9910   31.5330   63.1240 N   0  3  0  0  0
  -22.0380   30.1810   62.8070 N   0  0  0  0  0
  -20.5730   32.8270   60.0980 O   0  0  0  0  0
  -21.7100   33.6360   62.8500 C   0  0  0  0  0
  -22.2670   33.3890   64.0670 N   0  0  0  0  0
  -22.4610   32.0570   64.2250 C   0  0  0  0  0
  -21.3840   35.0070   62.3250 C   0  0  0  0  0
  -23.0180   31.3240   65.4100 C   0  0  0  0  0
  -21.8600   30.6260   66.1240 C   0  0  0  0  0
  -22.4100   29.8920   67.3240 C   0  0  0  0  0
  -17.6852   29.6510   58.9052 H   0  0  0  0  0
  -16.9636   29.0515   60.4188 H   0  0  0  0  0
  -16.4859   28.3354   58.8600 H   0  0  0  0  0
  -18.0521   26.8665   60.0709 H   0  0  0  0  0
  -18.7727   27.4652   58.5593 H   0  0  0  0  0
  -20.0812   25.7819   59.6114 H   0  0  0  0  0
  -22.2454   24.6663   60.0991 H   0  0  0  0  0
  -23.6765   28.2408   62.0262 H   0  0  0  0  0
  -25.0098   25.0699   67.9100 H   0  0  0  0  0
  -23.6696   23.9514   67.5584 H   0  0  0  0  0
  -23.4877   25.1881   68.8266 H   0  0  0  0  0
  -22.6308   25.0043   63.2528 H   0  0  0  0  0
  -23.6794   23.5473   63.0021 H   0  0  0  0  0
  -22.7897   23.9228   65.3844 H   0  0  0  0  0
  -24.5024   23.6596   65.2256 H   0  0  0  0  0
  -23.3785   26.3152   64.9623 H   0  0  0  0  0
  -25.4691   27.0952   65.7321 H   0  0  0  0  0
  -26.0255   25.4152   65.6131 H   0  0  0  0  0
  -26.5194   26.0847   63.4890 H   0  0  0  0  0
  -25.1701   27.3192   63.4685 H   0  0  0  0  0
  -22.2969   25.8387   66.7644 H   0  0  0  0  0
  -23.6439   26.9628   67.1178 H   0  0  0  0  0
  -20.8111   30.4265   59.6947 H   0  0  0  0  0
  -20.3162   35.0700   62.1154 H   0  0  0  0  0
  -21.9466   35.1871   61.4090 H   0  0  0  0  0
  -21.6538   35.7541   63.0714 H   0  0  0  0  0
  -23.7559   30.5905   65.0852 H   0  0  0  0  0
  -23.5101   32.0226   66.0866 H   0  0  0  0  0
  -21.1222   31.3618   66.4438 H   0  0  0  0  0
  -21.3754   29.9223   65.4472 H   0  0  0  0  0
  -22.8875   30.6045   67.9967 H   0  0  0  0  0
  -23.1424   29.1554   66.9935 H   0  0  0  0  0
  -21.5957   29.3882   67.8448 H   0  0  0  0  0
  2  1  1  0  0  0
  3  2  1  0  0  0
  4  3  1  0  0  0
  5  4  4  0  0  0
  9  4  4  0  0  0
  6  5  4  0  0  0
  7  6  4  0  0  0
  7  8  4  0  0  0
 10  7  1  0  0  0
  8  9  4  0  0  0
  9 21  1  0  0  0
 10 11  2  0  0  0
 10 12  2  0  0  0
 14 10  1  0  0  0
 20 13  1  0  0  0
 15 14  1  0  0  0
 14 19  1  0  0  0
 16 15  1  0  0  0
 17 16  1  0  0  0
 17 18  1  0  0  0
 17 20  1  0  0  0
 18 19  1  0  0  0
 21 22  1  0  0  0
 21 26  2  0  0  0
 22 23  1  0  0  0
 23 24  1  0  0  0
 23 27  2  0  0  0
 24 25  4  0  0  0
 24 28  4  0  0  0
 25 26  1  0  0  0
 25 30  4  0  0  0
 28 29  4  0  0  0
 28 31  1  0  0  0
 29 30  4  0  0  0
 30 32  1  0  0  0
 32 33  1  0  0  0
 33 34  1  0  0  0
  1 35  1  0  0  0
  1 36  1  0  0  0
  1 37  1  0  0  0
  2 38  1  0  0  0
  2 39  1  0  0  0
  5 40  1  0  0  0
  6 41  1  0  0  0
  8 42  1  0  0  0
 13 43  1  0  0  0
 13 44  1  0  0  0
 13 45  1  0  0  0
 15 46  1  0  0  0
 15 47  1  0  0  0
 16 48  1  0  0  0
 16 49  1  0  0  0
 17 50  1  0  0  0
 18 51  1  0  0  0
 18 52  1  0  0  0
 19 53  1  0  0  0
 19 54  1  0  0  0
 20 55  1  0  0  0
 20 56  1  0  0  0
 22 57  1  0  0  0
 31 58  1  0  0  0
 31 59  1  0  0  0
 31 60  1  0  0  0
 32 61  1  0  0  0
 32 62  1  0  0  0
 33 63  1  0  0  0
 33 64  1  0  0  0
 34 65  1  0  0  0
 34 66  1  0  0  0
 34 67  1  0  0  0
M  END
$$$$
