1mcz_ligand
  -I-interpret- 

 19 19  0  0  0  0  0  0  0  0999 V2000
   28.2540   19.7270   -6.0120 C   0  0  0  0  0
   29.3280   19.7880   -6.9420 C   0  0  0  0  0
   29.2050   20.5450   -8.1190 C   0  0  0  0  0
   28.0140   21.2530   -8.3920 C   0  0  0  0  0
   26.9320   21.2170   -7.4960 C   0  0  0  0  0
   27.0530   20.4580   -6.3120 C   0  0  0  0  0
   28.3950   18.8740   -4.6920 C   0  0  0  0  0
   27.3290   19.1640   -3.6630 C   0  0  0  0  0
   29.7060   19.0580   -4.0780 O   0  0  0  0  0
   26.2610   18.6740   -3.9100 O   0  0  0  0  0
   27.5880   19.8240   -2.6890 O   0  0  0  0  0
   30.2512   19.2447   -6.7406 H   0  0  0  0  0
   30.0338   20.5861   -8.8258 H   0  0  0  0  0
   27.9329   21.8352   -9.3099 H   0  0  0  0  0
   26.0152   21.7657   -7.7116 H   0  0  0  0  0
   26.2189   20.4255   -5.6110 H   0  0  0  0  0
   28.2710   17.8395   -5.0122 H   0  0  0  0  0
   30.3902   18.8754   -4.7262 H   0  0  0  0  0
   28.5072   20.0985   -2.7250 H   0  0  0  0  0
  1  2  4  0  0  0
  1  6  4  0  0  0
  7  1  1  0  0  0
  2  3  4  0  0  0
  3  4  4  0  0  0
  5  4  4  0  0  0
  6  5  4  0  0  0
  7  8  1  0  0  0
  7  9  1  0  0  0
  8 10  2  0  0  0
  8 11  1  0  0  0
  2 12  1  0  0  0
  3 13  1  0  0  0
  4 14  1  0  0  0
  5 15  1  0  0  0
  6 16  1  0  0  0
  7 17  1  0  0  0
  9 18  1  0  0  0
 11 19  1  0  0  0
M  END
$$$$
