### 
### Created by X-TOOL on Mon Sep 10 21:13:30 2018
### 

@<TRIPOS>MOLECULE
2ndg_ligand
  209   209     1     0     0
SMALL
GAST_HUCK


@<TRIPOS>ATOM
      1 N         -16.9080    9.2510   15.3620 N.4       1 GLY         0.2357
      2 CA        -16.2810    8.5260   14.2320 C.3       1 GLY         0.0545
      3 C         -17.3070    7.8390   13.3590 C.2       1 GLY         0.2234
      4 O         -17.7660    6.7410   13.6780 O.2       1 GLY        -0.3911
      5 N         -17.6740    8.4830   12.2580 N.am      1 GLY        -0.2639
      6 CA        -18.6540    7.9170   11.3490 C.3       1 GLY         0.1202
      7 C         -18.0420    6.9080   10.4020 C.2       1 GLY         0.2007
      8 O         -18.0270    7.1120    9.1870 O.2       1 GLY        -0.3947
      9 N         -17.5310    5.8230   10.9610 N.am      1 LYS        -0.2640
     10 CA        -16.9090    4.7730   10.1730 C.3       1 LYS         0.1310
     11 C         -17.9570    3.7780    9.6940 C.2       1 LYS         0.2039
     12 O         -18.7940    3.3130   10.4690 O.2       1 LYS        -0.3944
     13 CB        -15.8200    4.0690   10.9900 C.3       1 LYS        -0.0122
     14 CG        -16.2890    3.5720   12.3500 C.3       1 LYS        -0.0440
     15 CD        -15.1390    2.9990   13.1640 C.3       1 LYS        -0.0124
     16 CE        -14.5810    1.7280   12.5430 C.3       1 LYS        -0.0354
     17 NZ        -13.3940    1.2280   13.2830 N.4       1 LYS         0.2185
     18 N         -17.9110    3.4840    8.4050 N.am      1 ALA        -0.2640
     19 CA        -18.8530    2.5710    7.7760 C.3       1 ALA         0.1284
     20 C         -18.6470    1.1430    8.2810 C.2       1 ALA         0.2061
     21 O         -17.6280    0.8520    8.9110 O.2       1 ALA        -0.3942
     22 CB        -18.6930    2.6380    6.2610 C.3       1 ALA        -0.0244
     23 N         -19.6100    0.2380    8.0190 N.am      1 PRO        -0.2498
     24 CA        -19.5320   -1.1650    8.4540 C.3       1 PRO         0.1338
     25 C         -18.2390   -1.8600    8.0200 C.2       1 PRO         0.2041
     26 O         -17.5100   -1.3750    7.1480 O.2       1 PRO        -0.3944
     27 CB        -20.7480   -1.8250    7.7840 C.3       1 PRO        -0.0104
     28 CG        -21.2190   -0.8500    6.7590 C.3       1 PRO        -0.0281
     29 CD        -20.8580    0.5040    7.2890 C.3       1 PRO         0.0369
     30 N         -17.9560   -2.9960    8.6390 N.am      1 ARG        -0.2637
     31 CA        -16.7370   -3.7380    8.3590 C.3       1 ARG         0.1311
     32 C         -17.0140   -5.2350    8.2940 C.2       1 ARG         0.2039
     33 O         -17.7380   -5.7830    9.1300 O.2       1 ARG        -0.3944
     34 CB        -15.6860   -3.4230    9.4310 C.3       1 ARG        -0.0092
     35 CG        -14.3900   -4.2090    9.2970 C.3       1 ARG        -0.0156
     36 CD        -13.2520   -3.5380   10.0510 C.3       1 ARG         0.0627
     37 NE        -12.9800   -2.1950    9.5360 N.pl3     1 ARG        -0.2723
     38 CZ        -11.7960   -1.5860    9.6060 C.cat     1 ARG         0.2882
     39 NH1       -10.7710   -2.1700   10.2180 N.pl3     1 ARG        -0.2849
     40 NH2       -11.6470   -0.3810    9.0710 N.pl3     1 ARG        -0.2849
     41 N         -16.4340   -5.8870    7.2940 N.am      1 KCR        -0.2637
     42 CA        -16.6440   -7.3110    7.0830 C.3       1 KCR         0.1310
     43 CB        -16.3940   -7.6840    5.6210 C.3       1 KCR        -0.0123
     44 CG        -17.3310   -6.9830    4.6550 C.3       1 KCR        -0.0470
     45 CD        -17.0520   -7.3680    3.2140 C.3       1 KCR        -0.0327
     46 CE        -17.8940   -6.5410    2.2590 C.3       1 KCR         0.0295
     47 NZ        -17.6540   -6.8960    0.8640 N.am      1 KCR        -0.2917
     48 CH        -17.5290   -6.0010   -0.1060 C.2       1 KCR         0.1759
     49 OH        -17.6040   -4.7880    0.1090 O.2       1 KCR        -0.4012
     50 CX        -17.2820   -6.4840   -1.5040 C.2       1 KCR        -0.0032
     51 CY        -17.1420   -5.5840   -2.5390 C.2       1 KCR        -0.0626
     52 CH3       -16.8920   -6.0810   -3.9300 C.3       1 KCR        -0.0267
     53 C         -15.7390   -8.1300    7.9890 C.2       1 KCR         0.2039
     54 O         -14.5120   -8.0880    7.8720 O.2       1 KCR        -0.3944
     55 N         -16.3540   -8.8710    8.8920 N.am      1 GLN        -0.2636
     56 CA        -15.6230   -9.7210    9.8130 C.3       1 GLN         0.1330
     57 C         -15.9170  -11.1870    9.5230 C.2       1 GLN         0.2040
     58 O         -16.0710  -12.0030   10.4310 O.2       1 GLN        -0.3944
     59 CB        -15.9680   -9.3750   11.2630 C.3       1 GLN         0.0045
     60 CG        -15.4450   -8.0180   11.7010 C.3       1 GLN         0.0412
     61 CD        -15.6150   -7.7840   13.1870 C.2       1 GLN         0.1737
     62 OE1       -14.7500   -8.1470   13.9840 O.2       1 GLN        -0.3973
     63 NE2       -16.7180   -7.1610   13.5690 N.am      1 GLN        -0.3009
     64 N         -16.0100  -11.5070    8.2420 N.am      1 LEU        -0.2637
     65 CA        -16.1930  -12.8830    7.8090 C.3       1 LEU         0.1312
     66 C         -14.8510  -13.6060    7.8250 C.2       1 LEU         0.2039
     67 O         -14.7850  -14.8330    7.9100 O.2       1 LEU        -0.3944
     68 CB        -16.7990  -12.9170    6.4050 C.3       1 LEU        -0.0101
     69 CG        -17.0800  -14.3120    5.8440 C.3       1 LEU        -0.0425
     70 CD1       -18.1280  -15.0300    6.6790 C.3       1 LEU        -0.0625
     71 CD2       -17.5230  -14.2160    4.3960 C.3       1 LEU        -0.0625
     72 N         -13.7840  -12.8250    7.7470 N.am      1 ALA        -0.2640
     73 CA        -12.4340  -13.3570    7.8010 C.3       1 ALA         0.1282
     74 C         -11.9120  -13.3130    9.2290 C.2       1 ALA         0.2037
     75 O         -12.5680  -12.7720   10.1230 O.2       1 ALA        -0.3944
     76 CB        -11.5200  -12.5640    6.8800 C.3       1 ALA        -0.0244
     77 N         -10.7370  -13.8720    9.4400 N.am      1 THR        -0.2613
     78 CA        -10.1310  -13.8890   10.7560 C.3       1 THR         0.1565
     79 C          -8.7570  -13.2280   10.7110 C.2       1 THR         0.2065
     80 O          -7.9940  -13.4170    9.7600 O.2       1 THR        -0.3943
     81 CB        -10.0090  -15.3330   11.2930 C.3       1 THR         0.0924
     82 OG1        -9.4130  -15.3410   12.6000 O.3       1 THR        -0.3874
     83 CG2        -9.1840  -16.1980   10.3520 C.3       1 THR        -0.0346
     84 N          -8.4580  -12.4300   11.7250 N.am      1 LYS        -0.2637
     85 CA         -7.1580  -11.7830   11.8230 C.3       1 LYS         0.1309
     86 C          -6.2030  -12.6330   12.6540 C.2       1 LYS         0.2033
     87 O          -5.0470  -12.2620   12.8720 O.2       1 LYS        -0.3944
     88 CB         -7.2940  -10.3770   12.4180 C.3       1 LYS        -0.0122
     89 CG         -7.9650  -10.3410   13.7830 C.3       1 LYS        -0.0440
     90 CD         -8.1350   -8.9140   14.2860 C.3       1 LYS        -0.0124
     91 CE         -6.7940   -8.2280   14.5000 C.3       1 LYS        -0.0354
     92 NZ         -6.9540   -6.8170   14.9440 N.4       1 LYS         0.2185
     93 N          -6.6950  -13.7800   13.1070 N.am      1 ALA        -0.2698
     94 CA         -5.8880  -14.7110   13.8740 C.3       1 ALA         0.0916
     95 C          -5.5530  -15.9340   13.0290 C.2       1 ALA         0.0598
     96 O          -4.5600  -15.8760   12.2760 O.co2     1 ALA        -0.5666
     97 CB         -6.6110  -15.1180   15.1500 C.3       1 ALA        -0.0300
     98 OXT        -6.2880  -16.9430   13.1070 O.co2     1 ALA        -0.5666
     99 H1        -16.1916    9.6929   15.9166 H         1 GLY         0.2012
    100 H2        -17.4226    8.6003   15.9346 H         1 GLY         0.2012
    101 H3        -17.5363    9.9531   15.0036 H         1 GLY         0.2012
    102 H4        -15.5930    7.7680   14.6346 H         1 GLY         0.1061
    103 H5        -15.7171    9.2442   13.6187 H         1 GLY         0.1061
    104 H6        -17.2684    9.3734   12.0512 H         1 GLY         0.1882
    105 H7        -19.1007    8.7307   10.7588 H         1 GLY         0.0763
    106 H8        -19.4376    7.4189   11.9388 H         1 GLY         0.0763
    107 H9        -17.5742    5.7229   11.9550 H         1 LYS         0.1883
    108 H10       -16.4383    5.2317    9.2909 H         1 LYS         0.0800
    109 H11       -14.9933    4.7774   11.1471 H         1 LYS         0.0312
    110 H12       -15.4582    3.2056   10.4124 H         1 LYS         0.0312
    111 H13       -17.0466    2.7884   12.2019 H         1 LYS         0.0269
    112 H14       -16.7339    4.4123   12.9032 H         1 LYS         0.0269
    113 H15       -15.5003    2.7703   14.1775 H         1 LYS         0.0317
    114 H16       -14.3360    3.7486   13.2214 H         1 LYS         0.0317
    115 H17       -14.2900    1.9377   11.5031 H         1 LYS         0.0813
    116 H18       -15.3613    0.9528   12.5562 H         1 LYS         0.0813
    117 H19       -13.0535    0.3873   12.8432 H         1 LYS         0.1994
    118 H20       -13.6524    1.0274   14.2364 H         1 LYS         0.1994
    119 H21       -12.6706    1.9299   13.2715 H         1 LYS         0.1994
    120 H22       -17.2011    3.9058    7.8410 H         1 ALA         0.1883
    121 H23       -19.8743    2.8864    8.0357 H         1 ALA         0.0797
    122 H24       -19.4055    1.9475    5.7862 H         1 ALA         0.0277
    123 H25       -17.6669    2.3512    5.9876 H         1 ALA         0.0277
    124 H26       -18.8913    3.6636    5.9163 H         1 ALA         0.0277
    125 H27       -19.6143   -1.2247    9.5493 H         1 PRO         0.0802
    126 H28       -21.5385   -2.0152    8.5249 H         1 PRO         0.0313
    127 H29       -20.4566   -2.7725    7.3073 H         1 PRO         0.0313
    128 H30       -22.3077   -0.9311    6.6246 H         1 PRO         0.0287
    129 H31       -20.7163   -1.0317    5.7976 H         1 PRO         0.0287
    130 H32       -20.6947    1.2206    6.4705 H         1 PRO         0.0524
    131 H33       -21.6383    0.8881    7.9625 H         1 PRO         0.0524
    132 H34       -18.5980   -3.3533    9.3174 H         1 ARG         0.1883
    133 H35       -16.3479   -3.4160    7.3818 H         1 ARG         0.0800
    134 H36       -16.1225   -3.6463   10.4157 H         1 ARG         0.0313
    135 H37       -15.4452   -2.3514    9.3711 H         1 ARG         0.0313
    136 H38       -14.1220   -4.2780    8.2324 H         1 ARG         0.0301
    137 H39       -14.5411   -5.2199    9.7033 H         1 ARG         0.0301
    138 H40       -12.3445   -4.1507    9.9461 H         1 ARG         0.0689
    139 H41       -13.5235   -3.4639   11.1144 H         1 ARG         0.0689
    140 H42       -13.7560   -1.6859    9.0892 H         1 ARG         0.2642
    141 H43        -9.8601   -1.6918   10.2670 H         1 ARG         0.2615
    142 H44       -10.8875   -3.1008   10.6433 H         1 ARG         0.2615
    143 H45       -12.4401    0.0734    8.5962 H         1 ARG         0.2615
    144 H46       -10.7382    0.1001    9.1304 H         1 ARG         0.2615
    145 H47       -15.8362   -5.3857    6.6684 H         1 KCR         0.1883
    146 H48       -17.6898   -7.5468    7.3295 H         1 KCR         0.0800
    147 H49       -16.5267   -8.7703    5.5100 H         1 KCR         0.0312
    148 H50       -15.3596   -7.4127    5.3632 H         1 KCR         0.0312
    149 H51       -17.2045   -5.8957    4.7631 H         1 KCR         0.0268
    150 H52       -18.3670   -7.2580    4.9021 H         1 KCR         0.0268
    151 H53       -17.2893   -8.4328    3.0734 H         1 KCR         0.0285
    152 H54       -15.9875   -7.1975    2.9954 H         1 KCR         0.0285
    153 H55       -17.6498   -5.4779    2.4010 H         1 KCR         0.0518
    154 H56       -18.9568   -6.7070    2.4890 H         1 KCR         0.0518
    155 H57       -17.5800   -7.8648    0.6274 H         1 KCR         0.1831
    156 H58       -17.2128   -7.5524   -1.7030 H         1 KCR         0.0472
    157 H59       -17.2130   -4.5146   -2.3459 H         1 KCR         0.0843
    158 H60       -16.8087   -5.2250   -4.6158 H         1 KCR         0.0453
    159 H61       -17.7272   -6.7235   -4.2455 H         1 KCR         0.0453
    160 H62       -15.9565   -6.6593   -3.9502 H         1 KCR         0.0453
    161 H63       -17.3524   -8.8457    8.9427 H         1 GLN         0.1883
    162 H64       -14.5470   -9.5475    9.6644 H         1 GLN         0.0801
    163 H65       -15.5327  -10.1442   11.9179 H         1 GLN         0.0337
    164 H66       -17.0627   -9.3780   11.3711 H         1 GLN         0.0337
    165 H67       -15.9932   -7.2357   11.1556 H         1 GLN         0.0504
    166 H68       -14.3749   -7.9558   11.4542 H         1 GLN         0.0504
    167 H69       -16.8801   -6.9811   14.5392 H         1 GLN         0.1814
    168 H70       -17.3895   -6.8701   12.8875 H         1 GLN         0.1814
    169 H71       -15.9529  -10.7835    7.5540 H         1 LEU         0.1883
    170 H72       -16.8793  -13.3887    8.5041 H         1 LEU         0.0800
    171 H73       -16.1008  -12.4111    5.7219 H         1 LEU         0.0315
    172 H74       -17.7499  -12.3647    6.4326 H         1 LEU         0.0315
    173 H75       -16.1483  -14.8954    5.8838 H         1 LEU         0.0298
    174 H76       -18.3123  -16.0287    6.2564 H         1 LEU         0.0232
    175 H77       -19.0629  -14.4505    6.6715 H         1 LEU         0.0232
    176 H78       -17.7671  -15.1304    7.7132 H         1 LEU         0.0232
    177 H79       -16.7518  -13.6941    3.8105 H         1 LEU         0.0232
    178 H80       -18.4684  -13.6567    4.3381 H         1 LEU         0.0232
    179 H81       -17.6699  -15.2276    3.9896 H         1 LEU         0.0232
    180 H82       -13.9122  -11.8382    7.6478 H         1 ALA         0.1883
    181 H83       -12.4526  -14.4038    7.4637 H         1 ALA         0.0797
    182 H84       -10.5015  -12.9766    6.9301 H         1 ALA         0.0277
    183 H85       -11.5048  -11.5107    7.1966 H         1 ALA         0.0277
    184 H86       -11.8924  -12.6312    5.8471 H         1 ALA         0.0277
    185 H87       -10.2525  -14.2942    8.6738 H         1 THR         0.1884
    186 H88       -10.7732  -13.3166   11.4415 H         1 THR         0.0826
    187 H89       -11.0197  -15.7611   11.3657 H         1 THR         0.0639
    188 H90        -9.3472  -16.2361   12.9113 H         1 THR         0.2101
    189 H91        -9.1139  -17.2178   10.7582 H         1 THR         0.0257
    190 H92        -8.1745  -15.7725   10.2532 H         1 THR         0.0257
    191 H93        -9.6671  -16.2292    9.3643 H         1 THR         0.0257
    192 H94        -9.1400  -12.2686   12.4384 H         1 LYS         0.1883
    193 H95        -6.7422  -11.6882   10.8090 H         1 LYS         0.0800
    194 H96        -7.8892   -9.7648   11.7246 H         1 LYS         0.0312
    195 H97        -6.2872   -9.9451   12.5168 H         1 LYS         0.0312
    196 H98        -7.3464  -10.9009   14.4998 H         1 LYS         0.0269
    197 H99        -8.9556  -10.8130   13.7065 H         1 LYS         0.0269
    198 H100       -8.6805   -8.9355   15.2409 H         1 LYS         0.0317
    199 H101       -8.7137   -8.3419   13.5459 H         1 LYS         0.0317
    200 H102       -6.2334   -8.2410   13.5536 H         1 LYS         0.0813
    201 H103       -6.2312   -8.7800   15.2672 H         1 LYS         0.0813
    202 H104       -6.0453   -6.4005   15.0738 H         1 LYS         0.1994
    203 H105       -7.4615   -6.7942   15.8146 H         1 LYS         0.1994
    204 H106       -7.4635   -6.3003   14.2444 H         1 LYS         0.1994
    205 H107       -7.6491  -14.0090   12.9141 H         1 ALA         0.1875
    206 H108       -4.9481  -14.2117   14.1521 H         1 ALA         0.0723
    207 H109       -5.9851  -15.8226   15.7172 H         1 ALA         0.0270
    208 H110       -7.5654  -15.6006   14.8927 H         1 ALA         0.0270
    209 H111       -6.8050  -14.2250   15.7623 H         1 ALA         0.0270
@<TRIPOS>BOND
     1    1    2 1  
     2    2    3 1  
     3    3    4 2  
     4    3    5 am 
     5    5    6 1  
     6    6    7 1  
     7    7    8 2  
     8    7    9 am 
     9    9   10 1  
    10   10   11 1  
    11   10   13 1  
    12   11   12 2  
    13   11   18 am 
    14   13   14 1  
    15   14   15 1  
    16   15   16 1  
    17   16   17 1  
    18   18   19 1  
    19   19   20 1  
    20   19   22 1  
    21   20   21 2  
    22   20   23 am 
    23   23   24 1  
    24   23   29 1  
    25   24   25 1  
    26   24   27 1  
    27   25   26 2  
    28   25   30 am 
    29   27   28 1  
    30   28   29 1  
    31   30   31 1  
    32   31   32 1  
    33   31   34 1  
    34   32   33 2  
    35   32   41 am 
    36   34   35 1  
    37   35   36 1  
    38   36   37 1  
    39   37   38 ar 
    40   38   39 ar 
    41   38   40 ar 
    42   41   42 1  
    43   42   43 1  
    44   42   53 1  
    45   43   44 1  
    46   44   45 1  
    47   45   46 1  
    48   46   47 1  
    49   47   48 am 
    50   48   49 2  
    51   48   50 1  
    52   50   51 2  
    53   51   52 1  
    54   53   54 2  
    55   53   55 am 
    56   55   56 1  
    57   56   57 1  
    58   56   59 1  
    59   57   58 2  
    60   57   64 am 
    61   59   60 1  
    62   60   61 1  
    63   61   62 2  
    64   61   63 am 
    65   64   65 1  
    66   65   66 1  
    67   65   68 1  
    68   66   67 2  
    69   66   72 am 
    70   68   69 1  
    71   69   70 1  
    72   69   71 1  
    73   72   73 1  
    74   73   74 1  
    75   73   76 1  
    76   74   75 2  
    77   74   77 am 
    78   77   78 1  
    79   78   79 1  
    80   78   81 1  
    81   79   80 2  
    82   79   84 am 
    83   81   82 1  
    84   81   83 1  
    85   84   85 1  
    86   85   86 1  
    87   85   88 1  
    88   86   87 2  
    89   86   93 am 
    90   88   89 1  
    91   89   90 1  
    92   90   91 1  
    93   91   92 1  
    94   93   94 1  
    95   94   95 1  
    96   94   97 1  
    97   95   96 ar 
    98   95   98 ar 
    99    1   99 1  
   100    1  100 1  
   101    1  101 1  
   102    2  102 1  
   103    2  103 1  
   104    5  104 1  
   105    6  105 1  
   106    6  106 1  
   107    9  107 1  
   108   10  108 1  
   109   13  109 1  
   110   13  110 1  
   111   14  111 1  
   112   14  112 1  
   113   15  113 1  
   114   15  114 1  
   115   16  115 1  
   116   16  116 1  
   117   17  117 1  
   118   17  118 1  
   119   17  119 1  
   120   18  120 1  
   121   19  121 1  
   122   22  122 1  
   123   22  123 1  
   124   22  124 1  
   125   24  125 1  
   126   27  126 1  
   127   27  127 1  
   128   28  128 1  
   129   28  129 1  
   130   29  130 1  
   131   29  131 1  
   132   30  132 1  
   133   31  133 1  
   134   34  134 1  
   135   34  135 1  
   136   35  136 1  
   137   35  137 1  
   138   36  138 1  
   139   36  139 1  
   140   37  140 1  
   141   39  141 1  
   142   39  142 1  
   143   40  143 1  
   144   40  144 1  
   145   41  145 1  
   146   42  146 1  
   147   43  147 1  
   148   43  148 1  
   149   44  149 1  
   150   44  150 1  
   151   45  151 1  
   152   45  152 1  
   153   46  153 1  
   154   46  154 1  
   155   47  155 1  
   156   50  156 1  
   157   51  157 1  
   158   52  158 1  
   159   52  159 1  
   160   52  160 1  
   161   55  161 1  
   162   56  162 1  
   163   59  163 1  
   164   59  164 1  
   165   60  165 1  
   166   60  166 1  
   167   63  167 1  
   168   63  168 1  
   169   64  169 1  
   170   65  170 1  
   171   68  171 1  
   172   68  172 1  
   173   69  173 1  
   174   70  174 1  
   175   70  175 1  
   176   70  176 1  
   177   71  177 1  
   178   71  178 1  
   179   71  179 1  
   180   72  180 1  
   181   73  181 1  
   182   76  182 1  
   183   76  183 1  
   184   76  184 1  
   185   77  185 1  
   186   78  186 1  
   187   81  187 1  
   188   82  188 1  
   189   83  189 1  
   190   83  190 1  
   191   83  191 1  
   192   84  192 1  
   193   85  193 1  
   194   88  194 1  
   195   88  195 1  
   196   89  196 1  
   197   89  197 1  
   198   90  198 1  
   199   90  199 1  
   200   91  200 1  
   201   91  201 1  
   202   92  202 1  
   203   92  203 1  
   204   92  204 1  
   205   93  205 1  
   206   94  206 1  
   207   97  207 1  
   208   97  208 1  
   209   97  209 1  
@<TRIPOS>SUBSTRUCTURE
     1 GLY         1

