2ndg_ligand
  -I-interpret- 

209209  0  0  0  0  0  0  0  0999 V2000
  -16.9080    9.2510   15.3620 N   0  3  0  0  0
  -16.2810    8.5260   14.2320 C   0  0  0  0  0
  -17.3070    7.8390   13.3590 C   0  0  0  0  0
  -17.7660    6.7410   13.6780 O   0  0  0  0  0
  -17.6740    8.4830   12.2580 N   0  0  0  0  0
  -18.6540    7.9170   11.3490 C   0  0  0  0  0
  -18.0420    6.9080   10.4020 C   0  0  0  0  0
  -18.0270    7.1120    9.1870 O   0  0  0  0  0
  -17.5310    5.8230   10.9610 N   0  0  0  0  0
  -16.9090    4.7730   10.1730 C   0  0  0  0  0
  -17.9570    3.7780    9.6940 C   0  0  0  0  0
  -18.7940    3.3130   10.4690 O   0  0  0  0  0
  -15.8200    4.0690   10.9900 C   0  0  0  0  0
  -16.2890    3.5720   12.3500 C   0  0  0  0  0
  -15.1390    2.9990   13.1640 C   0  0  0  0  0
  -14.5810    1.7280   12.5430 C   0  0  0  0  0
  -13.3940    1.2280   13.2830 N   0  3  0  0  0
  -17.9110    3.4840    8.4050 N   0  0  0  0  0
  -18.8530    2.5710    7.7760 C   0  0  0  0  0
  -18.6470    1.1430    8.2810 C   0  0  0  0  0
  -17.6280    0.8520    8.9110 O   0  0  0  0  0
  -18.6930    2.6380    6.2610 C   0  0  0  0  0
  -19.6100    0.2380    8.0190 N   0  0  0  0  0
  -19.5320   -1.1650    8.4540 C   0  0  0  0  0
  -18.2390   -1.8600    8.0200 C   0  0  0  0  0
  -17.5100   -1.3750    7.1480 O   0  0  0  0  0
  -20.7480   -1.8250    7.7840 C   0  0  0  0  0
  -21.2190   -0.8500    6.7590 C   0  0  0  0  0
  -20.8580    0.5040    7.2890 C   0  0  0  0  0
  -17.9560   -2.9960    8.6390 N   0  0  0  0  0
  -16.7370   -3.7380    8.3590 C   0  0  0  0  0
  -17.0140   -5.2350    8.2940 C   0  0  0  0  0
  -17.7380   -5.7830    9.1300 O   0  0  0  0  0
  -15.6860   -3.4230    9.4310 C   0  0  0  0  0
  -14.3900   -4.2090    9.2970 C   0  0  0  0  0
  -13.2520   -3.5380   10.0510 C   0  0  0  0  0
  -12.9800   -2.1950    9.5360 N   0  0  0  0  0
  -11.7960   -1.5860    9.6060 C   0  0  0  0  0
  -10.7710   -2.1700   10.2180 N   0  0  0  0  0
  -11.6470   -0.3810    9.0710 N   0  0  0  0  0
  -16.4340   -5.8870    7.2940 N   0  0  0  0  0
  -16.6440   -7.3110    7.0830 C   0  0  0  0  0
  -16.3940   -7.6840    5.6210 C   0  0  0  0  0
  -17.3310   -6.9830    4.6550 C   0  0  0  0  0
  -17.0520   -7.3680    3.2140 C   0  0  0  0  0
  -17.8940   -6.5410    2.2590 C   0  0  0  0  0
  -17.6540   -6.8960    0.8640 N   0  0  0  0  0
  -17.5290   -6.0010   -0.1060 C   0  0  0  0  0
  -17.6040   -4.7880    0.1090 O   0  0  0  0  0
  -17.2820   -6.4840   -1.5040 C   0  0  0  0  0
  -17.1420   -5.5840   -2.5390 C   0  0  0  0  0
  -16.8920   -6.0810   -3.9300 C   0  0  0  0  0
  -15.7390   -8.1300    7.9890 C   0  0  0  0  0
  -14.5120   -8.0880    7.8720 O   0  0  0  0  0
  -16.3540   -8.8710    8.8920 N   0  0  0  0  0
  -15.6230   -9.7210    9.8130 C   0  0  0  0  0
  -15.9170  -11.1870    9.5230 C   0  0  0  0  0
  -16.0710  -12.0030   10.4310 O   0  0  0  0  0
  -15.9680   -9.3750   11.2630 C   0  0  0  0  0
  -15.4450   -8.0180   11.7010 C   0  0  0  0  0
  -15.6150   -7.7840   13.1870 C   0  0  0  0  0
  -14.7500   -8.1470   13.9840 O   0  0  0  0  0
  -16.7180   -7.1610   13.5690 N   0  0  0  0  0
  -16.0100  -11.5070    8.2420 N   0  0  0  0  0
  -16.1930  -12.8830    7.8090 C   0  0  0  0  0
  -14.8510  -13.6060    7.8250 C   0  0  0  0  0
  -14.7850  -14.8330    7.9100 O   0  0  0  0  0
  -16.7990  -12.9170    6.4050 C   0  0  0  0  0
  -17.0800  -14.3120    5.8440 C   0  0  0  0  0
  -18.1280  -15.0300    6.6790 C   0  0  0  0  0
  -17.5230  -14.2160    4.3960 C   0  0  0  0  0
  -13.7840  -12.8250    7.7470 N   0  0  0  0  0
  -12.4340  -13.3570    7.8010 C   0  0  0  0  0
  -11.9120  -13.3130    9.2290 C   0  0  0  0  0
  -12.5680  -12.7720   10.1230 O   0  0  0  0  0
  -11.5200  -12.5640    6.8800 C   0  0  0  0  0
  -10.7370  -13.8720    9.4400 N   0  0  0  0  0
  -10.1310  -13.8890   10.7560 C   0  0  0  0  0
   -8.7570  -13.2280   10.7110 C   0  0  0  0  0
   -7.9940  -13.4170    9.7600 O   0  0  0  0  0
  -10.0090  -15.3330   11.2930 C   0  0  0  0  0
   -9.4130  -15.3410   12.6000 O   0  0  0  0  0
   -9.1840  -16.1980   10.3520 C   0  0  0  0  0
   -8.4580  -12.4300   11.7250 N   0  0  0  0  0
   -7.1580  -11.7830   11.8230 C   0  0  0  0  0
   -6.2030  -12.6330   12.6540 C   0  0  0  0  0
   -5.0470  -12.2620   12.8720 O   0  0  0  0  0
   -7.2940  -10.3770   12.4180 C   0  0  0  0  0
   -7.9650  -10.3410   13.7830 C   0  0  0  0  0
   -8.1350   -8.9140   14.2860 C   0  0  0  0  0
   -6.7940   -8.2280   14.5000 C   0  0  0  0  0
   -6.9540   -6.8170   14.9440 N   0  3  0  0  0
   -6.6950  -13.7800   13.1070 N   0  0  0  0  0
   -5.8880  -14.7110   13.8740 C   0  0  0  0  0
   -5.5530  -15.9340   13.0290 C   0  0  0  0  0
   -4.5600  -15.8760   12.2760 O   0  0  0  0  0
   -6.6110  -15.1180   15.1500 C   0  0  0  0  0
   -6.2880  -16.9430   13.1070 O   0  0  0  0  0
  -16.1822    9.6977   15.9224 H   0  0  0  0  0
  -17.5435    9.9610   14.9981 H   0  0  0  0  0
  -17.4284    8.5916   15.9406 H   0  0  0  0  0
  -15.6182    7.7641   14.6422 H   0  0  0  0  0
  -15.7430    9.2498   13.6198 H   0  0  0  0  0
  -17.2603    9.3912   12.0470 H   0  0  0  0  0
  -19.0727    8.7289   10.7543 H   0  0  0  0  0
  -19.4121    7.4070   11.9433 H   0  0  0  0  0
  -17.5751    5.7209   11.9749 H   0  0  0  0  0
  -16.4415    5.2222    9.2968 H   0  0  0  0  0
  -15.0282    4.7967   11.1675 H   0  0  0  0  0
  -15.5015    3.1965   10.4195 H   0  0  0  0  0
  -17.0260    2.7843   12.1933 H   0  0  0  0  0
  -16.7120    4.4144   12.8973 H   0  0  0  0  0
  -15.5124    2.7572   14.1591 H   0  0  0  0  0
  -14.3414    3.7412   13.1974 H   0  0  0  0  0
  -14.2782    1.9507   11.5199 H   0  0  0  0  0
  -15.3548    0.9611   12.5780 H   0  0  0  0  0
  -13.0503    0.3774   12.8371 H   0  0  0  0  0
  -12.6628    1.9390   13.2707 H   0  0  0  0  0
  -13.6567    1.0254   14.2476 H   0  0  0  0  0
  -17.1869    3.9142    7.8297 H   0  0  0  0  0
  -19.8671    2.8713    8.0398 H   0  0  0  0  0
  -18.8897    3.6547    5.9208 H   0  0  0  0  0
  -17.6759    2.3536    5.9914 H   0  0  0  0  0
  -19.3995    1.9534    5.7917 H   0  0  0  0  0
  -19.5327   -1.2405    9.5414 H   0  0  0  0  0
  -21.5298   -2.0493    8.5096 H   0  0  0  0  0
  -20.4840   -2.7814    7.3327 H   0  0  0  0  0
  -22.2925   -0.9375    6.5917 H   0  0  0  0  0
  -20.7524   -1.0348    5.7914 H   0  0  0  0  0
  -20.7428    1.2525    6.5051 H   0  0  0  0  0
  -21.6359    0.9378    7.9173 H   0  0  0  0  0
  -18.6108   -3.3605    9.3310 H   0  0  0  0  0
  -16.3531   -3.4320    7.3858 H   0  0  0  0  0
  -16.1226   -3.6907   10.3932 H   0  0  0  0  0
  -15.4309   -2.3684    9.3265 H   0  0  0  0  0
  -14.1234   -4.2586    8.2413 H   0  0  0  0  0
  -14.5437   -5.2033    9.7164 H   0  0  0  0  0
  -12.3536   -4.1424    9.9263 H   0  0  0  0  0
  -13.5375   -3.4528   11.0995 H   0  0  0  0  0
  -13.7484   -1.6909    9.0936 H   0  0  0  0  0
   -9.8718   -1.6919   10.2758 H   0  0  0  0  0
  -10.8835   -3.0963   10.6299 H   0  0  0  0  0
  -12.4353    0.0734    8.6100 H   0  0  0  0  0
  -15.8243   -5.3756    6.6559 H   0  0  0  0  0
  -17.6815   -7.5363    7.3298 H   0  0  0  0  0
  -16.5598   -8.7567    5.5214 H   0  0  0  0  0
  -15.3770   -7.3807    5.3726 H   0  0  0  0  0
  -17.1831   -5.9078    4.7557 H   0  0  0  0  0
  -18.3524   -7.2781    4.8955 H   0  0  0  0  0
  -17.3002   -8.4206    3.0783 H   0  0  0  0  0
  -15.9988   -7.1857    3.0003 H   0  0  0  0  0
  -17.6277   -5.4925    2.3929 H   0  0  0  0  0
  -18.9441   -6.7305    2.4814 H   0  0  0  0  0
  -17.5785   -7.8842    0.6227 H   0  0  0  0  0
  -17.2127   -7.5534   -1.7032 H   0  0  0  0  0
  -17.2130   -4.5136   -2.3457 H   0  0  0  0  0
  -15.9649   -6.6539   -3.9486 H   0  0  0  0  0
  -17.7202   -6.7175   -4.2414 H   0  0  0  0  0
  -16.8096   -5.2319   -4.6085 H   0  0  0  0  0
  -17.3724   -8.8452    8.9437 H   0  0  0  0  0
  -14.5564   -9.5469    9.6714 H   0  0  0  0  0
  -15.5025  -10.1273   11.8997 H   0  0  0  0  0
  -17.0546   -9.3501   11.3449 H   0  0  0  0  0
  -16.0126   -7.2520   11.1726 H   0  0  0  0  0
  -14.3797   -7.9786   11.4738 H   0  0  0  0  0
  -16.8766   -6.9646   14.5573 H   0  0  0  0  0
  -17.4097   -6.8772   12.8752 H   0  0  0  0  0
  -15.9518  -10.7691    7.5402 H   0  0  0  0  0
  -16.8766  -13.3871    8.4922 H   0  0  0  0  0
  -16.0687  -12.4559    5.7400 H   0  0  0  0  0
  -17.7609  -12.4083    6.4692 H   0  0  0  0  0
  -16.1588  -14.8929    5.8882 H   0  0  0  0  0
  -17.7692  -15.1288    7.7035 H   0  0  0  0  0
  -19.0538  -14.4548    6.6708 H   0  0  0  0  0
  -18.3098  -16.0194    6.2593 H   0  0  0  0  0
  -18.4313  -13.6167    4.3343 H   0  0  0  0  0
  -16.7354  -13.7462    3.8068 H   0  0  0  0  0
  -17.7193  -15.2164    4.0104 H   0  0  0  0  0
  -13.9148  -11.8185    7.6458 H   0  0  0  0  0
  -12.4504  -14.3942    7.4661 H   0  0  0  0  0
  -11.8901  -12.6313    5.8570 H   0  0  0  0  0
  -11.5059  -11.5205    7.1947 H   0  0  0  0  0
  -10.5112  -12.9738    6.9305 H   0  0  0  0  0
  -10.2428  -14.3027    8.6585 H   0  0  0  0  0
  -10.7750  -13.3278   11.4331 H   0  0  0  0  0
  -11.0157  -15.7459   11.3574 H   0  0  0  0  0
   -9.3465  -16.2455   12.9146 H   0  0  0  0  0
   -9.6637  -16.2280    9.3737 H   0  0  0  0  0
   -8.1840  -15.7753   10.2549 H   0  0  0  0  0
   -9.1153  -17.2082   10.7556 H   0  0  0  0  0
   -9.1536  -12.2654   12.4526 H   0  0  0  0  0
   -6.7455  -11.6848   10.8188 H   0  0  0  0  0
   -7.9180   -9.7981   11.7371 H   0  0  0  0  0
   -6.2860   -9.9818   12.5441 H   0  0  0  0  0
   -7.3370  -10.8830   14.4900 H   0  0  0  0  0
   -8.9520  -10.7948   13.6938 H   0  0  0  0  0
   -8.6596   -8.9471   15.2409 H   0  0  0  0  0
   -8.6929   -8.3508   13.5379 H   0  0  0  0  0
   -6.2561   -8.2280   13.5519 H   0  0  0  0  0
   -6.2539   -8.7703   15.2761 H   0  0  0  0  0
   -6.0339   -6.3966   15.0750 H   0  0  0  0  0
   -7.4697   -6.2952   14.2354 H   0  0  0  0  0
   -7.4676   -6.7952   15.8250 H   0  0  0  0  0
   -7.6682  -14.0136   12.9103 H   0  0  0  0  0
   -4.9567  -14.2191   14.1549 H   0  0  0  0  0
   -6.8026  -14.2323   15.7558 H   0  0  0  0  0
   -7.5565  -15.5960   14.8937 H   0  0  0  0  0
   -5.9898  -15.8161   15.7111 H   0  0  0  0  0
   -6.9896  -16.7782   13.7412 H   0  0  0  0  0
  1  2  1  0  0  0
  2  3  1  0  0  0
  3  4  2  0  0  0
  3  5  1  0  0  0
  5  6  1  0  0  0
  6  7  1  0  0  0
  7  8  2  0  0  0
  7  9  1  0  0  0
  9 10  1  0  0  0
 10 11  1  0  0  0
 10 13  1  0  0  0
 11 12  2  0  0  0
 11 18  1  0  0  0
 13 14  1  0  0  0
 14 15  1  0  0  0
 15 16  1  0  0  0
 16 17  1  0  0  0
 18 19  1  0  0  0
 19 20  1  0  0  0
 19 22  1  0  0  0
 20 21  2  0  0  0
 20 23  1  0  0  0
 23 24  1  0  0  0
 23 29  1  0  0  0
 24 25  1  0  0  0
 24 27  1  0  0  0
 25 26  2  0  0  0
 25 30  1  0  0  0
 27 28  1  0  0  0
 28 29  1  0  0  0
 30 31  1  0  0  0
 31 32  1  0  0  0
 31 34  1  0  0  0
 32 33  2  0  0  0
 32 41  1  0  0  0
 34 35  1  0  0  0
 35 36  1  0  0  0
 36 37  1  0  0  0
 37 38  1  0  0  0
 38 39  1  0  0  0
 38 40  2  0  0  0
 41 42  1  0  0  0
 42 43  1  0  0  0
 42 53  1  0  0  0
 43 44  1  0  0  0
 44 45  1  0  0  0
 45 46  1  0  0  0
 46 47  1  0  0  0
 47 48  1  0  0  0
 48 49  2  0  0  0
 48 50  1  0  0  0
 50 51  2  0  0  0
 51 52  1  0  0  0
 53 54  2  0  0  0
 53 55  1  0  0  0
 55 56  1  0  0  0
 56 57  1  0  0  0
 56 59  1  0  0  0
 57 58  2  0  0  0
 57 64  1  0  0  0
 59 60  1  0  0  0
 60 61  1  0  0  0
 61 62  2  0  0  0
 61 63  1  0  0  0
 64 65  1  0  0  0
 65 66  1  0  0  0
 65 68  1  0  0  0
 66 67  2  0  0  0
 66 72  1  0  0  0
 68 69  1  0  0  0
 69 70  1  0  0  0
 69 71  1  0  0  0
 72 73  1  0  0  0
 73 74  1  0  0  0
 73 76  1  0  0  0
 74 75  2  0  0  0
 74 77  1  0  0  0
 77 78  1  0  0  0
 78 79  1  0  0  0
 78 81  1  0  0  0
 79 80  2  0  0  0
 79 84  1  0  0  0
 81 82  1  0  0  0
 81 83  1  0  0  0
 84 85  1  0  0  0
 85 86  1  0  0  0
 85 88  1  0  0  0
 86 87  2  0  0  0
 86 93  1  0  0  0
 88 89  1  0  0  0
 89 90  1  0  0  0
 90 91  1  0  0  0
 91 92  1  0  0  0
 93 94  1  0  0  0
 94 95  1  0  0  0
 94 97  1  0  0  0
 95 96  2  0  0  0
 95 98  1  0  0  0
  1 99  1  0  0  0
  1100  1  0  0  0
  1101  1  0  0  0
  2102  1  0  0  0
  2103  1  0  0  0
  5104  1  0  0  0
  6105  1  0  0  0
  6106  1  0  0  0
  9107  1  0  0  0
 10108  1  0  0  0
 13109  1  0  0  0
 13110  1  0  0  0
 14111  1  0  0  0
 14112  1  0  0  0
 15113  1  0  0  0
 15114  1  0  0  0
 16115  1  0  0  0
 16116  1  0  0  0
 17117  1  0  0  0
 17118  1  0  0  0
 17119  1  0  0  0
 18120  1  0  0  0
 19121  1  0  0  0
 22122  1  0  0  0
 22123  1  0  0  0
 22124  1  0  0  0
 24125  1  0  0  0
 27126  1  0  0  0
 27127  1  0  0  0
 28128  1  0  0  0
 28129  1  0  0  0
 29130  1  0  0  0
 29131  1  0  0  0
 30132  1  0  0  0
 31133  1  0  0  0
 34134  1  0  0  0
 34135  1  0  0  0
 35136  1  0  0  0
 35137  1  0  0  0
 36138  1  0  0  0
 36139  1  0  0  0
 37140  1  0  0  0
 39141  1  0  0  0
 39142  1  0  0  0
 40143  1  0  0  0
 41144  1  0  0  0
 42145  1  0  0  0
 43146  1  0  0  0
 43147  1  0  0  0
 44148  1  0  0  0
 44149  1  0  0  0
 45150  1  0  0  0
 45151  1  0  0  0
 46152  1  0  0  0
 46153  1  0  0  0
 47154  1  0  0  0
 50155  1  0  0  0
 51156  1  0  0  0
 52157  1  0  0  0
 52158  1  0  0  0
 52159  1  0  0  0
 55160  1  0  0  0
 56161  1  0  0  0
 59162  1  0  0  0
 59163  1  0  0  0
 60164  1  0  0  0
 60165  1  0  0  0
 63166  1  0  0  0
 63167  1  0  0  0
 64168  1  0  0  0
 65169  1  0  0  0
 68170  1  0  0  0
 68171  1  0  0  0
 69172  1  0  0  0
 70173  1  0  0  0
 70174  1  0  0  0
 70175  1  0  0  0
 71176  1  0  0  0
 71177  1  0  0  0
 71178  1  0  0  0
 72179  1  0  0  0
 73180  1  0  0  0
 76181  1  0  0  0
 76182  1  0  0  0
 76183  1  0  0  0
 77184  1  0  0  0
 78185  1  0  0  0
 81186  1  0  0  0
 82187  1  0  0  0
 83188  1  0  0  0
 83189  1  0  0  0
 83190  1  0  0  0
 84191  1  0  0  0
 85192  1  0  0  0
 88193  1  0  0  0
 88194  1  0  0  0
 89195  1  0  0  0
 89196  1  0  0  0
 90197  1  0  0  0
 90198  1  0  0  0
 91199  1  0  0  0
 91200  1  0  0  0
 92201  1  0  0  0
 92202  1  0  0  0
 92203  1  0  0  0
 93204  1  0  0  0
 94205  1  0  0  0
 97206  1  0  0  0
 97207  1  0  0  0
 97208  1  0  0  0
 98209  1  0  0  0
M  END
$$$$
