5lsy_ligand
  -I-interpret- 

 64 66  0  0  0  0  0  0  0  0999 V2000
    8.9000   17.0150   30.1690 C   0  0  0  0  0
   10.3000   17.6230   30.0910 C   0  0  0  0  0
   10.3950   18.8810   30.9530 C   0  0  0  0  0
   13.8360   16.1280   30.1540 C   0  0  0  0  0
   15.1550   16.8930   30.2900 C   0  0  0  0  0
   16.2410   16.4700   29.3250 C   0  0  0  0  0
   18.4020   17.2080   28.1950 C   0  0  0  0  0
   13.7330   14.9420   31.1110 C   0  0  0  0  0
   14.7850   13.8660   30.9280 C   0  0  0  0  0
   15.9200   14.5600   34.2080 C   0  0  0  0  0
   16.7400   13.4020   35.8120 C   0  0  0  0  0
   17.1680   12.8300   37.0180 C   0  0  0  0  0
   17.0900   12.7430   34.6610 C   0  0  0  0  0
   11.3430   16.5850   30.4910 C   0  0  0  0  0
   12.7280   17.1250   30.3900 N   0  3  0  0  0
   17.5160   17.3010   29.4470 C   0  0  0  0  0
   18.2840   16.8960   30.6630 N   0  3  0  0  0
   17.8440   17.3820   27.0780 O   0  0  0  0  0
   19.6270   16.9660   28.3710 O   0  0  0  0  0
   16.0520   14.2810   31.4830 O   0  0  0  0  0
   16.6620   13.2000   32.2160 C   0  0  0  0  0
   15.8420   11.9400   31.8560 C   0  0  0  0  0
   16.3370   11.2830   30.6990 O   0  0  0  0  0
   14.4370   12.5550   31.6280 C   0  0  0  0  0
   13.6130   11.7730   30.7700 O   0  0  0  0  0
   16.5650   13.4860   33.6350 N   0  0  0  0  0
   16.0060   14.5420   35.5150 N   0  0  0  0  0
   16.8920   13.3760   38.2100 N   0  0  0  0  0
   17.8910   11.6770   36.9800 N   0  0  0  0  0
   18.1620   11.1380   35.7710 C   0  0  0  0  0
   17.8050   11.5980   34.5720 N   0  0  0  0  0
    8.8369   16.1632   29.4918 H   0  0  0  0  0
    8.7050   16.6848   31.1893 H   0  0  0  0  0
    8.1631   17.7649   29.8813 H   0  0  0  0  0
   10.4992   17.9223   29.0620 H   0  0  0  0  0
   10.2337   18.6168   31.9981 H   0  0  0  0  0
   11.3837   19.3251   30.8376 H   0  0  0  0  0
    9.6352   19.5953   30.6360 H   0  0  0  0  0
   13.7675   15.6896   29.1584 H   0  0  0  0  0
   15.5314   16.6960   31.2938 H   0  0  0  0  0
   14.9355   17.9394   30.0782 H   0  0  0  0  0
   15.8549   16.6062   28.3148 H   0  0  0  0  0
   16.4992   15.4358   29.5529 H   0  0  0  0  0
   12.7690   14.4706   30.9200 H   0  0  0  0  0
   13.8671   15.3407   32.1165 H   0  0  0  0  0
   14.8349   13.7113   29.8502 H   0  0  0  0  0
   15.4001   15.3326   33.6414 H   0  0  0  0  0
   11.2567   15.7344   29.8149 H   0  0  0  0  0
   11.1616   16.2986   31.5269 H   0  0  0  0  0
   12.7286   17.7401   29.5763 H   0  0  0  0  0
   12.9266   17.5535   31.2941 H   0  0  0  0  0
   17.2119   18.3433   29.5432 H   0  0  0  0  0
   17.6809   16.9639   31.4828 H   0  0  0  0  0
   18.6065   15.9343   30.5553 H   0  0  0  0  0
   19.0870   17.5143   30.7781 H   0  0  0  0  0
   19.8023   16.8751   29.3105 H   0  0  0  0  0
   17.7155   13.0638   31.9716 H   0  0  0  0  0
   15.8701   11.1593   32.6161 H   0  0  0  0  0
   15.7979   10.5100   30.5160 H   0  0  0  0  0
   13.8730   12.6434   32.5565 H   0  0  0  0  0
   13.3915   10.9471   31.2064 H   0  0  0  0  0
   16.3518   14.2396   38.2626 H   0  0  0  0  0
   17.2221   12.9281   39.0649 H   0  0  0  0  0
   18.7427   10.2156   35.7769 H   0  0  0  0  0
  2  1  1  0  0  0
  2  3  1  0  0  0
 14  2  1  0  0  0
  4  5  1  0  0  0
  8  4  1  0  0  0
  4 15  1  0  0  0
  5  6  1  0  0  0
  6 16  1  0  0  0
 16  7  1  0  0  0
  7 18  2  0  0  0
  7 19  1  0  0  0
  9  8  1  0  0  0
 20  9  1  0  0  0
  9 24  1  0  0  0
 26 10  4  0  0  0
 10 27  4  0  0  0
 11 12  4  0  0  0
 13 11  4  0  0  0
 11 27  4  0  0  0
 12 28  1  0  0  0
 12 29  4  0  0  0
 26 13  4  0  0  0
 13 31  4  0  0  0
 15 14  1  0  0  0
 16 17  1  0  0  0
 21 20  1  0  0  0
 21 22  1  0  0  0
 21 26  1  0  0  0
 22 23  1  0  0  0
 22 24  1  0  0  0
 24 25  1  0  0  0
 29 30  4  0  0  0
 30 31  4  0  0  0
  1 32  1  0  0  0
  1 33  1  0  0  0
  1 34  1  0  0  0
  2 35  1  0  0  0
  3 36  1  0  0  0
  3 37  1  0  0  0
  3 38  1  0  0  0
  4 39  1  0  0  0
  5 40  1  0  0  0
  5 41  1  0  0  0
  6 42  1  0  0  0
  6 43  1  0  0  0
  8 44  1  0  0  0
  8 45  1  0  0  0
  9 46  1  0  0  0
 10 47  1  0  0  0
 14 48  1  0  0  0
 14 49  1  0  0  0
 15 50  1  0  0  0
 15 51  1  0  0  0
 16 52  1  0  0  0
 17 53  1  0  0  0
 17 54  1  0  0  0
 17 55  1  0  0  0
 19 56  1  0  0  0
 21 57  1  0  0  0
 22 58  1  0  0  0
 23 59  1  0  0  0
 24 60  1  0  0  0
 25 61  1  0  0  0
 28 62  1  0  0  0
 28 63  1  0  0  0
 30 64  1  0  0  0
M  END
$$$$
