1nli_ligand
  -I-interpret- 

 14 15  0  0  0  0  0  0  0  0999 V2000
    4.5680   32.5340   -0.2290 N   0  0  0  0  0
    3.2820   32.6900   -0.6910 C   0  0  0  0  0
    2.8070   33.9300   -0.6340 N   0  0  0  0  0
    3.8740   34.6390   -0.0940 C   0  0  0  0  0
    4.0330   36.0070    0.1700 C   0  0  0  0  0
    2.9950   36.8490   -0.0290 N   0  0  0  0  0
    5.2400   36.4250    0.6620 N   0  0  0  0  0
    6.1810   35.4860    0.8660 C   0  0  0  0  0
    6.1060   34.1520    0.6520 N   0  0  0  0  0
    4.9520   33.7900    0.1580 C   0  0  0  0  0
    2.6946   31.8566   -1.0762 H   0  0  0  0  0
    2.1036   36.4882   -0.3690 H   0  0  0  0  0
    3.1029   37.8454    0.1608 H   0  0  0  0  0
    7.1321   35.8483    1.2562 H   0  0  0  0  0
  1  2  4  0  0  0
  1 10  4  0  0  0
  2  3  4  0  0  0
  3  4  4  0  0  0
  4  5  4  0  0  0
  4 10  4  0  0  0
  5  6  1  0  0  0
  5  7  4  0  0  0
  7  8  4  0  0  0
  8  9  4  0  0  0
  9 10  4  0  0  0
  2 11  1  0  0  0
  6 12  1  0  0  0
  6 13  1  0  0  0
  8 14  1  0  0  0
M  END
$$$$
