3tjh_ligand
  -I-interpret- 

156160  0  0  0  0  0  0  0  0999 V2000
  -14.8360   -4.7610   33.1740 N   0  3  0  0  0
  -16.0050   -5.5730   33.4860 C   0  0  0  0  0
  -16.0600   -6.7910   32.5670 C   0  0  0  0  0
  -15.9860   -6.6530   31.3470 O   0  0  0  0  0
  -17.2800   -4.7390   33.3470 C   0  0  0  0  0
  -18.3830   -5.3870   33.9560 O   0  0  0  0  0
  -16.1900   -7.9900   33.1530 N   0  0  0  0  0
  -16.1380   -9.2470   32.3980 C   0  0  0  0  0
  -17.3430   -9.4460   31.4810 C   0  0  0  0  0
  -18.3760   -8.8040   31.6640 O   0  0  0  0  0
  -16.1210  -10.3140   33.4970 C   0  0  0  0  0
  -16.8120   -9.6740   34.6450 C   0  0  0  0  0
  -16.4240   -8.2200   34.5890 C   0  0  0  0  0
  -17.2030  -10.3450   30.5120 N   0  0  0  0  0
  -18.2230  -10.5490   29.4910 C   0  0  0  0  0
  -18.8080  -11.9550   29.5410 C   0  0  0  0  0
  -18.0780  -12.9360   29.6820 O   0  0  0  0  0
  -17.6310  -10.2890   28.1030 C   0  0  0  0  0
  -18.5000  -10.6030   26.8830 C   0  0  0  0  0
  -19.7470   -9.7320   26.8660 C   0  0  0  0  0
  -17.6990  -10.4190   25.6050 C   0  0  0  0  0
  -20.1290  -12.0450   29.4240 N   0  0  0  0  0
  -20.7990  -13.3360   29.3370 C   0  0  0  0  0
  -20.4930  -13.9930   27.9980 C   0  0  0  0  0
  -20.5620  -13.3510   26.9490 O   0  0  0  0  0
  -22.3150  -13.1750   29.4950 C   0  0  0  0  0
  -22.7130  -12.6950   30.8790 C   0  0  0  0  0
  -22.5050  -13.4500   31.8520 O   0  0  0  0  0
  -23.2490  -11.5730   30.9910 O   0  0  0  0  0
  -20.1420  -15.2720   28.0350 N   0  0  0  0  0
  -19.9770  -16.0430   26.8130 C   0  0  0  0  0
  -21.3330  -16.6140   26.4340 C   0  0  0  0  0
  -22.1490  -16.9100   27.3030 O   0  0  0  0  0
  -18.9640  -17.1710   27.0130 C   0  0  0  0  0
  -17.6970  -16.6590   27.3850 O   0  0  0  0  0
  -21.5800  -16.7640   25.1390 N   0  0  0  0  0
  -22.8740  -17.2520   24.6840 C   0  0  0  0  0
  -22.7850  -18.6520   24.0880 C   0  0  0  0  0
  -22.9500  -19.6480   24.7930 O   0  0  0  0  0
  -23.5020  -16.2710   23.6910 C   0  0  0  0  0
  -24.0700  -14.9980   24.3200 C   0  0  0  0  0
  -24.6300  -14.0680   23.2570 C   0  0  0  0  0
  -25.1390  -15.3520   25.3420 C   0  0  0  0  0
  -22.5150  -18.7250   22.7900 N   0  0  0  0  0
  -22.4840  -20.0030   22.0890 C   0  0  0  0  0
  -21.3680  -20.9150   22.5950 C   0  0  0  0  0
  -20.1960  -20.5400   22.6070 O   0  0  0  0  0
  -22.3830  -19.7770   20.5800 C   0  0  0  0  0
  -23.4930  -18.9140   20.0680 C   0  0  0  0  0
  -24.7070  -19.3300   19.6010 C   0  0  0  0  0
  -23.5050  -17.4840   19.9940 C   0  0  0  0  0
  -25.4700  -18.2480   19.2320 N   0  0  0  0  0
  -24.7530  -17.1000   19.4630 C   0  0  0  0  0
  -22.5790  -16.4860   20.3210 C   0  0  0  0  0
  -25.1020  -15.7700   19.2530 C   0  0  0  0  0
  -22.9250  -15.1640   20.1090 C   0  0  0  0  0
  -24.1750  -14.8180   19.5810 C   0  0  0  0  0
  -21.7520  -22.1150   23.0200 N   0  0  0  0  0
  -20.8150  -23.0750   23.5950 C   0  0  0  0  0
  -19.7830  -23.5780   22.5920 C   0  0  0  0  0
  -19.9240  -23.3890   21.3840 O   0  0  0  0  0
  -21.5670  -24.2790   24.1650 C   0  0  0  0  0
  -22.4910  -23.9610   25.2970 C   0  0  0  0  0
  -22.1420  -23.5530   26.5500 C   0  0  0  0  0
  -23.9220  -24.0550   25.2880 C   0  0  0  0  0
  -23.2670  -23.3750   27.3190 N   0  0  0  0  0
  -24.3700  -23.6770   26.5690 C   0  0  0  0  0
  -24.8640  -24.4190   24.3210 C   0  0  0  0  0
  -25.7220  -23.6510   26.9060 C   0  0  0  0  0
  -26.2050  -24.3910   24.6600 C   0  0  0  0  0
  -26.6210  -24.0090   25.9410 C   0  0  0  0  0
  -18.7490  -24.2310   23.1110 N   0  0  0  0  0
  -17.7660  -24.9060   22.2780 C   0  0  0  0  0
  -18.4270  -26.0580   21.5270 C   0  0  0  0  0
  -18.0740  -26.3500   20.3840 O   0  0  0  0  0
  -16.6000  -25.4620   23.1210 C   0  0  0  0  0
  -15.8050  -24.3210   23.7560 C   0  0  0  0  0
  -15.6900  -26.3280   22.2640 C   0  0  0  0  0
  -15.1050  -23.4310   22.7490 C   0  0  0  0  0
  -19.3260  -26.7180   22.0490 O   0  0  0  0  0
  -13.9939   -5.3284   33.2704 H   0  0  0  0  0
  -14.9080   -4.4173   32.2164 H   0  0  0  0  0
  -14.7907   -3.9710   33.8176 H   0  0  0  0  0
  -15.9287   -5.9193   34.5167 H   0  0  0  0  0
  -17.4957   -4.6060   32.2869 H   0  0  0  0  0
  -17.1241   -3.7792   33.8396 H   0  0  0  0  0
  -19.1679   -4.8436   33.8545 H   0  0  0  0  0
  -15.2774   -9.2786   31.7298 H   0  0  0  0  0
  -15.1073  -10.6239   33.7507 H   0  0  0  0  0
  -16.6154  -11.2331   33.1826 H   0  0  0  0  0
  -16.5194  -10.1291   35.5912 H   0  0  0  0  0
  -17.8927   -9.8015   34.5820 H   0  0  0  0  0
  -17.1907   -7.5637   35.0008 H   0  0  0  0  0
  -15.5496   -7.9940   35.1993 H   0  0  0  0  0
  -16.3545  -10.9103   30.4819 H   0  0  0  0  0
  -19.0305   -9.8444   29.6900 H   0  0  0  0  0
  -16.7712  -10.9544   28.0254 H   0  0  0  0  0
  -17.4505   -9.2149   28.0615 H   0  0  0  0  0
  -18.8186  -11.6435   26.9468 H   0  0  0  0  0
  -20.3296   -9.9162   27.7687 H   0  0  0  0  0
  -19.4551   -8.6825   26.8282 H   0  0  0  0  0
  -20.3467   -9.9754   25.9890 H   0  0  0  0  0
  -17.3524   -9.3876   25.5403 H   0  0  0  0  0
  -16.8415  -11.0919   25.6151 H   0  0  0  0  0
  -18.3305  -10.6460   24.7461 H   0  0  0  0  0
  -20.6862  -11.1912   29.3945 H   0  0  0  0  0
  -20.4288  -13.9669   30.1451 H   0  0  0  0  0
  -22.7733  -14.1509   29.3350 H   0  0  0  0  0
  -22.6490  -12.4293   28.7736 H   0  0  0  0  0
  -22.0863  -14.2576   31.5452 H   0  0  0  0  0
  -19.9851  -15.7225   28.9366 H   0  0  0  0  0
  -19.5986  -15.4004   26.0180 H   0  0  0  0  0
  -18.8583  -17.7151   26.0745 H   0  0  0  0  0
  -19.3228  -17.8250   27.8078 H   0  0  0  0  0
  -17.0816  -17.3862   27.5038 H   0  0  0  0  0
  -20.8572  -16.5355   24.4565 H   0  0  0  0  0
  -23.5201  -17.3213   25.5591 H   0  0  0  0  0
  -24.3358  -16.7897   23.2179 H   0  0  0  0  0
  -22.7105  -15.9611   23.0086 H   0  0  0  0  0
  -23.2602  -14.4739   24.8276 H   0  0  0  0  0
  -23.8361  -13.7914   22.5632 H   0  0  0  0  0
  -25.4273  -14.5763   22.7148 H   0  0  0  0  0
  -25.0269  -13.1714   23.7330 H   0  0  0  0  0
  -25.9437  -15.8983   24.8499 H   0  0  0  0  0
  -24.7013  -15.9732   26.1234 H   0  0  0  0  0
  -25.5356  -14.4373   25.7827 H   0  0  0  0  0
  -22.3249  -17.8674   22.2715 H   0  0  0  0  0
  -23.4206  -20.5191   22.3001 H   0  0  0  0  0
  -22.4478  -20.7458   20.0848 H   0  0  0  0  0
  -21.4376  -19.2757   20.3726 H   0  0  0  0  0
  -25.0250  -20.3702   19.5310 H   0  0  0  0  0
  -21.6046  -16.7460   20.7345 H   0  0  0  0  0
  -26.0746  -15.4969   18.8437 H   0  0  0  0  0
  -22.2123  -14.3775   20.3572 H   0  0  0  0  0
  -24.4153  -13.7659   19.4277 H   0  0  0  0  0
  -22.7355  -22.3736   22.9414 H   0  0  0  0  0
  -20.2847  -22.5416   24.3839 H   0  0  0  0  0
  -20.8159  -24.9673   24.5527 H   0  0  0  0  0
  -22.1804  -24.6804   23.3584 H   0  0  0  0  0
  -21.1197  -23.3915   26.8921 H   0  0  0  0  0
  -24.5486  -24.7184   23.3215 H   0  0  0  0  0
  -26.0503  -23.3560   27.9026 H   0  0  0  0  0
  -26.9510  -24.6714   23.9164 H   0  0  0  0  0
  -27.6858  -23.9969   26.1739 H   0  0  0  0  0
  -18.6411  -24.2599   24.1249 H   0  0  0  0  0
  -17.3695  -24.1745   21.5739 H   0  0  0  0  0
  -17.3714  -25.7577   20.1062 H   0  0  0  0  0
  -17.0159  -26.0784   23.9180 H   0  0  0  0  0
  -15.0355  -24.7703   24.3838 H   0  0  0  0  0
  -16.5112  -23.6984   24.3053 H   0  0  0  0  0
  -16.2621  -27.1613   21.8561 H   0  0  0  0  0
  -15.2845  -25.7300   21.4479 H   0  0  0  0  0
  -14.8734  -26.7112   22.8759 H   0  0  0  0  0
  -14.4056  -24.0275   22.1632 H   0  0  0  0  0
  -15.8451  -22.9819   22.0866 H   0  0  0  0  0
  -14.5625  -22.6456   23.2754 H   0  0  0  0  0
  1  2  1  0  0  0
  2  3  1  0  0  0
  2  5  1  0  0  0
  3  4  2  0  0  0
  3  7  1  0  0  0
  5  6  1  0  0  0
  7  8  1  0  0  0
  7 13  1  0  0  0
  8  9  1  0  0  0
  8 11  1  0  0  0
  9 10  2  0  0  0
  9 14  1  0  0  0
 11 12  1  0  0  0
 12 13  1  0  0  0
 14 15  1  0  0  0
 15 16  1  0  0  0
 15 18  1  0  0  0
 16 17  2  0  0  0
 16 22  1  0  0  0
 18 19  1  0  0  0
 19 20  1  0  0  0
 19 21  1  0  0  0
 22 23  1  0  0  0
 23 24  1  0  0  0
 23 26  1  0  0  0
 24 25  2  0  0  0
 24 30  1  0  0  0
 26 27  1  0  0  0
 27 28  1  0  0  0
 27 29  2  0  0  0
 30 31  1  0  0  0
 31 32  1  0  0  0
 31 34  1  0  0  0
 32 33  2  0  0  0
 32 36  1  0  0  0
 34 35  1  0  0  0
 36 37  1  0  0  0
 37 38  1  0  0  0
 37 40  1  0  0  0
 38 39  2  0  0  0
 38 44  1  0  0  0
 40 41  1  0  0  0
 41 42  1  0  0  0
 41 43  1  0  0  0
 44 45  1  0  0  0
 45 46  1  0  0  0
 45 48  1  0  0  0
 46 47  2  0  0  0
 46 58  1  0  0  0
 48 49  1  0  0  0
 49 50  4  0  0  0
 49 51  4  0  0  0
 50 52  4  0  0  0
 51 53  4  0  0  0
 51 54  4  0  0  0
 52 53  4  0  0  0
 53 55  4  0  0  0
 54 56  4  0  0  0
 55 57  4  0  0  0
 56 57  4  0  0  0
 58 59  1  0  0  0
 59 60  1  0  0  0
 59 62  1  0  0  0
 60 61  2  0  0  0
 60 72  1  0  0  0
 62 63  1  0  0  0
 63 64  4  0  0  0
 63 65  4  0  0  0
 64 66  4  0  0  0
 65 67  4  0  0  0
 65 68  4  0  0  0
 66 67  4  0  0  0
 67 69  4  0  0  0
 68 70  4  0  0  0
 69 71  4  0  0  0
 70 71  4  0  0  0
 72 73  1  0  0  0
 73 74  1  0  0  0
 73 76  1  0  0  0
 74 75  1  0  0  0
 74 80  2  0  0  0
 76 77  1  0  0  0
 76 78  1  0  0  0
 77 79  1  0  0  0
  1 81  1  0  0  0
  1 82  1  0  0  0
  1 83  1  0  0  0
  2 84  1  0  0  0
  5 85  1  0  0  0
  5 86  1  0  0  0
  6 87  1  0  0  0
  8 88  1  0  0  0
 11 89  1  0  0  0
 11 90  1  0  0  0
 12 91  1  0  0  0
 12 92  1  0  0  0
 13 93  1  0  0  0
 13 94  1  0  0  0
 14 95  1  0  0  0
 15 96  1  0  0  0
 18 97  1  0  0  0
 18 98  1  0  0  0
 19 99  1  0  0  0
 20100  1  0  0  0
 20101  1  0  0  0
 20102  1  0  0  0
 21103  1  0  0  0
 21104  1  0  0  0
 21105  1  0  0  0
 22106  1  0  0  0
 23107  1  0  0  0
 26108  1  0  0  0
 26109  1  0  0  0
 28110  1  0  0  0
 30111  1  0  0  0
 31112  1  0  0  0
 34113  1  0  0  0
 34114  1  0  0  0
 35115  1  0  0  0
 36116  1  0  0  0
 37117  1  0  0  0
 40118  1  0  0  0
 40119  1  0  0  0
 41120  1  0  0  0
 42121  1  0  0  0
 42122  1  0  0  0
 42123  1  0  0  0
 43124  1  0  0  0
 43125  1  0  0  0
 43126  1  0  0  0
 44127  1  0  0  0
 45128  1  0  0  0
 48129  1  0  0  0
 48130  1  0  0  0
 50131  1  0  0  0
 54132  1  0  0  0
 55133  1  0  0  0
 56134  1  0  0  0
 57135  1  0  0  0
 58136  1  0  0  0
 59137  1  0  0  0
 62138  1  0  0  0
 62139  1  0  0  0
 64140  1  0  0  0
 68141  1  0  0  0
 69142  1  0  0  0
 70143  1  0  0  0
 71144  1  0  0  0
 72145  1  0  0  0
 73146  1  0  0  0
 75147  1  0  0  0
 76148  1  0  0  0
 77149  1  0  0  0
 77150  1  0  0  0
 78151  1  0  0  0
 78152  1  0  0  0
 78153  1  0  0  0
 79154  1  0  0  0
 79155  1  0  0  0
 79156  1  0  0  0
M  END
$$$$
