### 
### Created by X-TOOL on Mon Sep 10 21:13:07 2018
### 

@<TRIPOS>MOLECULE
3tjh_ligand
  156   160     1     0     0
SMALL
GAST_HUCK


@<TRIPOS>ATOM
      1 N         -14.8360   -4.7610   33.1740 N.4       1 SER         0.2396
      2 CA        -16.0050   -5.5730   33.4860 C.3       1 SER         0.0886
      3 C         -16.0600   -6.7910   32.5670 C.2       1 SER         0.2315
      4 O         -15.9860   -6.6530   31.3470 O.2       1 SER        -0.3904
      5 CB        -17.2800   -4.7390   33.3470 C.3       1 SER         0.1041
      6 OG        -18.3830   -5.3870   33.9560 O.3       1 SER        -0.3870
      7 N         -16.1900   -7.9900   33.1530 N.am      1 PRO        -0.2471
      8 CA        -16.1380   -9.2470   32.3980 C.3       1 PRO         0.1339
      9 C         -17.3430   -9.4460   31.4810 C.2       1 PRO         0.2041
     10 O         -18.3760   -8.8040   31.6640 O.2       1 PRO        -0.3944
     11 CB        -16.1210  -10.3140   33.4970 C.3       1 PRO        -0.0104
     12 CG        -16.8120   -9.6740   34.6450 C.3       1 PRO        -0.0281
     13 CD        -16.4240   -8.2200   34.5890 C.3       1 PRO         0.0371
     14 N         -17.2030  -10.3450   30.5120 N.am      1 LEU        -0.2637
     15 CA        -18.2230  -10.5490   29.4910 C.3       1 LEU         0.1312
     16 C         -18.8080  -11.9550   29.5410 C.2       1 LEU         0.2040
     17 O         -18.0780  -12.9360   29.6820 O.2       1 LEU        -0.3944
     18 CB        -17.6310  -10.2890   28.1030 C.3       1 LEU        -0.0101
     19 CG        -18.5000  -10.6030   26.8830 C.3       1 LEU        -0.0425
     20 CD1       -19.7470   -9.7320   26.8660 C.3       1 LEU        -0.0625
     21 CD2       -17.6990  -10.4190   25.6050 C.3       1 LEU        -0.0625
     22 N         -20.1290  -12.0450   29.4240 N.am      1 ASP        -0.2622
     23 CA        -20.7990  -13.3360   29.3370 C.3       1 ASP         0.1423
     24 C         -20.4930  -13.9930   27.9980 C.2       1 ASP         0.2057
     25 O         -20.5620  -13.3510   26.9490 O.2       1 ASP        -0.3943
     26 CB        -22.3150  -13.1750   29.4950 C.3       1 ASP         0.0406
     27 CG        -22.7130  -12.6950   30.8790 C.2       1 ASP         0.0393
     28 OD1       -22.5050  -13.4500   31.8520 O.co2     1 ASP        -0.5688
     29 OD2       -23.2490  -11.5730   30.9910 O.co2     1 ASP        -0.5688
     30 N         -20.1420  -15.2720   28.0350 N.am      1 SER        -0.2615
     31 CA        -19.9770  -16.0430   26.8130 C.3       1 SER         0.1539
     32 C         -21.3330  -16.6140   26.4340 C.2       1 SER         0.2062
     33 O         -22.1490  -16.9100   27.3030 O.2       1 SER        -0.3943
     34 CB        -18.9640  -17.1710   27.0130 C.3       1 SER         0.0843
     35 OG        -17.6970  -16.6590   27.3850 O.3       1 SER        -0.3903
     36 N         -21.5800  -16.7640   25.1390 N.am      1 LEU        -0.2636
     37 CA        -22.8740  -17.2520   24.6840 C.3       1 LEU         0.1312
     38 C         -22.7850  -18.6520   24.0880 C.2       1 LEU         0.2040
     39 O         -22.9500  -19.6480   24.7930 O.2       1 LEU        -0.3944
     40 CB        -23.5020  -16.2710   23.6910 C.3       1 LEU        -0.0101
     41 CG        -24.0700  -14.9980   24.3200 C.3       1 LEU        -0.0425
     42 CD1       -24.6300  -14.0680   23.2570 C.3       1 LEU        -0.0625
     43 CD2       -25.1390  -15.3520   25.3420 C.3       1 LEU        -0.0625
     44 N         -22.5150  -18.7250   22.7900 N.am      1 TRP        -0.2627
     45 CA        -22.4840  -20.0030   22.0890 C.3       1 TRP         0.1352
     46 C         -21.3680  -20.9150   22.5950 C.2       1 TRP         0.2052
     47 O         -20.1960  -20.5400   22.6070 O.2       1 TRP        -0.3942
     48 CB        -22.3830  -19.7770   20.5800 C.3       1 TRP         0.0042
     49 CG        -23.4930  -18.9140   20.0680 C.2       1 TRP        -0.0418
     50 CD1       -24.7070  -19.3300   19.6010 C.2       1 TRP         0.0167
     51 CD2       -23.5050  -17.4840   19.9940 C.ar      1 TRP        -0.0214
     52 NE1       -25.4700  -18.2480   19.2320 N.pl3     1 TRP        -0.2890
     53 CE2       -24.7530  -17.1000   19.4630 C.ar      1 TRP         0.0603
     54 CE3       -22.5790  -16.4860   20.3210 C.ar      1 TRP        -0.0747
     55 CZ2       -25.1020  -15.7700   19.2530 C.ar      1 TRP        -0.0443
     56 CZ3       -22.9250  -15.1640   20.1090 C.ar      1 TRP        -0.0792
     57 CH2       -24.1750  -14.8180   19.5810 C.ar      1 TRP        -0.0768
     58 N         -21.7520  -22.1150   23.0200 N.am      1 TRP        -0.2626
     59 CA        -20.8150  -23.0750   23.5950 C.3       1 TRP         0.1351
     60 C         -19.7830  -23.5780   22.5920 C.2       1 TRP         0.2046
     61 O         -19.9240  -23.3890   21.3840 O.2       1 TRP        -0.3943
     62 CB        -21.5670  -24.2790   24.1650 C.3       1 TRP         0.0042
     63 CG        -22.4910  -23.9610   25.2970 C.2       1 TRP        -0.0418
     64 CD1       -22.1420  -23.5530   26.5500 C.2       1 TRP         0.0167
     65 CD2       -23.9220  -24.0550   25.2880 C.ar      1 TRP        -0.0214
     66 NE1       -23.2670  -23.3750   27.3190 N.pl3     1 TRP        -0.2890
     67 CE2       -24.3700  -23.6770   26.5690 C.ar      1 TRP         0.0603
     68 CE3       -24.8640  -24.4190   24.3210 C.ar      1 TRP        -0.0747
     69 CZ2       -25.7220  -23.6510   26.9060 C.ar      1 TRP        -0.0443
     70 CZ3       -26.2050  -24.3910   24.6600 C.ar      1 TRP        -0.0792
     71 CH2       -26.6210  -24.0090   25.9410 C.ar      1 TRP        -0.0768
     72 N         -18.7490  -24.2310   23.1110 N.am      1 ILE        -0.2691
     73 CA        -17.7660  -24.9060   22.2780 C.3       1 ILE         0.0969
     74 C         -18.4270  -26.0580   21.5270 C.2       1 ILE         0.0604
     75 O         -18.0740  -26.3500   20.3840 O.co2     1 ILE        -0.5666
     76 CB        -16.6000  -25.4620   23.1210 C.3       1 ILE        -0.0092
     77 CG1       -15.8050  -24.3210   23.7560 C.3       1 ILE        -0.0497
     78 CG2       -15.6900  -26.3280   22.2640 C.3       1 ILE        -0.0588
     79 CD1       -15.1050  -23.4310   22.7490 C.3       1 ILE        -0.0649
     80 OXT       -19.3260  -26.7180   22.0490 O.co2     1 ILE        -0.5666
     81 H         -13.9939   -5.3284   33.2704 H         1 SER         0.2016
     82 H         -14.9080   -4.4173   32.2164 H         1 SER         0.2016
     83 H         -14.7907   -3.9710   33.8176 H         1 SER         0.2016
     84 H         -15.9287   -5.9193   34.5167 H         1 SER         0.1122
     85 H         -17.4957   -4.6060   32.2869 H         1 SER         0.0640
     86 H         -17.1241   -3.7792   33.8396 H         1 SER         0.0640
     87 H         -18.5250   -6.2381   33.5351 H         1 SER         0.2099
     88 H         -15.2774   -9.2786   31.7298 H         1 PRO         0.0802
     89 H         -15.1073  -10.6239   33.7507 H         1 PRO         0.0313
     90 H         -16.6154  -11.2331   33.1826 H         1 PRO         0.0313
     91 H         -16.5194  -10.1291   35.5912 H         1 PRO         0.0287
     92 H         -17.8927   -9.8015   34.5820 H         1 PRO         0.0287
     93 H         -17.1907   -7.5637   35.0008 H         1 PRO         0.0524
     94 H         -15.5496   -7.9940   35.1993 H         1 PRO         0.0524
     95 H         -16.3545  -10.9103   30.4819 H         1 LEU         0.1883
     96 H         -19.0305   -9.8444   29.6900 H         1 LEU         0.0800
     97 H         -16.7712  -10.9544   28.0254 H         1 LEU         0.0315
     98 H         -17.4505   -9.2149   28.0615 H         1 LEU         0.0315
     99 H         -18.8186  -11.6435   26.9468 H         1 LEU         0.0298
    100 H         -20.3296   -9.9162   27.7687 H         1 LEU         0.0232
    101 H         -19.4551   -8.6825   26.8282 H         1 LEU         0.0232
    102 H         -20.3467   -9.9754   25.9890 H         1 LEU         0.0232
    103 H         -17.3524   -9.3876   25.5403 H         1 LEU         0.0232
    104 H         -16.8415  -11.0919   25.6151 H         1 LEU         0.0232
    105 H         -18.3305  -10.6460   24.7461 H         1 LEU         0.0232
    106 H         -20.6862  -11.1912   29.3945 H         1 ASP         0.1884
    107 H         -20.4288  -13.9669   30.1451 H         1 ASP         0.0819
    108 H         -22.7733  -14.1509   29.3350 H         1 ASP         0.0478
    109 H         -22.6490  -12.4293   28.7736 H         1 ASP         0.0478
    110 H         -19.9851  -15.7225   28.9366 H         1 SER         0.1884
    111 H         -19.5986  -15.4004   26.0180 H         1 SER         0.0823
    112 H         -18.8583  -17.7151   26.0745 H         1 SER         0.0606
    113 H         -19.3228  -17.8250   27.8078 H         1 SER         0.0606
    114 H         -17.3742  -16.0746   26.6952 H         1 SER         0.2097
    115 H         -20.8572  -16.5355   24.4565 H         1 LEU         0.1883
    116 H         -23.5201  -17.3213   25.5591 H         1 LEU         0.0800
    117 H         -24.3358  -16.7897   23.2179 H         1 LEU         0.0315
    118 H         -22.7105  -15.9611   23.0086 H         1 LEU         0.0315
    119 H         -23.2602  -14.4739   24.8276 H         1 LEU         0.0298
    120 H         -23.8361  -13.7914   22.5632 H         1 LEU         0.0232
    121 H         -25.4273  -14.5763   22.7148 H         1 LEU         0.0232
    122 H         -25.0269  -13.1714   23.7330 H         1 LEU         0.0232
    123 H         -25.9437  -15.8983   24.8499 H         1 LEU         0.0232
    124 H         -24.7013  -15.9732   26.1234 H         1 LEU         0.0232
    125 H         -25.5356  -14.4373   25.7827 H         1 LEU         0.0232
    126 H         -22.3249  -17.8674   22.2715 H         1 TRP         0.1884
    127 H         -23.4206  -20.5191   22.3001 H         1 TRP         0.0815
    128 H         -22.4478  -20.7458   20.0848 H         1 TRP         0.0397
    129 H         -21.4376  -19.2757   20.3726 H         1 TRP         0.0397
    130 H         -25.0250  -20.3702   19.5310 H         1 TRP         0.0795
    131 H         -26.4145  -18.2908   18.8492 H         1 TRP         0.2216
    132 H         -21.6046  -16.7460   20.7345 H         1 TRP         0.0540
    133 H         -26.0746  -15.4969   18.8437 H         1 TRP         0.0541
    134 H         -22.2123  -14.3775   20.3572 H         1 TRP         0.0510
    135 H         -24.4153  -13.7659   19.4277 H         1 TRP         0.0530
    136 H         -22.7355  -22.3736   22.9414 H         1 TRP         0.1884
    137 H         -20.2847  -22.5416   24.3839 H         1 TRP         0.0815
    138 H         -20.8159  -24.9673   24.5527 H         1 TRP         0.0397
    139 H         -22.1804  -24.6804   23.3584 H         1 TRP         0.0397
    140 H         -21.1197  -23.3915   26.8921 H         1 TRP         0.0795
    141 H         -23.2776  -23.0675   28.2915 H         1 TRP         0.2216
    142 H         -24.5486  -24.7184   23.3215 H         1 TRP         0.0540
    143 H         -26.0503  -23.3560   27.9026 H         1 TRP         0.0541
    144 H         -26.9510  -24.6714   23.9164 H         1 TRP         0.0510
    145 H         -27.6858  -23.9969   26.1739 H         1 TRP         0.0530
    146 H         -18.6411  -24.2599   24.1249 H         1 ILE         0.1875
    147 H         -17.3695  -24.1745   21.5739 H         1 ILE         0.0729
    148 H         -17.0159  -26.0784   23.9180 H         1 ILE         0.0338
    149 H         -15.0355  -24.7703   24.3838 H         1 ILE         0.0267
    150 H         -16.5112  -23.6984   24.3053 H         1 ILE         0.0267
    151 H         -16.2621  -27.1613   21.8561 H         1 ILE         0.0234
    152 H         -15.2845  -25.7300   21.4479 H         1 ILE         0.0234
    153 H         -14.8734  -26.7112   22.8759 H         1 ILE         0.0234
    154 H         -14.4056  -24.0275   22.1632 H         1 ILE         0.0230
    155 H         -15.8451  -22.9819   22.0866 H         1 ILE         0.0230
    156 H         -14.5625  -22.6456   23.2754 H         1 ILE         0.0230
@<TRIPOS>BOND
     1    1    2 1  
     2    2    3 1  
     3    2    5 1  
     4    3    4 2  
     5    3    7 am 
     6    5    6 1  
     7    7    8 1  
     8    7   13 1  
     9    8    9 1  
    10    8   11 1  
    11    9   10 2  
    12    9   14 am 
    13   11   12 1  
    14   12   13 1  
    15   14   15 1  
    16   15   16 1  
    17   15   18 1  
    18   16   17 2  
    19   16   22 am 
    20   18   19 1  
    21   19   20 1  
    22   19   21 1  
    23   22   23 1  
    24   23   24 1  
    25   23   26 1  
    26   24   25 2  
    27   24   30 am 
    28   26   27 1  
    29   27   28 ar 
    30   27   29 ar 
    31   30   31 1  
    32   31   32 1  
    33   31   34 1  
    34   32   33 2  
    35   32   36 am 
    36   34   35 1  
    37   36   37 1  
    38   37   38 1  
    39   37   40 1  
    40   38   39 2  
    41   38   44 am 
    42   40   41 1  
    43   41   42 1  
    44   41   43 1  
    45   44   45 1  
    46   45   46 1  
    47   45   48 1  
    48   46   47 2  
    49   46   58 am 
    50   48   49 1  
    51   49   50 2  
    52   49   51 1  
    53   50   52 1  
    54   51   53 ar 
    55   51   54 ar 
    56   52   53 1  
    57   53   55 ar 
    58   54   56 ar 
    59   55   57 ar 
    60   56   57 ar 
    61   58   59 1  
    62   59   60 1  
    63   59   62 1  
    64   60   61 2  
    65   60   72 am 
    66   62   63 1  
    67   63   64 2  
    68   63   65 1  
    69   64   66 1  
    70   65   67 ar 
    71   65   68 ar 
    72   66   67 1  
    73   67   69 ar 
    74   68   70 ar 
    75   69   71 ar 
    76   70   71 ar 
    77   72   73 1  
    78   73   74 1  
    79   73   76 1  
    80   74   75 ar 
    81   74   80 ar 
    82   76   77 1  
    83   76   78 1  
    84   77   79 1  
    85    1   81 1  
    86    1   82 1  
    87    1   83 1  
    88    2   84 1  
    89    5   85 1  
    90    5   86 1  
    91    6   87 1  
    92    8   88 1  
    93   11   89 1  
    94   11   90 1  
    95   12   91 1  
    96   12   92 1  
    97   13   93 1  
    98   13   94 1  
    99   14   95 1  
   100   15   96 1  
   101   18   97 1  
   102   18   98 1  
   103   19   99 1  
   104   20  100 1  
   105   20  101 1  
   106   20  102 1  
   107   21  103 1  
   108   21  104 1  
   109   21  105 1  
   110   22  106 1  
   111   23  107 1  
   112   26  108 1  
   113   26  109 1  
   114   30  110 1  
   115   31  111 1  
   116   34  112 1  
   117   34  113 1  
   118   35  114 1  
   119   36  115 1  
   120   37  116 1  
   121   40  117 1  
   122   40  118 1  
   123   41  119 1  
   124   42  120 1  
   125   42  121 1  
   126   42  122 1  
   127   43  123 1  
   128   43  124 1  
   129   43  125 1  
   130   44  126 1  
   131   45  127 1  
   132   48  128 1  
   133   48  129 1  
   134   50  130 1  
   135   52  131 1  
   136   54  132 1  
   137   55  133 1  
   138   56  134 1  
   139   57  135 1  
   140   58  136 1  
   141   59  137 1  
   142   62  138 1  
   143   62  139 1  
   144   64  140 1  
   145   66  141 1  
   146   68  142 1  
   147   69  143 1  
   148   70  144 1  
   149   71  145 1  
   150   72  146 1  
   151   73  147 1  
   152   76  148 1  
   153   77  149 1  
   154   77  150 1  
   155   78  151 1  
   156   78  152 1  
   157   78  153 1  
   158   79  154 1  
   159   79  155 1  
   160   79  156 1  
@<TRIPOS>SUBSTRUCTURE
     1 SER         1

