6hvi_ligand
  -I-interpret- 

 51 54  0  0  0  0  0  0  0  0999 V2000
   93.2440   52.7850  269.9960 C   0  0  0  0  0
   92.9270   51.5550  269.4290 C   0  0  0  0  0
   95.9370   46.7610  267.2490 C   0  0  0  0  0
   96.3190   47.9470  267.8380 C   0  0  0  0  0
   89.8080   47.5810  265.2640 C   0  0  0  0  0
   88.5590   46.8220  265.4550 C   0  0  0  0  0
   88.2310   45.9150  264.4590 C   0  0  0  0  0
   94.6830   46.5580  266.8170 N   0  0  0  0  0
   89.0210   45.7690  263.2980 C   0  0  0  0  0
   90.5700   47.3160  264.1150 C   0  0  0  0  0
   88.5020   46.4720  268.1200 C   0  0  0  0  0
   87.6620   46.9880  266.8340 S   0  0  0  0  0
   86.3470   46.2630  266.7370 O   0  0  0  0  0
   91.5240   52.3270  271.6990 C   0  0  0  0  0
   91.9200   49.6730  267.2810 C   0  0  0  0  0
   87.3140   48.3800  266.7900 O   0  0  0  0  0
   90.1390   46.4660  263.1320 N   0  0  0  0  0
   90.2720   48.3720  266.2760 N   0  0  0  0  0
   91.5470   48.4460  266.7130 C   0  0  0  0  0
   92.4720   47.3940  266.5640 C   0  0  0  0  0
   93.7630   47.5320  266.9730 C   0  0  0  0  0
   95.4610   48.9500  267.9960 N   0  0  0  0  0
   94.2050   48.8110  267.5230 C   0  0  0  0  0
   93.2120   49.8740  267.6990 C   0  0  0  0  0
   93.6030   51.1640  268.3070 C   0  0  0  0  0
   92.5690   53.1820  271.1310 N   0  0  0  0  0
   92.8760   54.4710  271.7690 C   0  0  0  0  0
   94.2410   53.5690  269.4600 C   0  0  0  0  0
   94.9080   53.1770  268.3150 C   0  0  0  0  0
   94.6360   51.9400  267.7660 C   0  0  0  0  0
   92.1587   50.9188  269.8684 H   0  0  0  0  0
   96.6736   45.9663  267.1309 H   0  0  0  0  0
   97.3467   48.0651  268.1816 H   0  0  0  0  0
   87.3397   45.2984  264.5754 H   0  0  0  0  0
   88.7070   45.0703  262.5226 H   0  0  0  0  0
   91.5381   47.8038  264.0016 H   0  0  0  0  0
   87.9267   46.6586  269.0268 H   0  0  0  0  0
   88.6929   45.4033  268.0227 H   0  0  0  0  0
   89.4495   47.0083  268.1725 H   0  0  0  0  0
   91.7883   52.0642  272.7233 H   0  0  0  0  0
   90.5749   52.8630  271.6934 H   0  0  0  0  0
   91.4340   51.4198  271.1015 H   0  0  0  0  0
   91.1827   50.4683  267.3907 H   0  0  0  0  0
   89.5886   48.9645  266.7475 H   0  0  0  0  0
   92.1490   46.4551  266.1143 H   0  0  0  0  0
   91.9843   55.0978  271.7662 H   0  0  0  0  0
   93.1976   54.2991  272.7962 H   0  0  0  0  0
   93.6728   54.9681  271.2158 H   0  0  0  0  0
   94.5069   54.5088  269.9440 H   0  0  0  0  0
   95.6406   53.8371  267.8506 H   0  0  0  0  0
   95.2182   51.5715  266.9214 H   0  0  0  0  0
  2  1  4  0  0  0
  1 26  1  0  0  0
  1 28  4  0  0  0
 25  2  4  0  0  0
  4  3  4  0  0  0
  8  3  4  0  0  0
 22  4  4  0  0  0
  5  6  4  0  0  0
  5 10  4  0  0  0
 18  5  1  0  0  0
  6  7  4  0  0  0
  6 12  1  0  0  0
  7  9  4  0  0  0
 21  8  4  0  0  0
 17  9  4  0  0  0
 10 17  4  0  0  0
 12 11  1  0  0  0
 12 13  2  0  0  0
 12 16  2  0  0  0
 26 14  1  0  0  0
 15 19  4  0  0  0
 24 15  4  0  0  0
 19 18  1  0  0  0
 19 20  4  0  0  0
 21 20  4  0  0  0
 23 21  4  0  0  0
 23 22  4  0  0  0
 24 23  4  0  0  0
 24 25  1  0  0  0
 25 30  4  0  0  0
 26 27  1  0  0  0
 28 29  4  0  0  0
 29 30  4  0  0  0
  2 31  1  0  0  0
  3 32  1  0  0  0
  4 33  1  0  0  0
  7 34  1  0  0  0
  9 35  1  0  0  0
 10 36  1  0  0  0
 11 37  1  0  0  0
 11 38  1  0  0  0
 11 39  1  0  0  0
 14 40  1  0  0  0
 14 41  1  0  0  0
 14 42  1  0  0  0
 15 43  1  0  0  0
 18 44  1  0  0  0
 20 45  1  0  0  0
 27 46  1  0  0  0
 27 47  1  0  0  0
 27 48  1  0  0  0
 28 49  1  0  0  0
 29 50  1  0  0  0
 30 51  1  0  0  0
M  END
$$$$
