5m17_ligand
  -I-interpret- 

 43 44  0  0  0  0  0  0  0  0999 V2000
    3.2610   21.8080    6.6190 C   0  0  0  0  0
    2.3130   21.6460    7.7860 C   0  0  0  0  0
    2.8120   22.3970    9.0080 C   0  0  0  0  0
    4.2450   21.9980    9.3440 C   0  0  0  0  0
    5.1000   22.2280    8.0940 C   0  0  0  0  0
    6.5300   21.7390    8.3290 C   0  0  0  0  0
    2.1930   20.2550    8.0900 O   0  0  0  0  0
    1.9360   22.1270   10.1150 O   0  0  0  0  0
    4.7210   22.8180   10.4160 O   0  0  0  0  0
    4.5900   21.4780    6.9920 O   0  0  0  0  0
    7.4420   22.1970    7.3580 O   0  0  0  0  0
    1.4010   23.9870    4.0080 O   0  0  0  0  0
    2.7540   24.4440    4.1460 C   0  0  0  0  0
    3.3220   24.7410    2.7550 C   0  0  0  0  0
    2.6510   25.8960    2.0220 C   0  0  0  0  0
    2.8620   27.1300    2.7330 O   0  0  0  0  0
    3.5690   23.3490    4.7900 C   0  0  0  0  0
    3.1070   23.1400    6.1440 O   0  0  0  0  0
    5.0400   23.7330    4.7910 C   0  0  0  0  0
    5.5000   24.0550    3.3840 C   0  0  0  0  0
    4.7040   25.1150    2.8620 O   0  0  0  0  0
    3.0281   21.1176    5.8083 H   0  0  0  0  0
    1.3425   22.0601    7.5124 H   0  0  0  0  0
    2.8102   23.4665    8.7974 H   0  0  0  0  0
    4.2969   20.9528    9.6489 H   0  0  0  0  0
    5.0791   23.2969    7.8818 H   0  0  0  0  0
    6.5178   20.6501    8.2819 H   0  0  0  0  0
    6.8557   22.1250    9.2949 H   0  0  0  0  0
    1.8774   19.7852    7.3146 H   0  0  0  0  0
    1.0407   22.3848    9.8834 H   0  0  0  0  0
    4.1810   22.6688   11.1956 H   0  0  0  0  0
    8.3178   21.8587    7.5584 H   0  0  0  0  0
    1.0379   23.7986    4.8765 H   0  0  0  0  0
    2.7881   25.3451    4.7584 H   0  0  0  0  0
    3.1532   23.8210    2.1953 H   0  0  0  0  0
    1.5804   25.7018    1.9569 H   0  0  0  0  0
    3.0818   25.9823    1.0245 H   0  0  0  0  0
    2.4342   27.8476    2.2601 H   0  0  0  0  0
    3.4492   22.4251    4.2242 H   0  0  0  0  0
    5.6257   22.8976    5.1745 H   0  0  0  0  0
    5.1780   24.6121    5.4205 H   0  0  0  0  0
    5.3932   23.1725    2.7532 H   0  0  0  0  0
    6.5468   24.3582    3.4018 H   0  0  0  0  0
  1  2  1  0  0  0
  1 10  1  0  0  0
 18  1  1  0  0  0
  2  3  1  0  0  0
  2  7  1  0  0  0
  3  4  1  0  0  0
  3  8  1  0  0  0
  5  4  1  0  0  0
  4  9  1  0  0  0
  5  6  1  0  0  0
 10  5  1  0  0  0
  6 11  1  0  0  0
 13 12  1  0  0  0
 13 14  1  0  0  0
 17 13  1  0  0  0
 14 15  1  0  0  0
 14 21  1  0  0  0
 15 16  1  0  0  0
 17 18  1  0  0  0
 17 19  1  0  0  0
 19 20  1  0  0  0
 20 21  1  0  0  0
  1 22  1  0  0  0
  2 23  1  0  0  0
  3 24  1  0  0  0
  4 25  1  0  0  0
  5 26  1  0  0  0
  6 27  1  0  0  0
  6 28  1  0  0  0
  7 29  1  0  0  0
  8 30  1  0  0  0
  9 31  1  0  0  0
 11 32  1  0  0  0
 12 33  1  0  0  0
 13 34  1  0  0  0
 14 35  1  0  0  0
 15 36  1  0  0  0
 15 37  1  0  0  0
 16 38  1  0  0  0
 17 39  1  0  0  0
 19 40  1  0  0  0
 19 41  1  0  0  0
 20 42  1  0  0  0
 20 43  1  0  0  0
M  END
$$$$
