4u7o_ligand
  -I-interpret- 

 43 45  0  0  0  0  0  0  0  0999 V2000
   -3.7160   15.3940  -27.4900 N   0  0  0  0  0
   -5.2480   14.8040  -27.6160 P   0  0  0  0  0
   -5.3110   13.3330  -27.6940 O   0  0  0  0  0
   -6.0730   15.1240  -26.3670 O   0  0  0  0  0
   -5.9740   15.2460  -28.9570 O   0  0  0  0  0
   -6.4630   16.7260  -29.2850 P   0  0  0  0  0
   -7.8620   17.0020  -28.7860 O   0  0  0  0  0
   -5.4600   17.6690  -28.6280 O   0  0  0  0  0
   -6.3580   16.8390  -30.8750 O   0  0  0  0  0
   -7.2710   15.9970  -31.5770 C   0  0  0  0  0
   -6.6880   15.6760  -32.9530 C   0  0  0  0  0
   -6.4620   16.7630  -33.6420 O   0  0  0  0  0
   -5.3080   14.9730  -32.8220 C   0  0  0  0  0
   -5.4000   13.6310  -32.6550 O   0  0  0  0  0
   -4.7010   15.2660  -34.2020 C   0  0  0  0  0
   -5.2120   14.2320  -35.1380 O   0  0  0  0  0
   -5.1700   16.4380  -34.5520 C   0  0  0  0  0
   -4.2200   17.4380  -34.3180 N   0  0  0  0  0
   -4.1950   18.2920  -33.2530 C   0  0  0  0  0
   -3.1270   19.1120  -33.3820 N   0  0  0  0  0
   -2.4930   18.7630  -34.5260 C   0  0  0  0  0
   -3.1730   17.7330  -35.0900 C   0  0  0  0  0
   -2.7520   17.1650  -36.2410 N   0  0  0  0  0
   -1.6340   17.6670  -36.8540 C   0  0  0  0  0
   -0.9520   18.7010  -36.2960 N   0  0  0  0  0
   -1.3580   19.2550  -35.1490 C   0  0  0  0  0
   -0.5840   20.3530  -34.6060 N   0  0  0  0  0
   -2.9226   14.7533  -27.4724 H   0  0  0  0  0
   -3.5604   16.4002  -27.4296 H   0  0  0  0  0
   -6.0905   16.0742  -26.2312 H   0  0  0  0  0
   -4.5790   17.4776  -28.9579 H   0  0  0  0  0
   -8.2285   16.5052  -31.6913 H   0  0  0  0  0
   -7.4268   15.0744  -31.0178 H   0  0  0  0  0
   -7.4219   15.0391  -33.4469 H   0  0  0  0  0
   -4.7440   15.3221  -31.9571 H   0  0  0  0  0
   -4.5187   13.2577  -32.5809 H   0  0  0  0  0
   -3.6110   15.2583  -34.2032 H   0  0  0  0  0
   -4.8498   14.3873  -36.0134 H   0  0  0  0  0
   -5.4209   16.4151  -35.6125 H   0  0  0  0  0
   -4.9155   18.3100  -32.4353 H   0  0  0  0  0
   -1.2903   17.2347  -37.7937 H   0  0  0  0  0
   -0.8691   20.7947  -33.7319 H   0  0  0  0  0
    0.2460   20.6842  -35.0978 H   0  0  0  0  0
  1  2  1  0  0  0
  2  3  2  0  0  0
  2  4  1  0  0  0
  2  5  1  0  0  0
  5  6  1  0  0  0
  6  7  2  0  0  0
  6  8  1  0  0  0
  6  9  1  0  0  0
  9 10  1  0  0  0
 10 11  1  0  0  0
 11 12  1  0  0  0
 11 13  1  0  0  0
 12 17  1  0  0  0
 13 14  1  0  0  0
 13 15  1  0  0  0
 15 16  1  0  0  0
 15 17  1  0  0  0
 17 18  1  0  0  0
 18 19  4  0  0  0
 18 22  4  0  0  0
 19 20  4  0  0  0
 20 21  4  0  0  0
 21 22  4  0  0  0
 21 26  4  0  0  0
 22 23  4  0  0  0
 23 24  4  0  0  0
 24 25  4  0  0  0
 25 26  4  0  0  0
 26 27  1  0  0  0
  1 28  1  0  0  0
  1 29  1  0  0  0
  4 30  1  0  0  0
  8 31  1  0  0  0
 10 32  1  0  0  0
 10 33  1  0  0  0
 11 34  1  0  0  0
 13 35  1  0  0  0
 14 36  1  0  0  0
 15 37  1  0  0  0
 16 38  1  0  0  0
 17 39  1  0  0  0
 19 40  1  0  0  0
 24 41  1  0  0  0
 27 42  1  0  0  0
 27 43  1  0  0  0
M  END
$$$$
