### 
### Created by X-TOOL on Mon Sep 10 21:13:24 2018
### 

@<TRIPOS>MOLECULE
4u7o_ligand
   41    43     1     0     0
SMALL
GAST_HUCK


@<TRIPOS>ATOM
      1 N3B        -3.7160   15.3940  -27.4900 N.am      1 AN2        -0.2862
      2 PB         -5.2480   14.8040  -27.6160 P.3       1 AN2         0.2419
      3 O2B        -5.3110   13.3330  -27.6940 O.co2     1 AN2        -0.6025
      4 O1B        -6.0730   15.1240  -26.3670 O.co2     1 AN2        -0.6025
      5 O3A        -5.9740   15.2460  -28.9570 O.3       1 AN2        -0.1413
      6 PA         -6.4630   16.7260  -29.2850 P.3       1 AN2         0.2974
      7 O1A        -7.8620   17.0020  -28.7860 O.co2     1 AN2        -0.6125
      8 O2A        -5.4600   17.6690  -28.6280 O.co2     1 AN2        -0.6125
      9 O5'        -6.3580   16.8390  -30.8750 O.3       1 AN2        -0.2475
     10 C5'        -7.2710   15.9970  -31.5770 C.3       1 AN2         0.1128
     11 C4'        -6.6880   15.6760  -32.9530 C.3       1 AN2         0.1189
     12 O4'        -6.4620   16.7630  -33.6420 O.3       1 AN2        -0.3364
     13 C3'        -5.3080   14.9730  -32.8220 C.3       1 AN2         0.1149
     14 O3'        -5.4000   13.6310  -32.6550 O.3       1 AN2        -0.3864
     15 C2'        -4.7010   15.2660  -34.2020 C.3       1 AN2         0.1385
     16 O2'        -5.2120   14.2320  -35.1380 O.3       1 AN2        -0.3836
     17 C1'        -5.1700   16.4380  -34.5520 C.3       1 AN2         0.2010
     18 N9         -4.2200   17.4380  -34.3180 N.pl3     1 AN2        -0.1919
     19 C8         -4.1950   18.2920  -33.2530 C.2       1 AN2         0.1123
     20 N7         -3.1270   19.1120  -33.3820 N.2       1 AN2        -0.2958
     21 C5         -2.4930   18.7630  -34.5260 C.ar      1 AN2         0.1045
     22 C4         -3.1730   17.7330  -35.0900 C.ar      1 AN2         0.1613
     23 N3         -2.7520   17.1650  -36.2410 N.ar      1 AN2        -0.2714
     24 C2         -1.6340   17.6670  -36.8540 C.ar      1 AN2         0.0533
     25 N1         -0.9520   18.7010  -36.2960 N.ar      1 AN2        -0.2698
     26 C6         -1.3580   19.2550  -35.1490 C.ar      1 AN2         0.1298
     27 N6         -0.5840   20.3530  -34.6060 N.pl3     1 AN2        -0.3152
     28 H1         -3.1623   15.1797  -26.6853 H         1 AN2         0.1618
     29 H2         -3.3393   15.9666  -28.2181 H         1 AN2         0.1618
     30 H3         -8.2345   16.5143  -31.6955 H         1 AN2         0.0648
     31 H4         -7.4222   15.0647  -31.0131 H         1 AN2         0.0648
     32 H5         -7.3918   15.0274  -33.4952 H         1 AN2         0.0651
     33 H6         -4.7138   15.4086  -32.0052 H         1 AN2         0.0648
     34 H7         -5.8448   13.2497  -33.4028 H         1 AN2         0.2100
     35 H8         -3.6014   15.2655  -34.1739 H         1 AN2         0.0676
     36 H9         -4.8536   14.3857  -36.0043 H         1 AN2         0.2101
     37 H10        -5.4458   16.4255  -35.6168 H         1 AN2         0.0996
     38 H11        -4.9148   18.3100  -32.4360 H         1 AN2         0.1349
     39 H12        -1.2922   17.2371  -37.7885 H         1 AN2         0.0996
     40 H13         0.2541   20.6874  -35.1026 H         1 AN2         0.1820
     41 H14        -0.8719   20.7991  -33.7234 H         1 AN2         0.1820
@<TRIPOS>BOND
     1    1    2 am 
     2    2    3 ar 
     3    2    4 ar 
     4    2    5 1  
     5    5    6 1  
     6    6    7 ar 
     7    6    8 ar 
     8    6    9 1  
     9    9   10 1  
    10   10   11 1  
    11   11   12 1  
    12   11   13 1  
    13   12   17 1  
    14   13   14 1  
    15   13   15 1  
    16   15   16 1  
    17   15   17 1  
    18   17   18 1  
    19   18   19 1  
    20   18   22 1  
    21   19   20 2  
    22   20   21 1  
    23   21   22 ar 
    24   21   26 ar 
    25   22   23 ar 
    26   23   24 ar 
    27   24   25 ar 
    28   25   26 ar 
    29   26   27 1  
    30    1   28 1  
    31    1   29 1  
    32   10   30 1  
    33   10   31 1  
    34   11   32 1  
    35   13   33 1  
    36   14   34 1  
    37   15   35 1  
    38   16   36 1  
    39   17   37 1  
    40   19   38 1  
    41   24   39 1  
    42   27   40 1  
    43   27   41 1  
@<TRIPOS>SUBSTRUCTURE
     1 AN2         1

