5mks_ligand
  -I-interpret- 

 56 59  0  0  0  0  0  0  0  0999 V2000
  -20.5080   -9.2630   12.5580 C   0  0  0  0  0
  -19.5130   -9.1250   11.5650 C   0  0  0  0  0
  -18.3280   -8.5200   11.9470 C   0  0  0  0  0
  -16.1350   -8.1260   10.7870 C   0  0  0  0  0
  -15.1500   -9.2650   10.6020 C   0  0  0  0  0
  -13.9350   -8.4850   10.1110 C   0  0  0  0  0
  -14.5710   -7.4090    9.2260 C   0  0  0  0  0
  -14.5340   -7.6550    7.7320 C   0  0  0  0  0
  -13.1860   -8.1590    7.2260 C   0  0  0  0  0
  -13.2570   -8.6790    5.8150 C   0  0  0  0  0
  -11.9070   -9.9530    4.3310 C   0  0  0  0  0
  -21.6890   -9.8430   12.3480 N   0  0  0  0  0
  -14.9460   -9.9490   11.8290 O   0  0  0  0  0
  -11.9580   -9.2040    5.4400 O   0  0  0  0  0
  -19.0440   -8.2190   14.0240 C   0  0  0  0  0
  -17.5270   -8.5250   10.8250 N   0  0  0  0  0
  -19.5690  -12.3340    7.5230 C   0  0  0  0  0
  -17.9330   -9.2520    8.5480 N   0  0  0  0  0
  -18.8030   -9.9270    7.5980 C   0  0  0  0  0
  -18.5380  -11.4110    7.6070 C   0  0  0  0  0
  -18.2860   -9.1090    9.8290 C   0  0  0  0  0
  -13.2280   -7.9050   11.1970 O   0  0  0  0  0
  -17.2410  -11.8830    7.7110 C   0  0  0  0  0
  -19.4780   -9.4930   10.2300 N   0  0  0  0  0
  -15.9370   -7.2730    9.6810 O   0  0  0  0  0
  -19.3140  -13.6930    7.5350 C   0  0  0  0  0
  -18.0120  -14.1270    7.6320 C   0  0  0  0  0
  -16.9710  -13.2360    7.7270 C   0  0  0  0  0
  -18.0310   -8.0410   13.1660 N   0  0  0  0  0
  -17.6710  -15.8330    7.5930 Cl  0  0  0  0  0
  -20.2370   -8.7880   13.8000 N   0  0  0  0  0
  -15.9464   -7.6621   11.7552 H   0  0  0  0  0
  -15.4479  -10.0634    9.9223 H   0  0  0  0  0
  -13.2024   -9.1003    9.5887 H   0  0  0  0  0
  -13.9770   -6.5018    9.3365 H   0  0  0  0  0
  -14.7311   -6.7025    7.2401 H   0  0  0  0  0
  -15.2735   -8.4245    7.5102 H   0  0  0  0  0
  -12.8702   -8.9790    7.8709 H   0  0  0  0  0
  -12.4872   -7.3226    7.2412 H   0  0  0  0  0
  -13.5363   -7.8710    5.1388 H   0  0  0  0  0
  -14.0053   -9.4690    5.7514 H   0  0  0  0  0
  -12.5538  -10.8221    4.4510 H   0  0  0  0  0
  -12.2443   -9.3623    3.4793 H   0  0  0  0  0
  -10.8815  -10.2821    4.1632 H   0  0  0  0  0
  -21.9163  -10.2185   11.4273 H   0  0  0  0  0
  -22.3658   -9.9115   13.1080 H   0  0  0  0  0
  -15.7498  -10.4142   12.0722 H   0  0  0  0  0
  -18.8764   -7.8533   15.0371 H   0  0  0  0  0
  -20.5979  -11.9825    7.4462 H   0  0  0  0  0
  -17.0373   -8.8811    8.2309 H   0  0  0  0  0
  -18.6085   -9.5373    6.5988 H   0  0  0  0  0
  -19.8412   -9.7496    7.8787 H   0  0  0  0  0
  -12.8408   -8.6007   11.7334 H   0  0  0  0  0
  -16.4174  -11.1725    7.7816 H   0  0  0  0  0
  -20.1324  -14.4099    7.4686 H   0  0  0  0  0
  -15.9449  -13.5932    7.8139 H   0  0  0  0  0
  2  1  4  0  0  0
  1 12  1  0  0  0
  1 31  4  0  0  0
  3  2  4  0  0  0
  2 24  4  0  0  0
 16  3  4  0  0  0
  3 29  4  0  0  0
  4  5  1  0  0  0
 16  4  1  0  0  0
  4 25  1  0  0  0
  5  6  1  0  0  0
  5 13  1  0  0  0
  7  6  1  0  0  0
  6 22  1  0  0  0
  7  8  1  0  0  0
 25  7  1  0  0  0
  8  9  1  0  0  0
  9 10  1  0  0  0
 10 14  1  0  0  0
 14 11  1  0  0  0
 29 15  4  0  0  0
 15 31  4  0  0  0
 21 16  4  0  0  0
 20 17  4  0  0  0
 17 26  4  0  0  0
 19 18  1  0  0  0
 18 21  1  0  0  0
 19 20  1  0  0  0
 20 23  4  0  0  0
 21 24  4  0  0  0
 23 28  4  0  0  0
 26 27  4  0  0  0
 27 28  4  0  0  0
 27 30  1  0  0  0
  4 32  1  0  0  0
  5 33  1  0  0  0
  6 34  1  0  0  0
  7 35  1  0  0  0
  8 36  1  0  0  0
  8 37  1  0  0  0
  9 38  1  0  0  0
  9 39  1  0  0  0
 10 40  1  0  0  0
 10 41  1  0  0  0
 11 42  1  0  0  0
 11 43  1  0  0  0
 11 44  1  0  0  0
 12 45  1  0  0  0
 12 46  1  0  0  0
 13 47  1  0  0  0
 15 48  1  0  0  0
 17 49  1  0  0  0
 18 50  1  0  0  0
 19 51  1  0  0  0
 19 52  1  0  0  0
 22 53  1  0  0  0
 23 54  1  0  0  0
 26 55  1  0  0  0
 28 56  1  0  0  0
M  END
$$$$
