2bt9_ligand
  -I-interpret- 

 26 26  0  0  0  0  0  0  0  0999 V2000
   -2.4350   36.7850   -2.3510 C   0  0  0  0  0
   -2.9190   36.6330   -0.9040 C   0  0  0  0  0
   -4.3520   37.0810   -0.7790 C   0  0  0  0  0
   -5.2100   36.3010   -1.7940 C   0  0  0  0  0
   -4.6550   36.5190   -3.1780 C   0  0  0  0  0
   -5.3950   35.7690   -4.2550 C   0  0  0  0  0
   -2.4050   38.1720   -2.6310 O   0  0  0  0  0
   -2.0960   37.4080    0.0330 O   0  0  0  0  0
   -4.8330   36.9990    0.5560 O   0  0  0  0  0
   -5.1700   34.9080   -1.5320 O   0  0  0  0  0
   -3.2760   36.0670   -3.2040 O   0  0  0  0  0
   -1.8430   38.4460   -3.8450 C   0  0  0  0  0
   -1.4358   36.3763   -2.5015 H   0  0  0  0  0
   -2.8333   35.5766   -0.6496 H   0  0  0  0  0
   -4.4209   38.1413   -1.0223 H   0  0  0  0  0
   -6.2367   36.6581   -1.7133 H   0  0  0  0  0
   -4.7563   37.5843   -3.3853 H   0  0  0  0  0
   -4.9407   35.9828   -5.2225 H   0  0  0  0  0
   -5.3395   34.6990   -4.0545 H   0  0  0  0  0
   -6.4383   36.0845   -4.2644 H   0  0  0  0  0
   -1.1805   37.1285   -0.0403 H   0  0  0  0  0
   -4.2564   37.5038    1.1342 H   0  0  0  0  0
   -5.5188   34.7386   -0.6538 H   0  0  0  0  0
   -0.8177   38.0765   -3.8610 H   0  0  0  0  0
   -2.4194   37.9560   -4.6297 H   0  0  0  0  0
   -1.8449   39.5234   -4.0100 H   0  0  0  0  0
  1  2  1  0  0  0
  1  7  1  0  0  0
  1 11  1  0  0  0
  2  3  1  0  0  0
  2  8  1  0  0  0
  3  4  1  0  0  0
  3  9  1  0  0  0
  4  5  1  0  0  0
  4 10  1  0  0  0
  5  6  1  0  0  0
  5 11  1  0  0  0
  7 12  1  0  0  0
  1 13  1  0  0  0
  2 14  1  0  0  0
  3 15  1  0  0  0
  4 16  1  0  0  0
  5 17  1  0  0  0
  6 18  1  0  0  0
  6 19  1  0  0  0
  6 20  1  0  0  0
  8 21  1  0  0  0
  9 22  1  0  0  0
 10 23  1  0  0  0
 12 24  1  0  0  0
 12 25  1  0  0  0
 12 26  1  0  0  0
M  END
$$$$
