4qta_ligand
  -I-interpret- 

 77 83  0  0  0  0  0  0  0  0999 V2000
   29.9660   59.0040   33.5270 O   0  0  0  0  0
   28.8490   58.6180   33.9270 C   0  0  0  0  0
   28.0070   59.3950   34.6460 N   0  0  0  0  0
   28.2020   60.6990   35.1240 C   0  0  0  0  0
   27.0750   61.3950   35.5600 C   0  0  0  0  0
   27.2130   62.7230   35.9780 C   0  0  0  0  0
   26.3240   63.7790   36.4840 C   0  0  0  0  0
   24.8320   63.8030   36.6120 C   0  0  0  0  0
   24.0350   62.8440   35.9920 C   0  0  0  0  0
   22.6790   62.8370   36.2460 C   0  0  0  0  0
   22.0880   63.7130   37.0710 N   0  0  0  0  0
   22.8600   64.6160   37.6670 C   0  0  0  0  0
   24.2300   64.7010   37.4870 C   0  0  0  0  0
   27.0550   64.8430   36.7420 N   0  0  0  0  0
   28.3550   64.5600   36.4520 N   0  0  0  0  0
   28.4920   63.3080   35.9750 C   0  0  0  0  0
   29.6320   62.6000   35.5840 C   0  0  0  0  0
   29.4680   61.3040   35.1570 C   0  0  0  0  0
   28.3460   57.2670   33.6470 C   0  0  0  0  0
   28.4020   56.4240   34.9720 C   0  0  0  0  0
   29.1990   56.5180   32.6500 C   0  0  0  0  0
   30.0730   55.6550   33.4590 N   0  3  0  0  0
   29.2660   55.2260   34.6130 C   0  0  0  0  0
   30.8670   54.7190   32.7370 C   0  0  0  0  0
   32.0150   54.1480   33.5120 C   0  0  0  0  0
   32.2970   54.5710   34.6090 O   0  0  0  0  0
   32.6150   53.0850   32.9750 N   0  0  0  0  0
   32.1140   52.2550   31.8900 C   0  0  0  0  0
   31.4160   51.0390   32.4670 C   0  0  0  0  0
   32.2870   50.3060   33.4000 N   0  0  0  0  0
   33.0230   51.1680   34.3300 C   0  0  0  0  0
   33.6580   52.3450   33.6810 C   0  0  0  0  0
   31.8070   49.1110   34.0330 C   0  0  0  0  0
   30.6470   48.4860   33.6210 C   0  0  0  0  0
   30.1390   47.4030   34.3460 C   0  0  0  0  0
   30.7550   46.9570   35.5200 C   0  0  0  0  0
   31.9140   47.6000   35.9290 C   0  0  0  0  0
   32.4540   48.6370   35.1930 C   0  0  0  0  0
   30.1010   45.9400   36.3770 C   0  0  0  0  0
   30.5220   45.8470   37.6570 N   0  0  0  0  0
   29.8260   45.0040   38.4350 C   0  0  0  0  0
   28.8020   44.2150   37.9620 C   0  0  0  0  0
   28.4860   44.3660   36.6370 C   0  0  0  0  0
   29.0960   45.2410   35.8260 N   0  0  0  0  0
   27.1056   58.9744   34.8718 H   0  0  0  0  0
   26.0988   60.9104   35.5749 H   0  0  0  0  0
   24.4756   62.1105   35.3167 H   0  0  0  0  0
   22.0608   62.0860   35.7541 H   0  0  0  0  0
   22.3860   65.3326   38.3377 H   0  0  0  0  0
   24.8197   65.4499   38.0156 H   0  0  0  0  0
   30.6192   63.0609   35.6167 H   0  0  0  0  0
   30.3400   60.7336   34.8370 H   0  0  0  0  0
   27.3389   57.3869   33.2475 H   0  0  0  0  0
   27.4103   56.1289   35.3149 H   0  0  0  0  0
   28.8130   56.9934   35.8056 H   0  0  0  0  0
   29.7755   57.1987   32.0235 H   0  0  0  0  0
   28.5902   55.9365   31.9576 H   0  0  0  0  0
   30.8791   56.1539   33.8355 H   0  0  0  0  0
   28.6588   54.3531   34.3734 H   0  0  0  0  0
   29.8952   54.9222   35.4496 H   0  0  0  0  0
   31.2909   55.2509   31.8852 H   0  0  0  0  0
   30.2157   53.8860   32.4723 H   0  0  0  0  0
   32.9461   51.9338   31.2634 H   0  0  0  0  0
   31.4084   52.8286   31.2890 H   0  0  0  0  0
   31.1518   50.3720   31.6464 H   0  0  0  0  0
   30.5334   51.3747   33.0115 H   0  0  0  0  0
   33.8208   50.5680   34.7677 H   0  0  0  0  0
   32.3067   51.5458   35.0596 H   0  0  0  0  0
   34.1304   52.9802   34.4303 H   0  0  0  0  0
   34.4295   52.0206   32.9826 H   0  0  0  0  0
   30.1265   48.8368   32.7299 H   0  0  0  0  0
   29.2433   46.8953   33.9882 H   0  0  0  0  0
   32.4074   47.2815   36.8473 H   0  0  0  0  0
   33.3906   49.0939   35.5125 H   0  0  0  0  0
   30.0838   44.9409   39.4922 H   0  0  0  0  0
   28.2730   43.5108   38.6042 H   0  0  0  0  0
   27.6961   43.7408   36.2206 H   0  0  0  0  0
  1  2  2  0  0  0
  2  3  1  0  0  0
  2 19  1  0  0  0
  3  4  1  0  0  0
  4  5  4  0  0  0
  4 18  4  0  0  0
  5  6  4  0  0  0
  6  7  4  0  0  0
  6 16  4  0  0  0
  7  8  1  0  0  0
  7 14  4  0  0  0
  8  9  4  0  0  0
  8 13  4  0  0  0
  9 10  4  0  0  0
 10 11  4  0  0  0
 11 12  4  0  0  0
 12 13  4  0  0  0
 14 15  4  0  0  0
 15 16  4  0  0  0
 16 17  4  0  0  0
 17 18  4  0  0  0
 19 20  1  0  0  0
 19 21  1  0  0  0
 20 23  1  0  0  0
 21 22  1  0  0  0
 22 23  1  0  0  0
 22 24  1  0  0  0
 24 25  1  0  0  0
 25 26  2  0  0  0
 25 27  1  0  0  0
 27 28  1  0  0  0
 27 32  1  0  0  0
 28 29  1  0  0  0
 29 30  1  0  0  0
 30 31  1  0  0  0
 30 33  1  0  0  0
 31 32  1  0  0  0
 33 34  4  0  0  0
 33 38  4  0  0  0
 34 35  4  0  0  0
 35 36  4  0  0  0
 36 37  4  0  0  0
 36 39  1  0  0  0
 37 38  4  0  0  0
 39 40  4  0  0  0
 39 44  4  0  0  0
 40 41  4  0  0  0
 41 42  4  0  0  0
 42 43  4  0  0  0
 43 44  4  0  0  0
  3 45  1  0  0  0
  5 46  1  0  0  0
  9 47  1  0  0  0
 10 48  1  0  0  0
 12 49  1  0  0  0
 13 50  1  0  0  0
 17 51  1  0  0  0
 18 52  1  0  0  0
 19 53  1  0  0  0
 20 54  1  0  0  0
 20 55  1  0  0  0
 21 56  1  0  0  0
 21 57  1  0  0  0
 22 58  1  0  0  0
 23 59  1  0  0  0
 23 60  1  0  0  0
 24 61  1  0  0  0
 24 62  1  0  0  0
 28 63  1  0  0  0
 28 64  1  0  0  0
 29 65  1  0  0  0
 29 66  1  0  0  0
 31 67  1  0  0  0
 31 68  1  0  0  0
 32 69  1  0  0  0
 32 70  1  0  0  0
 34 71  1  0  0  0
 35 72  1  0  0  0
 37 73  1  0  0  0
 38 74  1  0  0  0
 41 75  1  0  0  0
 42 76  1  0  0  0
 43 77  1  0  0  0
M  END
$$$$
