4ruy_ligand
  -I-interpret- 

 27 27  0  0  0  0  0  0  0  0999 V2000
   -1.9780    8.0000   14.4900 C   0  0  0  0  0
   -2.0740    7.2250   13.1970 C   0  0  0  0  0
   -2.4050    5.7910   13.5120 C   0  0  0  0  0
   -3.7560    5.7300   13.8940 O   0  0  0  0  0
   -4.1800    4.5680   14.5130 C   0  0  0  0  0
   -5.6130    4.5940   14.9480 C   0  0  0  0  0
   -6.1210    3.5290   15.5770 C   0  0  0  0  0
   -5.2520    2.3280   15.8240 C   0  0  0  0  0
   -5.9380    0.9620   16.6870 S   0  0  0  0  0
   -5.4240    1.0920   18.0360 O   0  0  0  0  0
   -7.3860    1.0700   16.6190 O   0  0  0  0  0
   -5.3910   -0.3980   16.0050 N   0  0  0  0  0
   -3.9590    2.3140   15.4400 C   0  0  0  0  0
   -3.3840    3.5040   14.7350 C   0  0  0  0  0
   -2.9318    7.9480   15.0150 H   0  0  0  0  0
   -1.1948    7.5687   15.1134 H   0  0  0  0  0
   -1.7384    9.0406   14.2714 H   0  0  0  0  0
   -1.1238    7.2758   12.6654 H   0  0  0  0  0
   -2.8538    7.6536   12.5674 H   0  0  0  0  0
   -1.7691    5.4266   14.3188 H   0  0  0  0  0
   -2.2328    5.1642   12.6371 H   0  0  0  0  0
   -6.2333    5.4692   14.7545 H   0  0  0  0  0
   -7.1593    3.5319   15.9087 H   0  0  0  0  0
   -4.7733   -1.0184   16.5285 H   0  0  0  0  0
   -5.6636   -0.6356   15.0512 H   0  0  0  0  0
   -3.3365    1.4422   15.6414 H   0  0  0  0  0
   -2.3440    3.5090   14.4086 H   0  0  0  0  0
  1  2  1  0  0  0
  2  3  1  0  0  0
  3  4  1  0  0  0
  4  5  1  0  0  0
  5  6  4  0  0  0
  5 14  4  0  0  0
  6  7  4  0  0  0
  7  8  4  0  0  0
  8  9  1  0  0  0
  8 13  4  0  0  0
  9 10  2  0  0  0
  9 11  2  0  0  0
  9 12  1  0  0  0
 13 14  4  0  0  0
  1 15  1  0  0  0
  1 16  1  0  0  0
  1 17  1  0  0  0
  2 18  1  0  0  0
  2 19  1  0  0  0
  3 20  1  0  0  0
  3 21  1  0  0  0
  6 22  1  0  0  0
  7 23  1  0  0  0
 12 24  1  0  0  0
 12 25  1  0  0  0
 13 26  1  0  0  0
 14 27  1  0  0  0
M  END
$$$$
