2ly0_ligand
  -I-interpret- 

 45 49  0  0  0  0  0  0  0  0999 V2000
    0.5140   11.4390   -0.8780 O   0  0  0  0  0
    0.5640   14.0600    0.2650 S   0  0  0  0  0
    0.5300   14.9720    1.4070 C   0  0  0  0  0
    0.2990   10.1870   -1.2340 N   0  0  0  0  0
    0.2360   14.3530    2.5530 C   0  0  0  0  0
    0.2070    7.3590    0.6510 N   0  3  0  0  0
    0.0590   13.0540    2.3000 C   0  0  0  0  0
   -0.3360   10.3910    0.7470 C   0  0  0  0  0
   -0.5770    8.0870   -0.3530 C   0  0  0  0  0
   -0.2090    9.5420   -0.2780 C   0  0  0  0  0
    0.1980    5.8760    0.6400 C   0  0  0  0  0
    0.1450   11.5900    0.2960 C   0  0  0  0  0
    0.2370   12.8020    0.9660 C   0  0  0  0  0
   -1.2250    5.2940    0.8890 C   0  0  0  0  0
    1.1140    5.3170    1.7630 C   0  0  0  0  0
    0.7170    5.2870   -0.7080 C   0  0  0  0  0
   -1.2070    3.7470    0.8980 C   0  0  0  0  0
    1.1260    3.7730    1.7740 C   0  0  0  0  0
    0.7230    3.7430   -0.6850 C   0  0  0  0  0
   -0.2880    3.2390    2.0150 C   0  0  0  0  0
    1.6420    3.2390    0.4340 C   0  0  0  0  0
   -0.7000    3.2210   -0.4500 C   0  0  0  0  0
    0.7238   16.0420    1.3312 H   0  0  0  0  0
    0.1543   14.8282    3.5306 H   0  0  0  0  0
   -0.2107    7.6161    1.5453 H   0  0  0  0  0
    1.1759    7.6157    0.4622 H   0  0  0  0  0
   -0.1913   12.3019    3.0482 H   0  0  0  0  0
   -0.7389   10.1733    1.7361 H   0  0  0  0  0
   -1.6420    7.9610   -0.1580 H   0  0  0  0  0
   -0.3614    7.6985   -1.3483 H   0  0  0  0  0
   -1.8817    5.6284    0.0858 H   0  0  0  0  0
   -1.5769    5.6422    1.8601 H   0  0  0  0  0
    0.7319    5.6645    2.7229 H   0  0  0  0  0
    2.1305    5.6672    1.5834 H   0  0  0  0  0
    1.7380    5.6342   -0.8665 H   0  0  0  0  0
    0.0544    5.6181   -1.5077 H   0  0  0  0  0
   -2.2214    3.3875    1.0707 H   0  0  0  0  0
    1.7843    3.4382    2.5757 H   0  0  0  0  0
    1.0900    3.3775   -1.6441 H   0  0  0  0  0
   -0.2755    2.1491    2.0151 H   0  0  0  0  0
   -0.6541    3.5875    2.9807 H   0  0  0  0  0
    1.6450    2.1491    0.4470 H   0  0  0  0  0
    2.6595    3.5907    0.2631 H   0  0  0  0  0
   -1.3553    3.5661   -1.2497 H   0  0  0  0  0
   -0.6955    2.1310   -0.4416 H   0  0  0  0  0
  1  4  4  0  0  0
 12  1  4  0  0  0
  2  3  4  0  0  0
 13  2  4  0  0  0
  5  3  4  0  0  0
 10  4  4  0  0  0
  7  5  4  0  0  0
  9  6  1  0  0  0
  6 11  1  0  0  0
 13  7  4  0  0  0
  8 10  4  0  0  0
 12  8  4  0  0  0
 10  9  1  0  0  0
 11 14  1  0  0  0
 11 15  1  0  0  0
 11 16  1  0  0  0
 12 13  1  0  0  0
 14 17  1  0  0  0
 15 18  1  0  0  0
 16 19  1  0  0  0
 17 20  1  0  0  0
 17 22  1  0  0  0
 18 20  1  0  0  0
 18 21  1  0  0  0
 19 21  1  0  0  0
 19 22  1  0  0  0
  3 23  1  0  0  0
  5 24  1  0  0  0
  6 25  1  0  0  0
  6 26  1  0  0  0
  7 27  1  0  0  0
  8 28  1  0  0  0
  9 29  1  0  0  0
  9 30  1  0  0  0
 14 31  1  0  0  0
 14 32  1  0  0  0
 15 33  1  0  0  0
 15 34  1  0  0  0
 16 35  1  0  0  0
 16 36  1  0  0  0
 17 37  1  0  0  0
 18 38  1  0  0  0
 19 39  1  0  0  0
 20 40  1  0  0  0
 20 41  1  0  0  0
 21 42  1  0  0  0
 21 43  1  0  0  0
 22 44  1  0  0  0
 22 45  1  0  0  0
M  END
$$$$
