3djk_ligand
  -I-interpret- 

 76 78  0  0  0  0  0  0  0  0999 V2000
   20.8690   27.8900   15.0590 C   0  0  0  0  0
   21.4930   29.0410   14.7630 O   0  0  0  0  0
   22.8770   29.1030   15.0880 C   0  0  0  0  0
   21.4610   26.7260   15.5410 C   0  0  0  0  0
   20.7360   25.5970   15.8110 C   0  0  0  0  0
   19.3460   25.6280   15.5390 C   0  0  0  0  0
   18.7550   26.7060   14.9390 C   0  0  0  0  0
   19.5150   27.8140   14.6600 C   0  0  0  0  0
   18.3810   24.2220   16.0380 S   0  0  0  0  0
   17.3000   24.1190   15.0750 O   0  0  0  0  0
   19.2460   23.1130   16.2290 O   0  0  0  0  0
   17.7320   24.5400   17.5050 N   0  0  0  0  0
   18.6610   24.8190   18.5720 C   0  0  0  0  0
   18.3610   24.1240   19.9320 C   0  0  0  0  0
   18.4700   22.6220   19.7760 C   0  0  0  0  0
   19.4190   24.6750   20.8820 C   0  0  0  0  0
   16.4370   25.1960   17.5830 C   0  0  0  0  0
   15.3440   24.2910   18.1310 C   0  0  0  0  0
   14.1730   25.1000   18.4290 O   0  0  0  0  0
   14.9280   23.1250   17.1930 C   0  0  0  0  0
   14.0550   22.1930   17.9210 N   0  0  0  0  0
   14.4400   21.0110   18.3640 C   0  0  0  0  0
   15.5330   20.5830   18.2690 O   0  0  0  0  0
   13.4510   20.3390   19.0020 O   0  0  0  0  0
   13.7670   18.9940   19.3780 C   0  0  0  0  0
   12.7940   18.5910   20.4600 C   0  0  0  0  0
   11.4400   18.6570   20.0870 O   0  0  0  0  0
   10.8480   17.5600   19.4500 C   0  0  0  0  0
   11.6590   16.9190   18.5120 O   0  0  0  0  0
   12.2610   17.8570   17.6120 C   0  0  0  0  0
   13.6570   18.1480   18.1200 C   0  0  0  0  0
   14.1560   23.5600   15.9570 C   0  0  0  0  0
   12.6170   21.7860   15.0450 C   0  0  0  0  0
   12.4110   20.6170   14.3520 C   0  0  0  0  0
   13.4040   20.0470   13.5560 C   0  0  0  0  0
   14.6320   20.6980   13.4690 C   0  0  0  0  0
   14.8660   21.8620   14.2270 C   0  0  0  0  0
   13.8690   22.4000   15.0450 C   0  0  0  0  0
   23.0039   28.9569   16.1607 H   0  0  0  0  0
   23.4111   28.3213   14.5478 H   0  0  0  0  0
   23.2724   30.0781   14.8036 H   0  0  0  0  0
   22.5379   26.7133   15.7090 H   0  0  0  0  0
   21.2112   24.7057   16.2207 H   0  0  0  0  0
   17.6950   26.6851   14.6860 H   0  0  0  0  0
   19.0672   28.6494   14.1218 H   0  0  0  0  0
   18.6046   25.8919   18.7560 H   0  0  0  0  0
   19.6297   24.4437   18.2421 H   0  0  0  0  0
   17.3547   24.3174   20.3035 H   0  0  0  0  0
   17.7508   22.2823   19.0308 H   0  0  0  0  0
   19.4787   22.3637   19.4536 H   0  0  0  0  0
   18.2587   22.1425   20.7318 H   0  0  0  0  0
   20.4103   24.4229   20.5054 H   0  0  0  0  0
   19.3183   25.7584   20.9470 H   0  0  0  0  0
   19.2820   24.2362   21.8703 H   0  0  0  0  0
   16.1511   25.4873   16.5723 H   0  0  0  0  0
   16.5352   26.0450   18.2595 H   0  0  0  0  0
   15.7602   23.8209   19.0220 H   0  0  0  0  0
   13.4767   24.5375   18.7758 H   0  0  0  0  0
   15.8656   22.6721   16.8708 H   0  0  0  0  0
   13.0911   22.4778   18.0947 H   0  0  0  0  0
   14.7729   18.8697   19.7789 H   0  0  0  0  0
   12.9301   19.2898   21.2854 H   0  0  0  0  0
   13.0052   17.5501   20.7049 H   0  0  0  0  0
    9.9794   17.9383   18.9110 H   0  0  0  0  0
   10.6223   16.8281   20.2255 H   0  0  0  0  0
   11.6732   18.7739   17.5694 H   0  0  0  0  0
   12.3017   17.4442   16.6040 H   0  0  0  0  0
   14.0913   17.1804   18.3715 H   0  0  0  0  0
   14.1490   18.7184   17.3322 H   0  0  0  0  0
   14.7604   24.2847   15.4116 H   0  0  0  0  0
   13.2064   23.9882   16.2779 H   0  0  0  0  0
   11.7942   22.2372   15.5996 H   0  0  0  0  0
   11.4433   20.1211   14.4268 H   0  0  0  0  0
   13.2239   19.1171   13.0165 H   0  0  0  0  0
   15.4114   20.3072   12.8149 H   0  0  0  0  0
   15.8391   22.3502   14.1747 H   0  0  0  0  0
  1  2  1  0  0  0
  4  1  4  0  0  0
  8  1  4  0  0  0
  2  3  1  0  0  0
  5  4  4  0  0  0
  6  5  4  0  0  0
  6  7  4  0  0  0
  9  6  1  0  0  0
  7  8  4  0  0  0
  9 10  2  0  0  0
  9 11  2  0  0  0
 12  9  1  0  0  0
 12 13  1  0  0  0
 17 12  1  0  0  0
 13 14  1  0  0  0
 14 15  1  0  0  0
 14 16  1  0  0  0
 18 17  1  0  0  0
 18 19  1  0  0  0
 20 18  1  0  0  0
 20 21  1  0  0  0
 32 20  1  0  0  0
 21 22  1  0  0  0
 22 23  2  0  0  0
 22 24  1  0  0  0
 24 25  1  0  0  0
 25 26  1  0  0  0
 25 31  1  0  0  0
 26 27  1  0  0  0
 27 28  1  0  0  0
 29 28  1  0  0  0
 30 29  1  0  0  0
 31 30  1  0  0  0
 38 32  1  0  0  0
 33 34  4  0  0  0
 33 38  4  0  0  0
 34 35  4  0  0  0
 35 36  4  0  0  0
 36 37  4  0  0  0
 37 38  4  0  0  0
  3 39  1  0  0  0
  3 40  1  0  0  0
  3 41  1  0  0  0
  4 42  1  0  0  0
  5 43  1  0  0  0
  7 44  1  0  0  0
  8 45  1  0  0  0
 13 46  1  0  0  0
 13 47  1  0  0  0
 14 48  1  0  0  0
 15 49  1  0  0  0
 15 50  1  0  0  0
 15 51  1  0  0  0
 16 52  1  0  0  0
 16 53  1  0  0  0
 16 54  1  0  0  0
 17 55  1  0  0  0
 17 56  1  0  0  0
 18 57  1  0  0  0
 19 58  1  0  0  0
 20 59  1  0  0  0
 21 60  1  0  0  0
 25 61  1  0  0  0
 26 62  1  0  0  0
 26 63  1  0  0  0
 28 64  1  0  0  0
 28 65  1  0  0  0
 30 66  1  0  0  0
 30 67  1  0  0  0
 31 68  1  0  0  0
 31 69  1  0  0  0
 32 70  1  0  0  0
 32 71  1  0  0  0
 33 72  1  0  0  0
 34 73  1  0  0  0
 35 74  1  0  0  0
 36 75  1  0  0  0
 37 76  1  0  0  0
M  END
$$$$
