5avf_ligand
  -I-interpret- 

 15 14  0  0  0  0  0  0  0  0999 V2000
   24.2800  141.5860  146.1420 C   0  0  0  0  0
   23.8320  142.8770  145.4200 C   0  0  0  0  0
   24.0530  140.4160  145.2930 N   0  3  0  0  0
   24.9530  143.4550  144.2830 S   0  0  0  0  0
   24.3980  144.6820  143.6880 O   0  0  0  0  0
   26.2020  143.8080  144.9910 O   0  0  0  0  0
   25.2030  142.4030  143.2950 O   0  0  0  0  0
   23.7009  141.4749  147.0588 H   0  0  0  0  0
   25.3441  141.6582  146.3669 H   0  0  0  0  0
   23.7145  143.6491  146.1803 H   0  0  0  0  0
   22.9140  142.6443  144.8803 H   0  0  0  0  0
   24.3545  139.5757  145.7864 H   0  0  0  0  0
   23.0596  140.3446  145.0731 H   0  0  0  0  0
   24.5873  140.5150  144.4298 H   0  0  0  0  0
   26.5787  143.0183  145.3861 H   0  0  0  0  0
  1  2  1  0  0  0
  1  3  1  0  0  0
  2  4  1  0  0  0
  4  5  2  0  0  0
  4  6  1  0  0  0
  4  7  2  0  0  0
  1  8  1  0  0  0
  1  9  1  0  0  0
  2 10  1  0  0  0
  2 11  1  0  0  0
  3 12  1  0  0  0
  3 13  1  0  0  0
  3 14  1  0  0  0
  6 15  1  0  0  0
M  END
$$$$
