3pjg_ligand
  -I-interpret- 

 59 61  0  0  0  0  0  0  0  0999 V2000
   43.0060   -9.9020   10.8250 C   0  0  0  0  0
   42.0530   -9.7670    9.6100 C   0  0  0  0  0
   41.1340   -8.7100    9.8760 O   0  0  0  0  0
   41.3230  -11.1240    9.3820 C   0  0  0  0  0
   40.5130  -11.0800    8.2310 O   0  0  0  0  0
   42.3540  -12.2340    9.2070 C   0  0  0  0  0
   41.7110  -13.5020    9.0570 O   0  0  0  0  0
   43.2760  -12.2340   10.4350 C   0  0  0  0  0
   43.9230  -10.9510   10.5660 O   0  0  0  0  0
   44.3970  -13.2590   10.3380 C   0  0  0  0  0
   45.1650  -13.3380   11.2670 O   0  0  0  0  0
   44.5850  -14.0520    9.2520 O   0  0  0  0  0
   42.8900   -9.4680   13.4190 P   0  0  0  0  0
   44.4220   -9.2890   13.3860 O   0  0  0  0  0
   42.5110  -10.3940   14.6460 O   0  0  0  0  0
   42.2610  -10.1990   12.0520 O   0  0  0  0  0
   42.0430   -8.0970   13.7330 O   0  0  0  0  0
   42.3990   -6.7550   12.8830 P   0  0  0  0  0
   41.3330   -5.8290   13.2670 O   0  0  0  0  0
   42.3580   -6.9880   11.3110 O   0  0  0  0  0
   43.7800   -6.1200   13.4330 O   0  0  0  0  0
   44.8670   -6.2640   12.5250 C   0  0  0  0  0
   46.0160   -5.2780   12.9240 C   0  0  0  0  0
   45.7680   -3.9810   12.4050 O   0  0  0  0  0
   46.2120   -5.0370   14.4240 C   0  0  0  0  0
   47.5520   -4.6460   14.6070 O   0  0  0  0  0
   45.2870   -3.8980   14.7300 C   0  0  0  0  0
   45.5920   -3.3240   16.0200 O   0  0  0  0  0
   45.5890   -3.0140   13.4870 C   0  0  0  0  0
   44.4930   -2.1200   13.0860 N   0  0  0  0  0
   43.3180   -2.6590   12.5610 C   0  0  0  0  0
   44.6550   -0.7470   13.2210 C   0  0  0  0  0
   45.7130   -0.2850   13.6810 O   0  0  0  0  0
   43.6250    0.1150   12.8310 N   0  0  0  0  0
   42.4480   -0.3940   12.3080 C   0  0  0  0  0
   41.5170    0.3720   11.9560 O   0  0  0  0  0
   42.3000   -1.8420   12.1700 C   0  0  0  0  0
   43.5313   -8.9577   10.9680 H   0  0  0  0  0
   42.6033   -9.5275    8.7001 H   0  0  0  0  0
   41.6187   -7.8924   10.0107 H   0  0  0  0  0
   40.6935  -11.3170   10.2506 H   0  0  0  0  0
   39.8585  -10.3844    8.3281 H   0  0  0  0  0
   42.9395  -12.0567    8.3049 H   0  0  0  0  0
   41.1404  -13.4809    8.2853 H   0  0  0  0  0
   42.6341  -12.4710   11.2835 H   0  0  0  0  0
   43.8989  -13.8740    8.6045 H   0  0  0  0  0
   41.5586  -10.5113   14.6748 H   0  0  0  0  0
   43.0577   -7.5956   11.0603 H   0  0  0  0  0
   44.5282   -6.0365   11.5143 H   0  0  0  0  0
   45.2382   -7.2882   12.5628 H   0  0  0  0  0
   46.8969   -5.7764   12.5194 H   0  0  0  0  0
   46.0091   -5.9009   15.0570 H   0  0  0  0  0
   47.7128   -4.4855   15.5397 H   0  0  0  0  0
   44.2244   -4.1121   14.8449 H   0  0  0  0  0
   44.9895   -2.5977   16.1964 H   0  0  0  0  0
   46.4384   -2.3678   13.7087 H   0  0  0  0  0
   43.2138   -3.7396   12.4631 H   0  0  0  0  0
   43.7412    1.1233   12.9322 H   0  0  0  0  0
   41.3834   -2.2642   11.7580 H   0  0  0  0  0
  1  2  1  0  0  0
  1  9  1  0  0  0
 16  1  1  0  0  0
  2  3  1  0  0  0
  2  4  1  0  0  0
  4  5  1  0  0  0
  4  6  1  0  0  0
  6  7  1  0  0  0
  8  6  1  0  0  0
  9  8  1  0  0  0
  8 10  1  0  0  0
 10 11  2  0  0  0
 10 12  1  0  0  0
 13 14  2  0  0  0
 13 15  1  0  0  0
 13 16  1  0  0  0
 13 17  1  0  0  0
 17 18  1  0  0  0
 18 19  2  0  0  0
 18 20  1  0  0  0
 18 21  1  0  0  0
 21 22  1  0  0  0
 22 23  1  0  0  0
 23 24  1  0  0  0
 23 25  1  0  0  0
 24 29  1  0  0  0
 25 26  1  0  0  0
 25 27  1  0  0  0
 27 28  1  0  0  0
 27 29  1  0  0  0
 29 30  1  0  0  0
 30 31  1  0  0  0
 30 32  1  0  0  0
 31 37  2  0  0  0
 32 33  2  0  0  0
 32 34  1  0  0  0
 34 35  1  0  0  0
 35 36  2  0  0  0
 35 37  1  0  0  0
  1 38  1  0  0  0
  2 39  1  0  0  0
  3 40  1  0  0  0
  4 41  1  0  0  0
  5 42  1  0  0  0
  6 43  1  0  0  0
  7 44  1  0  0  0
  8 45  1  0  0  0
 12 46  1  0  0  0
 15 47  1  0  0  0
 20 48  1  0  0  0
 22 49  1  0  0  0
 22 50  1  0  0  0
 23 51  1  0  0  0
 25 52  1  0  0  0
 26 53  1  0  0  0
 27 54  1  0  0  0
 28 55  1  0  0  0
 29 56  1  0  0  0
 31 57  1  0  0  0
 34 58  1  0  0  0
 37 59  1  0  0  0
M  END
$$$$
