### 
### Created by X-TOOL on Mon Sep 10 21:13:06 2018
### 

@<TRIPOS>MOLECULE
3pjg_ligand
   56    58     1     0     0
SMALL
GAST_HUCK


@<TRIPOS>ATOM
      1 C1'        43.0060   -9.9020   10.8250 C.3       1 UGA         0.2241
      2 C2'        42.0530   -9.7670    9.6100 C.3       1 UGA         0.1394
      3 O2'        41.1340   -8.7100    9.8760 O.3       1 UGA        -0.3837
      4 C3'        41.3230  -11.1240    9.3820 C.3       1 UGA         0.1160
      5 O3'        40.5130  -11.0800    8.2310 O.3       1 UGA        -0.3863
      6 C4'        42.3540  -12.2340    9.2070 C.3       1 UGA         0.1214
      7 O4'        41.7110  -13.5020    9.0570 O.3       1 UGA        -0.3848
      8 C5'        43.2760  -12.2340   10.4350 C.3       1 UGA         0.1424
      9 O5'        43.9230  -10.9510   10.5660 O.3       1 UGA        -0.3240
     10 C6'        44.3970  -13.2590   10.3380 C.2       1 UGA         0.0664
     11 O'P        45.1650  -13.3380   11.2670 O.co2     1 UGA        -0.5662
     12 O'Q        44.5850  -14.0520    9.2520 O.co2     1 UGA        -0.5662
     13 PB         42.8900   -9.4680   13.4190 P.3       1 UGA         0.2997
     14 O1B        44.4220   -9.2890   13.3860 O.co2     1 UGA        -0.6127
     15 O2B        42.5110  -10.3940   14.6460 O.co2     1 UGA        -0.6127
     16 O3B        42.2610  -10.1990   12.0520 O.3       1 UGA        -0.2153
     17 O3A        42.0430   -8.0970   13.7330 O.3       1 UGA        -0.1318
     18 PA         42.3990   -6.7550   12.8830 P.3       1 UGA         0.2972
     19 O1A        41.3330   -5.8290   13.2670 O.co2     1 UGA        -0.6127
     20 O2A        42.3580   -6.9880   11.3110 O.co2     1 UGA        -0.6127
     21 O5D        43.7800   -6.1200   13.4330 O.3       1 UGA        -0.2476
     22 C5D        44.8670   -6.2640   12.5250 C.3       1 UGA         0.1128
     23 C4D        46.0160   -5.2780   12.9240 C.3       1 UGA         0.1189
     24 O4D        45.7680   -3.9810   12.4050 O.3       1 UGA        -0.3363
     25 C3D        46.2120   -5.0370   14.4240 C.3       1 UGA         0.1149
     26 O3D        47.5520   -4.6460   14.6070 O.3       1 UGA        -0.3864
     27 C2D        45.2870   -3.8980   14.7300 C.3       1 UGA         0.1387
     28 O2D        45.5920   -3.3240   16.0200 O.3       1 UGA        -0.3836
     29 C1D        45.5890   -3.0140   13.4870 C.3       1 UGA         0.2059
     30 N1         44.4930   -2.1200   13.0860 N.am      1 UGA        -0.1592
     31 C6         43.3180   -2.6590   12.5610 C.2       1 UGA         0.0591
     32 C2         44.6550   -0.7470   13.2210 C.2       1 UGA         0.3328
     33 O2         45.7130   -0.2850   13.6810 O.2       1 UGA        -0.3815
     34 N3         43.6250    0.1150   12.8310 N.am      1 UGA        -0.1865
     35 C4         42.4480   -0.3940   12.3080 C.2       1 UGA         0.1822
     36 O4         41.5170    0.3720   11.9560 O.2       1 UGA        -0.4124
     37 C5         42.3000   -1.8420   12.1700 C.2       1 UGA         0.0062
     38 H          43.5313   -8.9577   10.9680 H         1 UGA         0.1000
     39 H          42.6033   -9.5275    8.7001 H         1 UGA         0.0675
     40 H          41.6185   -7.8917   10.0072 H         1 UGA         0.2101
     41 H          40.6935  -11.3170   10.2506 H         1 UGA         0.0649
     42 H          40.0766  -11.9273    8.1156 H         1 UGA         0.2100
     43 H          42.9395  -12.0567    8.3049 H         1 UGA         0.0665
     44 H          41.1847  -13.6870    9.8382 H         1 UGA         0.2102
     45 H          42.6341  -12.4710   11.2835 H         1 UGA         0.0794
     46 H          44.5282   -6.0365   11.5143 H         1 UGA         0.0648
     47 H          45.2382   -7.2882   12.5628 H         1 UGA         0.0648
     48 H          46.8969   -5.7764   12.5194 H         1 UGA         0.0651
     49 H          46.0091   -5.9009   15.0570 H         1 UGA         0.0648
     50 H          47.7128   -4.4855   15.5397 H         1 UGA         0.2100
     51 H          44.2244   -4.1121   14.8449 H         1 UGA         0.0676
     52 H          44.9894   -2.5977   16.1964 H         1 UGA         0.2101
     53 H          46.4384   -2.3678   13.7087 H         1 UGA         0.0997
     54 H          43.2138   -3.7396   12.4631 H         1 UGA         0.1178
     55 H          43.7412    1.1233   12.9322 H         1 UGA         0.2259
     56 H          41.3834   -2.2642   11.7580 H         1 UGA         0.0258
@<TRIPOS>BOND
     1    1    2 1  
     2    1    9 1  
     3   16    1 1  
     4    2    3 1  
     5    2    4 1  
     6    4    5 1  
     7    4    6 1  
     8    6    7 1  
     9    8    6 1  
    10    9    8 1  
    11    8   10 1  
    12   10   11 ar 
    13   10   12 ar 
    14   13   14 ar 
    15   13   15 ar 
    16   13   16 1  
    17   13   17 1  
    18   17   18 1  
    19   18   19 ar 
    20   18   20 ar 
    21   18   21 1  
    22   21   22 1  
    23   22   23 1  
    24   23   24 1  
    25   23   25 1  
    26   24   29 1  
    27   25   26 1  
    28   25   27 1  
    29   27   28 1  
    30   27   29 1  
    31   29   30 1  
    32   30   31 1  
    33   30   32 am 
    34   31   37 2  
    35   32   33 2  
    36   32   34 am 
    37   34   35 am 
    38   35   36 2  
    39   35   37 1  
    40    1   38 1  
    41    2   39 1  
    42    3   40 1  
    43    4   41 1  
    44    5   42 1  
    45    6   43 1  
    46    7   44 1  
    47    8   45 1  
    48   22   46 1  
    49   22   47 1  
    50   23   48 1  
    51   25   49 1  
    52   26   50 1  
    53   27   51 1  
    54   28   52 1  
    55   29   53 1  
    56   31   54 1  
    57   34   55 1  
    58   37   56 1  
@<TRIPOS>SUBSTRUCTURE
     1 UGA         1

