### 
### Created by X-TOOL on Mon Sep 10 21:13:31 2018
### 

@<TRIPOS>MOLECULE
5y7w_ligand
  278   282     1     0     0
SMALL
GAST_HUCK


@<TRIPOS>ATOM
      1 N          46.9730    7.0440  -17.0570 N.4       1 LEU         0.2379
      2 CA         46.7400    6.8230  -18.4820 C.3       1 LEU         0.0652
      3 C          46.3480    8.1250  -19.1740 C.2       1 LEU         0.2267
      4 O          46.0700    9.1340  -18.5160 O.2       1 LEU        -0.3907
      5 CB         45.6550    5.7500  -18.6990 C.3       1 LEU         0.0102
      6 CG         44.1580    6.0890  -18.6000 C.3       1 LEU        -0.0394
      7 CD1        43.3030    4.9020  -18.9750 C.3       1 LEU        -0.0623
      8 CD2        43.7920    6.5090  -17.2310 C.3       1 LEU        -0.0623
      9 N          46.3400    8.0940  -20.5230 N.am      1 LEU        -0.2610
     10 CA         45.9380    9.2010  -21.3810 C.3       1 LEU         0.1315
     11 C          44.4900    9.0340  -21.7820 C.2       1 LEU         0.2064
     12 O          44.0930    7.9350  -22.1860 O.2       1 LEU        -0.3942
     13 CB         46.7950    9.2370  -22.6370 C.3       1 LEU        -0.0101
     14 CG         48.1950    9.7970  -22.4810 C.3       1 LEU        -0.0425
     15 CD1        49.0480    9.3100  -23.6250 C.3       1 LEU        -0.0625
     16 CD2        48.0950   11.2780  -22.4980 C.3       1 LEU        -0.0625
     17 N          43.6710   10.0810  -21.7100 N.am      1 PRO        -0.2498
     18 CA         42.3330    9.9780  -22.2800 C.3       1 PRO         0.1340
     19 C          42.4140    9.8740  -23.7890 C.2       1 PRO         0.2066
     20 O          43.3930   10.3250  -24.4070 O.2       1 PRO        -0.3942
     21 CB         41.6640   11.2970  -21.8400 C.3       1 PRO        -0.0104
     22 CG         42.4910   11.7720  -20.6830 C.3       1 PRO        -0.0281
     23 CD         43.8920   11.3750  -21.0560 C.3       1 PRO         0.0369
     24 N          41.4240    9.2630  -24.4230 N.am      1 PRO        -0.2498
     25 CA         41.4050    9.2660  -25.8820 C.3       1 PRO         0.1338
     26 C          41.2510   10.6840  -26.4030 C.2       1 PRO         0.2042
     27 O          40.4770   11.4810  -25.8720 O.2       1 PRO        -0.3944
     28 CB         40.1880    8.3990  -26.2210 C.3       1 PRO        -0.0104
     29 CG         39.2930    8.5510  -25.0400 C.3       1 PRO        -0.0281
     30 CD         40.2090    8.6490  -23.8520 C.3       1 PRO         0.0369
     31 N          42.0250   10.9990  -27.4320 N.am      1 THR        -0.2613
     32 CA         41.8300   12.2250  -28.1770 C.3       1 THR         0.1565
     33 C          40.6110   12.0740  -29.0820 C.2       1 THR         0.2065
     34 O          40.1040   10.9730  -29.3050 O.2       1 THR        -0.3943
     35 CB         43.0620   12.5390  -29.0320 C.3       1 THR         0.0924
     36 OG1        43.1260   11.5930  -30.1120 O.3       1 THR        -0.3874
     37 CG2        44.3600   12.4360  -28.2170 C.3       1 THR        -0.0346
     38 N          40.1600   13.1980  -29.6380 N.am      1 GLU        -0.2635
     39 CA         39.0280   13.1620  -30.5620 C.3       1 GLU         0.1325
     40 C          39.3180   12.3260  -31.8050 C.2       1 GLU         0.2040
     41 O          38.4000   11.7450  -32.3970 O.2       1 GLU        -0.3944
     42 CB         38.6250   14.5920  -30.9560 C.3       1 GLU        -0.0008
     43 CG         37.1400   14.7220  -31.3210 C.3       1 GLU         0.0044
     44 CD         36.1970   14.5100  -30.1350 C.2       1 GLU         0.0350
     45 OE1        35.3660   13.5850  -30.1710 O.co2     1 GLU        -0.5690
     46 OE2        36.2990   15.2830  -29.1620 O.co2     1 GLU        -0.5690
     47 N          40.5840   12.2740  -32.2260 N.am      1 GLN        -0.2636
     48 CA         40.9330   11.4340  -33.3630 C.3       1 GLN         0.1330
     49 C          40.9310    9.9610  -32.9800 C.2       1 GLN         0.2041
     50 O          40.5420    9.1180  -33.7950 O.2       1 GLN        -0.3944
     51 CB         42.2940   11.8430  -33.9280 C.3       1 GLN         0.0045
     52 CG         42.9880   10.7800  -34.8070 C.3       1 GLN         0.0412
     53 CD         44.4910   10.5590  -34.4940 C.2       1 GLN         0.1737
     54 OE1        44.9040   10.3820  -33.3320 O.2       1 GLN        -0.3973
     55 NE2        45.3060   10.5540  -35.5500 N.am      1 GLN        -0.3009
     56 N          41.3500    9.6330  -31.7480 N.am      1 ASP        -0.2622
     57 CA         41.2760    8.2500  -31.2780 C.3       1 ASP         0.1423
     58 C          39.8490    7.7500  -31.3180 C.2       1 ASP         0.2056
     59 O          39.5750    6.6520  -31.8210 O.2       1 ASP        -0.3943
     60 CB         41.7980    8.1170  -29.8470 C.3       1 ASP         0.0406
     61 CG         43.2900    8.3020  -29.7350 C.2       1 ASP         0.0393
     62 OD1        44.0300    7.8560  -30.6510 O.co2     1 ASP        -0.5688
     63 OD2        43.7180    8.8750  -28.6980 O.co2     1 ASP        -0.5688
     64 N          38.9270    8.5400  -30.7690 N.am      1 LEU        -0.2636
     65 CA         37.5290    8.1680  -30.7330 C.3       1 LEU         0.1309
     66 C          36.9870    8.0730  -32.1430 C.2       1 LEU         0.2010
     67 O          36.3250    7.0970  -32.4800 O.2       1 LEU        -0.3947
     68 CB         36.7160    9.1630  -29.8990 C.3       1 LEU        -0.0101
     69 CG         36.7120    8.6710  -28.4550 C.3       1 LEU        -0.0425
     70 CD1        36.4890    9.8070  -27.4800 C.3       1 LEU        -0.0625
     71 CD2        35.6610    7.5770  -28.2800 C.3       1 LEU        -0.0625
     72 C          37.2010    7.6400  -35.0110 C.2       1 MK8         0.2263
     73 N          37.2880    9.0700  -32.9700 N.am      1 MK8        -0.2743
     74 O          36.3160    6.9670  -35.5960 O.2       1 MK8        -0.3419
     75 CA         36.8510    9.0400  -34.3760 C.3       1 MK8         0.1302
     76 CB         37.5500   10.1250  -35.2300 C.3       1 MK8        -0.0201
     77 CD         38.1870    9.4260  -37.5530 C.3       1 MK8        -0.0531
     78 CE         37.9930    9.7800  -38.9710 C.3       1 MK8        -0.0531
     79 CG         37.1390   10.1320  -36.6940 C.3       1 MK8        -0.0516
     80 CB1        35.3330    9.1730  -34.5050 C.3       1 MK8        -0.0320
     81 N          38.4520    7.2300  -34.8620 N.am      1 LYS        -0.2629
     82 CA         38.9080    5.9620  -35.3920 C.3       1 LYS         0.1311
     83 C          38.1360    4.7710  -34.8110 C.2       1 LYS         0.2041
     84 O          37.8190    3.8160  -35.5220 O.2       1 LYS        -0.3944
     85 CB         40.3940    5.8020  -35.1160 C.3       1 LYS        -0.0121
     86 CG         41.2810    6.5730  -36.0520 C.3       1 LYS        -0.0440
     87 CD         42.3710    5.6730  -36.6030 C.3       1 LYS        -0.0124
     88 CE         43.6670    5.8840  -35.8650 C.3       1 LYS        -0.0354
     89 NZ         44.6540    4.7990  -36.1460 N.4       1 LYS         0.2185
     90 N          37.8210    4.8370  -33.5210 N.am      1 LEU        -0.2637
     91 CA         37.1350    3.7420  -32.8590 C.3       1 LEU         0.1312
     92 C          35.7470    3.5520  -33.4370 C.2       1 LEU         0.2039
     93 O          35.2510    2.4340  -33.5000 O.2       1 LEU        -0.3944
     94 CB         37.0520    3.9870  -31.3580 C.3       1 LEU        -0.0101
     95 CG         38.4070    3.8520  -30.6680 C.3       1 LEU        -0.0425
     96 CD1        38.3630    4.5140  -29.2870 C.3       1 LEU        -0.0625
     97 CD2        38.8670    2.3830  -30.5970 C.3       1 LEU        -0.0625
     98 N          35.1210    4.6410  -33.8730 N.am      1 ALC        -0.2637
     99 CA         33.8230    4.5360  -34.5050 C.3       1 ALC         0.1309
    100 C          33.9360    4.1860  -35.9910 C.2       1 ALC         0.2010
    101 O          33.1690    3.3850  -36.5250 O.2       1 ALC        -0.3947
    102 CB         32.9770    5.8100  -34.4030 C.3       1 ALC        -0.0096
    103 CG         32.9450    6.3170  -32.9770 C.3       1 ALC        -0.0368
    104 CD2        32.1730    7.6340  -32.9400 C.3       1 ALC        -0.0500
    105 CE2        32.0280    8.1410  -31.5290 C.3       1 ALC        -0.0528
    106 CZ         31.3100    7.0920  -30.7120 C.3       1 ALC        -0.0530
    107 CE1        32.1090    5.8010  -30.6650 C.3       1 ALC        -0.0528
    108 CD1        32.3460    5.2570  -32.0610 C.3       1 ALC        -0.0500
    109 C          35.3370    3.0920  -38.5050 C.2       1 MK8         0.2264
    110 N          34.9150    4.7960  -36.6710 N.am      1 MK8        -0.2743
    111 O          34.7540    2.6070  -39.5050 O.2       1 MK8        -0.3419
    112 CA         35.0990    4.5970  -38.1260 C.3       1 MK8         0.1302
    113 CB         36.3830    5.1960  -38.7000 C.3       1 MK8        -0.0201
    114 CD         37.7150    7.0910  -39.4940 C.3       1 MK8        -0.0531
    115 CE         37.7230    8.5390  -39.7500 C.3       1 MK8        -0.0531
    116 CG         36.3120    6.6410  -39.1200 C.3       1 MK8        -0.0516
    117 CB1        33.9010    5.1050  -38.9290 C.3       1 MK8        -0.0320
    118 N          36.1850    2.4040  -37.7490 N.am      1 TYR        -0.2613
    119 CA         36.5760    1.0580  -38.1250 C.3       1 TYR         0.1388
    120 C          35.9500   -0.0190  -37.2200 C.2       1 TYR         0.2012
    121 O          35.2840    0.2830  -36.2190 O.2       1 TYR        -0.3945
    122 CB         38.1040    0.9550  -38.1350 C.3       1 TYR         0.0165
    123 CG         38.7630    1.9220  -39.0940 C.ar      1 TYR        -0.0492
    124 CD1        39.5590    2.9630  -38.6260 C.ar      1 TYR        -0.0685
    125 CD2        38.5950    1.7970  -40.4660 C.ar      1 TYR        -0.0685
    126 CE1        40.1730    3.8620  -39.5100 C.ar      1 TYR        -0.0398
    127 CE2        39.2110    2.6880  -41.3640 C.ar      1 TYR        -0.0398
    128 CZ         39.9900    3.7200  -40.8740 C.ar      1 TYR         0.0805
    129 OH         40.5990    4.6150  -41.7390 O.3       1 TYR        -0.3376
    130 N          36.1540   -1.2790  -37.5960 N.am      1 NH2        -0.2988
    131 H1         47.2303    6.1730  -16.6196 H         1 LEU         0.2015
    132 H2         46.1317    7.3987  -16.6300 H         1 LEU         0.2015
    133 H3         47.7179    7.7126  -16.9380 H         1 LEU         0.2015
    134 H4         47.6768    6.4619  -18.9315 H         1 LEU         0.1098
    135 H5         45.8445    4.9622  -17.9551 H         1 LEU         0.0348
    136 H6         45.8155    5.3464  -19.7096 H         1 LEU         0.0348
    137 H7         43.9446    6.9150  -19.2944 H         1 LEU         0.0299
    138 H8         42.2406    5.1754  -18.8945 H         1 LEU         0.0232
    139 H9         43.5188    4.0651  -18.2946 H         1 LEU         0.0232
    140 H10        43.5268    4.6010  -20.0091 H         1 LEU         0.0232
    141 H11        44.4042    7.3743  -16.9370 H         1 LEU         0.0232
    142 H12        43.9715    5.6786  -16.5323 H         1 LEU         0.0232
    143 H13        42.7280    6.7868  -17.2048 H         1 LEU         0.0232
    144 H14        46.6321    7.2472  -20.9675 H         1 LEU         0.1884
    145 H15        46.0591   10.1459  -20.8311 H         1 LEU         0.0800
    146 H16        46.2699    9.8514  -23.3831 H         1 LEU         0.0315
    147 H17        46.8864    8.2061  -23.0096 H         1 LEU         0.0315
    148 H18        48.6319    9.4640  -21.5280 H         1 LEU         0.0298
    149 H19        50.0666    9.7119  -23.5198 H         1 LEU         0.0232
    150 H20        48.6153    9.6522  -24.5766 H         1 LEU         0.0232
    151 H21        49.0845    8.2107  -23.6131 H         1 LEU         0.0232
    152 H22        47.4698   11.6129  -21.6572 H         1 LEU         0.0232
    153 H23        47.6407   11.6040  -23.4453 H         1 LEU         0.0232
    154 H24        49.1003   11.7145  -22.4040 H         1 LEU         0.0232
    155 H25        41.7931    9.1081  -21.8779 H         1 PRO         0.0802
    156 H26        40.6243   11.1199  -21.5275 H         1 PRO         0.0313
    157 H27        41.6809   12.0328  -22.6575 H         1 PRO         0.0313
    158 H28        42.1794   11.2792  -19.7502 H         1 PRO         0.0287
    159 H29        42.4110   12.8628  -20.5659 H         1 PRO         0.0287
    160 H30        44.3439   12.1016  -21.7473 H         1 PRO         0.0524
    161 H31        44.5295   11.2705  -20.1657 H         1 PRO         0.0524
    162 H32        42.3253    8.8239  -26.2912 H         1 PRO         0.0802
    163 H33        40.4826    7.3477  -26.3548 H         1 PRO         0.0313
    164 H34        39.6935    8.7604  -27.1347 H         1 PRO         0.0313
    165 H35        38.6313    7.6776  -24.9441 H         1 PRO         0.0287
    166 H36        38.6852    9.4631  -25.1330 H         1 PRO         0.0287
    167 H37        39.7740    9.2867  -23.0683 H         1 PRO         0.0524
    168 H38        40.4261    7.6539  -23.4365 H         1 PRO         0.0524
    169 H39        42.7600   10.3759  -27.6997 H         1 THR         0.1884
    170 H40        41.6610   13.0522  -27.4720 H         1 THR         0.0826
    171 H41        42.9697   13.5581  -29.4357 H         1 THR         0.0639
    172 H42        43.1936   10.7140  -29.7580 H         1 THR         0.2101
    173 H43        45.2187   12.6678  -28.8642 H         1 THR         0.0257
    174 H44        44.4644   11.4150  -27.8211 H         1 THR         0.0257
    175 H45        44.3265   13.1514  -27.3821 H         1 THR         0.0257
    176 H46        40.5983   14.0705  -29.4220 H         1 GLU         0.1883
    177 H47        38.1797   12.6984  -30.0372 H         1 GLU         0.0801
    178 H48        39.2267   14.8982  -31.8244 H         1 GLU         0.0330
    179 H49        38.8368   15.2610  -30.1089 H         1 GLU         0.0330
    180 H50        36.9042   13.9727  -32.0910 H         1 GLU         0.0433
    181 H51        36.9683   15.7303  -31.7258 H         1 GLU         0.0433
    182 H52        41.2897   12.8098  -31.7623 H         1 GLN         0.1883
    183 H53        40.1753   11.5846  -34.1460 H         1 GLN         0.0801
    184 H54        42.9588   12.0715  -33.0820 H         1 GLN         0.0337
    185 H55        42.1515   12.7478  -34.5372 H         1 GLN         0.0337
    186 H56        42.8996   11.0937  -35.8576 H         1 GLN         0.0504
    187 H57        42.4644    9.8231  -34.6647 H         1 GLN         0.0504
    188 H58        46.2883   10.4168  -35.4228 H         1 GLN         0.1814
    189 H59        44.9346   10.6874  -36.4688 H         1 GLN         0.1814
    190 H60        41.7166   10.3416  -31.1451 H         1 ASP         0.1884
    191 H61        41.8929    7.6247  -31.9401 H         1 ASP         0.0819
    192 H62        41.5419    7.1143  -29.4741 H         1 ASP         0.0478
    193 H63        41.3046    8.8772  -29.2236 H         1 ASP         0.0478
    194 H64        39.2087    9.4132  -30.3713 H         1 LEU         0.1883
    195 H65        37.4457    7.1776  -30.2617 H         1 LEU         0.0800
    196 H66        35.6851    9.2147  -30.2791 H         1 LEU         0.0315
    197 H67        37.1771   10.1603  -29.9528 H         1 LEU         0.0315
    198 H68        37.6987    8.2341  -28.2415 H         1 LEU         0.0298
    199 H69        36.4925    9.4143  -26.4525 H         1 LEU         0.0232
    200 H70        35.5192   10.2830  -27.6872 H         1 LEU         0.0232
    201 H71        37.2931   10.5492  -27.5916 H         1 LEU         0.0232
    202 H72        35.8502    6.7681  -29.0010 H         1 LEU         0.0232
    203 H73        34.6603    7.9984  -28.4560 H         1 LEU         0.0232
    204 H74        35.7155    7.1764  -27.2570 H         1 LEU         0.0232
    205 H75        37.8171    9.8489  -32.6333 H         1 MK8         0.1839
    206 H76        38.6359    9.9573  -35.1782 H         1 MK8         0.0277
    207 H77        37.3100   11.1088  -34.8004 H         1 MK8         0.0277
    208 H78        39.1919    9.7386  -37.2330 H         1 MK8         0.0265
    209 H79        38.0854    8.3375  -37.4314 H         1 MK8         0.0265
    210 H80        38.9008   10.2670  -39.3568 H         1 MK8         0.0265
    211 H81        37.1396   10.4675  -39.0658 H         1 MK8         0.0265
    212 H82        37.0345   11.1727  -37.0347 H         1 MK8         0.0265
    213 H83        36.1752    9.6127  -36.8009 H         1 MK8         0.0265
    214 H84        35.0516    9.1458  -35.5681 H         1 MK8         0.0242
    215 H85        35.0098   10.1277  -34.0645 H         1 MK8         0.0242
    216 H86        34.8457    8.3411  -33.9754 H         1 MK8         0.0242
    217 H87        39.0992    7.8123  -34.3699 H         1 LYS         0.1889
    218 H88        38.7519    5.9703  -36.4808 H         1 LYS         0.0802
    219 H89        40.6477    4.7350  -35.2009 H         1 LYS         0.0313
    220 H90        40.5933    6.1458  -34.0903 H         1 LYS         0.0313
    221 H91        41.7421    7.4106  -35.5081 H         1 LYS         0.0269
    222 H92        40.6777    6.9641  -36.8845 H         1 LYS         0.0269
    223 H93        42.5221    5.9013  -37.6684 H         1 LYS         0.0317
    224 H94        42.0610    4.6233  -36.4932 H         1 LYS         0.0317
    225 H95        43.4611    5.9056  -34.7847 H         1 LYS         0.0813
    226 H96        44.0996    6.8466  -36.1751 H         1 LYS         0.0813
    227 H97        45.5042    4.9775  -35.6347 H         1 LYS         0.1994
    228 H98        44.8546    4.7747  -37.1335 H         1 LYS         0.1994
    229 H99        44.2695    3.9124  -35.8594 H         1 LYS         0.1994
    230 H100       38.0607    5.6548  -32.9978 H         1 LEU         0.1883
    231 H101       37.7110    2.8204  -33.0288 H         1 LEU         0.0800
    232 H102       36.3581    3.2551  -30.9189 H         1 LEU         0.0315
    233 H103       36.6689    5.0039  -31.1871 H         1 LEU         0.0315
    234 H104       39.1462    4.3964  -31.2739 H         1 LEU         0.0298
    235 H105       39.3437    4.4107  -28.7995 H         1 LEU         0.0232
    236 H106       37.5939    4.0256  -28.6706 H         1 LEU         0.0232
    237 H107       38.1200    5.5809  -29.3994 H         1 LEU         0.0232
    238 H108       38.8819    1.9541  -31.6098 H         1 LEU         0.0232
    239 H109       38.1705    1.8107  -29.9667 H         1 LEU         0.0232
    240 H110       39.8770    2.3355  -30.1639 H         1 LEU         0.0232
    241 H111       35.5495    5.5379  -33.7636 H         1 ALC         0.1883
    242 H112       33.2803    3.7252  -33.9969 H         1 ALC         0.0800
    243 H113       31.9505    5.5893  -34.7310 H         1 ALC         0.0315
    244 H114       33.4109    6.5848  -35.0522 H         1 ALC         0.0315
    245 H115       33.9757    6.5114  -32.6455 H         1 ALC         0.0303
    246 H116       31.1725    7.4756  -33.3689 H         1 ALC         0.0268
    247 H117       32.7134    8.3836  -33.5368 H         1 ALC         0.0268
    248 H118       31.4455    9.0741  -31.5284 H         1 ALC         0.0265
    249 H119       33.0227    8.3293  -31.0987 H         1 ALC         0.0265
    250 H120       30.3283    6.8916  -31.1659 H         1 ALC         0.0265
    251 H121       31.1706    7.4667  -29.6872 H         1 ALC         0.0265
    252 H122       31.5531    5.0551  -30.0780 H         1 ALC         0.0265
    253 H123       33.0796    5.9959  -30.1854 H         1 ALC         0.0265
    254 H124       33.0382    4.4043  -31.9999 H         1 ALC         0.0268
    255 H125       31.3867    4.9212  -32.4817 H         1 ALC         0.0268
    256 H126       35.5402    5.4038  -36.1814 H         1 MK8         0.1839
    257 H127       36.6647    4.6033  -39.5828 H         1 MK8         0.0277
    258 H128       37.1669    5.1073  -37.9334 H         1 MK8         0.0277
    259 H129       38.4040    6.8626  -38.6675 H         1 MK8         0.0265
    260 H130       38.0398    6.5583  -40.4000 H         1 MK8         0.0265
    261 H131       38.4384    8.6250  -40.5811 H         1 MK8         0.0265
    262 H132       36.7036    8.7154  -40.1239 H         1 MK8         0.0265
    263 H133       35.9329    7.2532  -38.2885 H         1 MK8         0.0265
    264 H134       35.6430    6.7453  -39.9869 H         1 MK8         0.0265
    265 H135       34.0807    4.9374  -40.0012 H         1 MK8         0.0242
    266 H136       33.7650    6.1807  -38.7438 H         1 MK8         0.0242
    267 H137       32.9956    4.5623  -38.6198 H         1 MK8         0.0242
    268 H138       36.5559    2.8156  -36.9165 H         1 TYR         0.1891
    269 H139       36.2156    0.8776  -39.1485 H         1 TYR         0.0823
    270 H140       38.3830   -0.0688  -38.4249 H         1 TYR         0.0453
    271 H141       38.4745    1.1627  -37.1203 H         1 TYR         0.0453
    272 H142       39.7072    3.0812  -37.5587 H         1 TYR         0.0530
    273 H143       37.9761    0.9960  -40.8539 H         1 TYR         0.0530
    274 H144       40.7896    4.6664  -39.1255 H         1 TYR         0.0525
    275 H145       39.0758    2.5662  -42.4326 H         1 TYR         0.0525
    276 H146       41.0914    5.2537  -41.2370 H         1 TYR         0.2458
    277 H147       35.7759   -2.0298  -37.0545 H         1 NH2         0.1815
    278 H148       36.6854   -1.4751  -38.4201 H         1 NH2         0.1815
@<TRIPOS>BOND
     1    2    1 1  
     2    3    2 1  
     3    2    5 1  
     4    3    4 2  
     5    9    3 am 
     6    5    6 1  
     7    6    7 1  
     8    6    8 1  
     9   10    9 1  
    10   11   10 1  
    11   10   13 1  
    12   11   12 2  
    13   17   11 am 
    14   13   14 1  
    15   14   15 1  
    16   14   16 1  
    17   18   17 1  
    18   17   23 1  
    19   19   18 1  
    20   18   21 1  
    21   19   20 2  
    22   24   19 am 
    23   21   22 1  
    24   22   23 1  
    25   25   24 1  
    26   24   30 1  
    27   26   25 1  
    28   25   28 1  
    29   26   27 2  
    30   31   26 am 
    31   28   29 1  
    32   29   30 1  
    33   32   31 1  
    34   33   32 1  
    35   32   35 1  
    36   33   34 2  
    37   38   33 am 
    38   35   36 1  
    39   35   37 1  
    40   39   38 1  
    41   40   39 1  
    42   39   42 1  
    43   40   41 2  
    44   47   40 am 
    45   42   43 1  
    46   43   44 1  
    47   44   45 ar 
    48   44   46 ar 
    49   48   47 1  
    50   49   48 1  
    51   48   51 1  
    52   49   50 2  
    53   56   49 am 
    54   51   52 1  
    55   52   53 1  
    56   53   54 2  
    57   53   55 am 
    58   57   56 1  
    59   58   57 1  
    60   57   60 1  
    61   58   59 2  
    62   64   58 am 
    63   60   61 1  
    64   61   62 ar 
    65   61   63 ar 
    66   65   64 1  
    67   66   65 1  
    68   65   68 1  
    69   66   67 2  
    70   73   66 am 
    71   68   69 1  
    72   69   70 1  
    73   69   71 1  
    74   72   74 2  
    75   72   75 1  
    76   81   72 am 
    77   75   73 1  
    78   75   76 1  
    79   75   80 1  
    80   76   79 1  
    81   77   78 1  
    82   79   77 1  
    83   78  115 1  
    84   82   81 1  
    85   83   82 1  
    86   82   85 1  
    87   83   84 2  
    88   90   83 am 
    89   85   86 1  
    90   86   87 1  
    91   87   88 1  
    92   88   89 1  
    93   91   90 1  
    94   92   91 1  
    95   91   94 1  
    96   92   93 2  
    97   98   92 am 
    98   94   95 1  
    99   95   96 1  
   100   95   97 1  
   101   99   98 1  
   102  100   99 1  
   103   99  102 1  
   104  100  101 2  
   105  110  100 am 
   106  102  103 1  
   107  103  104 1  
   108  103  108 1  
   109  104  105 1  
   110  105  106 1  
   111  107  106 1  
   112  108  107 1  
   113  109  111 2  
   114  112  109 1  
   115  109  118 am 
   116  110  112 1  
   117  112  113 1  
   118  112  117 1  
   119  113  116 1  
   120  115  114 1  
   121  114  116 1  
   122  118  119 1  
   123  119  120 1  
   124  119  122 1  
   125  120  121 2  
   126  120  130 am 
   127  122  123 1  
   128  123  124 ar 
   129  123  125 ar 
   130  124  126 ar 
   131  125  127 ar 
   132  126  128 ar 
   133  127  128 ar 
   134  128  129 1  
   135    1  131 1  
   136    1  132 1  
   137    1  133 1  
   138    2  134 1  
   139    5  135 1  
   140    5  136 1  
   141    6  137 1  
   142    7  138 1  
   143    7  139 1  
   144    7  140 1  
   145    8  141 1  
   146    8  142 1  
   147    8  143 1  
   148    9  144 1  
   149   10  145 1  
   150   13  146 1  
   151   13  147 1  
   152   14  148 1  
   153   15  149 1  
   154   15  150 1  
   155   15  151 1  
   156   16  152 1  
   157   16  153 1  
   158   16  154 1  
   159   18  155 1  
   160   21  156 1  
   161   21  157 1  
   162   22  158 1  
   163   22  159 1  
   164   23  160 1  
   165   23  161 1  
   166   25  162 1  
   167   28  163 1  
   168   28  164 1  
   169   29  165 1  
   170   29  166 1  
   171   30  167 1  
   172   30  168 1  
   173   31  169 1  
   174   32  170 1  
   175   35  171 1  
   176   36  172 1  
   177   37  173 1  
   178   37  174 1  
   179   37  175 1  
   180   38  176 1  
   181   39  177 1  
   182   42  178 1  
   183   42  179 1  
   184   43  180 1  
   185   43  181 1  
   186   47  182 1  
   187   48  183 1  
   188   51  184 1  
   189   51  185 1  
   190   52  186 1  
   191   52  187 1  
   192   55  188 1  
   193   55  189 1  
   194   56  190 1  
   195   57  191 1  
   196   60  192 1  
   197   60  193 1  
   198   64  194 1  
   199   65  195 1  
   200   68  196 1  
   201   68  197 1  
   202   69  198 1  
   203   70  199 1  
   204   70  200 1  
   205   70  201 1  
   206   71  202 1  
   207   71  203 1  
   208   71  204 1  
   209   73  205 1  
   210   76  206 1  
   211   76  207 1  
   212   77  208 1  
   213   77  209 1  
   214   78  210 1  
   215   78  211 1  
   216   79  212 1  
   217   79  213 1  
   218   80  214 1  
   219   80  215 1  
   220   80  216 1  
   221   81  217 1  
   222   82  218 1  
   223   85  219 1  
   224   85  220 1  
   225   86  221 1  
   226   86  222 1  
   227   87  223 1  
   228   87  224 1  
   229   88  225 1  
   230   88  226 1  
   231   89  227 1  
   232   89  228 1  
   233   89  229 1  
   234   90  230 1  
   235   91  231 1  
   236   94  232 1  
   237   94  233 1  
   238   95  234 1  
   239   96  235 1  
   240   96  236 1  
   241   96  237 1  
   242   97  238 1  
   243   97  239 1  
   244   97  240 1  
   245   98  241 1  
   246   99  242 1  
   247  102  243 1  
   248  102  244 1  
   249  103  245 1  
   250  104  246 1  
   251  104  247 1  
   252  105  248 1  
   253  105  249 1  
   254  106  250 1  
   255  106  251 1  
   256  107  252 1  
   257  107  253 1  
   258  108  254 1  
   259  108  255 1  
   260  110  256 1  
   261  113  257 1  
   262  113  258 1  
   263  114  259 1  
   264  114  260 1  
   265  115  261 1  
   266  115  262 1  
   267  116  263 1  
   268  116  264 1  
   269  117  265 1  
   270  117  266 1  
   271  117  267 1  
   272  118  268 1  
   273  119  269 1  
   274  122  270 1  
   275  122  271 1  
   276  124  272 1  
   277  125  273 1  
   278  126  274 1  
   279  127  275 1  
   280  129  276 1  
   281  130  277 1  
   282  130  278 1  
@<TRIPOS>SUBSTRUCTURE
     1 LEU         1

