5y7w_ligand
  -I-interpret- 

280284  0  0  0  0  0  0  0  0999 V2000
   46.9730    7.0440  -17.0570 N   0  3  0  0  0
   46.7400    6.8230  -18.4820 C   0  0  0  0  0
   46.3480    8.1250  -19.1740 C   0  0  0  0  0
   46.0700    9.1340  -18.5160 O   0  0  0  0  0
   45.6550    5.7500  -18.6990 C   0  0  0  0  0
   44.1580    6.0890  -18.6000 C   0  0  0  0  0
   43.3030    4.9020  -18.9750 C   0  0  0  0  0
   43.7920    6.5090  -17.2310 C   0  0  0  0  0
   46.3400    8.0940  -20.5230 N   0  0  0  0  0
   45.9380    9.2010  -21.3810 C   0  0  0  0  0
   44.4900    9.0340  -21.7820 C   0  0  0  0  0
   44.0930    7.9350  -22.1860 O   0  0  0  0  0
   46.7950    9.2370  -22.6370 C   0  0  0  0  0
   48.1950    9.7970  -22.4810 C   0  0  0  0  0
   49.0480    9.3100  -23.6250 C   0  0  0  0  0
   48.0950   11.2780  -22.4980 C   0  0  0  0  0
   43.6710   10.0810  -21.7100 N   0  0  0  0  0
   42.3330    9.9780  -22.2800 C   0  0  0  0  0
   42.4140    9.8740  -23.7890 C   0  0  0  0  0
   43.3930   10.3250  -24.4070 O   0  0  0  0  0
   41.6640   11.2970  -21.8400 C   0  0  0  0  0
   42.4910   11.7720  -20.6830 C   0  0  0  0  0
   43.8920   11.3750  -21.0560 C   0  0  0  0  0
   41.4240    9.2630  -24.4230 N   0  0  0  0  0
   41.4050    9.2660  -25.8820 C   0  0  0  0  0
   41.2510   10.6840  -26.4030 C   0  0  0  0  0
   40.4770   11.4810  -25.8720 O   0  0  0  0  0
   40.1880    8.3990  -26.2210 C   0  0  0  0  0
   39.2930    8.5510  -25.0400 C   0  0  0  0  0
   40.2090    8.6490  -23.8520 C   0  0  0  0  0
   42.0250   10.9990  -27.4320 N   0  0  0  0  0
   41.8300   12.2250  -28.1770 C   0  0  0  0  0
   40.6110   12.0740  -29.0820 C   0  0  0  0  0
   40.1040   10.9730  -29.3050 O   0  0  0  0  0
   43.0620   12.5390  -29.0320 C   0  0  0  0  0
   43.1260   11.5930  -30.1120 O   0  0  0  0  0
   44.3600   12.4360  -28.2170 C   0  0  0  0  0
   40.1600   13.1980  -29.6380 N   0  0  0  0  0
   39.0280   13.1620  -30.5620 C   0  0  0  0  0
   39.3180   12.3260  -31.8050 C   0  0  0  0  0
   38.4000   11.7450  -32.3970 O   0  0  0  0  0
   38.6250   14.5920  -30.9560 C   0  0  0  0  0
   37.1400   14.7220  -31.3210 C   0  0  0  0  0
   36.1970   14.5100  -30.1350 C   0  0  0  0  0
   35.3660   13.5850  -30.1710 O   0  0  0  0  0
   36.2990   15.2830  -29.1620 O   0  0  0  0  0
   40.5840   12.2740  -32.2260 N   0  0  0  0  0
   40.9330   11.4340  -33.3630 C   0  0  0  0  0
   40.9310    9.9610  -32.9800 C   0  0  0  0  0
   40.5420    9.1180  -33.7950 O   0  0  0  0  0
   42.2940   11.8430  -33.9280 C   0  0  0  0  0
   42.9880   10.7800  -34.8070 C   0  0  0  0  0
   44.4910   10.5590  -34.4940 C   0  0  0  0  0
   44.9040   10.3820  -33.3320 O   0  0  0  0  0
   45.3060   10.5540  -35.5500 N   0  0  0  0  0
   41.3500    9.6330  -31.7480 N   0  0  0  0  0
   41.2760    8.2500  -31.2780 C   0  0  0  0  0
   39.8490    7.7500  -31.3180 C   0  0  0  0  0
   39.5750    6.6520  -31.8210 O   0  0  0  0  0
   41.7980    8.1170  -29.8470 C   0  0  0  0  0
   43.2900    8.3020  -29.7350 C   0  0  0  0  0
   44.0300    7.8560  -30.6510 O   0  0  0  0  0
   43.7180    8.8750  -28.6980 O   0  0  0  0  0
   38.9270    8.5400  -30.7690 N   0  0  0  0  0
   37.5290    8.1680  -30.7330 C   0  0  0  0  0
   36.9870    8.0730  -32.1430 C   0  0  0  0  0
   36.3250    7.0970  -32.4800 O   0  0  0  0  0
   36.7160    9.1630  -29.8990 C   0  0  0  0  0
   36.7120    8.6710  -28.4550 C   0  0  0  0  0
   36.4890    9.8070  -27.4800 C   0  0  0  0  0
   35.6610    7.5770  -28.2800 C   0  0  0  0  0
   37.2010    7.6400  -35.0110 C   0  0  0  0  0
   37.2880    9.0700  -32.9700 N   0  0  0  0  0
   36.3160    6.9670  -35.5960 O   0  0  0  0  0
   36.8510    9.0400  -34.3760 C   0  0  0  0  0
   37.5500   10.1250  -35.2300 C   0  0  0  0  0
   38.1870    9.4260  -37.5530 C   0  0  0  0  0
   37.9930    9.7800  -38.9710 C   0  0  0  0  0
   37.1390   10.1320  -36.6940 C   0  0  0  0  0
   35.3330    9.1730  -34.5050 C   0  0  0  0  0
   38.4520    7.2300  -34.8620 N   0  0  0  0  0
   38.9080    5.9620  -35.3920 C   0  0  0  0  0
   38.1360    4.7710  -34.8110 C   0  0  0  0  0
   37.8190    3.8160  -35.5220 O   0  0  0  0  0
   40.3940    5.8020  -35.1160 C   0  0  0  0  0
   41.2810    6.5730  -36.0520 C   0  0  0  0  0
   42.3710    5.6730  -36.6030 C   0  0  0  0  0
   43.6670    5.8840  -35.8650 C   0  0  0  0  0
   44.6540    4.7990  -36.1460 N   0  3  0  0  0
   37.8210    4.8370  -33.5210 N   0  0  0  0  0
   37.1350    3.7420  -32.8590 C   0  0  0  0  0
   35.7470    3.5520  -33.4370 C   0  0  0  0  0
   35.2510    2.4340  -33.5000 O   0  0  0  0  0
   37.0520    3.9870  -31.3580 C   0  0  0  0  0
   38.4070    3.8520  -30.6680 C   0  0  0  0  0
   38.3630    4.5140  -29.2870 C   0  0  0  0  0
   38.8670    2.3830  -30.5970 C   0  0  0  0  0
   35.1210    4.6410  -33.8730 N   0  0  0  0  0
   33.8230    4.5360  -34.5050 C   0  0  0  0  0
   33.9360    4.1860  -35.9910 C   0  0  0  0  0
   33.1690    3.3850  -36.5250 O   0  0  0  0  0
   32.9770    5.8100  -34.4030 C   0  0  0  0  0
   32.9450    6.3170  -32.9770 C   0  0  0  0  0
   32.1730    7.6340  -32.9400 C   0  0  0  0  0
   32.0280    8.1410  -31.5290 C   0  0  0  0  0
   31.3100    7.0920  -30.7120 C   0  0  0  0  0
   32.1090    5.8010  -30.6650 C   0  0  0  0  0
   32.3460    5.2570  -32.0610 C   0  0  0  0  0
   35.3370    3.0920  -38.5050 C   0  0  0  0  0
   34.9150    4.7960  -36.6710 N   0  0  0  0  0
   34.7540    2.6070  -39.5050 O   0  0  0  0  0
   35.0990    4.5970  -38.1260 C   0  0  0  0  0
   36.3830    5.1960  -38.7000 C   0  0  0  0  0
   37.7150    7.0910  -39.4940 C   0  0  0  0  0
   37.7230    8.5390  -39.7500 C   0  0  0  0  0
   36.3120    6.6410  -39.1200 C   0  0  0  0  0
   33.9010    5.1050  -38.9290 C   0  0  0  0  0
   36.1850    2.4040  -37.7490 N   0  0  0  0  0
   36.5760    1.0580  -38.1250 C   0  0  0  0  0
   35.9500   -0.0190  -37.2200 C   0  0  0  0  0
   35.2840    0.2830  -36.2190 O   0  0  0  0  0
   38.1040    0.9550  -38.1350 C   0  0  0  0  0
   38.7630    1.9220  -39.0940 C   0  0  0  0  0
   39.5590    2.9630  -38.6260 C   0  0  0  0  0
   38.5950    1.7970  -40.4660 C   0  0  0  0  0
   40.1730    3.8620  -39.5100 C   0  0  0  0  0
   39.2110    2.6880  -41.3640 C   0  0  0  0  0
   39.9900    3.7200  -40.8740 C   0  0  0  0  0
   40.5990    4.6150  -41.7390 O   0  0  0  0  0
   36.1540   -1.2790  -37.5960 N   0  0  0  0  0
   47.6932    7.7564  -16.9379 H   0  0  0  0  0
   46.1077    7.3567  -16.6167 H   0  0  0  0  0
   47.2802    6.1727  -16.6248 H   0  0  0  0  0
   47.6697    6.4651  -18.9242 H   0  0  0  0  0
   45.8172    5.0471  -17.8819 H   0  0  0  0  0
   45.7864    5.4539  -19.7397 H   0  0  0  0  0
   43.9771    6.9082  -19.2959 H   0  0  0  0  0
   43.4844    4.0887  -18.2723 H   0  0  0  0  0
   42.2516    5.1873  -18.9389 H   0  0  0  0  0
   43.5580    4.5763  -19.9834 H   0  0  0  0  0
   42.7375    6.7839  -17.2064 H   0  0  0  0  0
   43.9703    5.6853  -16.5397 H   0  0  0  0  0
   44.3992    7.3664  -16.9408 H   0  0  0  0  0
   46.6379    7.2303  -20.9764 H   0  0  0  0  0
   46.0683   10.1317  -20.8288 H   0  0  0  0  0
   46.2809    9.8969  -23.3357 H   0  0  0  0  0
   46.9166    8.2002  -22.9506 H   0  0  0  0  0
   48.6503    9.4701  -21.5461 H   0  0  0  0  0
   49.0834    8.2207  -23.6121 H   0  0  0  0  0
   48.6182    9.6497  -24.5673 H   0  0  0  0  0
   50.0569    9.7088  -23.5197 H   0  0  0  0  0
   47.6609   11.6007  -23.4443 H   0  0  0  0  0
   47.4610   11.6075  -21.6748 H   0  0  0  0  0
   49.0899   11.7094  -22.3873 H   0  0  0  0  0
   41.7807    9.0977  -21.9511 H   0  0  0  0  0
   40.6199   11.1520  -21.5627 H   0  0  0  0  0
   41.6343   12.0284  -22.6476 H   0  0  0  0  0
   42.1730   11.3323  -19.7377 H   0  0  0  0  0
   42.3942   12.8449  -20.5168 H   0  0  0  0  0
   44.3947   12.1031  -21.6926 H   0  0  0  0  0
   44.5694   11.3208  -20.2038 H   0  0  0  0  0
   42.3212    8.8862  -26.3341 H   0  0  0  0  0
   40.4603    7.3589  -26.4004 H   0  0  0  0  0
   39.7049    8.7111  -27.1469 H   0  0  0  0  0
   38.6074    7.7087  -24.9474 H   0  0  0  0  0
   38.6595    9.4335  -25.1298 H   0  0  0  0  0
   39.7831    9.2326  -23.0358 H   0  0  0  0  0
   40.4019    7.6831  -23.3852 H   0  0  0  0  0
   42.7747   10.3635  -27.7050 H   0  0  0  0  0
   41.6756   13.0433  -27.4738 H   0  0  0  0  0
   42.9682   13.5600  -29.4020 H   0  0  0  0  0
   43.8952   11.7805  -30.6550 H   0  0  0  0  0
   44.3255   13.1453  -27.3901 H   0  0  0  0  0
   44.4622   11.4240  -27.8253 H   0  0  0  0  0
   45.2101   12.6659  -28.8594 H   0  0  0  0  0
   40.6070   14.0880  -29.4176 H   0  0  0  0  0
   38.1984   12.6812  -30.0436 H   0  0  0  0  0
   39.2069   14.8691  -31.8350 H   0  0  0  0  0
   38.8120   15.2366  -30.0972 H   0  0  0  0  0
   36.9160   13.9513  -32.0585 H   0  0  0  0  0
   36.9811   15.7361  -31.6877 H   0  0  0  0  0
   36.9955   15.9211  -29.3333 H   0  0  0  0  0
   41.3038   12.8205  -31.7531 H   0  0  0  0  0
   40.1773   11.5778  -34.1352 H   0  0  0  0  0
   42.9477   12.0174  -33.0734 H   0  0  0  0  0
   42.1204   12.7105  -34.5648 H   0  0  0  0  0
   42.9273   11.1318  -35.8369 H   0  0  0  0  0
   42.4824    9.8331  -34.6176 H   0  0  0  0  0
   46.3063   10.4014  -35.4215 H   0  0  0  0  0
   44.9289   10.7028  -36.4860 H   0  0  0  0  0
   41.7240   10.3557  -31.1330 H   0  0  0  0  0
   41.8997    7.6527  -31.9431 H   0  0  0  0  0
   41.5651    7.1088  -29.5044 H   0  0  0  0  0
   41.3243    8.8966  -29.2504 H   0  0  0  0  0
   42.9758    9.1286  -28.1445 H   0  0  0  0  0
   39.2143    9.4307  -30.3633 H   0  0  0  0  0
   37.4396    7.1918  -30.2564 H   0  0  0  0  0
   35.6962    9.2289  -30.2782 H   0  0  0  0  0
   37.1601   10.1567  -29.9581 H   0  0  0  0  0
   37.6931    8.2509  -28.2338 H   0  0  0  0  0
   37.2864   10.5417  -27.5916 H   0  0  0  0  0
   35.5279   10.2779  -27.6864 H   0  0  0  0  0
   36.4927    9.4167  -26.4623 H   0  0  0  0  0
   34.6775    7.9771  -28.5263 H   0  0  0  0  0
   35.8921    6.7435  -28.9433 H   0  0  0  0  0
   35.6659    7.2323  -27.2459 H   0  0  0  0  0
   37.8277    9.8645  -32.6266 H   0  0  0  0  0
   38.6196    9.9174  -35.1987 H   0  0  0  0  0
   37.2673   11.0918  -34.8134 H   0  0  0  0  0
   39.1820    9.7391  -37.2367 H   0  0  0  0  0
   38.0830    8.3475  -37.4337 H   0  0  0  0  0
   38.8905   10.2657  -39.3540 H   0  0  0  0  0
   37.1496   10.4639  -39.0664 H   0  0  0  0  0
   37.0469   11.1651  -37.0290 H   0  0  0  0  0
   36.1889    9.6075  -36.7956 H   0  0  0  0  0
   35.0539    9.1298  -35.5578 H   0  0  0  0  0
   34.8510    8.3572  -33.9663 H   0  0  0  0  0
   35.0159   10.1265  -34.0826 H   0  0  0  0  0
   39.1121    7.8239  -34.3601 H   0  0  0  0  0
   38.7232    5.9691  -36.4662 H   0  0  0  0  0
   40.6328    4.7461  -35.2434 H   0  0  0  0  0
   40.5774    6.1838  -34.1117 H   0  0  0  0  0
   41.7410    7.3982  -35.5084 H   0  0  0  0  0
   40.6813    6.9538  -36.8788 H   0  0  0  0  0
   42.5241    5.9121  -37.6554 H   0  0  0  0  0
   42.0631    4.6346  -36.4806 H   0  0  0  0  0
   43.4545    5.8829  -34.7959 H   0  0  0  0  0
   44.0970    6.8297  -36.1949 H   0  0  0  0  0
   45.5138    4.9807  -35.6282 H   0  0  0  0  0
   44.2638    3.9025  -35.8556 H   0  0  0  0  0
   44.8562    4.7754  -37.1455 H   0  0  0  0  0
   38.0655    5.6712  -32.9873 H   0  0  0  0  0
   37.7091    2.8313  -33.0298 H   0  0  0  0  0
   36.3817    3.2405  -30.9319 H   0  0  0  0  0
   36.6954    5.0052  -31.2026 H   0  0  0  0  0
   39.1532    4.3747  -31.2664 H   0  0  0  0  0
   38.1221    5.5710  -29.3997 H   0  0  0  0  0
   37.6006    4.0293  -28.6773 H   0  0  0  0  0
   39.3352    4.4110  -28.8050 H   0  0  0  0  0
   38.1360    1.8014  -30.0353 H   0  0  0  0  0
   38.9541    1.9817  -31.6067 H   0  0  0  0  0
   39.8351    2.3304  -30.0990 H   0  0  0  0  0
   35.5580    5.5559  -33.7615 H   0  0  0  0  0
   33.3280    3.7376  -33.9521 H   0  0  0  0  0
   31.9589    5.5837  -34.7199 H   0  0  0  0  0
   33.4165    6.5773  -35.0404 H   0  0  0  0  0
   33.9541    6.5104  -32.6130 H   0  0  0  0  0
   31.1785    7.4660  -33.3532 H   0  0  0  0  0
   32.7214    8.3752  -33.5214 H   0  0  0  0  0
   31.4575    9.0697  -31.5249 H   0  0  0  0  0
   33.0115    8.3358  -31.1014 H   0  0  0  0  0
   30.3434    6.8894  -31.1732 H   0  0  0  0  0
   31.1853    7.4643  -29.6952 H   0  0  0  0  0
   31.5471    5.0627  -30.0928 H   0  0  0  0  0
   33.0739    6.0038  -30.2003 H   0  0  0  0  0
   33.0448    4.4232  -31.9934 H   0  0  0  0  0
   31.3889    4.9415  -32.4765 H   0  0  0  0  0
   35.5527    5.4160  -36.1716 H   0  0  0  0  0
   36.6078    4.6272  -39.6022 H   0  0  0  0  0
   37.1251    5.1464  -37.9032 H   0  0  0  0  0
   38.3959    6.8668  -38.6729 H   0  0  0  0  0
   38.0342    6.5646  -40.3935 H   0  0  0  0  0
   38.6063    8.5707  -40.3879 H   0  0  0  0  0
   36.6481    8.6727  -39.8718 H   0  0  0  0  0
   35.9256    7.2518  -38.3041 H   0  0  0  0  0
   35.6410    6.7531  -39.9717 H   0  0  0  0  0
   34.1144    5.0144  -39.9941 H   0  0  0  0  0
   33.0212    4.5110  -38.6816 H   0  0  0  0  0
   33.7165    6.1504  -38.6817 H   0  0  0  0  0
   36.5633    2.8238  -36.8999 H   0  0  0  0  0
   36.1924    0.8663  -39.1271 H   0  0  0  0  0
   38.3640   -0.0542  -38.4544 H   0  0  0  0  0
   38.4568    1.1942  -37.1318 H   0  0  0  0  0
   39.7080    3.0818  -37.5528 H   0  0  0  0  0
   37.9727    0.9916  -40.8561 H   0  0  0  0  0
   40.7930    4.6708  -39.1233 H   0  0  0  0  0
   39.0751    2.5656  -42.4385 H   0  0  0  0  0
   40.3774    4.3846  -42.6442 H   0  0  0  0  0
   35.7550   -2.0444  -37.0525 H   0  0  0  0  0
   36.7094   -1.4795  -38.4277 H   0  0  0  0  0
  2  1  1  0  0  0
  3  2  1  0  0  0
  2  5  1  0  0  0
  3  4  2  0  0  0
  9  3  1  0  0  0
  5  6  1  0  0  0
  6  7  1  0  0  0
  6  8  1  0  0  0
 10  9  1  0  0  0
 11 10  1  0  0  0
 10 13  1  0  0  0
 11 12  2  0  0  0
 17 11  1  0  0  0
 13 14  1  0  0  0
 14 15  1  0  0  0
 14 16  1  0  0  0
 18 17  1  0  0  0
 17 23  1  0  0  0
 19 18  1  0  0  0
 18 21  1  0  0  0
 19 20  2  0  0  0
 24 19  1  0  0  0
 21 22  1  0  0  0
 22 23  1  0  0  0
 25 24  1  0  0  0
 24 30  1  0  0  0
 26 25  1  0  0  0
 25 28  1  0  0  0
 26 27  2  0  0  0
 31 26  1  0  0  0
 28 29  1  0  0  0
 29 30  1  0  0  0
 32 31  1  0  0  0
 33 32  1  0  0  0
 32 35  1  0  0  0
 33 34  2  0  0  0
 38 33  1  0  0  0
 35 36  1  0  0  0
 35 37  1  0  0  0
 39 38  1  0  0  0
 40 39  1  0  0  0
 39 42  1  0  0  0
 40 41  2  0  0  0
 47 40  1  0  0  0
 42 43  1  0  0  0
 43 44  1  0  0  0
 44 45  2  0  0  0
 44 46  1  0  0  0
 48 47  1  0  0  0
 49 48  1  0  0  0
 48 51  1  0  0  0
 49 50  2  0  0  0
 56 49  1  0  0  0
 51 52  1  0  0  0
 52 53  1  0  0  0
 53 54  2  0  0  0
 53 55  1  0  0  0
 57 56  1  0  0  0
 58 57  1  0  0  0
 57 60  1  0  0  0
 58 59  2  0  0  0
 64 58  1  0  0  0
 60 61  1  0  0  0
 61 62  2  0  0  0
 61 63  1  0  0  0
 65 64  1  0  0  0
 66 65  1  0  0  0
 65 68  1  0  0  0
 66 67  2  0  0  0
 73 66  1  0  0  0
 68 69  1  0  0  0
 69 70  1  0  0  0
 69 71  1  0  0  0
 72 74  2  0  0  0
 72 75  1  0  0  0
 81 72  1  0  0  0
 75 73  1  0  0  0
 75 76  1  0  0  0
 75 80  1  0  0  0
 76 79  1  0  0  0
 77 78  1  0  0  0
 79 77  1  0  0  0
 78115  1  0  0  0
 82 81  1  0  0  0
 83 82  1  0  0  0
 82 85  1  0  0  0
 83 84  2  0  0  0
 90 83  1  0  0  0
 85 86  1  0  0  0
 86 87  1  0  0  0
 87 88  1  0  0  0
 88 89  1  0  0  0
 91 90  1  0  0  0
 92 91  1  0  0  0
 91 94  1  0  0  0
 92 93  2  0  0  0
 98 92  1  0  0  0
 94 95  1  0  0  0
 95 96  1  0  0  0
 95 97  1  0  0  0
 99 98  1  0  0  0
100 99  1  0  0  0
 99102  1  0  0  0
100101  2  0  0  0
110100  1  0  0  0
102103  1  0  0  0
103104  1  0  0  0
103108  1  0  0  0
104105  1  0  0  0
105106  1  0  0  0
107106  1  0  0  0
108107  1  0  0  0
109111  2  0  0  0
112109  1  0  0  0
109118  1  0  0  0
110112  1  0  0  0
112113  1  0  0  0
112117  1  0  0  0
113116  1  0  0  0
115114  1  0  0  0
114116  1  0  0  0
118119  1  0  0  0
119120  1  0  0  0
119122  1  0  0  0
120121  2  0  0  0
120130  1  0  0  0
122123  1  0  0  0
123124  4  0  0  0
123125  4  0  0  0
124126  4  0  0  0
125127  4  0  0  0
126128  4  0  0  0
127128  4  0  0  0
128129  1  0  0  0
  1131  1  0  0  0
  1132  1  0  0  0
  1133  1  0  0  0
  2134  1  0  0  0
  5135  1  0  0  0
  5136  1  0  0  0
  6137  1  0  0  0
  7138  1  0  0  0
  7139  1  0  0  0
  7140  1  0  0  0
  8141  1  0  0  0
  8142  1  0  0  0
  8143  1  0  0  0
  9144  1  0  0  0
 10145  1  0  0  0
 13146  1  0  0  0
 13147  1  0  0  0
 14148  1  0  0  0
 15149  1  0  0  0
 15150  1  0  0  0
 15151  1  0  0  0
 16152  1  0  0  0
 16153  1  0  0  0
 16154  1  0  0  0
 18155  1  0  0  0
 21156  1  0  0  0
 21157  1  0  0  0
 22158  1  0  0  0
 22159  1  0  0  0
 23160  1  0  0  0
 23161  1  0  0  0
 25162  1  0  0  0
 28163  1  0  0  0
 28164  1  0  0  0
 29165  1  0  0  0
 29166  1  0  0  0
 30167  1  0  0  0
 30168  1  0  0  0
 31169  1  0  0  0
 32170  1  0  0  0
 35171  1  0  0  0
 36172  1  0  0  0
 37173  1  0  0  0
 37174  1  0  0  0
 37175  1  0  0  0
 38176  1  0  0  0
 39177  1  0  0  0
 42178  1  0  0  0
 42179  1  0  0  0
 43180  1  0  0  0
 43181  1  0  0  0
 46182  1  0  0  0
 47183  1  0  0  0
 48184  1  0  0  0
 51185  1  0  0  0
 51186  1  0  0  0
 52187  1  0  0  0
 52188  1  0  0  0
 55189  1  0  0  0
 55190  1  0  0  0
 56191  1  0  0  0
 57192  1  0  0  0
 60193  1  0  0  0
 60194  1  0  0  0
 63195  1  0  0  0
 64196  1  0  0  0
 65197  1  0  0  0
 68198  1  0  0  0
 68199  1  0  0  0
 69200  1  0  0  0
 70201  1  0  0  0
 70202  1  0  0  0
 70203  1  0  0  0
 71204  1  0  0  0
 71205  1  0  0  0
 71206  1  0  0  0
 73207  1  0  0  0
 76208  1  0  0  0
 76209  1  0  0  0
 77210  1  0  0  0
 77211  1  0  0  0
 78212  1  0  0  0
 78213  1  0  0  0
 79214  1  0  0  0
 79215  1  0  0  0
 80216  1  0  0  0
 80217  1  0  0  0
 80218  1  0  0  0
 81219  1  0  0  0
 82220  1  0  0  0
 85221  1  0  0  0
 85222  1  0  0  0
 86223  1  0  0  0
 86224  1  0  0  0
 87225  1  0  0  0
 87226  1  0  0  0
 88227  1  0  0  0
 88228  1  0  0  0
 89229  1  0  0  0
 89230  1  0  0  0
 89231  1  0  0  0
 90232  1  0  0  0
 91233  1  0  0  0
 94234  1  0  0  0
 94235  1  0  0  0
 95236  1  0  0  0
 96237  1  0  0  0
 96238  1  0  0  0
 96239  1  0  0  0
 97240  1  0  0  0
 97241  1  0  0  0
 97242  1  0  0  0
 98243  1  0  0  0
 99244  1  0  0  0
102245  1  0  0  0
102246  1  0  0  0
103247  1  0  0  0
104248  1  0  0  0
104249  1  0  0  0
105250  1  0  0  0
105251  1  0  0  0
106252  1  0  0  0
106253  1  0  0  0
107254  1  0  0  0
107255  1  0  0  0
108256  1  0  0  0
108257  1  0  0  0
110258  1  0  0  0
113259  1  0  0  0
113260  1  0  0  0
114261  1  0  0  0
114262  1  0  0  0
115263  1  0  0  0
115264  1  0  0  0
116265  1  0  0  0
116266  1  0  0  0
117267  1  0  0  0
117268  1  0  0  0
117269  1  0  0  0
118270  1  0  0  0
119271  1  0  0  0
122272  1  0  0  0
122273  1  0  0  0
124274  1  0  0  0
125275  1  0  0  0
126276  1  0  0  0
127277  1  0  0  0
129278  1  0  0  0
130279  1  0  0  0
130280  1  0  0  0
M  END
$$$$
