6h7m_ligand
  -I-interpret- 

 39 39  0  0  0  0  0  0  0  0999 V2000
  -14.8610  -32.6710   17.9800 O   0  0  0  0  0
  -15.9480  -33.5920   17.7780 C   0  0  0  0  0
  -17.0480  -33.0170   16.9130 C   0  0  0  0  0
  -18.1100  -32.1550   17.4790 C   0  0  0  0  0
  -18.1230  -31.8350   18.7980 O   0  0  0  0  0
  -19.1100  -31.6730   16.6270 C   0  0  0  0  0
  -19.1090  -31.9880   15.2660 C   0  0  0  0  0
  -17.0950  -33.3090   15.5520 C   0  0  0  0  0
  -18.1160  -32.8080   14.7240 C   0  0  0  0  0
  -18.0800  -33.1720   13.2770 C   0  0  0  0  0
  -19.2940  -32.9000   12.5660 O   0  0  0  0  0
  -16.9030  -32.4270   12.6550 C   0  0  0  0  0
  -16.8900  -32.5570   11.2080 N   0  3  0  0  0
  -15.6810  -32.3090   10.4270 C   0  0  0  0  0
  -16.0640  -32.4290    8.9420 C   0  0  0  0  0
  -15.1640  -30.8830   10.6980 C   0  0  0  0  0
  -14.6200  -33.3690   10.8050 C   0  0  0  0  0
  -14.1928  -33.0827   18.5328 H   0  0  0  0  0
  -16.3759  -33.8235   18.7534 H   0  0  0  0  0
  -15.5509  -34.4725   17.2728 H   0  0  0  0  0
  -18.8791  -31.2729   18.9823 H   0  0  0  0  0
  -19.9017  -31.0423   17.0314 H   0  0  0  0  0
  -19.8914  -31.5898   14.6199 H   0  0  0  0  0
  -16.3211  -33.9417   15.1174 H   0  0  0  0  0
  -17.9630  -34.2530   13.2001 H   0  0  0  0  0
  -19.1909  -33.1604   11.6477 H   0  0  0  0  0
  -15.9800  -32.8543   13.0468 H   0  0  0  0  0
  -16.9948  -31.3699   12.9043 H   0  0  0  0  0
  -17.5346  -31.8317   10.8937 H   0  0  0  0  0
  -17.0806  -33.5468   11.0519 H   0  0  0  0  0
  -16.4478  -33.4304    8.7469 H   0  0  0  0  0
  -16.8313  -31.6919    8.7053 H   0  0  0  0  0
  -15.1833  -32.2495    8.3253 H   0  0  0  0  0
  -15.9296  -30.1605   10.4153 H   0  0  0  0  0
  -14.9356  -30.7761   11.7584 H   0  0  0  0  0
  -14.2623  -30.7072   10.1113 H   0  0  0  0  0
  -14.3960  -33.2936   11.8691 H   0  0  0  0  0
  -15.0070  -34.3636   10.5835 H   0  0  0  0  0
  -13.7120  -33.1942   10.2279 H   0  0  0  0  0
  1  2  1  0  0  0
  2  3  1  0  0  0
  3  4  4  0  0  0
  3  8  4  0  0  0
  4  5  1  0  0  0
  4  6  4  0  0  0
  6  7  4  0  0  0
  7  9  4  0  0  0
  8  9  4  0  0  0
  9 10  1  0  0  0
 10 11  1  0  0  0
 10 12  1  0  0  0
 12 13  1  0  0  0
 13 14  1  0  0  0
 14 15  1  0  0  0
 14 16  1  0  0  0
 14 17  1  0  0  0
  1 18  1  0  0  0
  2 19  1  0  0  0
  2 20  1  0  0  0
  5 21  1  0  0  0
  6 22  1  0  0  0
  7 23  1  0  0  0
  8 24  1  0  0  0
 10 25  1  0  0  0
 11 26  1  0  0  0
 12 27  1  0  0  0
 12 28  1  0  0  0
 13 29  1  0  0  0
 13 30  1  0  0  0
 15 31  1  0  0  0
 15 32  1  0  0  0
 15 33  1  0  0  0
 16 34  1  0  0  0
 16 35  1  0  0  0
 16 36  1  0  0  0
 17 37  1  0  0  0
 17 38  1  0  0  0
 17 39  1  0  0  0
M  END
$$$$
