5xff_ligand
  -I-interpret- 

 50 53  0  0  0  0  0  0  0  0999 V2000
   71.9480   45.5150  561.5880 C   0  0  0  0  0
   69.1700   47.1120  558.7790 C   0  0  0  0  0
   71.6430   44.2960  562.2010 C   0  0  0  0  0
   69.8140   45.4010  560.3780 C   0  0  0  0  0
   73.2570   45.8750  562.1320 C   0  0  0  0  0
   71.0180   46.0660  560.6710 C   0  0  0  0  0
   70.1590   46.9300  557.6180 C   0  0  0  0  0
   70.4340   43.6250  561.9140 C   0  0  0  0  0
   69.5280   44.1740  561.0110 C   0  0  0  0  0
   67.8820   47.7200  558.2230 C   0  0  0  0  0
   74.1540   47.0950  561.8760 C   0  0  0  0  0
   74.8100   49.1000  560.4630 C   0  0  0  0  0
   73.7180   48.0780  560.7920 C   0  0  0  0  0
   76.2660   51.8490  558.6180 C   0  0  0  0  0
   74.7790   50.0800  559.4490 C   0  0  0  0  0
   70.0750   45.8930  556.6890 C   0  0  0  0  0
   71.1940   47.8460  557.4650 C   0  0  0  0  0
   72.6650   43.9840  563.0150 N   0  0  0  0  0
   73.5970   44.9190  562.9620 N   0  0  0  0  0
   75.9090   50.7450  559.4970 N   0  0  0  0  0
   76.6630   50.2590  560.4810 N   0  0  0  0  0
   71.9830   46.7030  555.5680 N   0  0  0  0  0
   68.8690   45.9180  559.4660 O   0  0  0  0  0
   76.7760   51.9470  556.3270 O   0  0  0  0  0
   76.0620   49.2700  561.0970 C   0  0  0  0  0
   76.8820   51.3190  557.3270 C   0  0  0  0  0
   71.0160   45.8160  555.6740 C   0  0  0  0  0
   72.0950   47.6980  556.4220 C   0  0  0  0  0
   68.7930   44.6520  556.7640 Cl  0  0  0  0  0
   71.3720   49.2080  558.6070 Cl  0  0  0  0  0
   69.6455   47.7672  559.5089 H   0  0  0  0  0
   71.2389   47.0172  560.1868 H   0  0  0  0  0
   70.2099   42.6756  562.4004 H   0  0  0  0  0
   68.5952   43.6541  560.7927 H   0  0  0  0  0
   67.4150   47.0136  557.5368 H   0  0  0  0  0
   67.1992   47.9356  559.0448 H   0  0  0  0  0
   68.1168   48.6427  557.6924 H   0  0  0  0  0
   75.1082   46.6909  561.5380 H   0  0  0  0  0
   74.1477   47.6633  562.8061 H   0  0  0  0  0
   72.8458   48.6201  561.1573 H   0  0  0  0  0
   73.5017   47.5102  559.8870 H   0  0  0  0  0
   76.9916   52.4863  559.1234 H   0  0  0  0  0
   75.3675   52.4171  558.3769 H   0  0  0  0  0
   73.9613   50.2540  558.7496 H   0  0  0  0  0
   77.2139   51.4819  555.6104 H   0  0  0  0  0
   76.4517   48.6916  561.9347 H   0  0  0  0  0
   76.3478   50.3901  557.1274 H   0  0  0  0  0
   77.9538   51.2919  557.5235 H   0  0  0  0  0
   70.9540   45.0045  554.9489 H   0  0  0  0  0
   72.9074   48.4156  556.3076 H   0  0  0  0  0
  1  3  4  0  0  0
  5  1  4  0  0  0
  1  6  4  0  0  0
  2  7  1  0  0  0
  2 10  1  0  0  0
 23  2  1  0  0  0
  3  8  4  0  0  0
  3 18  4  0  0  0
  6  4  4  0  0  0
  4  9  4  0  0  0
  4 23  1  0  0  0
 11  5  1  0  0  0
  5 19  4  0  0  0
  7 16  4  0  0  0
  7 17  4  0  0  0
  8  9  4  0  0  0
 13 11  1  0  0  0
 12 13  1  0  0  0
 15 12  4  0  0  0
 12 25  4  0  0  0
 20 14  1  0  0  0
 14 26  1  0  0  0
 15 20  4  0  0  0
 16 27  4  0  0  0
 16 29  1  0  0  0
 17 28  4  0  0  0
 17 30  1  0  0  0
 18 19  4  0  0  0
 20 21  4  0  0  0
 21 25  4  0  0  0
 27 22  4  0  0  0
 22 28  4  0  0  0
 26 24  1  0  0  0
  2 31  1  0  0  0
  6 32  1  0  0  0
  8 33  1  0  0  0
  9 34  1  0  0  0
 10 35  1  0  0  0
 10 36  1  0  0  0
 10 37  1  0  0  0
 11 38  1  0  0  0
 11 39  1  0  0  0
 13 40  1  0  0  0
 13 41  1  0  0  0
 14 42  1  0  0  0
 14 43  1  0  0  0
 15 44  1  0  0  0
 24 45  1  0  0  0
 25 46  1  0  0  0
 26 47  1  0  0  0
 26 48  1  0  0  0
 27 49  1  0  0  0
 28 50  1  0  0  0
M  END
$$$$
