6pic_ligand
  -I-interpret- 

 25 24  0  0  0  0  0  0  0  0999 V2000
   43.0700  -21.3790   35.4330 C   0  0  0  0  0
   43.9420  -22.6150   35.7360 C   0  0  0  0  0
   43.2960  -23.6030   36.7550 C   0  0  0  0  0
   44.2680  -24.6710   37.3420 C   0  0  0  0  0
   45.1810  -25.4030   36.3010 C   0  0  0  0  0
   46.2440  -26.3470   36.8680 C   0  0  0  0  0
   42.0180  -21.6910   34.3460 N   0  3  0  0  0
   46.1820  -26.8210   38.1590 N   0  0  0  0  0
   47.2010  -26.6810   36.1200 O   0  0  0  0  0
   47.2140  -27.6710   38.5620 O   0  0  0  0  0
   43.7152  -20.5776   35.0731 H   0  0  0  0  0
   42.5511  -21.0869   36.3459 H   0  0  0  0  0
   44.8735  -22.2572   36.1745 H   0  0  0  0  0
   44.0781  -23.1555   34.7993 H   0  0  0  0  0
   42.5184  -24.1460   36.2178 H   0  0  0  0  0
   42.9424  -23.0038   37.5940 H   0  0  0  0  0
   43.6437  -25.4388   37.7989 H   0  0  0  0  0
   44.9366  -24.1406   38.0200 H   0  0  0  0  0
   45.7245  -24.6194   35.7731 H   0  0  0  0  0
   44.5159  -26.0238   35.7007 H   0  0  0  0  0
   41.4580  -20.8574   34.1673 H   0  0  0  0  0
   42.4912  -21.9745   33.4880 H   0  0  0  0  0
   41.4126  -22.4464   34.6673 H   0  0  0  0  0
   45.4216  -26.5646   38.7886 H   0  0  0  0  0
   47.0697  -27.9382   39.4727 H   0  0  0  0  0
  1  2  1  0  0  0
  1  7  1  0  0  0
  2  3  1  0  0  0
  3  4  1  0  0  0
  4  5  1  0  0  0
  5  6  1  0  0  0
  6  8  1  0  0  0
  6  9  2  0  0  0
  8 10  1  0  0  0
  1 11  1  0  0  0
  1 12  1  0  0  0
  2 13  1  0  0  0
  2 14  1  0  0  0
  3 15  1  0  0  0
  3 16  1  0  0  0
  4 17  1  0  0  0
  4 18  1  0  0  0
  5 19  1  0  0  0
  5 20  1  0  0  0
  7 21  1  0  0  0
  7 22  1  0  0  0
  7 23  1  0  0  0
  8 24  1  0  0  0
 10 25  1  0  0  0
M  END
$$$$
