5ehp_ligand
  -I-interpret- 

 43 45  0  0  0  0  0  0  0  0999 V2000
   24.7790   42.3290    1.8970 C   0  0  0  0  0
   26.1040   43.1520    1.8850 C   0  0  0  0  0
   18.6640   39.7880    4.5160 C   0  0  0  0  0
   19.7510   40.1620    5.3310 C   0  0  0  0  0
   21.1060   40.3950    4.7580 C   0  0  0  0  0
   21.2180   41.3940    3.7860 C   0  0  0  0  0
   23.5360   40.9410    3.5230 C   0  0  0  0  0
   22.2760   39.6590    5.0770 C   0  0  0  0  0
   26.3080   43.8520    0.5100 C   0  0  0  0  0
   28.4420   40.6450    3.6830 C   0  0  0  0  0
   24.7310   41.2530    2.9250 N   0  0  0  0  0
   27.2800   42.3040    2.2170 N   0  3  0  0  0
   27.1550   41.4680    3.4420 C   0  0  0  0  0
   25.9620   40.4950    3.2570 C   0  0  0  0  0
   19.5250   40.4790    6.6680 C   0  0  0  0  0
   18.2490   40.3340    7.2240 C   0  0  0  0  0
   17.1660   39.9360    6.4310 C   0  0  0  0  0
   17.3810   39.6410    5.0700 C   0  0  0  0  0
   22.4030   41.6200    3.2000 N   0  0  0  0  0
   23.4410   39.9650    4.4620 N   0  0  0  0  0
   22.3150   38.6560    5.9790 N   0  0  0  0  0
   18.0240   40.7330    8.8990 Cl  0  0  0  0  0
   20.8330   41.0960    7.6450 Cl  0  0  0  0  0
   24.6948   41.8451    0.9240 H   0  0  0  0  0
   23.9724   43.0256    2.1259 H   0  0  0  0  0
   26.0186   43.9177    2.6561 H   0  0  0  0  0
   18.8190   39.6120    3.4515 H   0  0  0  0  0
   20.3467   41.9860    3.5060 H   0  0  0  0  0
   27.1978   44.4801    0.5520 H   0  0  0  0  0
   26.4312   43.0966   -0.2661 H   0  0  0  0  0
   25.4373   44.4678    0.2845 H   0  0  0  0  0
   28.6191   39.9914    2.8289 H   0  0  0  0  0
   29.2873   41.3223    3.8053 H   0  0  0  0  0
   28.3236   40.0433    4.5841 H   0  0  0  0  0
   28.0568   42.9436    2.3842 H   0  0  0  0  0
   27.3954   41.6558    1.4379 H   0  0  0  0  0
   26.9948   42.1205    4.3003 H   0  0  0  0  0
   26.1867   39.8048    2.4438 H   0  0  0  0  0
   25.8032   39.9442    4.1841 H   0  0  0  0  0
   16.1679   39.8553    6.8615 H   0  0  0  0  0
   16.5536   39.2994    4.4481 H   0  0  0  0  0
   21.4678   38.3865    6.4790 H   0  0  0  0  0
   23.1917   38.1674    6.1608 H   0  0  0  0  0
  2  1  1  0  0  0
  1 11  1  0  0  0
  2  9  1  0  0  0
 12  2  1  0  0  0
  4  3  4  0  0  0
  3 18  4  0  0  0
  5  4  1  0  0  0
  4 15  4  0  0  0
  6  5  4  0  0  0
  8  5  4  0  0  0
 19  6  4  0  0  0
 11  7  1  0  0  0
  7 19  4  0  0  0
  7 20  4  0  0  0
 20  8  4  0  0  0
  8 21  1  0  0  0
 13 10  1  0  0  0
 11 14  1  0  0  0
 12 13  1  0  0  0
 13 14  1  0  0  0
 15 16  4  0  0  0
 15 23  1  0  0  0
 16 17  4  0  0  0
 16 22  1  0  0  0
 17 18  4  0  0  0
  1 24  1  0  0  0
  1 25  1  0  0  0
  2 26  1  0  0  0
  3 27  1  0  0  0
  6 28  1  0  0  0
  9 29  1  0  0  0
  9 30  1  0  0  0
  9 31  1  0  0  0
 10 32  1  0  0  0
 10 33  1  0  0  0
 10 34  1  0  0  0
 12 35  1  0  0  0
 12 36  1  0  0  0
 13 37  1  0  0  0
 14 38  1  0  0  0
 14 39  1  0  0  0
 17 40  1  0  0  0
 18 41  1  0  0  0
 21 42  1  0  0  0
 21 43  1  0  0  0
M  END
$$$$
