3r6u_ligand
  -I-interpret- 

 21 20  0  0  0  0  0  0  0  0999 V2000
   -3.4440    3.6660  -20.4170 C   0  0  0  0  0
   -4.3620    4.5340  -21.2550 C   0  0  0  0  0
   -6.4130    5.2040  -22.1710 C   0  0  0  0  0
   -6.1800    2.9190  -21.9720 C   0  0  0  0  0
   -6.4350    4.1190  -19.9690 C   0  0  0  0  0
   -3.6200    3.9490  -18.9860 O   0  0  0  0  0
   -5.8250    4.1710  -21.3080 N   0  3  0  0  0
   -2.4111    3.8788  -20.6927 H   0  0  0  0  0
   -3.6863    2.6192  -20.6004 H   0  0  0  0  0
   -4.0014    4.4326  -22.2786 H   0  0  0  0  0
   -4.3254    5.5218  -20.7956 H   0  0  0  0  0
   -7.4769    5.0052  -22.3003 H   0  0  0  0  0
   -6.2783    6.1818  -21.7086 H   0  0  0  0  0
   -5.9186    5.1888  -23.1423 H   0  0  0  0  0
   -5.7885    2.0802  -21.3964 H   0  0  0  0  0
   -7.2650    2.8400  -22.0396 H   0  0  0  0  0
   -5.7504    2.9059  -22.9737 H   0  0  0  0  0
   -7.5162    4.0215  -20.0672 H   0  0  0  0  0
   -6.0396    3.2618  -19.4241 H   0  0  0  0  0
   -6.1992    5.0353  -19.4279 H   0  0  0  0  0
   -3.0303    3.3894  -18.4754 H   0  0  0  0  0
  1  2  1  0  0  0
  1  6  1  0  0  0
  2  7  1  0  0  0
  7  3  1  0  0  0
  7  4  1  0  0  0
  7  5  1  0  0  0
  1  8  1  0  0  0
  1  9  1  0  0  0
  2 10  1  0  0  0
  2 11  1  0  0  0
  3 12  1  0  0  0
  3 13  1  0  0  0
  3 14  1  0  0  0
  4 15  1  0  0  0
  4 16  1  0  0  0
  4 17  1  0  0  0
  5 18  1  0  0  0
  5 19  1  0  0  0
  5 20  1  0  0  0
  6 21  1  0  0  0
M  END
$$$$
