### 
### Created by X-TOOL on Mon Sep 10 21:13:03 2018
### 

@<TRIPOS>MOLECULE
3kc0_ligand
   26    28     1     0     0
SMALL
GAST_HUCK


@<TRIPOS>ATOM
      1 P1         15.5400   60.3180   15.6290 P.3       1 2T5         0.0898
      2 O2         14.6390   61.2530   14.8730 O.co2     1 2T5        -0.5605
      3 O3         15.1220   60.2950   17.0680 O.co2     1 2T5        -0.5605
      4 O4         15.4370   58.9340   15.0530 O.co2     1 2T5        -0.5605
      5 C5         17.2630   60.8880   15.5070 C.3       1 2T5         0.1396
      6 O6         18.0440   60.0960   16.3590 O.3       1 2T5        -0.3030
      7 C7         19.3810   60.4550   16.3010 C.ar      1 2T5         0.0894
      8 C8         20.2650   59.7650   17.0810 C.ar      1 2T5         0.0059
      9 C9         21.6000   60.0900   17.0510 C.ar      1 2T5        -0.0359
     10 C10        22.0790   61.1050   16.2470 C.ar      1 2T5        -0.0747
     11 C11        21.1890   61.8100   15.4540 C.ar      1 2T5        -0.0826
     12 C12        19.8350   61.4860   15.4800 C.ar      1 2T5        -0.0445
     13 C13        22.4800   59.2150   17.9910 C.3       1 2T5         0.0244
     14 C14        21.3330   58.3720   18.5080 C.2       1 2T5         0.0499
     15 C15        20.1420   58.6650   18.0230 C.2       1 2T5         0.0232
     16 S16        21.1800   57.0350   19.6470 S.3       1 2T5        -0.0004
     17 C17        19.4430   57.0120   19.3350 C.2       1 2T5         0.0695
     18 N18        19.0490   57.9500   18.4390 N.2       1 2T5        -0.3184
     19 H          17.3338   61.9361   15.7980 H         1 2T5         0.0808
     20 H          17.6171   60.7977   14.4801 H         1 2T5         0.0808
     21 H          23.1416   61.3478   16.2365 H         1 2T5         0.0456
     22 H          21.5469   62.6151   14.8122 H         1 2T5         0.0526
     23 H          19.1303   62.0384   14.8585 H         1 2T5         0.0463
     24 H          23.0842   59.7377   18.7325 H         1 2T5         0.0656
     25 H          23.3174   58.6864   17.5356 H         1 2T5         0.0656
     26 H          18.7564   56.3141   19.8143 H         1 2T5         0.1120
@<TRIPOS>BOND
     1    1    2 ar 
     2    1    3 ar 
     3    1    4 ar 
     4    1    5 1  
     5    5    6 1  
     6    6    7 1  
     7    7    8 ar 
     8    7   12 ar 
     9    8    9 ar 
    10    8   15 1  
    11    9   10 ar 
    12    9   13 1  
    13   10   11 ar 
    14   11   12 ar 
    15   13   14 1  
    16   14   15 2  
    17   14   16 1  
    18   15   18 1  
    19   16   17 1  
    20   17   18 2  
    21    5   19 1  
    22    5   20 1  
    23   10   21 1  
    24   11   22 1  
    25   12   23 1  
    26   13   24 1  
    27   13   25 1  
    28   17   26 1  
@<TRIPOS>SUBSTRUCTURE
     1 2T5         1

