3kc0_ligand
  -I-interpret- 

 28 30  0  0  0  0  0  0  0  0999 V2000
   15.5400   60.3180   15.6290 P   0  0  0  0  0
   14.6390   61.2530   14.8730 O   0  0  0  0  0
   15.1220   60.2950   17.0680 O   0  0  0  0  0
   15.4370   58.9340   15.0530 O   0  0  0  0  0
   17.2630   60.8880   15.5070 C   0  0  0  0  0
   18.0440   60.0960   16.3590 O   0  0  0  0  0
   19.3810   60.4550   16.3010 C   0  0  0  0  0
   20.2650   59.7650   17.0810 C   0  0  0  0  0
   21.6000   60.0900   17.0510 C   0  0  0  0  0
   22.0790   61.1050   16.2470 C   0  0  0  0  0
   21.1890   61.8100   15.4540 C   0  0  0  0  0
   19.8350   61.4860   15.4800 C   0  0  0  0  0
   22.4800   59.2150   17.9910 C   0  0  0  0  0
   21.3330   58.3720   18.5080 C   0  0  0  0  0
   20.1420   58.6650   18.0230 C   0  0  0  0  0
   21.1800   57.0350   19.6470 S   0  0  0  0  0
   19.4430   57.0120   19.3350 C   0  0  0  0  0
   19.0490   57.9500   18.4390 N   0  0  0  0  0
   14.9018   61.2722   13.9499 H   0  0  0  0  0
   15.7052   58.9514   14.1314 H   0  0  0  0  0
   17.3338   61.9361   15.7980 H   0  0  0  0  0
   17.6171   60.7977   14.4801 H   0  0  0  0  0
   23.1416   61.3478   16.2365 H   0  0  0  0  0
   21.5469   62.6151   14.8122 H   0  0  0  0  0
   19.1303   62.0384   14.8585 H   0  0  0  0  0
   23.0842   59.7377   18.7325 H   0  0  0  0  0
   23.3174   58.6864   17.5356 H   0  0  0  0  0
   18.7564   56.3141   19.8143 H   0  0  0  0  0
  1  2  1  0  0  0
  1  3  2  0  0  0
  1  4  1  0  0  0
  1  5  1  0  0  0
  5  6  1  0  0  0
  6  7  1  0  0  0
  7  8  4  0  0  0
  7 12  4  0  0  0
  8  9  4  0  0  0
  8 15  1  0  0  0
  9 10  4  0  0  0
  9 13  1  0  0  0
 10 11  4  0  0  0
 11 12  4  0  0  0
 13 14  1  0  0  0
 14 15  4  0  0  0
 14 16  4  0  0  0
 15 18  4  0  0  0
 16 17  4  0  0  0
 17 18  4  0  0  0
  2 19  1  0  0  0
  4 20  1  0  0  0
  5 21  1  0  0  0
  5 22  1  0  0  0
 10 23  1  0  0  0
 11 24  1  0  0  0
 12 25  1  0  0  0
 13 26  1  0  0  0
 13 27  1  0  0  0
 17 28  1  0  0  0
M  END
$$$$
