1rdt_ligand
  -I-interpret- 

 56 59  0  0  0  0  0  0  0  0999 V2000
   10.7170   36.2230   45.5440 C   0  0  0  0  0
   11.7060   35.4770   46.1770 C   0  0  0  0  0
   12.7460   35.2610   45.3090 O   0  0  0  0  0
   12.4220   35.8680   44.1240 C   0  0  0  0  0
   11.1730   36.4650   44.2540 C   0  0  0  0  0
   11.5890   35.0460   47.4750 C   0  0  0  0  0
   12.1340   33.9130   47.9100 C   0  0  0  0  0
   12.0190   33.4180   49.3210 C   0  0  0  0  0
   12.6700   32.4120   49.6010 O   0  0  0  0  0
   11.2670   33.9590   50.1300 O   0  0  0  0  0
   10.4750   37.2330   43.1460 C   0  0  0  0  0
   11.4110   37.5540   41.9780 C   0  0  0  0  0
   12.5720   36.5990   41.6880 C   0  0  0  0  0
   13.2600   35.9040   42.8630 C   0  0  0  0  0
    9.0150   37.0690   42.7910 C   0  0  0  0  0
    8.2720   38.0890   42.3230 C   0  0  0  0  0
    6.9700   37.9980   41.9940 C   0  0  0  0  0
    6.2530   39.2330   41.4750 C   0  0  0  0  0
    4.7620   39.1060   41.1670 C   0  0  0  0  0
    6.2980   40.4060   42.4540 C   0  0  0  0  0
    6.8620   39.7600   40.1760 C   0  0  0  0  0
    6.3590   36.8020   42.1430 C   0  0  0  0  0
    4.8980   36.5650   41.8130 C   0  0  0  0  0
    4.0710   36.2260   43.0520 C   0  0  0  0  0
    4.1410   37.7090   41.1370 C   0  0  0  0  0
    4.6760   35.4050   40.8430 C   0  0  0  0  0
    7.0960   35.7750   42.6110 C   0  0  0  0  0
    8.3940   35.8850   42.9320 C   0  0  0  0  0
    9.7715   36.5525   45.9748 H   0  0  0  0  0
   11.0256   35.6581   48.1793 H   0  0  0  0  0
   12.6974   33.3088   47.1989 H   0  0  0  0  0
   13.1911   32.1472   48.8395 H   0  0  0  0  0
   10.2440   38.1211   43.7342 H   0  0  0  0  0
   11.8807   38.5016   42.2416 H   0  0  0  0  0
   10.7812   37.5148   41.0892 H   0  0  0  0  0
   12.9013   36.4183   40.6647 H   0  0  0  0  0
   14.2598   35.4747   42.7992 H   0  0  0  0  0
    8.7588   39.0567   42.2019 H   0  0  0  0  0
    4.6459   39.4918   40.1542 H   0  0  0  0  0
    4.2570   39.6254   41.9814 H   0  0  0  0  0
    5.8214   40.1148   43.3901 H   0  0  0  0  0
    7.3359   40.6802   42.6431 H   0  0  0  0  0
    5.7687   41.2566   42.0245 H   0  0  0  0  0
    7.9058   40.0236   40.3463 H   0  0  0  0  0
    6.8014   38.9884   39.4085 H   0  0  0  0  0
    6.3116   40.6425   39.8500 H   0  0  0  0  0
    4.4646   35.3203   43.5133 H   0  0  0  0  0
    4.1277   37.0511   43.7620 H   0  0  0  0  0
    3.0327   36.0656   42.7615 H   0  0  0  0  0
    4.0945   37.4384   40.0822 H   0  0  0  0  0
    3.2052   37.7992   41.6886 H   0  0  0  0  0
    5.1947   35.6116   39.9068 H   0  0  0  0  0
    5.0667   34.4867   41.2813 H   0  0  0  0  0
    3.6089   35.2924   40.6515 H   0  0  0  0  0
    6.6128   34.8058   42.7350 H   0  0  0  0  0
    8.9418   35.0196   43.3049 H   0  0  0  0  0
  1  2  4  0  0  0
  1  5  4  0  0  0
  2  3  4  0  0  0
  2  6  1  0  0  0
  3  4  4  0  0  0
  4  5  4  0  0  0
  4 14  1  0  0  0
  5 11  1  0  0  0
  6  7  2  0  0  0
  7  8  1  0  0  0
  8  9  1  0  0  0
  8 10  2  0  0  0
 11 12  1  0  0  0
 11 15  1  0  0  0
 12 13  1  0  0  0
 13 14  2  0  0  0
 15 16  4  0  0  0
 15 28  4  0  0  0
 16 17  4  0  0  0
 17 18  1  0  0  0
 17 22  4  0  0  0
 18 19  1  0  0  0
 18 20  1  0  0  0
 18 21  1  0  0  0
 19 25  1  0  0  0
 22 23  1  0  0  0
 22 27  4  0  0  0
 23 24  1  0  0  0
 23 25  1  0  0  0
 23 26  1  0  0  0
 27 28  4  0  0  0
  1 29  1  0  0  0
  6 30  1  0  0  0
  7 31  1  0  0  0
  9 32  1  0  0  0
 11 33  1  0  0  0
 12 34  1  0  0  0
 12 35  1  0  0  0
 13 36  1  0  0  0
 14 37  1  0  0  0
 16 38  1  0  0  0
 19 39  1  0  0  0
 19 40  1  0  0  0
 20 41  1  0  0  0
 20 42  1  0  0  0
 20 43  1  0  0  0
 21 44  1  0  0  0
 21 45  1  0  0  0
 21 46  1  0  0  0
 24 47  1  0  0  0
 24 48  1  0  0  0
 24 49  1  0  0  0
 25 50  1  0  0  0
 25 51  1  0  0  0
 26 52  1  0  0  0
 26 53  1  0  0  0
 26 54  1  0  0  0
 27 55  1  0  0  0
 28 56  1  0  0  0
M  END
$$$$
