6un1_ligand
  -I-interpret- 

 45 47  0  0  0  0  0  0  0  0999 V2000
    6.3530   -4.3610   15.4870 O   0  0  0  0  0
    6.4890   -4.0840   16.6640 C   0  0  0  0  0
    6.5850   -2.6910   17.1740 C   0  0  0  0  0
    7.6250   -2.7530   18.1200 O   0  0  0  0  0
    8.9480   -3.1050   17.7540 C   0  0  0  0  0
    5.2800   -2.3870   17.9420 C   0  0  0  0  0
    4.6410   -0.7140   17.8460 S   0  0  0  0  0
    3.1170   -1.1360   17.0420 C   0  0  0  0  0
    2.7650   -0.1180   15.9710 C   0  0  0  0  0
    1.9740   -1.1260   18.0550 C   0  0  0  0  0
    3.4040   -2.5430   16.4650 C   0  0  0  0  0
    2.1760   -3.3420   16.1380 C   0  0  0  0  0
    1.7090   -3.2030   15.0090 O   0  0  0  0  0
    1.6870   -4.1270   16.9700 O   0  0  0  0  0
    4.2340   -3.3070   17.4080 N   0  0  0  0  0
    6.9080   -1.7780   16.0880 N   0  0  0  0  0
    7.4340   -0.5630   16.2900 C   0  0  0  0  0
    7.6610   -0.1800   17.3930 O   0  0  0  0  0
    7.7990    0.3260   15.1560 C   0  0  0  0  0
    9.2030    0.7770   15.2240 C   0  0  0  0  0
   10.0820   -0.1130   15.2120 O   0  0  0  0  0
    9.4040    1.9980   15.3030 O   0  0  0  0  0
    6.7820    1.3370   14.7360 C   0  0  0  0  0
    6.2360    2.2080   15.6970 C   0  0  0  0  0
    5.2850    3.0440   15.1000 C   0  0  0  0  0
    5.0990    2.6450   13.4380 S   0  0  0  0  0
    6.2920    1.3870   13.4440 C   0  0  0  0  0
    8.9498   -4.1052   17.3207 H   0  0  0  0  0
    9.3236   -2.3899   17.0222 H   0  0  0  0  0
    9.5846   -3.0898   18.6387 H   0  0  0  0  0
    5.5261   -2.5252   18.9948 H   0  0  0  0  0
    2.6586    0.8660   16.4277 H   0  0  0  0  0
    3.5582   -0.0894   15.2240 H   0  0  0  0  0
    1.8264   -0.4026   15.4955 H   0  0  0  0  0
    2.1800   -1.8532   18.8404 H   0  0  0  0  0
    1.8867   -0.1315   18.4926 H   0  0  0  0  0
    1.0425   -1.3862   17.5524 H   0  0  0  0  0
    3.9239   -2.3740   15.5220 H   0  0  0  0  0
    2.1951   -4.0866   17.7835 H   0  0  0  0  0
    6.7256   -2.0767   15.1299 H   0  0  0  0  0
    7.7574   -0.3148   14.2752 H   0  0  0  0  0
    9.6630   -0.9741   15.1440 H   0  0  0  0  0
    6.5128    2.2287   16.7511 H   0  0  0  0  0
    4.7402    3.8350   15.6153 H   0  0  0  0  0
    6.5937    0.7636   12.6023 H   0  0  0  0  0
  1  2  2  0  0  0
  2  3  1  0  0  0
  3  4  1  0  0  0
  3  6  1  0  0  0
  3 16  1  0  0  0
  4  5  1  0  0  0
  6  7  1  0  0  0
  6 15  1  0  0  0
  7  8  1  0  0  0
  8  9  1  0  0  0
  8 10  1  0  0  0
  8 11  1  0  0  0
 11 12  1  0  0  0
 11 15  1  0  0  0
 12 13  2  0  0  0
 12 14  1  0  0  0
 16 17  1  0  0  0
 17 18  2  0  0  0
 17 19  1  0  0  0
 19 20  1  0  0  0
 19 23  1  0  0  0
 20 21  1  0  0  0
 20 22  2  0  0  0
 23 24  4  0  0  0
 23 27  4  0  0  0
 24 25  4  0  0  0
 25 26  4  0  0  0
 26 27  4  0  0  0
 15  2  1  0  0  0
  5 28  1  0  0  0
  5 29  1  0  0  0
  5 30  1  0  0  0
  6 31  1  0  0  0
  9 32  1  0  0  0
  9 33  1  0  0  0
  9 34  1  0  0  0
 10 35  1  0  0  0
 10 36  1  0  0  0
 10 37  1  0  0  0
 11 38  1  0  0  0
 14 39  1  0  0  0
 16 40  1  0  0  0
 19 41  1  0  0  0
 21 42  1  0  0  0
 24 43  1  0  0  0
 25 44  1  0  0  0
 27 45  1  0  0  0
M  END
$$$$
