4nwk_ligand
  -I-interpret- 

 97101  0  0  0  0  0  0  0  0999 V2000
   50.3910   76.0990    0.4210 C   0  0  0  0  0
   51.5070   76.0620    1.4510 C   0  0  0  0  0
   52.7870   76.3790    0.6760 C   0  0  0  0  0
   49.0200   76.3770    1.0350 C   0  0  0  0  0
   53.8200   74.3620    0.0000 C   0  0  0  0  0
   55.4130   73.3800    1.6190 C   0  0  0  0  0
   55.7630   72.3620    0.6540 C   0  0  0  0  0
   55.1230   72.3300   -0.6460 C   0  0  0  0  0
   54.0870   73.3780   -1.0220 C   0  0  0  0  0
   46.8020   75.5390    1.4270 C   0  0  0  0  0
   46.4070   75.7900    2.8460 C   0  0  0  0  0
   45.1590   77.2220    0.2590 C   0  0  0  0  0
   44.6990   78.3850   -0.2230 C   0  0  0  0  0
   47.3560   75.8390    3.7730 N   0  0  0  0  0
   48.1500   76.0450    6.3160 C   0  0  0  0  0
   55.4320   71.3390   -1.6450 C   0  0  0  0  0
   54.7620   71.3780   -2.9420 C   0  0  0  0  0
   53.7640   72.3870   -3.2880 C   0  0  0  0  0
   53.4220   73.3920   -2.3180 C   0  0  0  0  0
   50.1350   77.4350   -1.5690 C   0  0  0  0  0
   52.2570   77.6040   -0.0840 C   0  0  0  0  0
   50.9070   77.1240   -0.5030 N   0  0  0  0  0
   52.9710   75.3970   -0.3180 O   0  0  0  0  0
   48.7620   77.4900    1.4950 O   0  0  0  0  0
   48.1440   75.3150    1.0230 N   0  0  0  0  0
   54.4560   74.3160    1.2340 N   0  0  0  0  0
   46.2500   76.1850    0.1980 C   0  0  0  0  0
   45.9820   74.7500    0.4850 C   0  0  0  0  0
   45.2170   75.9350    3.0980 O   0  0  0  0  0
   46.7980   76.0880    5.2620 S   0  0  0  0  0
   45.9770   75.0350    5.7300 O   0  0  0  0  0
   46.3550   77.4460    5.3570 O   0  0  0  0  0
   48.5690   74.7390    6.8850 C   0  0  0  0  0
   48.1930   75.8850    7.7670 C   0  0  0  0  0
   49.0290   76.9350   -1.7570 O   0  0  0  0  0
   50.7090   78.4400   -2.5590 C   0  0  0  0  0
   49.9870   79.8040   -2.4850 C   0  0  0  0  0
   48.5360   79.6940   -2.9930 C   0  0  0  0  0
   50.0400   80.3040   -1.0130 C   0  0  0  0  0
   50.7260   80.7810   -3.4200 C   0  0  0  0  0
   50.5840   77.9200   -3.9060 N   0  0  0  0  0
   51.6220   77.2740   -4.4810 C   0  0  0  0  0
   52.6950   77.1640   -3.9700 O   0  0  0  0  0
   51.2950   76.7660   -5.6650 O   0  0  0  0  0
   52.1640   75.9580   -6.4600 C   0  0  0  0  0
   52.5030   74.6520   -5.7400 C   0  0  0  0  0
   51.3620   75.5890   -7.7270 C   0  0  0  0  0
   53.4370   76.7630   -6.8300 C   0  0  0  0  0
   55.0240   70.4730   -3.9530 O   0  0  0  0  0
   55.9090   69.3910   -3.6590 C   0  0  0  0  0
   50.1834   75.1538   -0.0805 H   0  0  0  0  0
   51.5666   75.0903    1.9413 H   0  0  0  0  0
   51.3360   76.7812    2.2520 H   0  0  0  0  0
   53.6937   76.4708    1.2740 H   0  0  0  0  0
   55.8776   73.4136    2.6045 H   0  0  0  0  0
   56.5137   71.6130    0.9060 H   0  0  0  0  0
   44.4440   76.8855    1.0098 H   0  0  0  0  0
   45.2574   78.9138   -0.9954 H   0  0  0  0  0
   43.7665   78.8020    0.1575 H   0  0  0  0  0
   48.3477   75.7290    3.5611 H   0  0  0  0  0
   48.5443   76.8422    5.6858 H   0  0  0  0  0
   56.1652   70.5608   -1.4329 H   0  0  0  0  0
   53.2854   72.3783   -4.2673 H   0  0  0  0  0
   52.6764   74.1528   -2.5490 H   0  0  0  0  0
   52.8907   77.9128   -0.9154 H   0  0  0  0  0
   52.2329   78.5150    0.5140 H   0  0  0  0  0
   48.4526   74.3879    0.7303 H   0  0  0  0  0
   46.6726   76.7448   -0.6363 H   0  0  0  0  0
   45.1282   74.0733    0.5197 H   0  0  0  0  0
   46.0344   73.7932   -0.0345 H   0  0  0  0  0
   49.3683   74.0061    6.7752 H   0  0  0  0  0
   48.3515   73.6772    6.7691 H   0  0  0  0  0
   47.5508   76.0747    8.6270 H   0  0  0  0  0
   48.5930   76.4118    8.6333 H   0  0  0  0  0
   51.7563   78.5929   -2.2984 H   0  0  0  0  0
   48.5399   79.3574   -4.0297 H   0  0  0  0  0
   47.9908   78.9772   -2.3790 H   0  0  0  0  0
   48.0548   80.6699   -2.9283 H   0  0  0  0  0
   49.5423   79.5809   -0.3669 H   0  0  0  0  0
   51.0798   80.4131   -0.7049 H   0  0  0  0  0
   49.5349   81.2671   -0.9394 H   0  0  0  0  0
   51.7608   80.8824   -3.0929 H   0  0  0  0  0
   50.7019   80.3950   -4.4391 H   0  0  0  0  0
   50.2361   81.7542   -3.3871 H   0  0  0  0  0
   49.7116   78.0418   -4.4203 H   0  0  0  0  0
   52.9986   74.8773   -4.7957 H   0  0  0  0  0
   51.5854   74.0964   -5.5467 H   0  0  0  0  0
   53.1658   74.0548   -6.3662 H   0  0  0  0  0
   50.4652   75.0396   -7.4406 H   0  0  0  0  0
   51.0787   76.5000   -8.2543 H   0  0  0  0  0
   51.9780   74.9679   -8.3773 H   0  0  0  0  0
   53.1525   77.6509   -7.3946 H   0  0  0  0  0
   53.9547   77.0610   -5.9182 H   0  0  0  0  0
   54.0953   76.1408   -7.4363 H   0  0  0  0  0
   56.8817   69.7877   -3.3683 H   0  0  0  0  0
   55.4977   68.7987   -2.8416 H   0  0  0  0  0
   56.0205   68.7639   -4.5435 H   0  0  0  0  0
  1  2  1  0  0  0
  4  1  1  0  0  0
  1 22  1  0  0  0
  2  3  1  0  0  0
  3 21  1  0  0  0
  3 23  1  0  0  0
  4 24  2  0  0  0
 25  4  1  0  0  0
  5  9  4  0  0  0
 23  5  1  0  0  0
  5 26  4  0  0  0
  6  7  4  0  0  0
 26  6  4  0  0  0
  8  7  4  0  0  0
  9  8  4  0  0  0
  8 16  4  0  0  0
  9 19  4  0  0  0
 10 11  1  0  0  0
 10 25  1  0  0  0
 27 10  1  0  0  0
 10 28  1  0  0  0
 11 14  1  0  0  0
 11 29  2  0  0  0
 12 13  2  0  0  0
 12 27  1  0  0  0
 14 30  1  0  0  0
 30 15  1  0  0  0
 15 33  1  0  0  0
 15 34  1  0  0  0
 16 17  4  0  0  0
 17 18  4  0  0  0
 17 49  1  0  0  0
 18 19  4  0  0  0
 22 20  1  0  0  0
 20 35  2  0  0  0
 20 36  1  0  0  0
 21 22  1  0  0  0
 27 28  1  0  0  0
 30 31  2  0  0  0
 30 32  2  0  0  0
 33 34  1  0  0  0
 36 37  1  0  0  0
 36 41  1  0  0  0
 37 38  1  0  0  0
 37 39  1  0  0  0
 37 40  1  0  0  0
 41 42  1  0  0  0
 42 43  2  0  0  0
 42 44  1  0  0  0
 44 45  1  0  0  0
 45 46  1  0  0  0
 45 47  1  0  0  0
 45 48  1  0  0  0
 49 50  1  0  0  0
  1 51  1  0  0  0
  2 52  1  0  0  0
  2 53  1  0  0  0
  3 54  1  0  0  0
  6 55  1  0  0  0
  7 56  1  0  0  0
 12 57  1  0  0  0
 13 58  1  0  0  0
 13 59  1  0  0  0
 14 60  1  0  0  0
 15 61  1  0  0  0
 16 62  1  0  0  0
 18 63  1  0  0  0
 19 64  1  0  0  0
 21 65  1  0  0  0
 21 66  1  0  0  0
 25 67  1  0  0  0
 27 68  1  0  0  0
 28 69  1  0  0  0
 28 70  1  0  0  0
 33 71  1  0  0  0
 33 72  1  0  0  0
 34 73  1  0  0  0
 34 74  1  0  0  0
 36 75  1  0  0  0
 38 76  1  0  0  0
 38 77  1  0  0  0
 38 78  1  0  0  0
 39 79  1  0  0  0
 39 80  1  0  0  0
 39 81  1  0  0  0
 40 82  1  0  0  0
 40 83  1  0  0  0
 40 84  1  0  0  0
 41 85  1  0  0  0
 46 86  1  0  0  0
 46 87  1  0  0  0
 46 88  1  0  0  0
 47 89  1  0  0  0
 47 90  1  0  0  0
 47 91  1  0  0  0
 48 92  1  0  0  0
 48 93  1  0  0  0
 48 94  1  0  0  0
 50 95  1  0  0  0
 50 96  1  0  0  0
 50 97  1  0  0  0
M  END
$$$$
