5qtu_ligand
  -I-interpret- 

 73 77  0  0  0  0  0  0  0  0999 V2000
   43.2290  -24.4340   29.7970 C   0  0  0  0  0
   42.7290  -21.3310   29.0740 C   0  0  0  0  0
   44.0960  -21.3530   28.8000 C   0  0  0  0  0
   44.4890  -21.0690   27.4920 C   0  0  0  0  0
   49.1240  -22.1880   33.1210 C   0  0  0  0  0
   50.9780  -22.3430   34.5790 C   0  0  0  0  0
   39.9330  -22.7350   27.5670 C   0  0  0  0  0
   40.6780  -23.9900   28.0260 C   0  0  0  0  0
   40.3480  -21.4250   28.2540 C   0  0  0  0  0
   35.4900  -15.1920   28.3680 C   0  0  0  0  0
   34.8800  -14.0000   28.6920 C   0  0  0  0  0
   33.5210  -13.9930   29.7620 Cl  0  0  0  0  0
   44.8610  -22.8010   30.7560 C   0  0  0  0  0
   45.0880  -21.7530   29.8380 C   0  0  0  0  0
   46.2950  -21.0540   29.9230 C   0  0  0  0  0
   47.2320  -21.3490   30.8990 C   0  0  0  0  0
   46.9900  -22.3640   31.8240 C   0  0  0  0  0
   45.8130  -23.1030   31.7290 C   0  0  0  0  0
   43.6480  -23.5420   30.7260 N   0  0  0  0  0
   47.8800  -22.6940   32.8860 N   0  0  0  0  0
   41.8190  -21.1290   28.0410 C   0  0  0  0  0
   39.5610  -20.3160   27.7410 N   0  0  0  0  0
   42.1980  -20.8400   26.7860 N   0  0  0  0  0
   43.5200  -20.8080   26.5380 C   0  0  0  0  0
   49.7270  -21.4040   32.4200 O   0  0  0  0  0
   49.6220  -22.7240   34.2450 O   0  0  0  0  0
   40.6720  -24.2510   29.5460 C   0  0  0  0  0
   41.8690  -25.0540   30.0690 C   0  0  0  0  0
   43.8670  -24.7010   28.7810 O   0  0  0  0  0
   41.8420  -26.4920   29.5460 C   0  0  0  0  0
   39.3870  -19.2040   28.4700 C   0  0  0  0  0
   39.9140  -19.0200   29.5630 O   0  0  0  0  0
   36.4230  -12.8270   27.2990 C   0  0  0  0  0
   35.3380  -12.8100   28.1590 C   0  0  0  0  0
   36.5610  -15.2160   27.4930 C   0  0  0  0  0
   37.0500  -14.0210   26.9740 C   0  0  0  0  0
   37.3450  -16.4040   27.3800 N   0  0  0  0  0
   38.1100  -16.9800   28.3690 C   0  0  0  0  0
   38.5230  -18.1770   27.8420 C   0  0  0  0  0
   38.0060  -18.3650   26.5690 N   0  0  0  0  0
   37.3230  -17.2740   26.3280 C   0  0  0  0  0
   38.2510  -16.4010   29.7380 C   0  0  0  0  0
   35.1060  -16.3200   28.9880 F   0  0  0  0  0
   42.3741  -21.4717   30.0950 H   0  0  0  0  0
   45.5455  -21.0528   27.2244 H   0  0  0  0  0
   51.6478  -22.6458   33.7742 H   0  0  0  0  0
   51.0289  -21.2619   34.7084 H   0  0  0  0  0
   51.2748  -22.8354   35.5051 H   0  0  0  0  0
   38.8827  -22.8927   27.8120 H   0  0  0  0  0
   40.1581  -22.6126   26.5075 H   0  0  0  0  0
   41.7208  -23.8526   27.7400 H   0  0  0  0  0
   40.1702  -24.8371   27.5648 H   0  0  0  0  0
   40.1674  -21.5450   29.3222 H   0  0  0  0  0
   46.5033  -20.2599   29.2060 H   0  0  0  0  0
   48.1636  -20.7849   30.9444 H   0  0  0  0  0
   45.6345  -23.9252   32.4219 H   0  0  0  0  0
   43.0103  -23.3808   31.5056 H   0  0  0  0  0
   47.5467  -23.3926   33.5503 H   0  0  0  0  0
   39.1363  -20.3843   26.8161 H   0  0  0  0  0
   43.8471  -20.5624   25.5277 H   0  0  0  0  0
   39.7798  -24.8390   29.7613 H   0  0  0  0  0
   40.7091  -23.2767   30.0332 H   0  0  0  0  0
   41.7472  -25.0442   31.1521 H   0  0  0  0  0
   40.9246  -26.9799   29.8754 H   0  0  0  0  0
   41.8787  -26.4818   28.4567 H   0  0  0  0  0
   42.7035  -27.0349   29.9347 H   0  0  0  0  0
   36.7883  -11.8926   26.8730 H   0  0  0  0  0
   34.8506  -11.8687   28.4128 H   0  0  0  0  0
   37.9195  -14.0231   26.3167 H   0  0  0  0  0
   36.7964  -17.0821   25.3931 H   0  0  0  0  0
   38.6807  -15.4019   29.6660 H   0  0  0  0  0
   37.2699  -16.3428   30.2093 H   0  0  0  0  0
   38.9049  -17.0371   30.3345 H   0  0  0  0  0
  1 19  1  0  0  0
 28  1  1  0  0  0
  1 29  2  0  0  0
  2  3  4  0  0  0
 21  2  4  0  0  0
  3  4  4  0  0  0
  3 14  1  0  0  0
 24  4  4  0  0  0
 20  5  1  0  0  0
  5 25  2  0  0  0
  5 26  1  0  0  0
 26  6  1  0  0  0
  7  8  1  0  0  0
  9  7  1  0  0  0
  8 27  1  0  0  0
  9 21  1  0  0  0
 22  9  1  0  0  0
 10 11  4  0  0  0
 35 10  4  0  0  0
 10 43  1  0  0  0
 11 12  1  0  0  0
 11 34  4  0  0  0
 14 13  4  0  0  0
 13 18  4  0  0  0
 13 19  1  0  0  0
 14 15  4  0  0  0
 15 16  4  0  0  0
 16 17  4  0  0  0
 18 17  4  0  0  0
 17 20  1  0  0  0
 21 23  4  0  0  0
 31 22  1  0  0  0
 23 24  4  0  0  0
 27 28  1  0  0  0
 28 30  1  0  0  0
 31 32  2  0  0  0
 39 31  1  0  0  0
 33 34  4  0  0  0
 36 33  4  0  0  0
 35 36  4  0  0  0
 37 35  1  0  0  0
 38 37  4  0  0  0
 37 41  4  0  0  0
 38 39  4  0  0  0
 38 42  1  0  0  0
 39 40  4  0  0  0
 40 41  4  0  0  0
  2 44  1  0  0  0
  4 45  1  0  0  0
  6 46  1  0  0  0
  6 47  1  0  0  0
  6 48  1  0  0  0
  7 49  1  0  0  0
  7 50  1  0  0  0
  8 51  1  0  0  0
  8 52  1  0  0  0
  9 53  1  0  0  0
 15 54  1  0  0  0
 16 55  1  0  0  0
 18 56  1  0  0  0
 19 57  1  0  0  0
 20 58  1  0  0  0
 22 59  1  0  0  0
 24 60  1  0  0  0
 27 61  1  0  0  0
 27 62  1  0  0  0
 28 63  1  0  0  0
 30 64  1  0  0  0
 30 65  1  0  0  0
 30 66  1  0  0  0
 33 67  1  0  0  0
 34 68  1  0  0  0
 36 69  1  0  0  0
 41 70  1  0  0  0
 42 71  1  0  0  0
 42 72  1  0  0  0
 42 73  1  0  0  0
M  END
$$$$
