3l5d_ligand
  -I-interpret- 

 61 62  0  0  0  0  0  0  0  0999 V2000
   20.6810   10.6720   21.7290 C   0  0  0  0  0
   21.2830    9.5630   22.4480 N   0  0  0  0  0
   20.5470   13.0130   22.4570 O   0  0  0  0  0
   21.7630   10.0660   23.6080 C   0  0  0  0  0
   21.5530   11.3910   23.7570 N   0  0  0  0  0
   28.3810   14.2820   24.6840 O   0  0  0  0  0
   20.9070   11.8540   22.6750 C   0  0  0  0  0
   22.3880    9.3370   24.5310 N   0  0  0  0  0
   19.1580   10.4820   21.5830 C   0  0  0  0  0
   27.4880   15.0870   22.7670 N   0  0  0  0  0
   21.3900   10.9180   20.3920 C   0  0  0  0  0
   29.3240   13.7470   22.6950 N   0  0  0  0  0
   22.8940   11.1590   20.5390 C   0  0  0  0  0
   23.4340   12.0520   19.4210 C   0  0  0  0  0
   23.6780    9.8530   20.6550 C   0  0  0  0  0
   21.9650   12.2050   24.9040 C   0  0  0  0  0
   23.1210   13.1300   24.5530 C   0  0  0  0  0
   23.1860   14.4410   25.1120 C   0  0  0  0  0
   24.2730   15.3070   24.7810 C   0  0  0  0  0
   25.2970   14.8650   23.8900 C   0  0  0  0  0
   25.2310   13.5550   23.3320 C   0  0  0  0  0
   24.1490   12.6920   23.6630 C   0  0  0  0  0
   26.4520   15.7820   23.5370 C   0  0  0  0  0
   29.2580   13.9080   21.2460 C   0  0  0  0  0
   28.4300   12.7910   20.6080 C   0  0  0  0  0
   28.8260   11.4220   21.1330 C   0  0  0  0  0
   28.3980   14.3670   23.4560 C   0  0  0  0  0
   28.2520   10.2950   20.2960 C   0  0  0  0  0
   21.3339    8.5926   22.1381 H   0  0  0  0  0
   22.7265    9.7781   25.3862 H   0  0  0  0  0
   18.7233   10.2769   22.5613 H   0  0  0  0  0
   18.7176   11.3902   21.1715 H   0  0  0  0  0
   18.9601    9.6451   20.9133 H   0  0  0  0  0
   27.5198   15.1454   21.7492 H   0  0  0  0  0
   20.9549   11.8136   19.9486 H   0  0  0  0  0
   21.2579   10.0256   19.7802 H   0  0  0  0  0
   30.0543   13.1781   23.1233 H   0  0  0  0  0
   23.0396   11.6943   21.4773 H   0  0  0  0  0
   23.2543   11.5747   18.4577 H   0  0  0  0  0
   22.9263   13.0161   19.4506 H   0  0  0  0  0
   24.5049   12.1994   19.5607 H   0  0  0  0  0
   23.3353    9.3015   21.5305 H   0  0  0  0  0
   23.5162    9.2528   19.7596 H   0  0  0  0  0
   24.7400   10.0761   20.7573 H   0  0  0  0  0
   22.2909   11.5357   25.7002 H   0  0  0  0  0
   21.1174   12.8171   25.2123 H   0  0  0  0  0
   22.4056   14.7822   25.7922 H   0  0  0  0  0
   24.3206   16.3079   25.2100 H   0  0  0  0  0
   26.0105   13.2138   22.6508 H   0  0  0  0  0
   24.1043   11.6906   23.2348 H   0  0  0  0  0
   26.0651   16.5994   22.9284 H   0  0  0  0  0
   26.8988   16.1405   24.4643 H   0  0  0  0  0
   30.2699   13.8673   20.8430 H   0  0  0  0  0
   28.7867   14.8648   21.0214 H   0  0  0  0  0
   28.6044   12.8081   19.5322 H   0  0  0  0  0
   27.3814   12.9606   20.8524 H   0  0  0  0  0
   28.4358   11.3229   22.1459 H   0  0  0  0  0
   29.9130   11.3485   21.0984 H   0  0  0  0  0
   27.1638   10.3573   20.3023 H   0  0  0  0  0
   28.6163   10.3825   19.2724 H   0  0  0  0  0
   28.5649    9.3381   20.7138 H   0  0  0  0  0
  1  2  1  0  0  0
  7  1  1  0  0  0
  1  9  1  0  0  0
  1 11  1  0  0  0
  4  2  1  0  0  0
  7  3  2  0  0  0
  5  4  4  0  0  0
  4  8  2  0  0  0
  5  7  1  0  0  0
 16  5  1  0  0  0
 27  6  2  0  0  0
 23 10  1  0  0  0
 10 27  1  0  0  0
 11 13  1  0  0  0
 12 24  1  0  0  0
 27 12  1  0  0  0
 13 14  1  0  0  0
 13 15  1  0  0  0
 17 16  1  0  0  0
 18 17  4  0  0  0
 17 22  4  0  0  0
 19 18  4  0  0  0
 20 19  4  0  0  0
 20 21  4  0  0  0
 20 23  1  0  0  0
 21 22  4  0  0  0
 24 25  1  0  0  0
 25 26  1  0  0  0
 26 28  1  0  0  0
  2 29  1  0  0  0
  8 30  1  0  0  0
  9 31  1  0  0  0
  9 32  1  0  0  0
  9 33  1  0  0  0
 10 34  1  0  0  0
 11 35  1  0  0  0
 11 36  1  0  0  0
 12 37  1  0  0  0
 13 38  1  0  0  0
 14 39  1  0  0  0
 14 40  1  0  0  0
 14 41  1  0  0  0
 15 42  1  0  0  0
 15 43  1  0  0  0
 15 44  1  0  0  0
 16 45  1  0  0  0
 16 46  1  0  0  0
 18 47  1  0  0  0
 19 48  1  0  0  0
 21 49  1  0  0  0
 22 50  1  0  0  0
 23 51  1  0  0  0
 23 52  1  0  0  0
 24 53  1  0  0  0
 24 54  1  0  0  0
 25 55  1  0  0  0
 25 56  1  0  0  0
 26 57  1  0  0  0
 26 58  1  0  0  0
 28 59  1  0  0  0
 28 60  1  0  0  0
 28 61  1  0  0  0
M  END
$$$$
