5loh_ligand
  -I-interpret- 

 62 69  0  0  0  0  0  0  0  0999 V2000
  -20.3860  -12.1090  -10.6900 O   0  0  0  0  0
  -20.6010  -12.0440   -9.3150 C   0  0  0  0  0
  -21.2290  -10.7630   -8.8280 C   0  0  0  0  0
  -21.6190   -9.8700  -10.0030 C   0  0  0  0  0
  -20.3260   -9.6350  -10.8300 C   0  0  0  0  0
  -19.8990  -11.0280  -11.4320 C   0  0  0  0  0
  -20.6190  -11.3000  -12.7360 C   0  0  0  0  0
  -18.4170  -11.1570  -11.4820 N   0  0  0  0  0
  -17.6580  -11.7280  -10.4450 C   0  0  0  0  0
  -18.0660  -12.2580   -9.2030 C   0  0  0  0  0
  -17.1120  -12.7380   -8.2840 C   0  0  0  0  0
  -15.7610  -12.6820   -8.6580 C   0  0  0  0  0
  -15.3400  -12.1700   -9.8800 C   0  0  0  0  0
  -16.2910  -11.6780  -10.7850 C   0  0  0  0  0
  -16.2020  -11.0420  -12.0940 C   0  0  0  0  0
  -17.5140  -10.7340  -12.4920 C   0  0  0  0  0
  -17.7620  -10.0900  -13.6980 C   0  0  0  0  0
  -16.6910   -9.7520  -14.5110 C   0  0  0  0  0
  -15.3970  -10.0510  -14.1310 C   0  0  0  0  0
  -15.1450  -10.6940  -12.9310 C   0  0  0  0  0
  -13.8460  -12.2400  -10.0070 C   0  0  0  0  0
  -13.4530  -12.8380   -8.7140 N   0  0  0  0  0
  -14.5600  -13.1060   -7.9090 C   0  0  0  0  0
  -14.4870  -13.6000   -6.7870 O   0  0  0  0  0
  -17.8520  -13.1650   -7.1060 C   0  0  0  0  0
  -19.2070  -12.9260   -7.3740 C   0  0  0  0  0
  -20.1910  -13.2120   -6.4370 C   0  0  0  0  0
  -19.8100  -13.7430   -5.2150 C   0  0  0  0  0
  -18.4780  -13.9850   -4.9360 C   0  0  0  0  0
  -17.4970  -13.7020   -5.8730 C   0  0  0  0  0
  -19.3230  -12.3830   -8.6590 N   0  0  0  0  0
  -19.3210   -9.1910   -9.9270 O   0  0  0  0  0
  -18.5660   -8.0780  -10.3840 C   0  0  0  0  0
  -22.1690   -8.5560   -9.6340 N   0  3  0  0  0
  -23.6130   -8.5320   -9.4310 C   0  0  0  0  0
  -21.3651  -12.7700   -9.0372 H   0  0  0  0  0
  -20.5078  -10.2318   -8.2069 H   0  0  0  0  0
  -22.1258  -11.0056   -8.2580 H   0  0  0  0  0
  -22.4140  -10.3811  -10.5459 H   0  0  0  0  0
  -20.4725   -8.9037  -11.6249 H   0  0  0  0  0
  -20.2730  -10.5973  -13.4940 H   0  0  0  0  0
  -20.4082  -12.3191  -13.0602 H   0  0  0  0  0
  -21.6922  -11.1787  -12.5891 H   0  0  0  0  0
  -18.7824   -9.8543  -14.0001 H   0  0  0  0  0
  -16.8718   -9.2455  -15.4591 H   0  0  0  0  0
  -14.5665   -9.7781  -14.7820 H   0  0  0  0  0
  -14.1203  -10.9275  -12.6418 H   0  0  0  0  0
  -13.3834  -11.2704  -10.1916 H   0  0  0  0  0
  -13.5135  -12.8193  -10.8684 H   0  0  0  0  0
  -12.4888  -13.0314   -8.4431 H   0  0  0  0  0
  -21.2414  -13.0228   -6.6581 H   0  0  0  0  0
  -20.5683  -13.9721   -4.4663 H   0  0  0  0  0
  -18.1964  -14.4026   -3.9693 H   0  0  0  0  0
  -16.4498  -13.8997   -5.6443 H   0  0  0  0  0
  -18.0626   -8.3396  -11.3147 H   0  0  0  0  0
  -19.2335   -7.2335  -10.5554 H   0  0  0  0  0
  -17.8246   -7.8098   -9.6313 H   0  0  0  0  0
  -21.9684   -7.9232  -10.4084 H   0  0  0  0  0
  -21.7409   -8.2948   -8.7458 H   0  0  0  0  0
  -24.1130   -8.8353  -10.3508 H   0  0  0  0  0
  -23.8773   -9.2204   -8.6283 H   0  0  0  0  0
  -23.9242   -7.5224   -9.1627 H   0  0  0  0  0
  1  2  1  0  0  0
  1  6  1  0  0  0
  2  3  1  0  0  0
  2 31  1  0  0  0
  3  4  1  0  0  0
  4  5  1  0  0  0
  4 34  1  0  0  0
  5  6  1  0  0  0
  5 32  1  0  0  0
  6  7  1  0  0  0
  6  8  1  0  0  0
  8  9  4  0  0  0
  8 16  4  0  0  0
  9 10  4  0  0  0
  9 14  4  0  0  0
 10 11  4  0  0  0
 10 31  4  0  0  0
 11 12  4  0  0  0
 11 25  4  0  0  0
 12 13  4  0  0  0
 12 23  1  0  0  0
 13 14  4  0  0  0
 13 21  1  0  0  0
 14 15  4  0  0  0
 15 16  4  0  0  0
 15 20  4  0  0  0
 16 17  4  0  0  0
 17 18  4  0  0  0
 18 19  4  0  0  0
 19 20  4  0  0  0
 21 22  1  0  0  0
 22 23  1  0  0  0
 23 24  2  0  0  0
 25 26  4  0  0  0
 25 30  4  0  0  0
 26 27  4  0  0  0
 26 31  4  0  0  0
 27 28  4  0  0  0
 28 29  4  0  0  0
 29 30  4  0  0  0
 32 33  1  0  0  0
 34 35  1  0  0  0
  2 36  1  0  0  0
  3 37  1  0  0  0
  3 38  1  0  0  0
  4 39  1  0  0  0
  5 40  1  0  0  0
  7 41  1  0  0  0
  7 42  1  0  0  0
  7 43  1  0  0  0
 17 44  1  0  0  0
 18 45  1  0  0  0
 19 46  1  0  0  0
 20 47  1  0  0  0
 21 48  1  0  0  0
 21 49  1  0  0  0
 22 50  1  0  0  0
 27 51  1  0  0  0
 28 52  1  0  0  0
 29 53  1  0  0  0
 30 54  1  0  0  0
 33 55  1  0  0  0
 33 56  1  0  0  0
 33 57  1  0  0  0
 34 58  1  0  0  0
 34 59  1  0  0  0
 35 60  1  0  0  0
 35 61  1  0  0  0
 35 62  1  0  0  0
M  END
$$$$
