2pg2_ligand
  -I-interpret- 

 46 48  0  0  0  0  0  0  0  0999 V2000
   30.7710   14.1460   13.4240 O   0  0  0  0  0
   30.3480   13.5460   14.3590 C   0  0  0  0  0
   31.0580   12.8710   15.4850 C   0  0  0  0  0
   32.7830   12.9520   15.3570 S   0  0  0  0  0
   33.0400   12.0200   16.7840 C   0  0  0  0  0
   31.7890   11.6950   17.3150 C   0  0  0  0  0
   30.6510   12.1390   16.6230 C   0  0  0  0  0
   29.0820   13.6140   14.4480 N   0  0  0  0  0
   28.1390   14.0770   13.5770 C   0  0  0  0  0
   27.8830   13.4590   12.0100 S   0  0  0  0  0
   26.5550   14.5530   11.7220 C   0  0  0  0  0
   26.3240   15.3400   12.8480 C   0  0  0  0  0
   25.2260   16.3690   12.8850 C   0  0  0  0  0
   24.7240   16.6640   11.4420 C   0  0  0  0  0
   25.3540   15.9960   10.2040 C   0  0  0  0  0
   25.7720   14.5160   10.4290 C   0  0  0  0  0
   27.2460   15.0980   13.8800 C   0  0  0  0  0
   26.9620   15.8310   15.1570 C   0  0  0  0  0
   26.0490   16.5220   15.1490 O   0  0  0  0  0
   27.6240   16.2330   16.1880 N   0  0  0  0  0
   28.7520   15.6290   15.8900 C   0  0  0  0  0
   29.3760   17.1010   15.1840 C   0  0  0  0  0
   27.7060   16.7560   17.5290 C   0  0  0  0  0
   28.3940   15.6740   18.3140 C   0  0  0  0  0
   34.0069   11.7347   17.1986 H   0  0  0  0  0
   31.6998   11.1168   18.2347 H   0  0  0  0  0
   29.6186   11.9494   16.9167 H   0  0  0  0  0
   28.7036   13.2596   15.3264 H   0  0  0  0  0
   25.6111   17.2886   13.3256 H   0  0  0  0  0
   24.3974   15.9879   13.4820 H   0  0  0  0  0
   24.9490   17.7216   11.3042 H   0  0  0  0  0
   23.7018   16.2854   11.4445 H   0  0  0  0  0
   26.2580   16.5540    9.9601 H   0  0  0  0  0
   24.6024   16.0035    9.4146 H   0  0  0  0  0
   24.9134   13.8467   10.4835 H   0  0  0  0  0
   26.3593   14.1207    9.6002 H   0  0  0  0  0
   28.7334   14.7134   15.2989 H   0  0  0  0  0
   29.3173   15.1255   16.6742 H   0  0  0  0  0
   28.7304   17.4103   14.3620 H   0  0  0  0  0
   29.4014   17.8837   15.9421 H   0  0  0  0  0
   30.3840   16.9237   14.8091 H   0  0  0  0  0
   26.7229   16.9934   17.9356 H   0  0  0  0  0
   28.2522   17.6985   17.5671 H   0  0  0  0  0
   27.8005   14.7609   18.2689 H   0  0  0  0  0
   29.3803   15.4892   17.8883 H   0  0  0  0  0
   28.4983   15.9902   19.3519 H   0  0  0  0  0
  1  2  2  0  0  0
  2  3  1  0  0  0
  2  8  1  0  0  0
  3  4  4  0  0  0
  3  7  4  0  0  0
  4  5  4  0  0  0
  5  6  4  0  0  0
  6  7  4  0  0  0
  8  9  1  0  0  0
  9 10  4  0  0  0
  9 17  4  0  0  0
 10 11  4  0  0  0
 11 12  4  0  0  0
 11 16  1  0  0  0
 12 13  1  0  0  0
 12 17  4  0  0  0
 13 14  1  0  0  0
 14 15  1  0  0  0
 15 16  1  0  0  0
 17 18  1  0  0  0
 18 19  2  0  0  0
 18 20  1  0  0  0
 20 21  1  0  0  0
 20 23  1  0  0  0
 21 22  1  0  0  0
 23 24  1  0  0  0
  5 25  1  0  0  0
  6 26  1  0  0  0
  7 27  1  0  0  0
  8 28  1  0  0  0
 13 29  1  0  0  0
 13 30  1  0  0  0
 14 31  1  0  0  0
 14 32  1  0  0  0
 15 33  1  0  0  0
 15 34  1  0  0  0
 16 35  1  0  0  0
 16 36  1  0  0  0
 21 37  1  0  0  0
 21 38  1  0  0  0
 22 39  1  0  0  0
 22 40  1  0  0  0
 22 41  1  0  0  0
 23 42  1  0  0  0
 23 43  1  0  0  0
 24 44  1  0  0  0
 24 45  1  0  0  0
 24 46  1  0  0  0
M  END
$$$$
