3su3_ligand
  -I-interpret- 

106111  0  0  0  0  0  0  0  0999 V2000
  -13.2190   -8.3130   14.3380 C   0  0  0  0  0
  -15.0790   -9.7590   13.7600 N   0  0  0  0  0
  -13.3390   -7.5650   13.3610 O   0  0  0  0  0
  -13.7070   -9.7720   14.3220 C   0  0  0  0  0
  -12.9280  -10.6360   13.3500 C   0  0  0  0  0
  -13.9840  -11.6500   12.8710 C   0  0  0  0  0
  -16.0620   -9.0130   14.2580 C   0  0  0  0  0
  -15.8160   -8.2300   15.1840 O   0  0  0  0  0
  -17.4310   -9.0000   13.5910 C   0  0  0  0  0
  -18.4000   -9.2590   14.6430 N   0  0  0  0  0
  -18.9750  -10.4380   14.7670 C   0  0  0  0  0
  -19.8220  -10.5200   15.8160 O   0  0  0  0  0
  -17.7390   -7.6800   12.8350 C   0  0  0  0  0
  -18.8040  -11.3830   13.9980 O   0  0  0  0  0
  -13.5000  -13.6400   14.0880 C   0  0  0  0  0
  -12.5560  -13.8710   13.3280 O   0  0  0  0  0
  -13.7400  -14.4130   15.1000 N   0  0  0  0  0
  -13.5890   -4.2510   15.7440 C   0  0  0  0  0
  -14.1100   -4.0390   14.3250 C   0  0  0  0  0
  -19.0700   -7.8420   12.0710 C   0  0  0  0  0
  -12.5750   -7.9490   15.4400 N   0  0  0  0  0
  -12.2610   -6.5640   15.7520 C   0  0  0  0  0
  -11.0250   -5.9310   15.1330 C   0  0  0  0  0
  -13.5350   -5.7320   16.1000 C   0  0  0  0  0
  -12.5770   -6.1350   17.1940 C   0  0  0  0  0
  -13.0680  -15.6580   15.4860 C   0  0  0  0  0
  -13.7280  -16.0780   16.7650 C   0  0  0  0  0
  -14.7170  -15.1550   17.0970 C   0  0  0  0  0
  -14.8080  -14.0710   16.0480 C   0  0  0  0  0
  -13.4780  -17.1660   17.5880 C   0  0  0  0  0
  -14.2250  -17.3170   18.7390 C   0  0  0  0  0
  -15.2190  -16.3950   19.0610 C   0  0  0  0  0
  -15.4890  -15.2870   18.2460 C   0  0  0  0  0
  -16.5500  -14.2330   18.6400 C   0  0  0  0  0
  -10.2820   -6.7090   14.3950 N   0  0  0  0  0
  -10.7840   -4.7530   15.3860 O   0  0  0  0  0
   -9.0150   -6.0210   13.7240 S   0  0  0  0  0
   -8.2750   -7.3320   12.7560 C   0  0  0  0  0
   -9.4100   -4.9620   12.7680 O   0  0  0  0  0
   -8.0200   -5.5670   14.6980 O   0  0  0  0  0
   -6.8370   -7.0640   12.2970 C   0  0  0  0  0
   -7.1230   -8.0160   13.4560 C   0  0  0  0  0
  -17.9710  -14.6730   18.8470 C   0  0  0  0  0
  -18.8060  -13.3900   18.9040 C   0  0  0  0  0
  -19.0990  -12.8450   17.5000 C   0  0  0  0  0
  -20.4820  -12.2120   17.3980 C   0  0  0  0  0
  -20.6070  -11.7050   15.9920 C   0  0  0  0  0
  -21.5870  -13.2630   17.5820 C   0  0  0  0  0
  -20.6460  -11.0700   18.4220 C   0  0  0  0  0
  -17.8570   -6.4700   13.7530 C   0  0  0  0  0
  -16.6270   -7.4330   11.8020 C   0  0  0  0  0
  -15.2130  -10.7720   12.6760 C   0  0  0  0  0
  -14.2840  -12.5550   13.9460 O   0  0  0  0  0
  -13.6123  -10.1607   15.3359 H   0  0  0  0  0
  -12.0603  -11.1117   13.8071 H   0  0  0  0  0
  -12.4883  -10.0640   12.5329 H   0  0  0  0  0
  -13.6733  -12.2192   11.9949 H   0  0  0  0  0
  -17.4699   -9.7640   12.8145 H   0  0  0  0  0
  -18.6393   -8.5141   15.2975 H   0  0  0  0  0
  -14.2641   -3.7519   16.4392 H   0  0  0  0  0
  -12.5805   -3.8423   15.8075 H   0  0  0  0  0
  -13.4501   -4.5419   13.6181 H   0  0  0  0  0
  -15.1152   -4.4524   14.2428 H   0  0  0  0  0
  -14.1355   -2.9719   14.1043 H   0  0  0  0  0
  -18.9816   -8.6632   11.3597 H   0  0  0  0  0
  -19.8701   -8.0576   12.7792 H   0  0  0  0  0
  -19.2952   -6.9192   11.5363 H   0  0  0  0  0
  -12.2874   -8.6736   16.0977 H   0  0  0  0  0
  -14.5984   -5.8609   15.8983 H   0  0  0  0  0
  -12.0556   -5.6560   18.0227 H   0  0  0  0  0
  -12.6304   -6.6010   18.1779 H   0  0  0  0  0
  -12.2627  -16.1679   14.9573 H   0  0  0  0  0
  -15.5030  -13.2324   16.0051 H   0  0  0  0  0
  -12.7047  -17.8897   17.3303 H   0  0  0  0  0
  -14.0361  -18.1628   19.4001 H   0  0  0  0  0
  -15.8020  -16.5392   19.9707 H   0  0  0  0  0
  -16.5892  -13.5447   17.7958 H   0  0  0  0  0
  -16.2273  -13.8592   19.6117 H   0  0  0  0  0
  -10.4999   -7.6959   14.2571 H   0  0  0  0  0
   -9.1882   -7.6548   12.2560 H   0  0  0  0  0
   -6.1899   -6.2178   12.0662 H   0  0  0  0  0
   -6.2576   -7.0401   11.3741 H   0  0  0  0  0
   -6.8443   -9.0223   13.7686 H   0  0  0  0  0
   -6.7752   -8.1825   14.4755 H   0  0  0  0  0
  -18.0752  -15.2530   19.7640 H   0  0  0  0  0
  -18.3040  -15.3253   18.0397 H   0  0  0  0  0
  -18.2434  -12.6368   19.4556 H   0  0  0  0  0
  -19.7546  -13.6174   19.3904 H   0  0  0  0  0
  -19.0579  -13.6791   16.7995 H   0  0  0  0  0
  -18.3594  -12.0763   17.2760 H   0  0  0  0  0
  -20.2498  -12.4723   15.3052 H   0  0  0  0  0
  -21.6524  -11.4710   15.7910 H   0  0  0  0  0
  -21.4942  -14.0252   16.8084 H   0  0  0  0  0
  -21.4866  -13.7258   18.5637 H   0  0  0  0  0
  -22.5616  -12.7811   17.5040 H   0  0  0  0  0
  -20.5160  -11.4655   19.4294 H   0  0  0  0  0
  -19.8955  -10.3027   18.2319 H   0  0  0  0  0
  -21.6419  -10.6376   18.3257 H   0  0  0  0  0
  -18.6638   -6.6347   14.4672 H   0  0  0  0  0
  -16.9185   -6.3294   14.2892 H   0  0  0  0  0
  -18.0729   -5.5832   13.1572 H   0  0  0  0  0
  -15.6683   -7.3521   12.3144 H   0  0  0  0  0
  -16.5953   -8.2648   11.0983 H   0  0  0  0  0
  -16.8320   -6.5076   11.2637 H   0  0  0  0  0
  -15.2580  -10.3240   11.6834 H   0  0  0  0  0
  -16.1457  -11.3329   12.7359 H   0  0  0  0  0
  1  3  2  0  0  0
  1  4  1  0  0  0
 21  1  1  0  0  0
  4  2  1  0  0  0
  2  7  1  0  0  0
  2 52  1  0  0  0
  4  5  1  0  0  0
  5  6  1  0  0  0
  6 52  1  0  0  0
  6 53  1  0  0  0
  7  8  2  0  0  0
  7  9  1  0  0  0
  9 10  1  0  0  0
  9 13  1  0  0  0
 10 11  1  0  0  0
 11 12  1  0  0  0
 11 14  2  0  0  0
 12 47  1  0  0  0
 13 20  1  0  0  0
 13 50  1  0  0  0
 13 51  1  0  0  0
 15 16  2  0  0  0
 15 17  1  0  0  0
 53 15  1  0  0  0
 17 26  4  0  0  0
 17 29  4  0  0  0
 18 19  1  0  0  0
 24 18  1  0  0  0
 22 21  1  0  0  0
 22 23  1  0  0  0
 22 24  1  0  0  0
 22 25  1  0  0  0
 23 35  1  0  0  0
 23 36  2  0  0  0
 24 25  1  0  0  0
 26 27  4  0  0  0
 27 28  4  0  0  0
 27 30  4  0  0  0
 28 29  4  0  0  0
 28 33  4  0  0  0
 30 31  4  0  0  0
 31 32  4  0  0  0
 32 33  4  0  0  0
 33 34  1  0  0  0
 34 43  1  0  0  0
 35 37  1  0  0  0
 37 38  1  0  0  0
 37 39  2  0  0  0
 37 40  2  0  0  0
 38 41  1  0  0  0
 38 42  1  0  0  0
 41 42  1  0  0  0
 43 44  1  0  0  0
 44 45  1  0  0  0
 45 46  1  0  0  0
 46 47  1  0  0  0
 46 48  1  0  0  0
 46 49  1  0  0  0
  4 54  1  0  0  0
  5 55  1  0  0  0
  5 56  1  0  0  0
  6 57  1  0  0  0
  9 58  1  0  0  0
 10 59  1  0  0  0
 18 60  1  0  0  0
 18 61  1  0  0  0
 19 62  1  0  0  0
 19 63  1  0  0  0
 19 64  1  0  0  0
 20 65  1  0  0  0
 20 66  1  0  0  0
 20 67  1  0  0  0
 21 68  1  0  0  0
 24 69  1  0  0  0
 25 70  1  0  0  0
 25 71  1  0  0  0
 26 72  1  0  0  0
 29 73  1  0  0  0
 30 74  1  0  0  0
 31 75  1  0  0  0
 32 76  1  0  0  0
 34 77  1  0  0  0
 34 78  1  0  0  0
 35 79  1  0  0  0
 38 80  1  0  0  0
 41 81  1  0  0  0
 41 82  1  0  0  0
 42 83  1  0  0  0
 42 84  1  0  0  0
 43 85  1  0  0  0
 43 86  1  0  0  0
 44 87  1  0  0  0
 44 88  1  0  0  0
 45 89  1  0  0  0
 45 90  1  0  0  0
 47 91  1  0  0  0
 47 92  1  0  0  0
 48 93  1  0  0  0
 48 94  1  0  0  0
 48 95  1  0  0  0
 49 96  1  0  0  0
 49 97  1  0  0  0
 49 98  1  0  0  0
 50 99  1  0  0  0
 50100  1  0  0  0
 50101  1  0  0  0
 51102  1  0  0  0
 51103  1  0  0  0
 51104  1  0  0  0
 52105  1  0  0  0
 52106  1  0  0  0
M  END
$$$$
