1caq_ligand
  -I-interpret- 

 64 68  0  0  0  0  0  0  0  0999 V2000
   16.9890    9.0060   17.9520 N   0  0  0  0  0
   16.2400    8.6210   20.2690 C   0  0  0  0  0
   15.7820    7.7660   21.2490 C   0  0  0  0  0
   15.3750    6.4870   20.9090 C   0  0  0  0  0
   15.3000    6.0830   19.5890 C   0  0  0  0  0
    8.6120    2.9830   20.4130 N   0  0  0  0  0
   12.3680    4.9770   21.8300 C   0  0  0  0  0
   20.7400   12.9320   13.2940 C   0  0  0  0  0
   18.1680   10.7810   15.9970 C   0  0  0  0  0
   21.2210   12.5320   14.5340 C   0  0  0  0  0
   15.7780    5.7560   23.3430 O   0  0  0  0  0
   15.1780    4.0470   21.6730 O   0  0  0  0  0
   16.3100    8.1960   18.9350 C   0  0  0  0  0
   15.7830    6.9410   18.6100 C   0  0  0  0  0
   15.0170    5.3500   22.1940 S   0  0  0  0  0
   17.9670    9.3090   15.6520 C   0  0  0  0  0
   18.5830   10.9320   17.4580 C   0  0  0  0  0
   17.5660   10.2930   18.3870 C   0  0  0  0  0
   16.8540    8.7120   16.5100 C   0  0  0  0  0
   20.4150   11.8000   15.4050 C   0  0  0  0  0
   19.1110   11.4660   15.0470 C   0  0  0  0  0
   18.6440   11.8360   13.7820 C   0  0  0  0  0
   19.4500   12.5710   12.9120 C   0  0  0  0  0
   13.4060    5.4880   22.7010 N   0  0  0  0  0
   11.2250    4.3780   22.6600 C   0  0  0  0  0
   11.8860    6.0480   20.8650 C   0  0  0  0  0
   11.8320    7.2990   21.3820 O   0  0  0  0  0
   11.5670    5.7640   19.7590 O   0  0  0  0  0
    6.5640    6.1450   20.6610 C   0  0  0  0  0
    6.8650    4.8350   20.2560 C   0  0  0  0  0
    8.0340    4.2350   20.6570 C   0  0  0  0  0
    8.8960    4.9350   21.5390 C   0  0  0  0  0
    8.5990    6.2190   21.9380 C   0  0  0  0  0
    7.4230    6.8330   21.5150 C   0  0  0  0  0
    9.7990    2.8810   21.0680 C   0  0  0  0  0
   10.0320    4.0640   21.7800 C   0  0  0  0  0
   16.5492    9.6324   20.5329 H   0  0  0  0  0
   15.7405    8.0956   22.2871 H   0  0  0  0  0
   14.8728    5.1160   19.3237 H   0  0  0  0  0
   12.7832    4.1750   21.2197 H   0  0  0  0  0
   21.3663   13.5231   12.6258 H   0  0  0  0  0
   17.2132   11.2920   15.8735 H   0  0  0  0  0
   22.2375   12.7926   14.8288 H   0  0  0  0  0
   15.7510    6.6303   17.5657 H   0  0  0  0  0
   18.8938    8.7683   15.8440 H   0  0  0  0  0
   17.6911    9.2239   14.6009 H   0  0  0  0  0
   19.5433   10.4362   17.5998 H   0  0  0  0  0
   18.6491   11.9944   17.6927 H   0  0  0  0  0
   18.0964   10.0858   19.3164 H   0  0  0  0  0
   16.7317   10.9919   18.4457 H   0  0  0  0  0
   15.9145    9.1518   16.1754 H   0  0  0  0  0
   16.8994    7.6292   16.3936 H   0  0  0  0  0
   20.8079   11.4871   16.3724 H   0  0  0  0  0
   17.6396   11.5472   13.4723 H   0  0  0  0  0
   19.0700   12.8629   11.9329 H   0  0  0  0  0
   13.1736    5.9194   23.5956 H   0  0  0  0  0
   10.9234    5.1009   23.4179 H   0  0  0  0  0
   11.5728    3.4554   23.1247 H   0  0  0  0  0
   12.1397    7.2819   22.2912 H   0  0  0  0  0
    5.6531    6.6265   20.3053 H   0  0  0  0  0
    6.1672    4.2907   19.6197 H   0  0  0  0  0
    9.2881    6.7576   22.5884 H   0  0  0  0  0
    7.1772    7.8412   21.8485 H   0  0  0  0  0
   10.4629    2.0169   21.0429 H   0  0  0  0  0
 26 28  2  0  0  0
  7 26  1  0  0  0
 26 27  1  0  0  0
  7 25  1  0  0  0
 25 36  1  0  0  0
 36 35  4  0  0  0
 36 32  4  0  0  0
 32 33  4  0  0  0
 32 31  4  0  0  0
 31  6  4  0  0  0
 31 30  4  0  0  0
 30 29  4  0  0  0
 34 29  4  0  0  0
 33 34  4  0  0  0
 35  6  4  0  0  0
  1 19  1  0  0  0
  1 18  1  0  0  0
 13  1  1  0  0  0
 14 13  4  0  0  0
  2 13  4  0  0  0
  3  2  4  0  0  0
  4  3  4  0  0  0
 15  4  1  0  0  0
  4  5  4  0  0  0
  5 14  4  0  0  0
 15 11  2  0  0  0
 15 12  2  0  0  0
 24 15  1  0  0  0
 18 17  1  0  0  0
 17  9  1  0  0  0
 16  9  1  0  0  0
  9 21  1  0  0  0
 21 22  4  0  0  0
 21 20  4  0  0  0
 20 10  4  0  0  0
 10  8  4  0  0  0
 23  8  4  0  0  0
 22 23  4  0  0  0
 19 16  1  0  0  0
 24  7  1  0  0  0
  2 37  1  0  0  0
  3 38  1  0  0  0
  5 39  1  0  0  0
  7 40  1  0  0  0
  8 41  1  0  0  0
  9 42  1  0  0  0
 10 43  1  0  0  0
 14 44  1  0  0  0
 16 45  1  0  0  0
 16 46  1  0  0  0
 17 47  1  0  0  0
 17 48  1  0  0  0
 18 49  1  0  0  0
 18 50  1  0  0  0
 19 51  1  0  0  0
 19 52  1  0  0  0
 20 53  1  0  0  0
 22 54  1  0  0  0
 23 55  1  0  0  0
 24 56  1  0  0  0
 25 57  1  0  0  0
 25 58  1  0  0  0
 27 59  1  0  0  0
 29 60  1  0  0  0
 30 61  1  0  0  0
 33 62  1  0  0  0
 34 63  1  0  0  0
 35 64  1  0  0  0
M  END
$$$$
