6b16_ligand
  -I-interpret- 

 45 49  0  0  0  0  0  0  0  0999 V2000
   14.7820  -12.9840   13.7490 C   0  0  0  0  0
   14.4730  -12.0060   14.6880 C   0  0  0  0  0
   15.3970  -11.0090   14.9560 C   0  0  0  0  0
   16.6110  -11.0270   14.2620 C   0  0  0  0  0
   16.8490  -12.0510   13.3250 C   0  0  0  0  0
   18.1810  -11.7980   12.7750 C   0  0  0  0  0
   17.7290  -10.2220   14.2670 N   0  0  0  0  0
   12.5910  -14.6900   15.4990 C   0  0  0  0  0
   11.3620  -15.4650   17.2910 C   0  0  0  0  0
   16.0070  -16.8820   16.8540 C   0  0  0  0  0
   17.6050  -17.0520   15.2900 C   0  0  0  0  0
   18.4450  -16.9460   14.0310 C   0  0  0  0  0
   13.3500  -13.9200   11.9810 C   0  0  0  0  0
   13.7970  -14.0790   13.4350 C   0  0  0  0  0
   15.9290  -12.9840   13.1090 N   0  0  0  0  0
   18.6520  -10.6910   13.3740 C   0  0  0  0  0
   12.6330  -13.9770   14.3130 N   0  0  0  0  0
   11.4410  -14.7890   16.1550 N   0  0  0  0  0
   12.4990  -16.0720   17.7910 C   0  0  0  0  0
   13.6980  -15.9570   17.0760 C   0  0  0  0  0
   13.7010  -15.2580   15.9460 N   0  0  0  0  0
   14.8440  -16.5600   17.5780 N   0  0  0  0  0
   16.3940  -16.4940   15.5510 C   0  0  0  0  0
   17.9650  -17.7570   16.3820 N   0  0  0  0  0
   16.9590  -17.6400   17.3420 N   0  0  0  0  0
   17.8180  -16.3840   12.7520 C   0  0  0  0  0
   18.8530  -15.5600   13.5230 C   0  0  0  0  0
   13.5148  -12.0236   15.2073 H   0  0  0  0  0
   15.1833  -10.2308   15.6887 H   0  0  0  0  0
   18.6946  -12.3950   12.0214 H   0  0  0  0  0
   10.4143  -15.5417   17.8240 H   0  0  0  0  0
   18.9761  -17.8625   14.2880 H   0  0  0  0  0
   12.6361  -14.7057   11.7337 H   0  0  0  0  0
   12.8791  -12.9455   11.8515 H   0  0  0  0  0
   14.2173  -13.9959   11.3252 H   0  0  0  0  0
   14.2659  -15.0511   13.5876 H   0  0  0  0  0
   19.6228  -10.2360   13.1776 H   0  0  0  0  0
   11.8494  -13.3788   14.0512 H   0  0  0  0  0
   12.4630  -16.6308   18.7262 H   0  0  0  0  0
   14.8425  -16.7928   18.5711 H   0  0  0  0  0
   15.8217  -15.8590   14.8747 H   0  0  0  0  0
   16.8273  -16.2517   12.3172 H   0  0  0  0  0
   17.6256  -16.7028   11.7276 H   0  0  0  0  0
   19.7657  -14.9990   13.3219 H   0  0  0  0  0
   18.9675  -14.5480   13.9114 H   0  0  0  0  0
  1  2  4  0  0  0
 14  1  1  0  0  0
  1 15  4  0  0  0
  2  3  4  0  0  0
  3  4  4  0  0  0
  5  4  4  0  0  0
  4  7  4  0  0  0
  5  6  4  0  0  0
 15  5  4  0  0  0
  6 16  4  0  0  0
 16  7  4  0  0  0
  8 17  1  0  0  0
  8 18  4  0  0  0
 21  8  4  0  0  0
  9 18  4  0  0  0
 19  9  4  0  0  0
 22 10  1  0  0  0
 10 23  4  0  0  0
 10 25  4  0  0  0
 11 12  1  0  0  0
 23 11  4  0  0  0
 11 24  4  0  0  0
 12 26  1  0  0  0
 12 27  1  0  0  0
 14 13  1  0  0  0
 17 14  1  0  0  0
 20 19  4  0  0  0
 20 21  4  0  0  0
 20 22  1  0  0  0
 24 25  4  0  0  0
 26 27  1  0  0  0
  2 28  1  0  0  0
  3 29  1  0  0  0
  6 30  1  0  0  0
  9 31  1  0  0  0
 12 32  1  0  0  0
 13 33  1  0  0  0
 13 34  1  0  0  0
 13 35  1  0  0  0
 14 36  1  0  0  0
 16 37  1  0  0  0
 17 38  1  0  0  0
 19 39  1  0  0  0
 22 40  1  0  0  0
 23 41  1  0  0  0
 26 42  1  0  0  0
 26 43  1  0  0  0
 27 44  1  0  0  0
 27 45  1  0  0  0
M  END
$$$$
