4ktc_ligand
  -I-interpret- 

103109  0  0  0  0  0  0  0  0999 V2000
   49.6080   36.8150  109.5810 C   0  0  0  0  0
   50.5150   37.5950  109.8870 O   0  0  0  0  0
   48.4160   36.8150  110.1350 O   0  0  0  0  0
   48.1400   37.7140  111.2030 C   0  0  0  0  0
   46.9270   37.2310  112.0020 C   0  0  0  0  0
   45.7350   37.7920  111.2160 C   0  0  0  0  0
   46.2430   38.9810  110.3870 C   0  0  0  0  0
   47.7540   39.0890  110.6460 C   0  0  0  0  0
   50.6350   36.6390  106.5790 C   0  0  0  0  0
   50.8960   35.6970  107.7670 C   0  0  0  0  0
   49.6090   36.4420  105.9270 O   0  0  0  0  0
   49.7660   35.7720  108.6990 N   0  0  0  0  0
   51.1180   34.2370  107.3120 C   0  0  0  0  0
   52.3690   34.1910  106.4000 C   0  0  0  0  0
   52.4360   32.8350  105.6560 C   0  0  0  0  0
   52.1680   33.0360  104.1460 C   0  0  0  0  0
   50.6450   33.0120  103.9090 C   0  0  0  0  0
   48.2770   36.6650  101.7570 C   0  0  0  0  0
   49.7710   36.8700  101.9330 C   0  0  0  0  0
   49.1040   35.6370  102.5110 C   0  0  0  0  0
   50.2230   37.8240  102.9080 N   0  0  0  0  0
   50.4200   35.9620   99.7550 O   0  0  0  0  0
   50.6880   36.8090  100.7300 C   0  0  0  0  0
   49.3450   34.2400  102.0070 C   0  0  0  0  0
   50.2090   33.3050  102.4590 C   0  0  0  0  0
   51.6370   37.7340  100.6250 N   0  0  0  0  0
   52.5470   37.8050   99.2040 S   0  0  0  0  0
   53.1850   36.5050   98.9700 O   0  0  0  0  0
   51.6790   38.3530   98.1440 O   0  0  0  0  0
   53.8420   39.0730   99.5670 C   0  0  0  0  0
   54.6220   39.4720   98.3320 C   0  0  0  0  0
   53.5580   40.3960   98.8820 C   0  0  0  0  0
   51.5530   37.5950  106.2260 N   0  0  0  0  0
   51.3840   38.4900  105.0670 C   0  0  0  0  0
   51.3140   37.7110  103.7460 C   0  0  0  0  0
   52.2240   36.9090  103.5490 O   0  0  0  0  0
   52.5680   39.4740  105.1180 C   0  0  0  0  0
   52.9120   39.5030  106.6120 C   0  0  0  0  0
   52.6370   38.0710  107.0950 C   0  0  0  0  0
   52.0530   40.4060  107.3110 O   0  0  0  0  0
   52.0520   41.7020  107.0810 C   0  0  0  0  0
   51.0200   42.3120  107.7580 N   0  0  0  0  0
   53.0340   42.3220  106.6710 O   0  0  0  0  0
   50.9420   43.7750  107.9540 C   0  0  0  0  0
   49.6740   44.2620  108.6650 C   0  0  0  0  0
   48.6100   43.3720  108.9370 C   0  0  0  0  0
   48.7700   41.9340  108.5200 C   0  0  0  0  0
   50.2310   41.5690  108.7450 C   0  0  0  0  0
   49.5490   45.6120  109.0440 C   0  0  0  0  0
   48.3710   46.0350  109.6990 C   0  0  0  0  0
   47.3200   45.1330  109.9780 C   0  0  0  0  0
   47.4320   43.7840  109.5980 C   0  0  0  0  0
   49.0335   37.7669  111.8250 H   0  0  0  0  0
   46.9443   37.5739  113.0365 H   0  0  0  0  0
   46.8929   36.1455  112.0949 H   0  0  0  0  0
   44.9474   38.1129  111.8977 H   0  0  0  0  0
   45.3152   37.0259  110.5641 H   0  0  0  0  0
   45.7335   39.9005  110.6753 H   0  0  0  0  0
   46.0413   38.8287  109.3267 H   0  0  0  0  0
   48.3094   39.3368  109.7414 H   0  0  0  0  0
   47.9958   39.8955  111.3382 H   0  0  0  0  0
   51.8114   36.0204  108.2626 H   0  0  0  0  0
   49.0727   35.0239  108.6927 H   0  0  0  0  0
   50.2452   33.8812  106.7645 H   0  0  0  0  0
   51.2670   33.5953  108.1804 H   0  0  0  0  0
   53.2628   34.3071  107.0130 H   0  0  0  0  0
   52.3084   34.9973  105.6690 H   0  0  0  0  0
   51.6783   32.1670  106.0656 H   0  0  0  0  0
   53.4297   32.4066  105.7867 H   0  0  0  0  0
   52.6449   32.2392  103.5753 H   0  0  0  0  0
   52.5792   33.9915  103.8202 H   0  0  0  0  0
   50.2162   33.7968  104.5322 H   0  0  0  0  0
   50.3050   32.0032  104.1430 H   0  0  0  0  0
   47.5356   36.6927  100.9585 H   0  0  0  0  0
   47.3526   37.2275  101.8883 H   0  0  0  0  0
   49.0585   35.1796  103.4993 H   0  0  0  0  0
   49.6761   38.6811  102.9900 H   0  0  0  0  0
   49.7740   34.4519  101.0276 H   0  0  0  0  0
   48.3935   33.7704  102.2566 H   0  0  0  0  0
   49.6626   32.3920  102.2225 H   0  0  0  0  0
   51.1444   33.6707  102.0354 H   0  0  0  0  0
   51.8121   38.3881  101.3878 H   0  0  0  0  0
   54.0998   38.7619  100.5793 H   0  0  0  0  0
   54.9120   39.0394   97.3745 H   0  0  0  0  0
   55.6601   39.5260   98.0042 H   0  0  0  0  0
   53.4458   41.4470   99.1481 H   0  0  0  0  0
   52.6995   40.9616   98.5199 H   0  0  0  0  0
   50.4371   39.0278  105.1135 H   0  0  0  0  0
   52.3231   40.4576  104.7172 H   0  0  0  0  0
   53.4062   39.1661  104.4929 H   0  0  0  0  0
   53.9374   39.8289  106.7863 H   0  0  0  0  0
   53.5227   37.4391  107.0288 H   0  0  0  0  0
   52.3607   38.0401  108.1490 H   0  0  0  0  0
   50.9423   44.2275  106.9624 H   0  0  0  0  0
   51.7857   44.0551  108.5847 H   0  0  0  0  0
   48.4948   41.8016  107.4737 H   0  0  0  0  0
   48.1152   41.2868  109.1034 H   0  0  0  0  0
   50.5400   41.8284  109.7576 H   0  0  0  0  0
   50.3812   40.4958  108.6274 H   0  0  0  0  0
   50.3500   46.3211  108.8350 H   0  0  0  0  0
   48.2708   47.0791  109.9953 H   0  0  0  0  0
   46.4224   45.4829  110.4878 H   0  0  0  0  0
   46.6310   43.0751  109.8080 H   0  0  0  0  0
  1  2  2  0  0  0
  1  3  1  0  0  0
 12  1  1  0  0  0
  3  4  1  0  0  0
  4  5  1  0  0  0
  4  8  1  0  0  0
  5  6  1  0  0  0
  7  6  1  0  0  0
  8  7  1  0  0  0
 10  9  1  0  0  0
  9 11  2  0  0  0
  9 33  1  0  0  0
 10 12  1  0  0  0
 13 10  1  0  0  0
 14 13  1  0  0  0
 15 14  1  0  0  0
 16 15  1  0  0  0
 17 16  1  0  0  0
 25 17  1  0  0  0
 19 18  1  0  0  0
 20 18  1  0  0  0
 20 19  1  0  0  0
 19 21  1  0  0  0
 19 23  1  0  0  0
 24 20  1  0  0  0
 21 35  1  0  0  0
 23 22  2  0  0  0
 23 26  1  0  0  0
 24 25  1  0  0  0
 26 27  1  0  0  0
 27 28  2  0  0  0
 27 29  2  0  0  0
 27 30  1  0  0  0
 30 31  1  0  0  0
 30 32  1  0  0  0
 31 32  1  0  0  0
 33 34  1  0  0  0
 33 39  1  0  0  0
 34 35  1  0  0  0
 34 37  1  0  0  0
 35 36  2  0  0  0
 37 38  1  0  0  0
 38 39  1  0  0  0
 38 40  1  0  0  0
 40 41  1  0  0  0
 41 42  1  0  0  0
 41 43  2  0  0  0
 42 44  1  0  0  0
 42 48  1  0  0  0
 44 45  1  0  0  0
 45 46  4  0  0  0
 45 49  4  0  0  0
 46 47  1  0  0  0
 46 52  4  0  0  0
 47 48  1  0  0  0
 49 50  4  0  0  0
 50 51  4  0  0  0
 51 52  4  0  0  0
  4 53  1  0  0  0
  5 54  1  0  0  0
  5 55  1  0  0  0
  6 56  1  0  0  0
  6 57  1  0  0  0
  7 58  1  0  0  0
  7 59  1  0  0  0
  8 60  1  0  0  0
  8 61  1  0  0  0
 10 62  1  0  0  0
 12 63  1  0  0  0
 13 64  1  0  0  0
 13 65  1  0  0  0
 14 66  1  0  0  0
 14 67  1  0  0  0
 15 68  1  0  0  0
 15 69  1  0  0  0
 16 70  1  0  0  0
 16 71  1  0  0  0
 17 72  1  0  0  0
 17 73  1  0  0  0
 18 74  1  0  0  0
 18 75  1  0  0  0
 20 76  1  0  0  0
 21 77  1  0  0  0
 24 78  1  0  0  0
 24 79  1  0  0  0
 25 80  1  0  0  0
 25 81  1  0  0  0
 26 82  1  0  0  0
 30 83  1  0  0  0
 31 84  1  0  0  0
 31 85  1  0  0  0
 32 86  1  0  0  0
 32 87  1  0  0  0
 34 88  1  0  0  0
 37 89  1  0  0  0
 37 90  1  0  0  0
 38 91  1  0  0  0
 39 92  1  0  0  0
 39 93  1  0  0  0
 44 94  1  0  0  0
 44 95  1  0  0  0
 47 96  1  0  0  0
 47 97  1  0  0  0
 48 98  1  0  0  0
 48 99  1  0  0  0
 49100  1  0  0  0
 50101  1  0  0  0
 51102  1  0  0  0
 52103  1  0  0  0
M  END
$$$$
