3m3z_ligand
  -I-interpret- 

 44 46  0  0  0  0  0  0  0  0999 V2000
   18.1480   -5.4300   -2.5750 N   0  0  0  0  0
   16.8420   -5.5240   -2.1230 C   0  0  0  0  0
   16.4750   -4.9270   -1.0320 N   0  0  0  0  0
   19.0730   -4.6700   -1.8790 C   0  0  0  0  0
   17.2550   -3.5120    0.7800 N   0  0  0  0  0
   18.4610   -2.8960    1.0340 C   0  0  0  0  0
   19.3250   -3.2470    0.0820 N   0  0  0  0  0
   18.6750   -4.0120   -0.7830 C   0  0  0  0  0
   17.3670   -4.1690   -0.3320 C   0  0  0  0  0
   20.3680   -4.5720   -2.3070 N   0  0  0  0  0
   16.0250   -3.3400    1.5100 C   0  0  0  0  0
   15.8710   -1.9360    1.7750 O   0  0  0  0  0
   14.9210   -1.8530    2.8650 C   0  0  0  0  0
   14.9880   -3.2230    3.5840 C   0  0  0  0  0
   16.0850   -3.9490    2.8750 C   0  0  0  0  0
   15.4010   -0.7500    3.7900 C   0  0  0  0  0
   16.7400   -1.0440    4.1680 O   0  0  0  0  0
   15.7810   -5.3600    2.8060 O   0  0  0  0  0
   13.7570   -3.9060    3.3990 O   0  0  0  0  0
   18.6740   -2.0950    2.0850 N   0  0  0  0  0
   19.9810   -1.3760    2.2200 C   0  0  0  0  0
   17.1630   -0.2000    5.2310 C   0  0  0  0  0
   18.1870   -0.9610    6.0580 C   0  0  0  0  0
   18.0280   -2.1600    6.2810 O   0  0  0  0  0
   19.2550   -0.3450    6.5110 N   0  0  0  0  0
   16.1154   -6.1057   -2.6902 H   0  0  0  0  0
   20.6649   -5.0629   -3.1504 H   0  0  0  0  0
   21.0371   -4.0080   -1.7829 H   0  0  0  0  0
   15.2323   -3.7939    0.9153 H   0  0  0  0  0
   13.9023   -1.6373    2.5428 H   0  0  0  0  0
   15.1647   -3.1405    4.6564 H   0  0  0  0  0
   17.0597   -3.8663    3.3559 H   0  0  0  0  0
   14.7641   -0.6956    4.6729 H   0  0  0  0  0
   15.3564    0.2133    3.2818 H   0  0  0  0  0
   15.8228   -5.7387    3.6872 H   0  0  0  0  0
   13.7941   -4.7562    3.8433 H   0  0  0  0  0
   17.9485   -1.9746    2.7918 H   0  0  0  0  0
   20.7909   -2.1037    2.2714 H   0  0  0  0  0
   20.1281   -0.7271    1.3566 H   0  0  0  0  0
   19.9718   -0.7758    3.1298 H   0  0  0  0  0
   16.3113    0.0793    5.8512 H   0  0  0  0  0
   17.6049    0.7134    4.8329 H   0  0  0  0  0
   19.9523   -0.8610    7.0476 H   0  0  0  0  0
   19.3871    0.6494    6.3262 H   0  0  0  0  0
  2  1  4  0  0  0
  1  4  4  0  0  0
  3  2  4  0  0  0
  9  3  4  0  0  0
  4  8  4  0  0  0
  4 10  1  0  0  0
  5  6  4  0  0  0
  5  9  4  0  0  0
  5 11  1  0  0  0
  6  7  4  0  0  0
  6 20  1  0  0  0
  7  8  4  0  0  0
  8  9  4  0  0  0
 11 12  1  0  0  0
 11 15  1  0  0  0
 12 13  1  0  0  0
 13 14  1  0  0  0
 13 16  1  0  0  0
 14 15  1  0  0  0
 14 19  1  0  0  0
 15 18  1  0  0  0
 16 17  1  0  0  0
 17 22  1  0  0  0
 20 21  1  0  0  0
 22 23  1  0  0  0
 23 24  2  0  0  0
 23 25  1  0  0  0
  2 26  1  0  0  0
 10 27  1  0  0  0
 10 28  1  0  0  0
 11 29  1  0  0  0
 13 30  1  0  0  0
 14 31  1  0  0  0
 15 32  1  0  0  0
 16 33  1  0  0  0
 16 34  1  0  0  0
 18 35  1  0  0  0
 19 36  1  0  0  0
 20 37  1  0  0  0
 21 38  1  0  0  0
 21 39  1  0  0  0
 21 40  1  0  0  0
 22 41  1  0  0  0
 22 42  1  0  0  0
 25 43  1  0  0  0
 25 44  1  0  0  0
M  END
$$$$
