1gj4_ligand
  -I-interpret- 

 41 44  0  0  0  0  0  0  0  0999 V2000
   11.5230  -11.6140   23.3600 C   0  0  0  0  0
   12.1890  -10.3760   23.1510 C   0  0  0  0  0
   13.1160  -10.2800   22.0900 C   0  0  0  0  0
   13.3210  -11.3760   21.2570 C   0  0  0  0  0
   12.6510  -12.5330   21.4660 C   0  0  0  0  0
   11.7400  -12.6810   22.4710 C   0  0  0  0  0
   10.5960  -11.8030   24.3840 C   0  0  0  0  0
   10.0340  -12.9760   24.5380 N   0  0  0  0  0
   10.3000  -10.8390   25.2200 N   0  0  0  0  0
   14.0960  -11.5480   20.2040 N   0  0  0  0  0
   13.0310  -13.4250   20.5170 C   0  0  0  0  0
   13.9790  -12.7650   19.7410 C   0  0  0  0  0
   14.6960  -13.2910   18.6550 C   0  0  0  0  0
   14.5530  -14.6550   18.3570 C   0  0  0  0  0
   15.2700  -15.2620   17.3340 C   0  0  0  0  0
   16.1340  -14.5180   16.5750 C   0  0  0  0  0
   16.3170  -13.1620   16.8250 C   0  0  0  0  0
   15.5920  -12.5090   17.8800 C   0  0  0  0  0
   15.7540  -11.1520   18.1660 O   0  0  0  0  0
   17.2420  -12.4990   16.0310 C   0  0  0  0  0
   16.8520  -11.4180   15.2550 C   0  0  0  0  0
   17.7500  -10.7440   14.4850 C   0  0  0  0  0
   18.9790  -11.1040   14.5090 C   0  0  0  0  0
   19.4800  -12.2590   15.2260 C   0  0  0  0  0
   18.5800  -12.9370   15.9860 C   0  0  0  0  0
   11.9940   -8.9580   24.2310 Cl  0  0  0  0  0
   13.6670   -9.3542   21.9246 H   0  0  0  0  0
   11.1879  -13.6141   22.5830 H   0  0  0  0  0
    9.3752  -13.1296   25.3014 H   0  0  0  0  0
    9.6394  -11.0069   25.9788 H   0  0  0  0  0
   10.7301   -9.9204   25.1121 H   0  0  0  0  0
   12.6694  -14.4453   20.3891 H   0  0  0  0  0
   13.8592  -15.2554   18.9454 H   0  0  0  0  0
   15.1456  -16.3266   17.1359 H   0  0  0  0  0
   16.6853  -14.9948   15.7645 H   0  0  0  0  0
   16.3894  -10.7711   17.5555 H   0  0  0  0  0
   15.8087  -11.1025   15.2616 H   0  0  0  0  0
   17.4285   -9.9119   13.8586 H   0  0  0  0  0
   19.6963  -10.5008   13.9525 H   0  0  0  0  0
   20.5232  -12.5678   15.1595 H   0  0  0  0  0
   18.8910  -13.8125   16.5560 H   0  0  0  0  0
  7  1  1  0  0  0
  1  6  4  0  0  0
  1  2  4  0  0  0
  2  3  4  0  0  0
  3  4  4  0  0  0
  4 10  4  0  0  0
  5  4  4  0  0  0
  5 11  4  0  0  0
  6  5  4  0  0  0
 11 12  4  0  0  0
 12 13  1  0  0  0
 10 12  4  0  0  0
 13 18  4  0  0  0
 13 14  4  0  0  0
 14 15  4  0  0  0
 15 16  4  0  0  0
 17 16  4  0  0  0
 17 20  1  0  0  0
 18 17  4  0  0  0
 18 19  1  0  0  0
 20 25  4  0  0  0
 20 21  4  0  0  0
 21 22  4  0  0  0
 22 23  4  0  0  0
 24 23  4  0  0  0
 25 24  4  0  0  0
  7  9  1  0  0  0
  7  8  2  0  0  0
  2 26  1  0  0  0
  3 27  1  0  0  0
  6 28  1  0  0  0
  8 29  1  0  0  0
  9 30  1  0  0  0
  9 31  1  0  0  0
 11 32  1  0  0  0
 14 33  1  0  0  0
 15 34  1  0  0  0
 16 35  1  0  0  0
 19 36  1  0  0  0
 21 37  1  0  0  0
 22 38  1  0  0  0
 23 39  1  0  0  0
 24 40  1  0  0  0
 25 41  1  0  0  0
M  END
$$$$
