4mma_ligand
  -I-interpret- 

 46 48  0  0  0  0  0  0  0  0999 V2000
  162.2830   -3.4170  341.5260 C   0  0  0  0  0
  161.4420   -2.4970  340.8580 C   0  0  0  0  0
  161.9170   -1.6410  339.8350 C   0  0  0  0  0
  163.2620   -1.7130  339.4610 C   0  0  0  0  0
  165.5620   -2.7290  339.7140 C   0  0  0  0  0
  165.7630   -4.0420  338.9820 C   0  0  0  0  0
  166.6110   -7.5690  339.9960 C   0  0  0  0  0
  166.0240   -7.7380  341.2540 C   0  0  0  0  0
  165.3170   -6.6800  341.8500 C   0  0  0  0  0
  165.1610   -5.4620  341.1770 C   0  0  0  0  0
  164.1180   -2.6300  340.0940 C   0  0  0  0  0
  163.6130   -3.5310  341.1510 C   0  0  0  0  0
  166.3070   -2.7280  344.3050 C   0  0  0  0  0
  165.9930   -4.2720  346.2800 C   0  0  0  0  0
  166.5000   -6.3600  339.3040 C   0  0  0  0  0
  165.8130   -5.2820  339.8540 C   0  0  0  0  0
  164.6950   -4.2900  343.2060 C   0  0  0  0  0
  165.8950   -3.3860  343.0030 C   0  0  0  0  0
  167.9150   -4.6620  344.6220 C   0  0  0  0  0
  164.4580   -4.4380  341.7990 N   0  0  0  0  0
  166.7380   -3.8890  345.0780 N   0  3  0  0  0
  159.7130   -2.4600  341.4430 Cl  0  0  0  0  0
  161.8872   -4.0341  342.3326 H   0  0  0  0  0
  161.2440   -0.9364  339.3464 H   0  0  0  0  0
  163.6464   -1.0583  338.6789 H   0  0  0  0  0
  165.8416   -1.8930  339.0729 H   0  0  0  0  0
  166.1897   -2.6935  340.6044 H   0  0  0  0  0
  166.7319   -3.9738  338.4874 H   0  0  0  0  0
  164.9026   -4.1627  338.3238 H   0  0  0  0  0
  167.1644   -8.3942  339.5477 H   0  0  0  0  0
  166.1151   -8.6921  341.7731 H   0  0  0  0  0
  164.8869   -6.8083  342.8433 H   0  0  0  0  0
  165.5125   -2.1519  344.7793 H   0  0  0  0  0
  167.0759   -1.9641  344.1897 H   0  0  0  0  0
  166.0125   -3.4498  346.9954 H   0  0  0  0  0
  164.9610   -4.4961  346.0102 H   0  0  0  0  0
  166.4532   -5.1540  346.7255 H   0  0  0  0  0
  166.9578   -6.2600  338.3199 H   0  0  0  0  0
  163.8775   -3.9237  343.8269 H   0  0  0  0  0
  164.8298   -5.1938  343.8001 H   0  0  0  0  0
  166.7272   -3.9871  342.6367 H   0  0  0  0  0
  165.6293   -2.6081  342.2872 H   0  0  0  0  0
  167.7254   -5.0547  343.6230 H   0  0  0  0  0
  168.7887   -4.0107  344.5980 H   0  0  0  0  0
  168.0946   -5.4879  345.3103 H   0  0  0  0  0
  167.1264   -4.4176  345.8591 H   0  0  0  0  0
  1  2  4  0  0  0
 12  1  4  0  0  0
  2  3  4  0  0  0
  2 22  1  0  0  0
  4  3  4  0  0  0
 11  4  4  0  0  0
  5  6  1  0  0  0
 11  5  1  0  0  0
 16  6  1  0  0  0
  8  7  4  0  0  0
 15  7  4  0  0  0
  9  8  4  0  0  0
 10  9  4  0  0  0
 10 16  4  0  0  0
 20 10  1  0  0  0
 12 11  4  0  0  0
 20 12  1  0  0  0
 18 13  1  0  0  0
 13 21  1  0  0  0
 21 14  1  0  0  0
 16 15  4  0  0  0
 17 18  1  0  0  0
 17 20  1  0  0  0
 21 19  1  0  0  0
  1 23  1  0  0  0
  3 24  1  0  0  0
  4 25  1  0  0  0
  5 26  1  0  0  0
  5 27  1  0  0  0
  6 28  1  0  0  0
  6 29  1  0  0  0
  7 30  1  0  0  0
  8 31  1  0  0  0
  9 32  1  0  0  0
 13 33  1  0  0  0
 13 34  1  0  0  0
 14 35  1  0  0  0
 14 36  1  0  0  0
 14 37  1  0  0  0
 15 38  1  0  0  0
 17 39  1  0  0  0
 17 40  1  0  0  0
 18 41  1  0  0  0
 18 42  1  0  0  0
 19 43  1  0  0  0
 19 44  1  0  0  0
 19 45  1  0  0  0
 21 46  1  0  0  0
M  END
$$$$
