3f8e_ligand
  -I-interpret- 

 42 42  0  0  0  0  0  0  0  0999 V2000
   -2.6550    3.5030   10.9140 C   0  0  0  0  0
   -4.1430    3.4800   10.3940 C   0  0  0  0  0
   -4.6420    2.0210   10.4280 C   0  0  0  0  0
   -5.0700    4.4540   11.1960 C   0  0  0  0  0
   -6.2140    5.2550   10.3980 C   0  0  0  0  0
   -5.9780    5.2100    9.0840 O   0  0  0  0  0
   -6.3380    6.7720   10.5380 C   0  0  0  0  0
   -6.1350    7.4850    9.3790 C   0  0  0  0  0
   -6.6340    7.4680   11.7070 C   0  0  0  0  0
   -6.8020    6.8200   12.8680 O   0  0  0  0  0
   -7.5360    7.3980   13.8050 C   0  0  0  0  0
   -6.7060    8.8200   11.6420 C   0  0  0  0  0
   -6.4820    9.4830   10.4670 C   0  0  0  0  0
   -6.5190   10.8060   10.4090 O   0  0  0  0  0
   -6.1860    8.8520    9.3200 C   0  0  0  0  0
   -6.0060    9.5860    8.1240 C   0  0  0  0  0
   -5.5020    9.1520    6.8550 C   0  0  0  0  0
   -5.2610    7.9100    6.2090 C   0  0  0  0  0
   -5.1410    6.8110    6.7520 O   0  0  0  0  0
   -4.9770    7.9510    5.0480 O   0  0  0  0  0
   -2.2522    4.5109   10.8143 H   0  0  0  0  0
   -2.6330    3.2036   11.9618 H   0  0  0  0  0
   -2.0546    2.8104   10.3242 H   0  0  0  0  0
   -4.1766    3.8471    9.3682 H   0  0  0  0  0
   -4.6777    1.6745   11.4609 H   0  0  0  0  0
   -5.6394    1.9692    9.9914 H   0  0  0  0  0
   -3.9603    1.3918    9.8557 H   0  0  0  0  0
   -4.4044    5.2229   11.5883 H   0  0  0  0  0
   -5.6058    3.8204   11.9029 H   0  0  0  0  0
   -7.0847    4.7577   10.8253 H   0  0  0  0  0
   -5.8698    4.2961    8.8106 H   0  0  0  0  0
   -5.9231    6.9344    8.4624 H   0  0  0  0  0
   -7.0884    8.3539   14.0772 H   0  0  0  0  0
   -8.5443    7.5626   13.4249 H   0  0  0  0  0
   -7.5778    6.7520   14.6820 H   0  0  0  0  0
   -6.9463    9.3880   12.5408 H   0  0  0  0  0
   -6.3393   11.0909    9.5100 H   0  0  0  0  0
   -5.2138   10.2699    8.4285 H   0  0  0  0  0
   -7.0430    9.7978    7.8635 H   0  0  0  0  0
   -4.4631    9.4491    6.9982 H   0  0  0  0  0
   -6.3424    9.4777    6.2420 H   0  0  0  0  0
   -5.3915    6.8828    7.6760 H   0  0  0  0  0
  1  2  1  0  0  0
  2  3  1  0  0  0
  2  4  1  0  0  0
  4  5  1  0  0  0
  5  6  1  0  0  0
  5  7  1  0  0  0
  7  8  4  0  0  0
  7  9  4  0  0  0
  8 15  4  0  0  0
  9 10  1  0  0  0
  9 12  4  0  0  0
 10 11  1  0  0  0
 12 13  4  0  0  0
 13 14  1  0  0  0
 13 15  4  0  0  0
 15 16  1  0  0  0
 16 17  1  0  0  0
 17 18  1  0  0  0
 18 19  1  0  0  0
 18 20  2  0  0  0
  1 21  1  0  0  0
  1 22  1  0  0  0
  1 23  1  0  0  0
  2 24  1  0  0  0
  3 25  1  0  0  0
  3 26  1  0  0  0
  3 27  1  0  0  0
  4 28  1  0  0  0
  4 29  1  0  0  0
  5 30  1  0  0  0
  6 31  1  0  0  0
  8 32  1  0  0  0
 11 33  1  0  0  0
 11 34  1  0  0  0
 11 35  1  0  0  0
 12 36  1  0  0  0
 14 37  1  0  0  0
 16 38  1  0  0  0
 16 39  1  0  0  0
 17 40  1  0  0  0
 17 41  1  0  0  0
 19 42  1  0  0  0
M  END
$$$$
