4yh3_ligand
  -I-interpret- 

 49 52  0  0  0  0  0  0  0  0999 V2000
  -15.6270    4.8530   -0.2890 O   0  0  0  0  0
  -14.9570    5.8940   -0.6130 C   0  0  0  0  0
  -15.0390    6.3250   -1.9210 N   0  0  0  0  0
  -14.3360    7.3720   -2.4010 C   0  0  0  0  0
  -14.6200    8.1200   -3.5380 C   0  0  0  0  0
  -13.7790    9.1740   -3.9170 C   0  0  0  0  0
  -12.6870    9.4950   -3.1480 C   0  0  0  0  0
  -12.3760    8.7630   -2.0030 C   0  0  0  0  0
  -13.1550    7.6890   -1.6110 C   0  0  0  0  0
  -12.9110    6.9130   -0.4250 N   0  0  0  0  0
  -14.0540    6.5490    0.3660 C   0  0  0  0  0
  -11.6380    6.4270   -0.0780 C   0  0  0  0  0
  -11.5090    5.8350    0.9710 O   0  0  0  0  0
  -10.4290    6.5900   -0.9440 C   0  0  0  0  0
   -9.1220    7.1660   -0.4740 C   0  0  0  0  0
   -8.5620    8.1890   -1.1860 C   0  0  0  0  0
   -7.4300    8.8290   -0.7340 C   0  0  0  0  0
   -6.8340    8.3730    0.4150 C   0  0  0  0  0
   -7.3340    7.3310    1.1280 C   0  0  0  0  0
   -8.5210    6.7250    0.6790 C   0  0  0  0  0
  -10.7180    6.1210   -2.1800 C   0  0  0  0  0
   -9.9880    5.8940   -3.4200 C   0  0  0  0  0
  -10.6830    5.8930   -4.6190 C   0  0  0  0  0
  -10.0390    5.5950   -5.8140 C   0  0  0  0  0
   -8.7180    5.1590   -5.7390 C   0  0  0  0  0
   -8.1030    4.8590   -6.9190 O   0  0  0  0  0
   -6.7800    4.3420   -7.0930 C   0  0  0  0  0
   -8.0800    5.0790   -4.5430 C   0  0  0  0  0
   -8.6900    5.4100   -3.3660 C   0  0  0  0  0
  -15.6621    5.8274   -2.5570 H   0  0  0  0  0
  -15.5002    7.8854   -4.1366 H   0  0  0  0  0
  -13.9914    9.7405   -4.8237 H   0  0  0  0  0
  -12.0544   10.3342   -3.4372 H   0  0  0  0  0
  -11.5062    9.0410   -1.4078 H   0  0  0  0  0
  -13.7952    5.8951    1.1988 H   0  0  0  0  0
  -14.5167    7.4078    0.8522 H   0  0  0  0  0
   -9.0179    8.5028   -2.1250 H   0  0  0  0  0
   -7.0163    9.6790   -1.2767 H   0  0  0  0  0
   -5.9273    8.8645    0.7677 H   0  0  0  0  0
   -6.8284    6.9736    2.0251 H   0  0  0  0  0
   -8.9635    5.9059    1.2459 H   0  0  0  0  0
  -11.7674    5.8409   -2.2713 H   0  0  0  0  0
  -11.7472    6.1287   -4.6249 H   0  0  0  0  0
  -10.5476    5.6984   -6.7725 H   0  0  0  0  0
   -6.0591    5.0431   -6.6725 H   0  0  0  0  0
   -6.6961    3.3827   -6.5824 H   0  0  0  0  0
   -6.5806    4.2078   -8.1562 H   0  0  0  0  0
   -7.0447    4.7387   -4.5211 H   0  0  0  0  0
   -8.1719    5.2970   -2.4137 H   0  0  0  0  0
  1  2  2  0  0  0
  2  3  1  0  0  0
  2 11  1  0  0  0
  3  4  1  0  0  0
  4  5  4  0  0  0
  4  9  4  0  0  0
  5  6  4  0  0  0
  6  7  4  0  0  0
  7  8  4  0  0  0
  8  9  4  0  0  0
  9 10  1  0  0  0
 10 11  1  0  0  0
 10 12  1  0  0  0
 12 13  2  0  0  0
 12 14  1  0  0  0
 14 15  1  0  0  0
 14 21  2  0  0  0
 15 16  4  0  0  0
 15 20  4  0  0  0
 16 17  4  0  0  0
 17 18  4  0  0  0
 18 19  4  0  0  0
 19 20  4  0  0  0
 21 22  1  0  0  0
 22 23  4  0  0  0
 22 29  4  0  0  0
 23 24  4  0  0  0
 24 25  4  0  0  0
 25 26  1  0  0  0
 25 28  4  0  0  0
 26 27  1  0  0  0
 28 29  4  0  0  0
  3 30  1  0  0  0
  5 31  1  0  0  0
  6 32  1  0  0  0
  7 33  1  0  0  0
  8 34  1  0  0  0
 11 35  1  0  0  0
 11 36  1  0  0  0
 16 37  1  0  0  0
 17 38  1  0  0  0
 18 39  1  0  0  0
 19 40  1  0  0  0
 20 41  1  0  0  0
 21 42  1  0  0  0
 23 43  1  0  0  0
 24 44  1  0  0  0
 27 45  1  0  0  0
 27 46  1  0  0  0
 27 47  1  0  0  0
 28 48  1  0  0  0
 29 49  1  0  0  0
M  END
$$$$
