4mbi_ligand
  -I-interpret- 

 37 39  0  0  0  0  0  0  0  0999 V2000
   23.5870   32.9630   -5.0260 N   0  3  0  0  0
   23.6600   38.0040   -0.3540 N   0  0  0  0  0
   22.2440   34.8110   -4.0750 C   0  0  0  0  0
   22.9020   36.7940   -2.6990 C   0  0  0  0  0
   23.3550   38.1330   -2.6700 C   0  0  0  0  0
   23.7500   38.7250   -1.4760 C   0  0  0  0  0
   23.2120   36.7370   -0.3880 C   0  0  0  0  0
   22.9170   35.0480    1.4240 C   0  0  0  0  0
   23.7610   37.3500    1.7530 C   0  0  0  0  0
   23.7340   31.6320   -4.4470 C   0  0  0  0  0
   22.3740   33.0070   -5.8240 C   0  0  0  0  0
   23.5290   33.9720   -3.9900 C   0  0  0  0  0
   22.5520   36.2280   -3.8890 N   0  0  0  0  0
   22.8430   36.0900   -1.5300 N   0  0  0  0  0
   23.2760   36.3220    0.9390 C   0  0  0  0  0
   22.4430   33.9930    0.6430 C   0  0  0  0  0
   22.2060   32.9660    1.4880 N   0  0  0  0  0
   22.5430   33.4050    2.7730 N   0  0  0  0  0
   22.9900   34.6940    2.7670 C   0  0  0  0  0
   24.0200   38.4390    0.9360 N   0  0  0  0  0
   24.3969   33.1564   -5.6152 H   0  0  0  0  0
   21.5563   34.4900   -3.2926 H   0  0  0  0  0
   21.7908   34.6705   -5.0563 H   0  0  0  0  0
   23.3950   38.7080   -3.5951 H   0  0  0  0  0
   24.1229   39.7490   -1.4552 H   0  0  0  0  0
   23.9083   37.3035    2.8320 H   0  0  0  0  0
   22.8725   31.4147   -3.8155 H   0  0  0  0  0
   23.7952   30.8940   -5.2468 H   0  0  0  0  0
   24.6437   31.5964   -3.8476 H   0  0  0  0  0
   22.4379   32.2663   -6.6211 H   0  0  0  0  0
   21.5152   32.7870   -5.1898 H   0  0  0  0  0
   22.2619   34.0006   -6.2578 H   0  0  0  0  0
   24.3812   34.6398   -4.1164 H   0  0  0  0  0
   23.5445   33.4691   -3.0231 H   0  0  0  0  0
   22.5015   36.8357   -4.7067 H   0  0  0  0  0
   22.2934   33.9969   -0.4367 H   0  0  0  0  0
   23.3233   35.2993    3.6100 H   0  0  0  0  0
  1 10  1  0  0  0
  1 11  1  0  0  0
 12  1  1  0  0  0
  6  2  4  0  0  0
  2  7  4  0  0  0
  2 20  4  0  0  0
  3 12  1  0  0  0
 13  3  1  0  0  0
  5  4  4  0  0  0
  4 13  1  0  0  0
  4 14  4  0  0  0
  5  6  4  0  0  0
  7 14  4  0  0  0
  7 15  4  0  0  0
 15  8  1  0  0  0
  8 16  4  0  0  0
  8 19  4  0  0  0
 15  9  4  0  0  0
  9 20  4  0  0  0
 16 17  4  0  0  0
 17 18  4  0  0  0
 18 19  4  0  0  0
  1 21  1  0  0  0
  3 22  1  0  0  0
  3 23  1  0  0  0
  5 24  1  0  0  0
  6 25  1  0  0  0
  9 26  1  0  0  0
 10 27  1  0  0  0
 10 28  1  0  0  0
 10 29  1  0  0  0
 11 30  1  0  0  0
 11 31  1  0  0  0
 11 32  1  0  0  0
 12 33  1  0  0  0
 12 34  1  0  0  0
 13 35  1  0  0  0
 16 36  1  0  0  0
 19 37  1  0  0  0
M  END
$$$$
