3p3t_ligand
  -I-interpret- 

 34 35  0  0  0  0  0  0  0  0999 V2000
    0.1120   -2.5970   -9.5630 C   0  0  0  0  0
   -0.5150    2.4550   -9.7240 C   0  0  0  0  0
    3.1440   -2.2510   -4.7390 F   0  0  0  0  0
    2.4880   -1.3430   -1.3160 C   0  0  0  0  0
    1.2840   -0.6650   -1.4300 C   0  0  0  0  0
    3.1170   -1.8890   -2.4040 C   0  0  0  0  0
    0.6770   -0.5050   -2.6830 C   0  0  0  0  0
    0.5670    0.3180   -6.8340 C   0  0  0  0  0
    0.2760    0.2750   -5.3270 C   0  0  0  0  0
   -0.6480   -0.0780   -7.7020 C   0  0  0  0  0
    0.2570   -0.6860  -11.2590 N   0  0  0  0  0
    0.1060    0.5650  -11.2950 N   0  0  0  0  0
    0.8430   -0.9940   -5.0320 O   0  0  0  0  0
    2.5320   -1.7610   -3.6340 C   0  0  0  0  0
    0.0240   -1.1410  -10.0150 C   0  0  0  0  0
   -0.2280    0.9930  -10.0720 C   0  0  0  0  0
    1.3410   -1.0610   -3.7660 C   0  0  0  0  0
   -0.2950   -0.0800   -9.1930 C   0  0  0  0  0
   -0.5950   -3.1972  -10.1357 H   0  0  0  0  0
    1.1235   -2.9673   -9.7297 H   0  0  0  0  0
   -0.1299   -2.6620   -8.5022 H   0  0  0  0  0
    0.3674    3.0580   -9.9379 H   0  0  0  0  0
   -1.3539    2.8115  -10.3217 H   0  0  0  0  0
   -0.7623    2.5334   -8.6653 H   0  0  0  0  0
    2.9473   -1.4446   -0.3327 H   0  0  0  0  0
    0.8069   -0.2542   -0.5402 H   0  0  0  0  0
    4.0650   -2.4151   -2.2917 H   0  0  0  0  0
   -0.2666    0.0280   -2.8000 H   0  0  0  0  0
    1.3639   -0.3976   -7.0364 H   0  0  0  0  0
    0.8340    1.3436   -7.0890 H   0  0  0  0  0
   -0.7741    0.3855   -5.0564 H   0  0  0  0  0
    0.6845    1.1075   -4.7541 H   0  0  0  0  0
   -1.4429    0.6491   -7.5360 H   0  0  0  0  0
   -0.9615   -1.0831   -7.4197 H   0  0  0  0  0
 15  1  1  0  0  0
 16  2  1  0  0  0
 14  3  1  0  0  0
  5  4  4  0  0  0
  6  4  4  0  0  0
  7  5  4  0  0  0
 14  6  4  0  0  0
 17  7  4  0  0  0
  8  9  1  0  0  0
 10  8  1  0  0  0
  9 13  1  0  0  0
 18 10  1  0  0  0
 11 12  4  0  0  0
 15 11  4  0  0  0
 12 16  4  0  0  0
 13 17  1  0  0  0
 17 14  4  0  0  0
 15 18  4  0  0  0
 16 18  4  0  0  0
  1 19  1  0  0  0
  1 20  1  0  0  0
  1 21  1  0  0  0
  2 22  1  0  0  0
  2 23  1  0  0  0
  2 24  1  0  0  0
  4 25  1  0  0  0
  5 26  1  0  0  0
  6 27  1  0  0  0
  7 28  1  0  0  0
  8 29  1  0  0  0
  8 30  1  0  0  0
  9 31  1  0  0  0
  9 32  1  0  0  0
 10 33  1  0  0  0
 10 34  1  0  0  0
M  END
$$$$
