5v8q_ligand
  -I-interpret- 

 34 35  0  0  0  0  0  0  0  0999 V2000
   29.4740   -0.5640    3.2510 C   0  0  0  0  0
   28.1420   -1.2740    3.5870 C   0  0  0  0  0
   28.0350    3.4410    3.8630 C   0  0  0  0  0
   26.0870    4.8260    4.2000 C   0  0  0  0  0
   23.8280    3.7340    4.7170 C   0  0  0  0  0
   29.2930    1.6830    6.3910 C   0  0  0  0  0
   29.7600    0.5220    5.5120 C   0  0  0  0  0
   29.3070    0.7430    4.0640 C   0  0  0  0  0
   30.5790   -1.3630    3.6780 O   0  0  0  0  0
   27.1870   -0.1070    3.6770 C   0  0  0  0  0
   25.9900   -0.2040    3.5190 O   0  0  0  0  0
   27.8630    1.0290    3.9690 N   0  0  0  0  0
   27.2670    2.2980    4.0740 C   0  0  0  0  0
   27.4570    4.6900    3.9330 C   0  0  0  0  0
   25.5370    6.1490    4.2570 C   0  0  0  0  0
   25.1140    7.2050    4.2990 N   0  0  0  0  0
   25.3060    3.6770    4.4060 C   0  0  0  0  0
   25.9060    2.4320    4.3390 C   0  0  0  0  0
   23.2000    2.6330    4.1510 F   0  0  0  0  0
   23.6400    3.6820    6.0970 F   0  0  0  0  0
   23.2180    4.8850    4.2290 F   0  0  0  0  0
   29.6729   -0.3872    2.1940 H   0  0  0  0  0
   28.1856   -1.8710    4.4979 H   0  0  0  0  0
   27.8486   -2.0195    2.8480 H   0  0  0  0  0
   29.0981    3.3469    3.6415 H   0  0  0  0  0
   29.7216    2.6137    6.0193 H   0  0  0  0  0
   28.2052    1.7450    6.3611 H   0  0  0  0  0
   29.6206    1.5149    7.4169 H   0  0  0  0  0
   29.3268   -0.4061    5.8849 H   0  0  0  0  0
   30.8481    0.4655    5.5420 H   0  0  0  0  0
   29.9084    1.5730    3.6932 H   0  0  0  0  0
   30.6278   -2.1547    3.1373 H   0  0  0  0  0
   28.0691    5.5788    3.7797 H   0  0  0  0  0
   25.3019    1.5385    4.4967 H   0  0  0  0  0
  2  1  1  0  0  0
  8  1  1  0  0  0
  1  9  1  0  0  0
 10  2  1  0  0  0
 13  3  4  0  0  0
  3 14  4  0  0  0
 14  4  4  0  0  0
  4 15  1  0  0  0
  4 17  4  0  0  0
 17  5  1  0  0  0
  5 19  1  0  0  0
  5 20  1  0  0  0
  5 21  1  0  0  0
  7  6  1  0  0  0
  8  7  1  0  0  0
 12  8  1  0  0  0
 10 11  2  0  0  0
 12 10  1  0  0  0
 12 13  1  0  0  0
 13 18  4  0  0  0
 15 16  3  0  0  0
 17 18  4  0  0  0
  1 22  1  0  0  0
  2 23  1  0  0  0
  2 24  1  0  0  0
  3 25  1  0  0  0
  6 26  1  0  0  0
  6 27  1  0  0  0
  6 28  1  0  0  0
  7 29  1  0  0  0
  7 30  1  0  0  0
  8 31  1  0  0  0
  9 32  1  0  0  0
 14 33  1  0  0  0
 18 34  1  0  0  0
M  END
$$$$
