5i89_ligand
  -I-interpret- 

 48 52  0  0  0  0  0  0  0  0999 V2000
  -23.7190   -0.0350   21.5660 C   0  0  0  0  0
  -24.0830   -1.2350   22.4170 C   0  0  0  0  0
  -22.8930   -0.3640   22.8000 C   0  0  0  0  0
  -21.4600   -0.8740   22.5770 C   0  0  0  0  0
  -20.7690   -1.7750   23.3250 C   0  0  0  0  0
  -21.0630   -2.5260   24.4230 C   0  0  0  0  0
  -20.6740   -0.3350   21.6530 N   0  0  0  0  0
  -19.5280   -0.9430   21.7430 N   0  0  0  0  0
  -18.3690   -0.5420   20.9180 C   0  0  0  0  0
  -19.5310   -1.8110   22.7820 C   0  0  0  0  0
  -18.5700   -2.6430   23.2600 C   0  0  0  0  0
  -18.8600   -3.4850   24.3390 C   0  0  0  0  0
  -20.1090   -3.4150   24.9780 C   0  0  0  0  0
  -20.4080   -4.1610   26.1640 C   0  0  0  0  0
  -20.4630   -5.5730   26.2030 C   0  0  0  0  0
  -20.2270   -6.2860   25.0120 N   0  0  0  0  0
  -19.1890   -7.3330   24.9070 C   0  0  0  0  0
  -19.5260   -8.2620   23.7490 C   0  0  0  0  0
  -19.0580   -8.1250   26.2370 C   0  0  0  0  0
  -20.3340   -8.5320   26.7290 C   0  0  0  0  0
  -20.7570   -9.6960   26.6170 O   0  0  0  0  0
  -21.1220   -7.5990   27.3740 N   0  0  0  0  0
  -20.8620   -6.2240   27.3620 C   0  0  0  0  0
  -21.1900   -5.5110   28.5200 C   0  0  0  0  0
  -21.0840   -4.1240   28.5180 C   0  0  0  0  0
  -20.7400   -3.4680   27.3370 C   0  0  0  0  0
  -24.2123    0.8294   21.1215 H   0  0  0  0  0
  -23.5558    0.1995   20.5141 H   0  0  0  0  0
  -24.3122   -2.2922   22.2832 H   0  0  0  0  0
  -24.9669   -1.6640   22.8889 H   0  0  0  0  0
  -22.5971    0.1547   23.7118 H   0  0  0  0  0
  -22.0480   -2.4417   24.8821 H   0  0  0  0  0
  -18.6220   -0.6467   19.8630 H   0  0  0  0  0
  -18.1151    0.4965   21.1307 H   0  0  0  0  0
  -17.5181   -1.1811   21.1540 H   0  0  0  0  0
  -17.5791   -2.6547   22.8059 H   0  0  0  0  0
  -18.1129   -4.1990   24.6856 H   0  0  0  0  0
  -20.7934   -6.0720   24.1912 H   0  0  0  0  0
  -18.2256   -6.8604   24.7159 H   0  0  0  0  0
  -20.4961   -8.7259   23.9275 H   0  0  0  0  0
  -19.5611   -7.6882   22.8229 H   0  0  0  0  0
  -18.7613   -9.0347   23.6704 H   0  0  0  0  0
  -18.5908   -7.4786   26.9800 H   0  0  0  0  0
  -18.4585   -9.0162   26.0513 H   0  0  0  0  0
  -21.9386   -7.9305   27.8875 H   0  0  0  0  0
  -21.5250   -6.0366   29.4142 H   0  0  0  0  0
  -21.2679   -3.5562   29.4301 H   0  0  0  0  0
  -20.7287   -2.3781   27.3249 H   0  0  0  0  0
  1  2  1  0  0  0
  1  3  1  0  0  0
  2  3  1  0  0  0
  3  4  1  0  0  0
  4  5  4  0  0  0
  4  7  4  0  0  0
  5  6  4  0  0  0
  5 10  4  0  0  0
  6 13  4  0  0  0
  7  8  4  0  0  0
  8  9  1  0  0  0
  8 10  4  0  0  0
 10 11  4  0  0  0
 11 12  4  0  0  0
 12 13  4  0  0  0
 13 14  1  0  0  0
 14 15  4  0  0  0
 14 26  4  0  0  0
 15 16  1  0  0  0
 15 23  4  0  0  0
 16 17  1  0  0  0
 17 18  1  0  0  0
 17 19  1  0  0  0
 19 20  1  0  0  0
 20 21  2  0  0  0
 20 22  1  0  0  0
 22 23  1  0  0  0
 23 24  4  0  0  0
 24 25  4  0  0  0
 25 26  4  0  0  0
  1 27  1  0  0  0
  1 28  1  0  0  0
  2 29  1  0  0  0
  2 30  1  0  0  0
  3 31  1  0  0  0
  6 32  1  0  0  0
  9 33  1  0  0  0
  9 34  1  0  0  0
  9 35  1  0  0  0
 11 36  1  0  0  0
 12 37  1  0  0  0
 16 38  1  0  0  0
 17 39  1  0  0  0
 18 40  1  0  0  0
 18 41  1  0  0  0
 18 42  1  0  0  0
 19 43  1  0  0  0
 19 44  1  0  0  0
 22 45  1  0  0  0
 24 46  1  0  0  0
 25 47  1  0  0  0
 26 48  1  0  0  0
M  END
$$$$
