4i6f_ligand
  -I-interpret- 

 54 58  0  0  0  0  0  0  0  0999 V2000
   13.4420    4.0860   10.0700 O   0  0  0  0  0
   12.4030    4.6960   10.1670 C   0  0  0  0  0
   11.2110    4.0420    9.9600 N   0  0  0  0  0
   11.2150    2.6500    9.6480 C   0  0  0  0  0
   10.0190    4.7210   10.0300 C   0  0  0  0  0
   12.5090    6.1030   10.4600 C   0  0  0  0  0
   13.2240    6.5940    9.2310 C   0  0  0  0  0
   12.3950    6.4350    7.9950 C   0  0  0  0  0
   11.2470    6.7930   10.5560 N   0  0  0  0  0
   11.2770    8.1880   10.9180 C   0  0  0  0  0
   12.4660    8.4670   11.7580 C   0  0  0  0  0
   12.5280    9.9540   11.8780 C   0  0  0  0  0
   11.7300   10.4840   10.7410 C   0  0  0  0  0
   11.2600    9.3050    9.9300 C   0  0  0  0  0
   10.0360    6.1210   10.3550 C   0  0  0  0  0
    8.8680    6.7160   10.4280 N   0  0  0  0  0
    7.7740    6.0440   10.1960 C   0  0  0  0  0
    7.7530    4.7810    9.9050 N   0  0  0  0  0
    8.8500    4.1090    9.8150 C   0  0  0  0  0
    6.6730    6.7050   10.2870 N   0  0  0  0  0
    5.6370    6.4390    9.6030 C   0  0  0  0  0
    4.7320    7.3500    9.9780 C   0  0  0  0  0
    5.3190    8.0710   10.8890 N   0  0  0  0  0
    6.5710    7.7050   11.0600 C   0  0  0  0  0
    7.5090    8.2660   12.0490 C   0  0  0  0  0
    7.6010    9.5860   12.2940 C   0  0  0  0  0
    8.4400   10.0040   13.2660 C   0  0  0  0  0
    9.1800    9.1500   14.0090 C   0  0  0  0  0
    9.0710    7.8350   13.7950 C   0  0  0  0  0
    8.2140    7.4110   12.8240 C   0  0  0  0  0
   10.6433    2.1084   10.4016 H   0  0  0  0  0
   10.7630    2.4973    8.6680 H   0  0  0  0  0
   12.2418    2.2844    9.6369 H   0  0  0  0  0
   12.9877    6.2761   11.4238 H   0  0  0  0  0
   14.1328    6.0048    9.1086 H   0  0  0  0  0
   13.4370    7.6548    9.3630 H   0  0  0  0  0
   12.1574    5.3809    7.8515 H   0  0  0  0  0
   11.4724    7.0054    8.1020 H   0  0  0  0  0
   12.9536    6.8032    7.1345 H   0  0  0  0  0
   10.2839    8.2274   11.3655 H   0  0  0  0  0
   13.3748    8.0637   11.3113 H   0  0  0  0  0
   12.3863    7.9900   12.7348 H   0  0  0  0  0
   13.0501   10.5313   12.6410 H   0  0  0  0  0
   11.5230   11.5336   10.5325 H   0  0  0  0  0
   10.2761    9.4623    9.4881 H   0  0  0  0  0
   11.8913    9.1109    9.0629 H   0  0  0  0  0
    8.8243    3.0483    9.5651 H   0  0  0  0  0
    5.5122    5.6420    8.8700 H   0  0  0  0  0
    3.7161    7.4645    9.6000 H   0  0  0  0  0
    7.0116   10.3016   11.7208 H   0  0  0  0  0
    8.5243   11.0733   13.4597 H   0  0  0  0  0
    9.8576    9.5297   14.7737 H   0  0  0  0  0
    9.6512    7.1220   14.3807 H   0  0  0  0  0
    8.0919    6.3395   12.6656 H   0  0  0  0  0
  1  2  2  0  0  0
  2  3  1  0  0  0
  2  6  1  0  0  0
  3  4  1  0  0  0
  3  5  1  0  0  0
  5 15  4  0  0  0
  5 19  4  0  0  0
  6  7  1  0  0  0
  6  9  1  0  0  0
  7  8  1  0  0  0
  9 10  1  0  0  0
  9 15  1  0  0  0
 10 11  1  0  0  0
 10 14  1  0  0  0
 11 12  1  0  0  0
 12 13  2  0  0  0
 13 14  1  0  0  0
 15 16  4  0  0  0
 16 17  4  0  0  0
 17 18  4  0  0  0
 17 20  1  0  0  0
 18 19  4  0  0  0
 20 21  4  0  0  0
 20 24  4  0  0  0
 21 22  4  0  0  0
 22 23  4  0  0  0
 23 24  4  0  0  0
 24 25  1  0  0  0
 25 26  4  0  0  0
 25 30  4  0  0  0
 26 27  4  0  0  0
 27 28  4  0  0  0
 28 29  4  0  0  0
 29 30  4  0  0  0
  4 31  1  0  0  0
  4 32  1  0  0  0
  4 33  1  0  0  0
  6 34  1  0  0  0
  7 35  1  0  0  0
  7 36  1  0  0  0
  8 37  1  0  0  0
  8 38  1  0  0  0
  8 39  1  0  0  0
 10 40  1  0  0  0
 11 41  1  0  0  0
 11 42  1  0  0  0
 12 43  1  0  0  0
 13 44  1  0  0  0
 14 45  1  0  0  0
 14 46  1  0  0  0
 19 47  1  0  0  0
 21 48  1  0  0  0
 22 49  1  0  0  0
 26 50  1  0  0  0
 27 51  1  0  0  0
 28 52  1  0  0  0
 29 53  1  0  0  0
 30 54  1  0  0  0
M  END
$$$$
