### 
### Created by X-TOOL on Mon Sep 10 21:12:52 2018
### 

@<TRIPOS>MOLECULE
1zkk_ligand
  159   159     1     0     0
SMALL
GAST_HUCK


@<TRIPOS>ATOM
      1 O1          5.8857   -6.0391   -3.4836 O.co2     1 ARG        -0.5666
      2 H1         -9.8164   12.1761   -6.4045 H         1 LYS         0.2015
      3 H2         -8.2042   12.2572   -6.7261 H         1 LYS         0.2015
      4 H3         -8.8931   10.8154   -6.3307 H         1 LYS         0.2015
      5 H4        -10.1999   10.7876   -8.3236 H         1 LYS         0.1095
      6 H5         -9.7882   12.5170  -10.0438 H         1 LYS         0.0310
      7 H6         -8.7144   13.3913   -8.8996 H         1 LYS         0.0310
      8 H7        -10.4648   13.2183   -8.5349 H         1 LYS         0.0310
      9 H8         -6.9680   11.1541   -7.3313 H         1 ARG         0.1884
     10 H9         -5.8747    9.8973   -9.8020 H         1 ARG         0.0800
     11 H10        -3.6661   10.4845   -8.7815 H         1 ARG         0.0313
     12 H11        -4.5428   11.2490   -7.4127 H         1 ARG         0.0313
     13 H12        -5.6117   12.8066   -9.0902 H         1 ARG         0.0301
     14 H13        -4.4991   12.1283  -10.3266 H         1 ARG         0.0301
     15 H14        -3.7785   13.6277   -7.7733 H         1 ARG         0.0689
     16 H15        -3.4947   14.1371   -9.4723 H         1 ARG         0.0689
     17 H16        -1.9114   12.2379   -7.8665 H         1 ARG         0.2642
     18 H17        -1.1264   12.8303  -11.8146 H         1 ARG         0.2615
     19 H18        -2.6602   13.4446  -11.1417 H         1 ARG         0.2615
     20 H19        -0.0138   11.4696   -8.7334 H         1 ARG         0.2615
     21 H20         0.3577   11.7170  -10.4606 H         1 ARG         0.2615
     22 H21        -4.8723    7.9333   -9.7436 H         1 HIS         0.1885
     23 H22        -4.7899    6.5022   -7.1200 H         1 HIS         0.0817
     24 H23        -5.9874    5.3824   -9.0448 H         1 HIS         0.0420
     25 H24        -4.6328    4.4338   -8.3436 H         1 HIS         0.0420
     26 H25        -5.6492    6.1308  -11.7107 H         1 HIS         0.0729
     27 H26        -1.8177    4.3437  -12.2382 H         1 HIS         0.1199
     28 H27        -3.7811    5.4793  -13.4218 H         1 HIS         0.2361
     29 H28        -2.8414    4.9411   -7.0329 H         1 ARG         0.1883
     30 H29        -0.3926    6.3451   -8.0201 H         1 ARG         0.0800
     31 H30         0.7260    5.1356   -6.0426 H         1 ARG         0.0313
     32 H31        -0.9346    4.7940   -5.4490 H         1 ARG         0.0313
     33 H32        -1.3382    7.3100   -5.5528 H         1 ARG         0.0301
     34 H33         0.4331    7.4829   -5.7962 H         1 ARG         0.0301
     35 H34         0.8997    6.4123   -3.6729 H         1 ARG         0.0689
     36 H35        -0.8275    5.9680   -3.4584 H         1 ARG         0.0689
     37 H36        -0.0519    8.8604   -3.6780 H         1 ARG         0.2642
     38 H37        -1.9596    7.2305   -0.4757 H         1 ARG         0.2615
     39 H38        -1.3498    6.1556   -1.7623 H         1 ARG         0.2615
     40 H39        -0.8268   10.1948   -2.0443 H         1 ARG         0.2615
     41 H40        -1.6668    9.4951   -0.6345 H         1 ARG         0.2615
     42 H41         1.4809    4.8743   -8.3005 H         1 LYS         0.1883
     43 H42         0.7798    1.9864   -8.7025 H         1 LYS         0.0800
     44 H43         2.9141    1.8631   -9.9490 H         1 LYS         0.0312
     45 H44         3.1613    3.6242   -9.6957 H         1 LYS         0.0312
     46 H45         0.9211    3.9573  -10.9087 H         1 LYS         0.0269
     47 H46         1.0451    2.2297  -11.3848 H         1 LYS         0.0269
     48 H47         3.1800    2.6691  -12.5378 H         1 LYS         0.0317
     49 H48         3.1458    4.3816  -11.9969 H         1 LYS         0.0317
     50 H49         1.0350    4.7344  -13.2099 H         1 LYS         0.0813
     51 H50         1.0369    3.0150  -13.7297 H         1 LYS         0.0813
     52 H51         1.8866    4.4702  -15.4362 H         1 LYS         0.1994
     53 H52         3.0766    3.4561  -14.9214 H         1 LYS         0.1994
     54 H53         3.0748    5.0317  -14.4451 H         1 LYS         0.1994
     55 H54         1.8669    0.5729   -7.2897 H         1 VAL         0.1883
     56 H55         3.5134    1.7831   -5.0940 H         1 VAL         0.0802
     57 H56         0.8437    0.2723   -4.7738 H         1 VAL         0.0343
     58 H57         1.1958    0.3385   -2.3191 H         1 VAL         0.0234
     59 H58         2.8484    0.9918   -2.5814 H         1 VAL         0.0234
     60 H59         2.4331   -0.6584   -3.1568 H         1 VAL         0.0234
     61 H60         0.6588    2.7017   -5.1485 H         1 VAL         0.0234
     62 H61         1.6946    2.9900   -3.7096 H         1 VAL         0.0234
     63 H62         0.0889    2.2079   -3.5182 H         1 VAL         0.0234
     64 H63         5.2282    0.3838   -4.7485 H         1 LEU         0.1883
     65 H64         5.1483   -2.2973   -5.8730 H         1 LEU         0.0800
     66 H65         7.1373   -1.1627   -3.8675 H         1 LEU         0.0315
     67 H66         7.2239   -0.8998   -5.6423 H         1 LEU         0.0315
     68 H67         7.4563   -3.5739   -4.2041 H         1 LEU         0.0298
     69 H68         8.0928   -4.4430   -6.4383 H         1 LEU         0.0232
     70 H69         7.7518   -2.8328   -7.1577 H         1 LEU         0.0232
     71 H70         6.4185   -3.7924   -6.4310 H         1 LEU         0.0232
     72 H71         9.3992   -2.0874   -3.8825 H         1 LEU         0.0232
     73 H72         9.5269   -1.8783   -5.6620 H         1 LEU         0.0232
     74 H73         9.7965   -3.4945   -4.9259 H         1 LEU         0.0232
     75 H74         4.6017   -4.1720   -4.9371 H         1 ARG         0.1875
     76 H75         3.9898   -4.1767   -2.0085 H         1 ARG         0.0726
     77 H76         2.1364   -5.7613   -2.4992 H         1 ARG         0.0307
     78 H77         2.4395   -5.5459   -4.2566 H         1 ARG         0.0307
     79 H78         1.8030   -3.1727   -4.0916 H         1 ARG         0.0301
     80 H79         1.5420   -3.3534   -2.3235 H         1 ARG         0.0301
     81 H80         0.1125   -5.1326   -4.3336 H         1 ARG         0.0689
     82 H81        -0.5260   -3.5125   -3.8931 H         1 ARG         0.0689
     83 H82        -0.1810   -5.8536   -2.0380 H         1 ARG         0.2642
     84 H83        -2.6108   -2.6604   -1.3515 H         1 ARG         0.2615
     85 H84        -1.5753   -2.6616   -2.8042 H         1 ARG         0.2615
     86 H85        -1.4947   -5.8231   -0.2157 H         1 ARG         0.2615
     87 H86        -2.5972   -4.4508    0.0745 H         1 ARG         0.2615
     88 N          -9.0330   11.6900   -6.8120 N.4       1 LYS         0.2377
     89 CA         -9.3070   11.4260   -8.2520 C.3       1 LYS         0.0621
     90 C          -8.1350   10.6880   -8.9010 C.2       1 LYS         0.2264
     91 O          -8.2700   10.1280   -9.9870 O.2       1 LYS        -0.3907
     92 CB         -9.5880   12.7280   -8.9830 C.3       1 LYS        -0.0040
     93 N          -6.9900   10.7020   -8.2230 N.am      1 ARG        -0.2610
     94 CA         -5.7640   10.0860   -8.7240 C.3       1 ARG         0.1312
     95 C          -5.4740    8.7780   -8.0130 C.2       1 ARG         0.2040
     96 O          -5.7050    8.6550   -6.7960 O.2       1 ARG        -0.3944
     97 CB         -4.5830   11.0160   -8.4870 C.3       1 ARG        -0.0092
     98 CG         -4.6330   12.3320   -9.2540 C.3       1 ARG        -0.0156
     99 CD         -3.5390   13.2770   -8.7880 C.3       1 ARG         0.0627
    100 NE         -2.2340   12.6200   -8.7670 N.pl3     1 ARG        -0.2723
    101 CZ         -1.4290   12.4750   -9.8150 C.cat     1 ARG         0.2882
    102 NH1        -1.7640   12.9530  -11.0150 N.pl3     1 ARG        -0.2849
    103 NH2        -0.2760   11.8400   -9.6580 N.pl3     1 ARG        -0.2849
    104 N          -4.9330    7.8110   -8.7530 N.am      1 HIS        -0.2625
    105 CA         -4.4240    6.5720   -8.1550 C.3       1 HIS         0.1369
    106 C          -2.9010    6.6190   -8.1470 C.2       1 HIS         0.2054
    107 O          -2.2950    7.5490   -8.7010 O.2       1 HIS        -0.3942
    108 CB         -4.8950    5.3280   -8.9280 C.3       1 HIS         0.0145
    109 CG         -4.2780    5.2060  -10.2850 C.2       1 HIS        -0.0027
    110 ND1        -3.0380    4.6370  -10.4910 N.2       1 HIS        -0.3252
    111 CD2        -4.7080    5.6260  -11.4980 C.2       1 HIS         0.0291
    112 CE1        -2.7350    4.7080  -11.7780 C.2       1 HIS         0.0907
    113 NE2        -3.7370    5.2970  -12.4090 N.pl3     1 HIS        -0.2752
    114 N          -2.2870    5.6230   -7.5100 N.am      1 ARG        -0.2636
    115 CA         -0.8340    5.4920   -7.4840 C.3       1 ARG         0.1311
    116 C          -0.4080    4.2050   -8.1650 C.2       1 ARG         0.2039
    117 O          -1.2410    3.3650   -8.5250 O.2       1 ARG        -0.3944
    118 CB         -0.3160    5.4880   -6.0370 C.3       1 ARG        -0.0092
    119 CG         -0.3570    6.8480   -5.3690 C.3       1 ARG        -0.0156
    120 CD         -0.1380    6.7230   -3.8640 C.3       1 ARG         0.0627
    121 NE         -0.3870    8.0090   -3.2050 N.pl3     1 ARG        -0.2723
    122 CZ         -1.0150    8.1570   -2.0390 C.cat     1 ARG         0.2882
    123 NH1        -1.4760    7.1020   -1.3760 N.pl3     1 ARG        -0.2849
    124 NH2        -1.1820    9.3730   -1.5350 N.pl3     1 ARG        -0.2849
    125 N           0.9030    4.0590   -8.3370 N.am      1 LYS        -0.2637
    126 CA          1.5360    2.7750   -8.5750 C.3       1 LYS         0.1310
    127 C           2.3530    2.5270   -7.2950 C.2       1 LYS         0.2039
    128 O           2.9940    3.4600   -6.7730 O.2       1 LYS        -0.3944
    129 CB          2.4090    2.8330   -9.8300 C.3       1 LYS        -0.0122
    130 CG          1.6160    3.1280  -11.1070 C.3       1 LYS        -0.0440
    131 CD          2.5280    3.5170  -12.2810 C.3       1 LYS        -0.0124
    132 CE          1.6710    3.8770  -13.4750 C.3       1 LYS        -0.0354
    133 NZ          2.4940    4.2380  -14.6660 N.4       1 LYS         0.2185
    134 N           2.2810    1.3110   -6.7570 N.am      1 VAL        -0.2635
    135 CA          2.7920    1.0100   -5.3970 C.3       1 VAL         0.1332
    136 C           3.4590   -0.3520   -5.4150 C.2       1 VAL         0.2041
    137 O           2.8270   -1.3270   -5.8050 O.2       1 VAL        -0.3944
    138 CB          1.6080    0.9460   -4.3590 C.3       1 VAL        -0.0063
    139 CG1         2.0530    0.3630   -3.0080 C.3       1 VAL        -0.0584
    140 CG2         0.9690    2.3040   -4.1710 C.3       1 VAL        -0.0584
    141 N           4.7270   -0.4410   -5.0100 N.am      1 LEU        -0.2637
    142 CA          5.3840   -1.7490   -4.9490 C.3       1 LEU         0.1312
    143 C           4.8620   -2.5520   -3.7640 C.2       1 LEU         0.2033
    144 O           4.8130   -2.0280   -2.6650 O.2       1 LEU        -0.3944
    145 CB          6.9090   -1.5970   -4.8520 C.3       1 LEU        -0.0101
    146 CG          7.7460   -2.8720   -5.0000 C.3       1 LEU        -0.0425
    147 CD1         7.4840   -3.5310   -6.3510 C.3       1 LEU        -0.0625
    148 CD2         9.2170   -2.5620   -4.8580 C.3       1 LEU        -0.0625
    149 N           4.4960   -3.8150   -4.0090 N.am      1 ARG        -0.2695
    150 CA          3.9460   -4.7000   -2.9750 C.3       1 ARG         0.0945
    151 C           4.7810   -5.9760   -2.8810 C.2       1 ARG         0.0601
    152 O           4.3900   -6.9500   -2.2220 O.co2     1 ARG        -0.5666
    153 CB          2.4780   -5.0570   -3.2720 C.3       1 ARG        -0.0148
    154 CG          1.5070   -3.8700   -3.2940 C.3       1 ARG        -0.0162
    155 CD          0.0900   -4.3580   -3.5530 C.3       1 ARG         0.0627
    156 NE         -0.4970   -4.9200   -2.3370 N.pl3     1 ARG        -0.2723
    157 CZ         -1.4120   -4.3060   -1.5910 C.cat     1 ARG         0.2882
    158 NH1        -1.9030   -3.1200   -1.9420 N.pl3     1 ARG        -0.2849
    159 NH2        -1.8690   -4.9050   -0.4950 N.pl3     1 ARG        -0.2849
@<TRIPOS>BOND
     1  151    1 ar 
     2   88    2 1  
     3   88    3 1  
     4   88    4 1  
     5   89    5 1  
     6   92    6 1  
     7   92    7 1  
     8   92    8 1  
     9   93    9 1  
    10   94   10 1  
    11   97   11 1  
    12   97   12 1  
    13   98   13 1  
    14   98   14 1  
    15   99   15 1  
    16   99   16 1  
    17  100   17 1  
    18  102   18 1  
    19  102   19 1  
    20  103   20 1  
    21  103   21 1  
    22  104   22 1  
    23  105   23 1  
    24  108   24 1  
    25  108   25 1  
    26  111   26 1  
    27  112   27 1  
    28  113   28 1  
    29  114   29 1  
    30  115   30 1  
    31  118   31 1  
    32  118   32 1  
    33  119   33 1  
    34  119   34 1  
    35  120   35 1  
    36  120   36 1  
    37  121   37 1  
    38  123   38 1  
    39  123   39 1  
    40  124   40 1  
    41  124   41 1  
    42  125   42 1  
    43  126   43 1  
    44  129   44 1  
    45  129   45 1  
    46  130   46 1  
    47  130   47 1  
    48  131   48 1  
    49  131   49 1  
    50  132   50 1  
    51  132   51 1  
    52  133   52 1  
    53  133   53 1  
    54  133   54 1  
    55  134   55 1  
    56  135   56 1  
    57  138   57 1  
    58  139   58 1  
    59  139   59 1  
    60  139   60 1  
    61  140   61 1  
    62  140   62 1  
    63  140   63 1  
    64  141   64 1  
    65  142   65 1  
    66  145   66 1  
    67  145   67 1  
    68  146   68 1  
    69  147   69 1  
    70  147   70 1  
    71  147   71 1  
    72  148   72 1  
    73  148   73 1  
    74  148   74 1  
    75  149   75 1  
    76  150   76 1  
    77  153   77 1  
    78  153   78 1  
    79  154   79 1  
    80  154   80 1  
    81  155   81 1  
    82  155   82 1  
    83  156   83 1  
    84  158   84 1  
    85  158   85 1  
    86  159   86 1  
    87  159   87 1  
    88   89   88 1  
    89   89   92 1  
    90   90   89 1  
    91   90   91 2  
    92   94   93 1  
    93   94   97 1  
    94   95   94 1  
    95   95   96 2  
    96   97   98 1  
    97   98   99 1  
    98   99  100 1  
    99  100  101 ar 
   100  101  103 ar 
   101  101  102 ar 
   102   93   90 am 
   103  105  104 1  
   104  105  108 1  
   105  106  105 1  
   106  106  107 2  
   107  108  109 1  
   108  109  110 1  
   109  109  111 2  
   110  111  113 1  
   111  113  112 1  
   112  110  112 2  
   113  104   95 am 
   114  115  114 1  
   115  115  118 1  
   116  116  115 1  
   117  116  117 2  
   118  118  119 1  
   119  119  120 1  
   120  120  121 1  
   121  121  122 ar 
   122  122  124 ar 
   123  122  123 ar 
   124  114  106 am 
   125  126  125 1  
   126  126  129 1  
   127  127  126 1  
   128  127  128 2  
   129  129  130 1  
   130  130  131 1  
   131  131  132 1  
   132  132  133 1  
   133  125  116 am 
   134  135  134 1  
   135  135  138 1  
   136  136  135 1  
   137  136  137 2  
   138  138  140 1  
   139  138  139 1  
   140  134  127 am 
   141  142  141 1  
   142  142  145 1  
   143  143  142 1  
   144  143  144 2  
   145  145  146 1  
   146  146  147 1  
   147  146  148 1  
   148  141  136 am 
   149  149  150 1  
   150  150  153 1  
   151  150  151 1  
   152  151  152 ar 
   153  153  154 1  
   154  154  155 1  
   155  155  156 1  
   156  156  157 ar 
   157  157  159 ar 
   158  157  158 ar 
   159  143  149 am 
@<TRIPOS>SUBSTRUCTURE
     1 ARG         1

