1zkk_ligand
  -I-interpret- 

156156  0  0  0  0  0  0  0  0999 V2000
    5.8857   -6.0391   -3.4836 O   0  0  0  0  0
   -9.0330   11.6900   -6.8120 N   0  3  0  0  0
   -9.3070   11.4260   -8.2520 C   0  0  0  0  0
   -8.1350   10.6880   -8.9010 C   0  0  0  0  0
   -8.2700   10.1280   -9.9870 O   0  0  0  0  0
   -9.5880   12.7280   -8.9830 C   0  0  0  0  0
   -6.9900   10.7020   -8.2230 N   0  0  0  0  0
   -5.7640   10.0860   -8.7240 C   0  0  0  0  0
   -5.4740    8.7780   -8.0130 C   0  0  0  0  0
   -5.7050    8.6550   -6.7960 O   0  0  0  0  0
   -4.5830   11.0160   -8.4870 C   0  0  0  0  0
   -4.6330   12.3320   -9.2540 C   0  0  0  0  0
   -3.5390   13.2770   -8.7880 C   0  0  0  0  0
   -2.2340   12.6200   -8.7670 N   0  0  0  0  0
   -1.4290   12.4750   -9.8150 C   0  0  0  0  0
   -1.7640   12.9530  -11.0150 N   0  0  0  0  0
   -0.2760   11.8400   -9.6580 N   0  0  0  0  0
   -4.9330    7.8110   -8.7530 N   0  0  0  0  0
   -4.4240    6.5720   -8.1550 C   0  0  0  0  0
   -2.9010    6.6190   -8.1470 C   0  0  0  0  0
   -2.2950    7.5490   -8.7010 O   0  0  0  0  0
   -4.8950    5.3280   -8.9280 C   0  0  0  0  0
   -4.2780    5.2060  -10.2850 C   0  0  0  0  0
   -3.0380    4.6370  -10.4910 N   0  0  0  0  0
   -4.7080    5.6260  -11.4980 C   0  0  0  0  0
   -2.7350    4.7080  -11.7780 C   0  0  0  0  0
   -3.7370    5.2970  -12.4090 N   0  0  0  0  0
   -2.2870    5.6230   -7.5100 N   0  0  0  0  0
   -0.8340    5.4920   -7.4840 C   0  0  0  0  0
   -0.4080    4.2050   -8.1650 C   0  0  0  0  0
   -1.2410    3.3650   -8.5250 O   0  0  0  0  0
   -0.3160    5.4880   -6.0370 C   0  0  0  0  0
   -0.3570    6.8480   -5.3690 C   0  0  0  0  0
   -0.1380    6.7230   -3.8640 C   0  0  0  0  0
   -0.3870    8.0090   -3.2050 N   0  0  0  0  0
   -1.0150    8.1570   -2.0390 C   0  0  0  0  0
   -1.4760    7.1020   -1.3760 N   0  0  0  0  0
   -1.1820    9.3730   -1.5350 N   0  0  0  0  0
    0.9030    4.0590   -8.3370 N   0  0  0  0  0
    1.5360    2.7750   -8.5750 C   0  0  0  0  0
    2.3530    2.5270   -7.2950 C   0  0  0  0  0
    2.9940    3.4600   -6.7730 O   0  0  0  0  0
    2.4090    2.8330   -9.8300 C   0  0  0  0  0
    1.6160    3.1280  -11.1070 C   0  0  0  0  0
    2.5280    3.5170  -12.2810 C   0  0  0  0  0
    1.6710    3.8770  -13.4750 C   0  0  0  0  0
    2.4940    4.2380  -14.6660 N   0  3  0  0  0
    2.2810    1.3110   -6.7570 N   0  0  0  0  0
    2.7920    1.0100   -5.3970 C   0  0  0  0  0
    3.4590   -0.3520   -5.4150 C   0  0  0  0  0
    2.8270   -1.3270   -5.8050 O   0  0  0  0  0
    1.6080    0.9460   -4.3590 C   0  0  0  0  0
    2.0530    0.3630   -3.0080 C   0  0  0  0  0
    0.9690    2.3040   -4.1710 C   0  0  0  0  0
    4.7270   -0.4410   -5.0100 N   0  0  0  0  0
    5.3840   -1.7490   -4.9490 C   0  0  0  0  0
    4.8620   -2.5520   -3.7640 C   0  0  0  0  0
    4.8130   -2.0280   -2.6650 O   0  0  0  0  0
    6.9090   -1.5970   -4.8520 C   0  0  0  0  0
    7.7460   -2.8720   -5.0000 C   0  0  0  0  0
    7.4840   -3.5310   -6.3510 C   0  0  0  0  0
    9.2170   -2.5620   -4.8580 C   0  0  0  0  0
    4.4960   -3.8150   -4.0090 N   0  0  0  0  0
    3.9460   -4.7000   -2.9750 C   0  0  0  0  0
    4.7810   -5.9760   -2.8810 C   0  0  0  0  0
    4.3900   -6.9500   -2.2220 O   0  0  0  0  0
    2.4780   -5.0570   -3.2720 C   0  0  0  0  0
    1.5070   -3.8700   -3.2940 C   0  0  0  0  0
    0.0900   -4.3580   -3.5530 C   0  0  0  0  0
   -0.4970   -4.9200   -2.3370 N   0  0  0  0  0
   -1.4120   -4.3060   -1.5910 C   0  0  0  0  0
   -1.9030   -3.1200   -1.9420 N   0  0  0  0  0
   -1.8690   -4.9050   -0.4950 N   0  0  0  0  0
    6.0452   -5.2122   -3.9446 H   0  0  0  0  0
   -9.8263   12.1819   -6.4008 H   0  0  0  0  0
   -8.8915   10.8044   -6.3261 H   0  0  0  0  0
   -8.1941   12.2639   -6.7264 H   0  0  0  0  0
  -10.1893   10.7899   -8.3228 H   0  0  0  0  0
   -8.7034   13.3637   -8.9433 H   0  0  0  0  0
   -9.8364   12.5133  -10.0224 H   0  0  0  0  0
  -10.4250   13.2377   -8.5059 H   0  0  0  0  0
   -6.9675   11.1632   -7.3135 H   0  0  0  0  0
   -5.9047    9.8984   -9.7885 H   0  0  0  0  0
   -3.6933   10.4870   -8.8287 H   0  0  0  0  0
   -4.5910   11.2699   -7.4270 H   0  0  0  0  0
   -5.6000   12.8029   -9.0770 H   0  0  0  0  0
   -4.4869   12.1242  -10.3140 H   0  0  0  0  0
   -3.7756   13.6055   -7.7760 H   0  0  0  0  0
   -3.4908   14.1167   -9.4813 H   0  0  0  0  0
   -1.9145   12.2417   -7.8753 H   0  0  0  0  0
   -1.1338   12.8292  -11.8074 H   0  0  0  0  0
   -2.6503   13.4422  -11.1399 H   0  0  0  0  0
   -0.0175   11.4709   -8.7429 H   0  0  0  0  0
   -4.8711    7.9357   -9.7634 H   0  0  0  0  0
   -4.8127    6.4969   -7.1395 H   0  0  0  0  0
   -5.9733    5.4126   -9.0628 H   0  0  0  0  0
   -4.6000    4.4509   -8.3519 H   0  0  0  0  0
   -5.6500    6.1313  -11.7109 H   0  0  0  0  0
   -1.8168    4.3434  -12.2386 H   0  0  0  0  0
   -2.8525    4.9275   -7.0233 H   0  0  0  0  0
   -0.4108    6.3443   -8.0156 H   0  0  0  0  0
    0.7266    5.1712   -6.0658 H   0  0  0  0  0
   -0.9617    4.8239   -5.4624 H   0  0  0  0  0
   -1.3354    7.2952   -5.5447 H   0  0  0  0  0
    0.4355    7.4681   -5.7880 H   0  0  0  0  0
    0.8929    6.4216   -3.6782 H   0  0  0  0  0
   -0.8274    5.9791   -3.4646 H   0  0  0  0  0
   -0.0552    8.8521   -3.6734 H   0  0  0  0  0
   -1.9553    7.2293   -0.4847 H   0  0  0  0  0
   -1.3507    6.1647   -1.7583 H   0  0  0  0  0
   -0.8307   10.1869   -2.0395 H   0  0  0  0  0
    1.4924    4.8906   -8.2998 H   0  0  0  0  0
    0.8293    1.9663   -8.7615 H   0  0  0  0  0
    2.8768    1.8560   -9.9512 H   0  0  0  0  0
    3.1274    3.6414   -9.6943 H   0  0  0  0  0
    0.9479    3.9653  -10.9051 H   0  0  0  0  0
    1.0729    2.2247  -11.3848 H   0  0  0  0  0
    3.1770    2.6788  -12.5347 H   0  0  0  0  0
    3.1432    4.3718  -12.0000 H   0  0  0  0  0
    1.0607    4.7399  -13.2085 H   0  0  0  0  0
    1.0627    3.0097  -13.7315 H   0  0  0  0  0
    1.8784    4.4727  -15.4447 H   0  0  0  0  0
    3.0812    5.0411  -14.4412 H   0  0  0  0  0
    3.0830    3.4461  -14.9234 H   0  0  0  0  0
    1.8586    0.5582   -7.3003 H   0  0  0  0  0
    3.4916    1.7947   -5.1092 H   0  0  0  0  0
    0.8608    0.2703   -4.7752 H   0  0  0  0  0
    2.4295   -0.6490   -3.1568 H   0  0  0  0  0
    2.8411    0.9869   -2.5864 H   0  0  0  0  0
    1.2028    0.3392   -2.3263 H   0  0  0  0  0
    1.7158    3.0078   -3.8036 H   0  0  0  0  0
    0.5761    2.6545   -5.1254 H   0  0  0  0  0
    0.1562    2.2249   -3.4490 H   0  0  0  0  0
    5.2383    0.4003   -4.7432 H   0  0  0  0  0
    5.1513   -2.2843   -5.8695 H   0  0  0  0  0
    7.1077   -1.2256   -3.8467 H   0  0  0  0  0
    7.1974   -0.9536   -5.6832 H   0  0  0  0  0
    7.4540   -3.5619   -4.2083 H   0  0  0  0  0
    6.4280   -3.7895   -6.4290 H   0  0  0  0  0
    7.7497   -2.8382   -7.1494 H   0  0  0  0  0
    8.0878   -4.4345   -6.4363 H   0  0  0  0  0
    9.5137   -1.8526   -5.6305 H   0  0  0  0  0
    9.4026   -2.1293   -3.8749 H   0  0  0  0  0
    9.7928   -3.4811   -4.9664 H   0  0  0  0  0
    4.6038   -4.1791   -4.9557 H   0  0  0  0  0
    3.9827   -4.1711   -2.0226 H   0  0  0  0  0
    2.1480   -5.7156   -2.4686 H   0  0  0  0  0
    2.4588   -5.4947   -4.2701 H   0  0  0  0  0
    1.7995   -3.1835   -4.0885 H   0  0  0  0  0
    1.5399   -3.3632   -2.3295 H   0  0  0  0  0
    0.1199   -5.1329   -4.3190 H   0  0  0  0  0
   -0.5180   -3.5140   -3.8788 H   0  0  0  0  0
   -0.1840   -5.8446   -2.0409 H   0  0  0  0  0
   -2.6240   -2.6776   -1.3721 H   0  0  0  0  0
   -1.5584   -2.6534   -2.7810 H   0  0  0  0  0
   -1.5181   -5.8263   -0.2333 H   0  0  0  0  0
 65  1  1  0  0  0
  3  2  1  0  0  0
  3  6  1  0  0  0
  4  3  1  0  0  0
  4  5  2  0  0  0
  8  7  1  0  0  0
  8 11  1  0  0  0
  9  8  1  0  0  0
  9 10  2  0  0  0
 11 12  1  0  0  0
 12 13  1  0  0  0
 13 14  1  0  0  0
 14 15  1  0  0  0
 15 17  2  0  0  0
 15 16  1  0  0  0
  7  4  1  0  0  0
 19 18  1  0  0  0
 19 22  1  0  0  0
 20 19  1  0  0  0
 20 21  2  0  0  0
 22 23  1  0  0  0
 23 24  4  0  0  0
 23 25  4  0  0  0
 25 27  4  0  0  0
 27 26  4  0  0  0
 24 26  4  0  0  0
 18  9  1  0  0  0
 29 28  1  0  0  0
 29 32  1  0  0  0
 30 29  1  0  0  0
 30 31  2  0  0  0
 32 33  1  0  0  0
 33 34  1  0  0  0
 34 35  1  0  0  0
 35 36  1  0  0  0
 36 38  2  0  0  0
 36 37  1  0  0  0
 28 20  1  0  0  0
 40 39  1  0  0  0
 40 43  1  0  0  0
 41 40  1  0  0  0
 41 42  2  0  0  0
 43 44  1  0  0  0
 44 45  1  0  0  0
 45 46  1  0  0  0
 46 47  1  0  0  0
 39 30  1  0  0  0
 49 48  1  0  0  0
 49 52  1  0  0  0
 50 49  1  0  0  0
 50 51  2  0  0  0
 52 54  1  0  0  0
 52 53  1  0  0  0
 48 41  1  0  0  0
 56 55  1  0  0  0
 56 59  1  0  0  0
 57 56  1  0  0  0
 57 58  2  0  0  0
 59 60  1  0  0  0
 60 61  1  0  0  0
 60 62  1  0  0  0
 55 50  1  0  0  0
 63 64  1  0  0  0
 64 67  1  0  0  0
 64 65  1  0  0  0
 65 66  2  0  0  0
 67 68  1  0  0  0
 68 69  1  0  0  0
 69 70  1  0  0  0
 70 71  1  0  0  0
 71 73  2  0  0  0
 71 72  1  0  0  0
 57 63  1  0  0  0
  1 74  1  0  0  0
  2 75  1  0  0  0
  2 76  1  0  0  0
  2 77  1  0  0  0
  3 78  1  0  0  0
  6 79  1  0  0  0
  6 80  1  0  0  0
  6 81  1  0  0  0
  7 82  1  0  0  0
  8 83  1  0  0  0
 11 84  1  0  0  0
 11 85  1  0  0  0
 12 86  1  0  0  0
 12 87  1  0  0  0
 13 88  1  0  0  0
 13 89  1  0  0  0
 14 90  1  0  0  0
 16 91  1  0  0  0
 16 92  1  0  0  0
 17 93  1  0  0  0
 18 94  1  0  0  0
 19 95  1  0  0  0
 22 96  1  0  0  0
 22 97  1  0  0  0
 25 98  1  0  0  0
 26 99  1  0  0  0
 28100  1  0  0  0
 29101  1  0  0  0
 32102  1  0  0  0
 32103  1  0  0  0
 33104  1  0  0  0
 33105  1  0  0  0
 34106  1  0  0  0
 34107  1  0  0  0
 35108  1  0  0  0
 37109  1  0  0  0
 37110  1  0  0  0
 38111  1  0  0  0
 39112  1  0  0  0
 40113  1  0  0  0
 43114  1  0  0  0
 43115  1  0  0  0
 44116  1  0  0  0
 44117  1  0  0  0
 45118  1  0  0  0
 45119  1  0  0  0
 46120  1  0  0  0
 46121  1  0  0  0
 47122  1  0  0  0
 47123  1  0  0  0
 47124  1  0  0  0
 48125  1  0  0  0
 49126  1  0  0  0
 52127  1  0  0  0
 53128  1  0  0  0
 53129  1  0  0  0
 53130  1  0  0  0
 54131  1  0  0  0
 54132  1  0  0  0
 54133  1  0  0  0
 55134  1  0  0  0
 56135  1  0  0  0
 59136  1  0  0  0
 59137  1  0  0  0
 60138  1  0  0  0
 61139  1  0  0  0
 61140  1  0  0  0
 61141  1  0  0  0
 62142  1  0  0  0
 62143  1  0  0  0
 62144  1  0  0  0
 63145  1  0  0  0
 64146  1  0  0  0
 67147  1  0  0  0
 67148  1  0  0  0
 68149  1  0  0  0
 68150  1  0  0  0
 69151  1  0  0  0
 69152  1  0  0  0
 70153  1  0  0  0
 72154  1  0  0  0
 72155  1  0  0  0
 73156  1  0  0  0
M  END
$$$$
