4os2_ligand
  -I-interpret- 

192194  0  0  0  0  0  0  0  0999 V2000
   45.4780   73.9510   13.8510 N   0  3  0  0  0
   45.5670   73.8010   12.3650 C   0  0  0  0  0
   46.1630   72.4650   11.9520 C   0  0  0  0  0
   45.4530   71.4650   11.8830 O   0  0  0  0  0
   47.4720   72.4490   11.7100 N   0  0  0  0  0
   48.1600   71.2970   11.0940 C   0  0  0  0  0
   49.3100   71.7520   10.3160 C   0  0  0  0  0
   50.1410   70.6760    9.7500 C   0  0  0  0  0
   49.5810   70.1190    8.4360 C   0  0  0  0  0
   50.1910   68.5850    8.0710 S   0  0  0  0  0
   51.7700   71.0900    9.6150 S   0  0  0  0  0
   48.5570   70.5740   12.2010 C   0  0  0  0  0
   49.5280   70.9190   12.8820 O   0  0  0  0  0
   47.8400   69.4830   12.4920 N   0  0  0  0  0
   48.1200   68.6260   13.6480 C   0  0  0  0  0
   47.9870   67.1520   13.2920 C   0  0  0  0  0
   47.2160   66.7940   12.3970 O   0  0  0  0  0
   47.1040   68.8970   14.7530 C   0  0  0  0  0
   47.2710   70.0690   15.7130 C   0  0  0  0  0
   45.9900   70.1580   16.5210 C   0  0  0  0  0
   48.4560   69.8450   16.6330 C   0  0  0  0  0
   48.7150   66.3000   14.0100 N   0  0  0  0  0
   48.4740   64.8490   13.9880 C   0  0  0  0  0
   49.3050   64.0910   12.9620 C   0  0  0  0  0
   50.3110   64.5920   12.4900 O   0  0  0  0  0
   48.8940   62.8700   12.6500 N   0  0  0  0  0
   49.5560   62.0690   11.6230 C   0  0  0  0  0
   49.5200   62.7810   10.2850 C   0  0  0  0  0
   48.4620   63.1660    9.8270 O   0  0  0  0  0
   48.8620   60.7350   11.4620 C   0  0  0  0  0
   49.0580   59.8170   12.6460 C   0  0  0  0  0
   48.1000   58.6510   12.5630 C   0  0  0  0  0
   46.7350   59.0460   12.8920 N   0  0  0  0  0
   45.7410   58.1860   13.0940 C   0  0  0  0  0
   45.9490   56.8730   12.9830 N   0  0  0  0  0
   44.5330   58.6370   13.3970 N   0  0  0  0  0
   50.6850   62.9320    9.6730 N   0  0  0  0  0
   50.8180   63.6390    8.4090 C   0  0  0  0  0
   51.5720   64.9280    8.5990 C   0  0  0  0  0
   52.0600   65.5080    7.6380 O   0  0  0  0  0
   51.7100   65.3640    9.8500 N   0  0  0  0  0
   52.2430   66.6920   10.1530 C   0  0  0  0  0
   53.5330   66.7250   11.0030 C   0  0  0  0  0
   54.0380   67.8050   11.3320 O   0  0  0  0  0
   51.1330   67.5090   10.8160 C   0  0  0  0  0
   49.6560   67.5980    9.7760 S   0  0  0  0  0
   54.0950   65.5550   11.2970 N   0  0  0  0  0
   55.3970   65.4560   11.9630 C   0  0  0  0  0
   56.4640   66.2520   11.2120 C   0  0  0  0  0
   56.5040   66.2430    9.9580 O   0  0  0  0  0
   55.8660   64.0020   12.0550 C   0  0  0  0  0
   55.0190   63.0860   12.9280 C   0  0  0  0  0
   53.8280   62.4570   12.2230 C   0  0  0  0  0
   53.4910   62.8520   11.0650 O   0  0  0  0  0
   53.2130   61.5360   12.8310 O   0  0  0  0  0
   57.3150   66.9390   11.9650 N   0  0  0  0  0
   58.5250   67.5600   11.4020 C   0  0  0  0  0
   58.1620   68.5810   10.3150 C   0  0  0  0  0
   58.8270   68.6650    9.2700 O   0  0  0  0  0
   59.4490   66.4530   10.8720 C   0  0  0  0  0
   60.8700   66.9210   10.6040 C   0  0  0  0  0
   61.4400   67.6780   11.3760 O   0  0  0  0  0
   61.4520   66.4570    9.4870 N   0  0  0  0  0
   57.0840   69.3270   10.5700 N   0  0  0  0  0
   56.6090   70.4160    9.7150 C   0  0  0  0  0
   56.7390   71.7320   10.4360 C   0  0  0  0  0
   56.4840   71.8180   11.6530 O   0  0  0  0  0
   55.1230   70.2660    9.3830 C   0  0  0  0  0
   54.8410   69.3810    8.2140 C   0  0  0  0  0
   55.1770   68.0440    8.1940 N   0  0  0  0  0
   54.2350   69.6370    7.0280 C   0  0  0  0  0
   54.7940   67.5150    7.0430 C   0  0  0  0  0
   54.2220   68.4600    6.3180 N   0  0  0  0  0
   57.0670   72.7750    9.6850 N   0  0  0  0  0
   57.0520   74.1300   10.2420 C   0  0  0  0  0
   55.6550   74.5440   10.7060 C   0  0  0  0  0
   55.5350   75.2860   11.6720 O   0  0  0  0  0
   57.6040   75.1480    9.2350 C   0  0  0  0  0
   59.1210   75.2300    9.2440 C   0  0  0  0  0
   59.6600   76.1790    8.1870 C   0  0  0  0  0
   59.4190   75.6210    6.8730 N   0  0  0  0  0
   60.1410   74.6440    6.3260 C   0  0  0  0  0
   61.1870   74.1250    6.9690 N   0  0  0  0  0
   59.8180   74.1890    5.1210 N   0  0  0  0  0
   54.6060   74.0520   10.0460 N   0  0  0  0  0
   53.2230   74.4300   10.3940 C   0  0  0  0  0
   52.6380   73.6980   11.6090 C   0  0  0  0  0
   51.5320   74.0060   12.0330 O   0  0  0  0  0
   52.2790   74.2690    9.1760 C   0  0  0  0  0
   52.1720   72.6410    8.3600 S   0  0  0  0  0
   53.3760   72.7460   12.1700 N   0  0  0  0  0
   52.8190   71.8070   13.1300 C   0  0  0  0  0
   52.2910   72.5340   14.3640 C   0  0  0  0  0
   52.9700   73.3970   14.8950 O   0  0  0  0  0
   53.8860   70.7930   13.5470 C   0  0  0  0  0
   53.5340   69.7660   14.6300 C   0  0  0  0  0
   52.3700   68.8920   14.2250 C   0  0  0  0  0
   54.7440   68.8990   14.9450 C   0  0  0  0  0
   51.0670   72.1500   14.8320 N   0  0  0  0  0
   45.0734   74.8599   14.0762 H   0  0  0  0  0
   44.8879   73.2111   14.2315 H   0  0  0  0  0
   46.4122   73.8839   14.2549 H   0  0  0  0  0
   46.2144   74.5911   11.9845 H   0  0  0  0  0
   44.5571   73.8596   11.9591 H   0  0  0  0  0
   48.0241   73.2690   11.9613 H   0  0  0  0  0
   47.5452   70.7233   10.4005 H   0  0  0  0  0
   49.9469   72.3179   10.9959 H   0  0  0  0  0
   48.9160   72.3220    9.4746 H   0  0  0  0  0
   50.0928   69.8674   10.4793 H   0  0  0  0  0
   49.8713   70.7962    7.6328 H   0  0  0  0  0
   48.4993   70.0347    8.5403 H   0  0  0  0  0
   47.0618   69.2356   11.8808 H   0  0  0  0  0
   49.1377   68.8481   13.9691 H   0  0  0  0  0
   47.1764   68.0198   15.3959 H   0  0  0  0  0
   46.1861   69.1297   14.2132 H   0  0  0  0  0
   47.4569   70.9926   15.1648 H   0  0  0  0  0
   45.1485   70.3243   15.8484 H   0  0  0  0  0
   45.8413   69.2268   17.0677 H   0  0  0  0  0
   46.0630   70.9867   17.2253 H   0  0  0  0  0
   48.2981   68.9349   17.2117 H   0  0  0  0  0
   49.3632   69.7453   16.0371 H   0  0  0  0  0
   48.5552   70.6943   17.3089 H   0  0  0  0  0
   49.4658   66.6657   14.5956 H   0  0  0  0  0
   47.4267   64.7019   13.7241 H   0  0  0  0  0
   48.7478   64.4636   14.9702 H   0  0  0  0  0
   48.0911   62.4777   13.1419 H   0  0  0  0  0
   50.5885   61.9192   11.9386 H   0  0  0  0  0
   49.2890   60.2433   10.5879 H   0  0  0  0  0
   47.7934   60.9275   11.3659 H   0  0  0  0  0
   48.8674   60.3720   13.5645 H   0  0  0  0  0
   50.0810   59.4406   12.6415 H   0  0  0  0  0
   48.4193   57.8939   13.2792 H   0  0  0  0  0
   48.1098   58.2720   11.5411 H   0  0  0  0  0
   46.5305   60.0421   12.9720 H   0  0  0  0  0
   45.1793   56.2204   13.1313 H   0  0  0  0  0
   46.8778   56.5217   12.7498 H   0  0  0  0  0
   44.3679   59.6406   13.4746 H   0  0  0  0  0
   51.5207   62.5374   10.1047 H   0  0  0  0  0
   49.8234   63.8652    8.0248 H   0  0  0  0  0
   51.3663   63.0093    7.7084 H   0  0  0  0  0
   51.4358   64.7535   10.6198 H   0  0  0  0  0
   52.5557   67.1235    9.2021 H   0  0  0  0  0
   51.5015   68.5222   10.9768 H   0  0  0  0  0
   50.8636   67.0245   11.7545 H   0  0  0  0  0
   53.6022   64.6967   11.0501 H   0  0  0  0  0
   55.2655   65.8651   12.9647 H   0  0  0  0  0
   56.8578   64.0266   12.5065 H   0  0  0  0  0
   55.8145   63.5976   11.0441 H   0  0  0  0  0
   54.6209   63.6985   13.7370 H   0  0  0  0  0
   55.6647   62.2687   13.2494 H   0  0  0  0  0
   54.0817   63.5543   10.7832 H   0  0  0  0  0
   57.1248   67.0393   12.9621 H   0  0  0  0  0
   59.0541   68.1125   12.1785 H   0  0  0  0  0
   59.0349   66.1081    9.9246 H   0  0  0  0  0
   59.4996   65.6768   11.6356 H   0  0  0  0  0
   62.4058   66.7348    9.2557 H   0  0  0  0  0
   60.9405   65.8266    8.8695 H   0  0  0  0  0
   56.5556   69.1240   11.4185 H   0  0  0  0  0
   57.2108   70.3819    8.8068 H   0  0  0  0  0
   54.7487   71.2584    9.1317 H   0  0  0  0  0
   54.6445   69.8128   10.2512 H   0  0  0  0  0
   53.8337   70.5958    6.6996 H   0  0  0  0  0
   54.9278   66.4755    6.7437 H   0  0  0  0  0
   57.3322   72.6323    8.7105 H   0  0  0  0  0
   57.7013   74.1190   11.1174 H   0  0  0  0  0
   57.2170   76.1294    9.5092 H   0  0  0  0  0
   57.2947   74.8308    8.2391 H   0  0  0  0  0
   59.5124   74.2348    9.0328 H   0  0  0  0  0
   59.4313   75.6032   10.2200 H   0  0  0  0  0
   60.7313   76.3167    8.3334 H   0  0  0  0  0
   59.1568   77.1422    8.2716 H   0  0  0  0  0
   58.6443   76.0015    6.3294 H   0  0  0  0  0
   61.7349   73.3820    6.5352 H   0  0  0  0  0
   61.4394   74.4708    7.8948 H   0  0  0  0  0
   59.0227   74.5873    4.6218 H   0  0  0  0  0
   54.7639   73.3970    9.2802 H   0  0  0  0  0
   53.2896   75.4791   10.6824 H   0  0  0  0  0
   52.6792   74.9408    8.4166 H   0  0  0  0  0
   51.2786   74.4567    9.5661 H   0  0  0  0  0
   54.3621   72.6719   11.9198 H   0  0  0  0  0
   51.9876   71.2871   12.6540 H   0  0  0  0  0
   54.6953   71.3880   13.9702 H   0  0  0  0  0
   54.0871   70.2055   12.6511 H   0  0  0  0  0
   53.2388   70.3213   15.5203 H   0  0  0  0  0
   51.4934   69.5153   14.0486 H   0  0  0  0  0
   52.6230   68.3520   13.3126 H   0  0  0  0  0
   52.1569   68.1804   15.0226 H   0  0  0  0  0
   55.0578   68.3738   14.0429 H   0  0  0  0  0
   55.5583   69.5297   15.3017 H   0  0  0  0  0
   54.4796   68.1746   15.7153 H   0  0  0  0  0
   50.6783   72.5911   15.6655 H   0  0  0  0  0
   50.5414   71.4220   14.3481 H   0  0  0  0  0
  1  2  1  0  0  0
  2  3  1  0  0  0
  3  4  2  0  0  0
  3  5  1  0  0  0
  5  6  1  0  0  0
  6  7  1  0  0  0
  6 12  1  0  0  0
  7  8  1  0  0  0
  8  9  1  0  0  0
  8 11  1  0  0  0
  9 10  1  0  0  0
 10 46  1  0  0  0
 11 90  1  0  0  0
 12 13  2  0  0  0
 12 14  1  0  0  0
 14 15  1  0  0  0
 15 16  1  0  0  0
 15 18  1  0  0  0
 16 17  2  0  0  0
 16 22  1  0  0  0
 18 19  1  0  0  0
 19 20  1  0  0  0
 19 21  1  0  0  0
 22 23  1  0  0  0
 23 24  1  0  0  0
 24 25  2  0  0  0
 24 26  1  0  0  0
 26 27  1  0  0  0
 27 28  1  0  0  0
 27 30  1  0  0  0
 28 29  2  0  0  0
 28 37  1  0  0  0
 30 31  1  0  0  0
 31 32  1  0  0  0
 32 33  1  0  0  0
 33 34  1  0  0  0
 34 35  1  0  0  0
 34 36  2  0  0  0
 37 38  1  0  0  0
 38 39  1  0  0  0
 39 40  2  0  0  0
 39 41  1  0  0  0
 41 42  1  0  0  0
 42 43  1  0  0  0
 42 45  1  0  0  0
 43 44  2  0  0  0
 43 47  1  0  0  0
 45 46  1  0  0  0
 47 48  1  0  0  0
 48 49  1  0  0  0
 48 51  1  0  0  0
 49 50  2  0  0  0
 49 56  1  0  0  0
 51 52  1  0  0  0
 52 53  1  0  0  0
 53 54  1  0  0  0
 53 55  2  0  0  0
 56 57  1  0  0  0
 57 58  1  0  0  0
 57 60  1  0  0  0
 58 59  2  0  0  0
 58 64  1  0  0  0
 60 61  1  0  0  0
 61 62  2  0  0  0
 61 63  1  0  0  0
 64 65  1  0  0  0
 65 66  1  0  0  0
 65 68  1  0  0  0
 66 67  2  0  0  0
 66 74  1  0  0  0
 68 69  1  0  0  0
 69 70  4  0  0  0
 69 71  4  0  0  0
 70 72  4  0  0  0
 71 73  4  0  0  0
 72 73  4  0  0  0
 74 75  1  0  0  0
 75 76  1  0  0  0
 75 78  1  0  0  0
 76 77  2  0  0  0
 76 85  1  0  0  0
 78 79  1  0  0  0
 79 80  1  0  0  0
 80 81  1  0  0  0
 81 82  1  0  0  0
 82 83  1  0  0  0
 82 84  2  0  0  0
 85 86  1  0  0  0
 86 87  1  0  0  0
 86 89  1  0  0  0
 87 88  2  0  0  0
 87 91  1  0  0  0
 89 90  1  0  0  0
 91 92  1  0  0  0
 92 93  1  0  0  0
 92 95  1  0  0  0
 93 94  2  0  0  0
 93 99  1  0  0  0
 95 96  1  0  0  0
 96 97  1  0  0  0
 96 98  1  0  0  0
  1100  1  0  0  0
  1101  1  0  0  0
  1102  1  0  0  0
  2103  1  0  0  0
  2104  1  0  0  0
  5105  1  0  0  0
  6106  1  0  0  0
  7107  1  0  0  0
  7108  1  0  0  0
  8109  1  0  0  0
  9110  1  0  0  0
  9111  1  0  0  0
 14112  1  0  0  0
 15113  1  0  0  0
 18114  1  0  0  0
 18115  1  0  0  0
 19116  1  0  0  0
 20117  1  0  0  0
 20118  1  0  0  0
 20119  1  0  0  0
 21120  1  0  0  0
 21121  1  0  0  0
 21122  1  0  0  0
 22123  1  0  0  0
 23124  1  0  0  0
 23125  1  0  0  0
 26126  1  0  0  0
 27127  1  0  0  0
 30128  1  0  0  0
 30129  1  0  0  0
 31130  1  0  0  0
 31131  1  0  0  0
 32132  1  0  0  0
 32133  1  0  0  0
 33134  1  0  0  0
 35135  1  0  0  0
 35136  1  0  0  0
 36137  1  0  0  0
 37138  1  0  0  0
 38139  1  0  0  0
 38140  1  0  0  0
 41141  1  0  0  0
 42142  1  0  0  0
 45143  1  0  0  0
 45144  1  0  0  0
 47145  1  0  0  0
 48146  1  0  0  0
 51147  1  0  0  0
 51148  1  0  0  0
 52149  1  0  0  0
 52150  1  0  0  0
 54151  1  0  0  0
 56152  1  0  0  0
 57153  1  0  0  0
 60154  1  0  0  0
 60155  1  0  0  0
 63156  1  0  0  0
 63157  1  0  0  0
 64158  1  0  0  0
 65159  1  0  0  0
 68160  1  0  0  0
 68161  1  0  0  0
 71162  1  0  0  0
 72163  1  0  0  0
 74164  1  0  0  0
 75165  1  0  0  0
 78166  1  0  0  0
 78167  1  0  0  0
 79168  1  0  0  0
 79169  1  0  0  0
 80170  1  0  0  0
 80171  1  0  0  0
 81172  1  0  0  0
 83173  1  0  0  0
 83174  1  0  0  0
 84175  1  0  0  0
 85176  1  0  0  0
 86177  1  0  0  0
 89178  1  0  0  0
 89179  1  0  0  0
 91180  1  0  0  0
 92181  1  0  0  0
 95182  1  0  0  0
 95183  1  0  0  0
 96184  1  0  0  0
 97185  1  0  0  0
 97186  1  0  0  0
 97187  1  0  0  0
 98188  1  0  0  0
 98189  1  0  0  0
 98190  1  0  0  0
 99191  1  0  0  0
 99192  1  0  0  0
M  END
$$$$
