### 
### Created by X-TOOL on Mon Sep 10 21:13:17 2018
### 

@<TRIPOS>MOLECULE
4os2_ligand
  194   196     1     0     0
SMALL
GAST_HUCK


@<TRIPOS>ATOM
      1 N          45.4780   73.9510   13.8510 N.4       1 GLY         0.2357
      2 CA         45.5670   73.8010   12.3650 C.3       1 GLY         0.0545
      3 C          46.1630   72.4650   11.9520 C.2       1 GLY         0.2236
      4 O          45.4530   71.4650   11.8830 O.2       1 GLY        -0.3910
      5 N          47.4720   72.4490   11.7100 N.am      1 81S        -0.2612
      6 CA         48.1600   71.2970   11.0940 C.3       1 81S         0.1321
      7 CB         49.3100   71.7520   10.3160 C.3       1 81S         0.0010
      8 CG         50.1410   70.6760    9.7500 C.3       1 81S         0.0294
      9 CD1        49.5810   70.1190    8.4360 C.3       1 81S         0.0168
     10 SE         50.1910   68.5850    8.0710 S.3       1 81S        -0.0918
     11 SD2        51.7700   71.0900    9.6150 S.3       1 81S        -0.0885
     12 C          48.5570   70.5740   12.2010 C.2       1 81S         0.2039
     13 O          49.5280   70.9190   12.8820 O.2       1 81S        -0.3944
     14 N          47.8400   69.4830   12.4920 N.am      1 LEU        -0.2637
     15 CA         48.1200   68.6260   13.6480 C.3       1 LEU         0.1312
     16 C          47.9870   67.1520   13.2920 C.2       1 LEU         0.2037
     17 O          47.2160   66.7940   12.3970 O.2       1 LEU        -0.3944
     18 CB         47.1040   68.8970   14.7530 C.3       1 LEU        -0.0101
     19 CG         47.2710   70.0690   15.7130 C.3       1 LEU        -0.0425
     20 CD1        45.9900   70.1580   16.5210 C.3       1 LEU        -0.0625
     21 CD2        48.4560   69.8450   16.6330 C.3       1 LEU        -0.0625
     22 N          48.7150   66.3000   14.0100 N.am      1 GLY        -0.2664
     23 CA         48.4740   64.8490   13.9880 C.3       1 GLY         0.1201
     24 C          49.3050   64.0910   12.9620 C.2       1 GLY         0.2007
     25 O          50.3110   64.5920   12.4900 O.2       1 GLY        -0.3947
     26 N          48.8940   62.8700   12.6500 N.am      1 ARG        -0.2640
     27 CA         49.5560   62.0690   11.6230 C.3       1 ARG         0.1311
     28 C          49.5200   62.7810   10.2850 C.2       1 ARG         0.2037
     29 O          48.4620   63.1660    9.8270 O.2       1 ARG        -0.3944
     30 CB         48.8620   60.7350   11.4620 C.3       1 ARG        -0.0092
     31 CG         49.0580   59.8170   12.6460 C.3       1 ARG        -0.0156
     32 CD         48.1000   58.6510   12.5630 C.3       1 ARG         0.0627
     33 NE         46.7350   59.0460   12.8920 N.pl3     1 ARG        -0.2723
     34 CZ         45.7410   58.1860   13.0940 C.cat     1 ARG         0.2882
     35 NH1        45.9490   56.8730   12.9830 N.pl3     1 ARG        -0.2849
     36 NH2        44.5330   58.6370   13.3970 N.pl3     1 ARG        -0.2849
     37 N          50.6850   62.9320    9.6730 N.am      1 GLY        -0.2664
     38 CA         50.8180   63.6390    8.4090 C.3       1 GLY         0.1201
     39 C          51.5720   64.9280    8.5990 C.2       1 GLY         0.2008
     40 O          52.0600   65.5080    7.6380 O.2       1 GLY        -0.3947
     41 N          51.7100   65.3640    9.8500 N.am      1 CYS        -0.2631
     42 CA         52.2430   66.6920   10.1530 C.3       1 CYS         0.1406
     43 C          53.5330   66.7250   11.0030 C.2       1 CYS         0.2047
     44 O          54.0380   67.8050   11.3320 O.2       1 CYS        -0.3944
     45 CB         51.1330   67.5090   10.8160 C.3       1 CYS         0.0443
     46 SG         49.6560   67.5980    9.7760 S.3       1 CYS        -0.0883
     47 N          54.0950   65.5550   11.2970 N.am      1 GLU        -0.2636
     48 CA         55.3970   65.4560   11.9630 C.3       1 GLU         0.1325
     49 C          56.4640   66.2520   11.2120 C.2       1 GLU         0.2041
     50 O          56.5040   66.2430    9.9580 O.2       1 GLU        -0.3944
     51 CB         55.8660   64.0020   12.0550 C.3       1 GLU        -0.0008
     52 CG         55.0190   63.0860   12.9280 C.3       1 GLU         0.0044
     53 CD         53.8280   62.4570   12.2230 C.2       1 GLU         0.0350
     54 OE1        53.4910   62.8520   11.0650 O.co2     1 GLU        -0.5690
     55 OE2        53.2130   61.5360   12.8310 O.co2     1 GLU        -0.5690
     56 N          57.3150   66.9390   11.9650 N.am      1 ASN        -0.2616
     57 CA         58.5250   67.5600   11.4020 C.3       1 ASN         0.1476
     58 C          58.1620   68.5810   10.3150 C.2       1 ASN         0.2063
     59 O          58.8270   68.6650    9.2700 O.2       1 ASN        -0.3942
     60 CB         59.4490   66.4530   10.8720 C.3       1 ASN         0.0773
     61 CG         60.8700   66.9210   10.6040 C.2       1 ASN         0.1780
     62 OD1        61.4400   67.6780   11.3760 O.2       1 ASN        -0.3970
     63 ND2        61.4520   66.4570    9.4870 N.am      1 ASN        -0.3007
     64 N          57.0840   69.3270   10.5700 N.am      1 HIS        -0.2623
     65 CA         56.6090   70.4160    9.7150 C.3       1 HIS         0.1369
     66 C          56.7390   71.7320   10.4360 C.2       1 HIS         0.2054
     67 O          56.4840   71.8180   11.6530 O.2       1 HIS        -0.3942
     68 CB         55.1230   70.2660    9.3830 C.3       1 HIS         0.0145
     69 CG         54.8410   69.3810    8.2140 C.2       1 HIS        -0.0027
     70 ND1        55.1770   68.0440    8.1940 N.2       1 HIS        -0.3252
     71 CD2        54.2350   69.6370    7.0280 C.2       1 HIS         0.0291
     72 CE1        54.7940   67.5150    7.0430 C.2       1 HIS         0.0907
     73 NE2        54.2220   68.4600    6.3180 N.pl3     1 HIS        -0.2752
     74 N          57.0670   72.7750    9.6850 N.am      1 ARG        -0.2636
     75 CA         57.0520   74.1300   10.2420 C.3       1 ARG         0.1311
     76 C          55.6550   74.5440   10.7060 C.2       1 ARG         0.2039
     77 O          55.5350   75.2860   11.6720 O.2       1 ARG        -0.3944
     78 CB         57.6040   75.1480    9.2350 C.3       1 ARG        -0.0092
     79 CG         59.1210   75.2300    9.2440 C.3       1 ARG        -0.0156
     80 CD         59.6600   76.1790    8.1870 C.3       1 ARG         0.0627
     81 NE         59.4190   75.6210    6.8730 N.pl3     1 ARG        -0.2723
     82 CZ         60.1410   74.6440    6.3260 C.cat     1 ARG         0.2882
     83 NH1        61.1870   74.1250    6.9690 N.pl3     1 ARG        -0.2849
     84 NH2        59.8180   74.1890    5.1210 N.pl3     1 ARG        -0.2849
     85 N          54.6060   74.0520   10.0460 N.am      1 CYS        -0.2629
     86 CA         53.2230   74.4300   10.3940 C.3       1 CYS         0.1406
     87 C          52.6380   73.6980   11.6090 C.2       1 CYS         0.2047
     88 O          51.5320   74.0060   12.0330 O.2       1 CYS        -0.3944
     89 CB         52.2790   74.2690    9.1760 C.3       1 CYS         0.0443
     90 SG         52.1720   72.6410    8.3600 S.3       1 CYS        -0.0881
     91 N          53.3760   72.7460   12.1700 N.am      1 LEU        -0.2637
     92 CA         52.8190   71.8070   13.1300 C.3       1 LEU         0.1309
     93 C          52.2910   72.5340   14.3640 C.2       1 LEU         0.1992
     94 O          52.9700   73.3970   14.8950 O.2       1 LEU        -0.3947
     95 CB         53.8860   70.7930   13.5470 C.3       1 LEU        -0.0101
     96 CG         53.5340   69.7660   14.6300 C.3       1 LEU        -0.0425
     97 CD1        52.3700   68.8920   14.2250 C.3       1 LEU        -0.0625
     98 CD2        54.7440   68.8990   14.9450 C.3       1 LEU        -0.0625
     99 N          51.0670   72.1500   14.8320 N.am      1 NH2        -0.2990
    100 H          45.0783   74.8489   14.0747 H         1 GLY         0.2012
    101 H          46.4007   73.8849   14.2513 H         1 GLY         0.2012
    102 H          44.8950   73.2203   14.2282 H         1 GLY         0.2012
    103 H          46.1987   74.6081   11.9657 H         1 GLY         0.1061
    104 H          44.5555   73.8829   11.9405 H         1 GLY         0.1061
    105 H          48.0133   73.2529   11.9564 H         1 81S         0.1884
    106 H          47.4826   70.7133   10.4534 H         1 81S         0.0800
    107 H          49.9454   72.3651   10.9721 H         1 81S         0.0323
    108 H          48.9377   72.3691    9.4850 H         1 81S         0.0323
    109 H          50.0970   69.8499   10.4750 H         1 81S         0.0431
    110 H          49.8458   70.8072    7.6198 H         1 81S         0.0396
    111 H          48.4862   70.0526    8.5191 H         1 81S         0.0396
    112 H          47.0770   69.2405   11.8928 H         1 LEU         0.1883
    113 H          49.1378   68.8315   14.0111 H         1 LEU         0.0800
    114 H          47.0693   67.9893   15.3733 H         1 LEU         0.0315
    115 H          46.1333   69.0384   14.2553 H         1 LEU         0.0315
    116 H          47.4237   70.9990   15.1457 H         1 LEU         0.0298
    117 H          46.0625   70.9940   17.2323 H         1 LEU         0.0232
    118 H          45.8388   69.2188   17.0733 H         1 LEU         0.0232
    119 H          45.1399   70.3258   15.8434 H         1 LEU         0.0232
    120 H          49.3774   69.7824   16.0354 H         1 LEU         0.0232
    121 H          48.3157   68.9068   17.1899 H         1 LEU         0.0232
    122 H          48.5343   70.6834   17.3408 H         1 LEU         0.0232
    123 H          49.4511   66.6585   14.5841 H         1 GLY         0.1881
    124 H          47.4107   64.6798   13.7628 H         1 GLY         0.0763
    125 H          48.7063   64.4461   14.9848 H         1 GLY         0.0763
    126 H          48.1069   62.4854   13.1322 H         1 ARG         0.1883
    127 H          50.6020   61.9031   11.9201 H         1 ARG         0.0800
    128 H          49.2610   60.2390   10.5649 H         1 ARG         0.0313
    129 H          47.7844   60.9145   11.3331 H         1 ARG         0.0313
    130 H          48.8711   60.3760   13.5747 H         1 ARG         0.0301
    131 H          50.0912   59.4396   12.6467 H         1 ARG         0.0301
    132 H          48.4250   57.8724   13.2687 H         1 ARG         0.0689
    133 H          48.1171   58.2485   11.5394 H         1 ARG         0.0689
    134 H          46.5285   60.0519   12.9728 H         1 ARG         0.2642
    135 H          45.1737   56.2136   13.1411 H         1 ARG         0.2615
    136 H          46.8849   56.5186   12.7392 H         1 ARG         0.2615
    137 H          44.3683   59.6500   13.4836 H         1 ARG         0.2615
    138 H          43.7584   57.9747   13.5460 H         1 ARG         0.2615
    139 H          51.5043   62.5451   10.0962 H         1 GLY         0.1881
    140 H          49.8165   63.8613    8.0121 H         1 GLY         0.0763
    141 H          51.3626   63.0037    7.6951 H         1 GLY         0.0763
    142 H          51.4412   64.7655   10.6047 H         1 CYS         0.1884
    143 H          52.4893   67.1676    9.1922 H         1 CYS         0.0808
    144 H          51.5019   68.5289   10.9993 H         1 CYS         0.0432
    145 H          50.8668   67.0377   11.7736 H         1 CYS         0.0432
    146 H          53.6119   64.7136   11.0550 H         1 GLU         0.1883
    147 H          55.2969   65.8635   12.9798 H         1 GLU         0.0801
    148 H          56.8889   64.0024   12.4594 H         1 GLU         0.0330
    149 H          55.8743   63.5851   11.0371 H         1 GLU         0.0330
    150 H          54.6422   63.6747   13.7774 H         1 GLU         0.0433
    151 H          55.6633   62.2760   13.3004 H         1 GLU         0.0433
    152 H          57.1285   67.0373   12.9425 H         1 ASN         0.1885
    153 H          59.0515   68.0946   12.2064 H         1 ASN         0.0826
    154 H          59.0268   66.0684    9.9319 H         1 ASN         0.0551
    155 H          59.4843   65.6438   11.6163 H         1 ASN         0.0551
    156 H          62.3863   66.7311    9.2591 H         1 ASN         0.1814
    157 H          60.9513   65.8372    8.8827 H         1 ASN         0.1814
    158 H          56.5659   69.1280   11.4019 H         1 HIS         0.1885
    159 H          57.2005   70.4298    8.7877 H         1 HIS         0.0817
    160 H          54.7161   71.2645    9.1652 H         1 HIS         0.0420
    161 H          54.6139   69.8466   10.2633 H         1 HIS         0.0420
    162 H          53.8341   70.5949    6.6999 H         1 HIS         0.0729
    163 H          54.9277   66.4764    6.7439 H         1 HIS         0.1199
    164 H          53.8299   68.3350    5.3738 H         1 HIS         0.2361
    165 H          57.3270   72.6351    8.7296 H         1 ARG         0.1883
    166 H          57.7116   74.1341   11.1223 H         1 ARG         0.0800
    167 H          57.1980   76.1402    9.4814 H         1 ARG         0.0313
    168 H          57.2748   74.8572    8.2265 H         1 ARG         0.0313
    169 H          59.5294   74.2259    9.0573 H         1 ARG         0.0301
    170 H          59.4492   75.5813   10.2334 H         1 ARG         0.0301
    171 H          60.7413   76.3170    8.3345 H         1 ARG         0.0689
    172 H          59.1513   77.1506    8.2722 H         1 ARG         0.0689
    173 H          58.6367   76.0052    6.3241 H         1 ARG         0.2642
    174 H          61.7362   73.3700    6.5339 H         1 ARG         0.2615
    175 H          61.4461   74.4790    7.9009 H         1 ARG         0.2615
    176 H          59.0107   74.5865    4.6198 H         1 ARG         0.2615
    177 H          60.3747   73.4386    4.6876 H         1 ARG         0.2615
    178 H          54.7608   73.4098    9.2953 H         1 CYS         0.1884
    179 H          53.2482   75.4990   10.6522 H         1 CYS         0.0808
    180 H          52.6068   74.9919    8.4145 H         1 CYS         0.0432
    181 H          51.2653   74.5282    9.5155 H         1 CYS         0.0432
    182 H          54.3427   72.6733   11.9247 H         1 LEU         0.1883
    183 H          51.9851   71.2707   12.6535 H         1 LEU         0.0800
    184 H          54.7529   71.3643   13.9104 H         1 LEU         0.0315
    185 H          54.1695   70.2302   12.6454 H         1 LEU         0.0315
    186 H          53.2505   70.3140   15.5406 H         1 LEU         0.0298
    187 H          52.1539   68.1733   15.0292 H         1 LEU         0.0232
    188 H          52.6240   68.3464   13.3043 H         1 LEU         0.0232
    189 H          51.4846   69.5199   14.0467 H         1 LEU         0.0232
    190 H          55.5880   69.5403   15.2391 H         1 LEU         0.0232
    191 H          55.0196   68.3162   14.0537 H         1 LEU         0.0232
    192 H          54.4993   68.2138   15.7700 H         1 LEU         0.0232
    193 H          50.6774   72.5959   15.6379 H         1 NH2         0.1815
    194 H          50.5602   71.4229   14.3689 H         1 NH2         0.1815
@<TRIPOS>BOND
     1    1    2 1  
     2    2    3 1  
     3    3    4 2  
     4    3    5 am 
     5    5    6 1  
     6    6    7 1  
     7    6   12 1  
     8    7    8 1  
     9    8    9 1  
    10    8   11 1  
    11    9   10 1  
    12   10   46 1  
    13   11   90 1  
    14   12   13 2  
    15   12   14 am 
    16   14   15 1  
    17   15   16 1  
    18   15   18 1  
    19   16   17 2  
    20   16   22 am 
    21   18   19 1  
    22   19   20 1  
    23   19   21 1  
    24   22   23 1  
    25   23   24 1  
    26   24   25 2  
    27   24   26 am 
    28   26   27 1  
    29   27   28 1  
    30   27   30 1  
    31   28   29 2  
    32   28   37 am 
    33   30   31 1  
    34   31   32 1  
    35   32   33 1  
    36   33   34 ar 
    37   34   35 ar 
    38   34   36 ar 
    39   37   38 1  
    40   38   39 1  
    41   39   40 2  
    42   39   41 am 
    43   41   42 1  
    44   42   43 1  
    45   42   45 1  
    46   43   44 2  
    47   43   47 am 
    48   45   46 1  
    49   47   48 1  
    50   48   49 1  
    51   48   51 1  
    52   49   50 2  
    53   49   56 am 
    54   51   52 1  
    55   52   53 1  
    56   53   54 ar 
    57   53   55 ar 
    58   56   57 1  
    59   57   58 1  
    60   57   60 1  
    61   58   59 2  
    62   58   64 am 
    63   60   61 1  
    64   61   62 2  
    65   61   63 am 
    66   64   65 1  
    67   65   66 1  
    68   65   68 1  
    69   66   67 2  
    70   66   74 am 
    71   68   69 1  
    72   69   70 1  
    73   69   71 2  
    74   70   72 2  
    75   71   73 1  
    76   72   73 1  
    77   74   75 1  
    78   75   76 1  
    79   75   78 1  
    80   76   77 2  
    81   76   85 am 
    82   78   79 1  
    83   79   80 1  
    84   80   81 1  
    85   81   82 ar 
    86   82   83 ar 
    87   82   84 ar 
    88   85   86 1  
    89   86   87 1  
    90   86   89 1  
    91   87   88 2  
    92   87   91 am 
    93   89   90 1  
    94   91   92 1  
    95   92   93 1  
    96   92   95 1  
    97   93   94 2  
    98   93   99 am 
    99   95   96 1  
   100   96   97 1  
   101   96   98 1  
   102    1  100 1  
   103    1  101 1  
   104    1  102 1  
   105    2  103 1  
   106    2  104 1  
   107    5  105 1  
   108    6  106 1  
   109    7  107 1  
   110    7  108 1  
   111    8  109 1  
   112    9  110 1  
   113    9  111 1  
   114   14  112 1  
   115   15  113 1  
   116   18  114 1  
   117   18  115 1  
   118   19  116 1  
   119   20  117 1  
   120   20  118 1  
   121   20  119 1  
   122   21  120 1  
   123   21  121 1  
   124   21  122 1  
   125   22  123 1  
   126   23  124 1  
   127   23  125 1  
   128   26  126 1  
   129   27  127 1  
   130   30  128 1  
   131   30  129 1  
   132   31  130 1  
   133   31  131 1  
   134   32  132 1  
   135   32  133 1  
   136   33  134 1  
   137   35  135 1  
   138   35  136 1  
   139   36  137 1  
   140   36  138 1  
   141   37  139 1  
   142   38  140 1  
   143   38  141 1  
   144   41  142 1  
   145   42  143 1  
   146   45  144 1  
   147   45  145 1  
   148   47  146 1  
   149   48  147 1  
   150   51  148 1  
   151   51  149 1  
   152   52  150 1  
   153   52  151 1  
   154   56  152 1  
   155   57  153 1  
   156   60  154 1  
   157   60  155 1  
   158   63  156 1  
   159   63  157 1  
   160   64  158 1  
   161   65  159 1  
   162   68  160 1  
   163   68  161 1  
   164   71  162 1  
   165   72  163 1  
   166   73  164 1  
   167   74  165 1  
   168   75  166 1  
   169   78  167 1  
   170   78  168 1  
   171   79  169 1  
   172   79  170 1  
   173   80  171 1  
   174   80  172 1  
   175   81  173 1  
   176   83  174 1  
   177   83  175 1  
   178   84  176 1  
   179   84  177 1  
   180   85  178 1  
   181   86  179 1  
   182   89  180 1  
   183   89  181 1  
   184   91  182 1  
   185   92  183 1  
   186   95  184 1  
   187   95  185 1  
   188   96  186 1  
   189   97  187 1  
   190   97  188 1  
   191   97  189 1  
   192   98  190 1  
   193   98  191 1  
   194   98  192 1  
   195   99  193 1  
   196   99  194 1  
@<TRIPOS>SUBSTRUCTURE
     1 GLY         1

