1b42_ligand
  -I-interpret- 

 18 19  0  0  0  0  0  0  0  0999 V2000
   18.5840   12.3140   19.6800 N   0  0  0  0  0
   18.9520   13.3950   18.9240 C   0  0  0  0  0
   18.3390   14.5040   19.2460 N   0  0  0  0  0
   17.4970   14.1420   20.3050 C   0  0  0  0  0
   16.5740   14.8800   21.1070 C   0  0  0  0  0
   16.3460   16.1760   20.9850 N   0  0  0  0  0
   15.9140   14.2170   22.0590 N   0  0  0  0  0
   16.1580   12.9120   22.2200 C   0  0  0  0  0
   16.9980   12.0940   21.5610 N   0  0  0  0  0
   17.6440   12.7980   20.5810 C   0  0  0  0  0
   14.9780   14.9840   22.8580 C   0  0  0  0  0
   19.6906   13.3360   18.1246 H   0  0  0  0  0
   16.8460   16.7176   20.2800 H   0  0  0  0  0
   15.6701   16.6346   21.5959 H   0  0  0  0  0
   15.5833   12.4341   23.0134 H   0  0  0  0  0
   15.5107   15.7855   23.3698 H   0  0  0  0  0
   14.2131   15.4108   22.2093 H   0  0  0  0  0
   14.5091   14.3302   23.5934 H   0  0  0  0  0
 10  1  4  0  0  0
  1  2  4  0  0  0
  2  3  4  0  0  0
  3  4  4  0  0  0
  4 10  4  0  0  0
  4  5  4  0  0  0
  5  7  4  0  0  0
  5  6  1  0  0  0
  7 11  1  0  0  0
  7  8  4  0  0  0
  8  9  4  0  0  0
  9 10  4  0  0  0
  2 12  1  0  0  0
  6 13  1  0  0  0
  6 14  1  0  0  0
  8 15  1  0  0  0
 11 16  1  0  0  0
 11 17  1  0  0  0
 11 18  1  0  0  0
M  END
$$$$
