5lhu_ligand
  -I-interpret- 

 20 20  0  0  0  0  0  0  0  0999 V2000
    1.7340   -9.1280  174.3380 N   0  3  0  0  0
    1.0210   -9.4970  173.1140 C   0  0  0  0  0
    1.4820  -10.8480  172.5990 C   0  0  0  0  0
    0.9000  -11.3890  171.6400 O   0  0  0  0  0
    1.2160   -8.4260  172.0160 C   0  0  0  0  0
    2.6410   -8.2440  171.5780 C   0  0  0  0  0
    3.3640   -7.1040  171.8850 N   0  0  0  0  0
    3.4710   -9.0400  170.8440 C   0  0  0  0  0
    4.5760   -7.2050  171.3540 C   0  0  0  0  0
    4.6650   -8.3690  170.7290 N   0  0  0  0  0
    2.4430  -11.4120  173.1410 O   0  0  0  0  0
    1.5896   -9.8492  175.0447 H   0  0  0  0  0
    2.7303   -9.0420  174.1369 H   0  0  0  0  0
    1.3772   -8.2366  174.6823 H   0  0  0  0  0
   -0.0389   -9.5600  173.3606 H   0  0  0  0  0
    0.1846  -10.8231  171.3408 H   0  0  0  0  0
    0.8840   -7.4750  172.4324 H   0  0  0  0  0
    0.6512   -8.7541  171.1434 H   0  0  0  0  0
    3.2331  -10.0193  170.4288 H   0  0  0  0  0
    5.3651   -6.4561  171.4210 H   0  0  0  0  0
  1  2  1  0  0  0
  2  3  1  0  0  0
  2  5  1  0  0  0
  3  4  1  0  0  0
  3 11  2  0  0  0
  5  6  1  0  0  0
  6  7  4  0  0  0
  6  8  4  0  0  0
  7  9  4  0  0  0
  8 10  4  0  0  0
  9 10  4  0  0  0
  1 12  1  0  0  0
  1 13  1  0  0  0
  1 14  1  0  0  0
  2 15  1  0  0  0
  4 16  1  0  0  0
  5 17  1  0  0  0
  5 18  1  0  0  0
  8 19  1  0  0  0
  9 20  1  0  0  0
M  END
$$$$
