6g2e_ligand
  -I-interpret- 

 43 45  0  0  0  0  0  0  0  0999 V2000
   -3.3330    6.9700  -18.7780 N   0  0  0  0  0
   -3.9350    5.8520  -19.2440 C   0  0  0  0  0
   -2.7850    7.1510  -17.4350 C   0  0  0  0  0
   -2.8880    9.3000  -19.7230 C   0  0  0  0  0
   -4.4300    7.7310  -22.2190 C   0  0  0  0  0
   -3.1140   11.6590  -20.0140 C   0  0  0  0  0
   -1.5620    9.5280  -19.3650 C   0  0  0  0  0
   -3.8290    8.5070  -24.4220 C   0  0  0  0  0
   -6.1220    8.1430  -23.8860 C   0  0  0  0  0
   -6.9060    7.3540  -21.6550 C   0  0  0  0  0
   -5.5430    8.9320  -26.2080 C   0  0  0  0  0
   -1.0960   10.8290  -19.3350 C   0  0  0  0  0
   -3.4330    8.1100  -23.1490 C   0  0  0  0  0
   -5.1590    8.5230  -24.8130 C   0  0  0  0  0
   -5.7910    7.7340  -22.5960 C   0  0  0  0  0
   -1.9630    8.1400  -22.8230 C   0  0  0  0  0
   -3.4300    7.9260  -19.8130 C   0  0  0  0  0
   -4.0430    7.2650  -20.8600 C   0  0  0  0  0
   -3.6670   10.3940  -20.0890 C   0  0  0  0  0
   -1.8450   11.8930  -19.6520 N   0  0  0  0  0
   -5.5670    7.7790  -27.1440 N   0  3  0  0  0
   -4.3380    5.9590  -20.4880 N   0  0  0  0  0
   -4.0718    4.9514  -18.6454 H   0  0  0  0  0
   -3.5797    7.0249  -16.6997 H   0  0  0  0  0
   -2.0049    6.4103  -17.2594 H   0  0  0  0  0
   -2.3632    8.1523  -17.3480 H   0  0  0  0  0
   -3.7446   12.5126  -20.2629 H   0  0  0  0  0
   -0.9039    8.6964  -19.1132 H   0  0  0  0  0
   -3.0669    8.8164  -25.1372 H   0  0  0  0  0
   -7.1719    8.1657  -24.1781 H   0  0  0  0  0
   -6.7600    6.3283  -21.3162 H   0  0  0  0  0
   -6.9002    8.0259  -20.7967 H   0  0  0  0  0
   -7.8610    7.4340  -22.1742 H   0  0  0  0  0
   -4.8023    9.6459  -26.5682 H   0  0  0  0  0
   -6.5445    9.3607  -26.1722 H   0  0  0  0  0
   -0.0614   10.9984  -19.0367 H   0  0  0  0  0
   -1.7882    8.8360  -22.0025 H   0  0  0  0  0
   -1.6366    7.1420  -22.5303 H   0  0  0  0  0
   -1.4040    8.4636  -23.7010 H   0  0  0  0  0
   -4.6936   10.2560  -20.4283 H   0  0  0  0  0
   -5.8315    8.1032  -28.0742 H   0  0  0  0  0
   -4.6407    7.3537  -27.1815 H   0  0  0  0  0
   -6.2453    7.0911  -26.8168 H   0  0  0  0  0
  1  2  4  0  0  0
  1  3  1  0  0  0
 17  1  4  0  0  0
  2 22  4  0  0  0
  4  7  4  0  0  0
 17  4  1  0  0  0
  4 19  4  0  0  0
  5 13  4  0  0  0
  5 15  4  0  0  0
 18  5  1  0  0  0
 19  6  4  0  0  0
  6 20  4  0  0  0
  7 12  4  0  0  0
 13  8  4  0  0  0
  8 14  4  0  0  0
  9 14  4  0  0  0
 15  9  4  0  0  0
 15 10  1  0  0  0
 14 11  1  0  0  0
 11 21  1  0  0  0
 12 20  4  0  0  0
 13 16  1  0  0  0
 17 18  4  0  0  0
 18 22  4  0  0  0
  2 23  1  0  0  0
  3 24  1  0  0  0
  3 25  1  0  0  0
  3 26  1  0  0  0
  6 27  1  0  0  0
  7 28  1  0  0  0
  8 29  1  0  0  0
  9 30  1  0  0  0
 10 31  1  0  0  0
 10 32  1  0  0  0
 10 33  1  0  0  0
 11 34  1  0  0  0
 11 35  1  0  0  0
 12 36  1  0  0  0
 16 37  1  0  0  0
 16 38  1  0  0  0
 16 39  1  0  0  0
 19 40  1  0  0  0
 21 41  1  0  0  0
 21 42  1  0  0  0
 21 43  1  0  0  0
M  END
$$$$
