4cxx_ligand
  -I-interpret- 

 53 54  0  0  0  0  0  0  0  0999 V2000
   33.9560   -7.1640  725.8230 O   0  0  0  0  0
   33.8660   -7.5210  724.6360 C   0  0  0  0  0
   34.3740   -8.5820  724.2550 O   0  0  0  0  0
   33.1040   -6.6660  723.6680 C   0  0  0  0  0
   32.0010   -7.5870  723.1180 C   0  0  0  0  0
   31.1780   -6.9080  722.0750 C   0  0  0  0  0
   31.4940   -5.7980  721.6390 O   0  0  0  0  0
   30.0150   -7.6020  721.6530 N   0  0  0  0  0
   29.2100   -6.9740  720.7230 N   0  0  0  0  0
   28.8330   -7.6490  719.4830 C   0  0  0  0  0
   29.1760   -8.7690  719.2460 O   0  0  0  0  0
   27.9360   -6.9590  718.5090 C   0  0  0  0  0
   26.5980   -6.8540  718.8200 C   0  0  0  0  0
   25.7490   -6.2690  717.9860 N   0  0  0  0  0
   26.1880   -5.7820  716.8090 C   0  0  0  0  0
   27.5270   -5.8560  716.4030 C   0  0  0  0  0
   28.4400   -6.5050  717.2730 C   0  0  0  0  0
   29.9670   -6.6440  716.9960 C   0  0  0  0  0
   30.3880   -6.9860  715.5420 C   0  0  0  0  0
   30.3450   -8.2780  715.0620 C   0  0  0  0  0
   30.7990   -8.5000  713.7680 C   0  0  0  0  0
   31.2840   -7.4490  713.0040 C   0  0  0  0  0
   31.7810   -7.5900  711.5370 C   0  0  0  0  0
   32.0490   -9.0510  711.3000 C   0  0  0  0  0
   30.7860   -7.0280  710.5520 C   0  0  0  0  0
   33.1480   -6.8630  711.3610 C   0  0  0  0  0
   31.3230   -6.1770  713.5270 C   0  0  0  0  0
   30.8860   -5.9390  714.8030 C   0  0  0  0  0
   33.5073   -6.3231  725.9380 H   0  0  0  0  0
   33.7443   -6.2798  722.8749 H   0  0  0  0  0
   32.6912   -5.7782  724.1471 H   0  0  0  0  0
   31.3453   -7.8654  723.9430 H   0  0  0  0  0
   32.4765   -8.4571  722.6653 H   0  0  0  0  0
   29.7833   -8.5249  722.0205 H   0  0  0  0  0
   28.8746   -6.0278  720.9038 H   0  0  0  0  0
   26.2323   -7.2572  719.7643 H   0  0  0  0  0
   25.4680   -5.3084  716.1416 H   0  0  0  0  0
   27.8546   -5.4308  715.4543 H   0  0  0  0  0
   30.3070   -7.4784  717.6094 H   0  0  0  0  0
   30.3995   -5.6666  717.2101 H   0  0  0  0  0
   29.9682   -9.0960  715.6760 H   0  0  0  0  0
   30.7739   -9.5066  713.3505 H   0  0  0  0  0
   32.8098   -9.3976  711.9994 H   0  0  0  0  0
   31.1298   -9.6169  711.4512 H   0  0  0  0  0
   32.4009   -9.1935  710.2783 H   0  0  0  0  0
   29.8410   -7.5629  710.6468 H   0  0  0  0  0
   30.6284   -5.9698  710.7604 H   0  0  0  0  0
   31.1722   -7.1467  709.5396 H   0  0  0  0  0
   33.0291   -5.8058  711.5985 H   0  0  0  0  0
   33.8832   -7.3070  712.0321 H   0  0  0  0  0
   33.4845   -6.9694  710.3297 H   0  0  0  0  0
   31.7039   -5.3540  712.9223 H   0  0  0  0  0
   30.9323   -4.9355  715.2259 H   0  0  0  0  0
  1  2  1  0  0  0
  2  3  2  0  0  0
  2  4  1  0  0  0
  4  5  1  0  0  0
  5  6  1  0  0  0
  6  7  2  0  0  0
  6  8  1  0  0  0
  8  9  1  0  0  0
  9 10  1  0  0  0
 10 11  2  0  0  0
 10 12  1  0  0  0
 12 13  4  0  0  0
 12 17  4  0  0  0
 13 14  4  0  0  0
 14 15  4  0  0  0
 15 16  4  0  0  0
 16 17  4  0  0  0
 17 18  1  0  0  0
 18 19  1  0  0  0
 19 20  4  0  0  0
 19 28  4  0  0  0
 20 21  4  0  0  0
 21 22  4  0  0  0
 22 23  1  0  0  0
 22 27  4  0  0  0
 23 24  1  0  0  0
 23 25  1  0  0  0
 23 26  1  0  0  0
 27 28  4  0  0  0
  1 29  1  0  0  0
  4 30  1  0  0  0
  4 31  1  0  0  0
  5 32  1  0  0  0
  5 33  1  0  0  0
  8 34  1  0  0  0
  9 35  1  0  0  0
 13 36  1  0  0  0
 15 37  1  0  0  0
 16 38  1  0  0  0
 18 39  1  0  0  0
 18 40  1  0  0  0
 20 41  1  0  0  0
 21 42  1  0  0  0
 24 43  1  0  0  0
 24 44  1  0  0  0
 24 45  1  0  0  0
 25 46  1  0  0  0
 25 47  1  0  0  0
 25 48  1  0  0  0
 26 49  1  0  0  0
 26 50  1  0  0  0
 26 51  1  0  0  0
 27 52  1  0  0  0
 28 53  1  0  0  0
M  END
$$$$
