6oxr_ligand
  -I-interpret- 

 80 83  0  0  0  0  0  0  0  0999 V2000
   70.0900   56.8890   14.0630 C   0  0  0  0  0
   74.1910   59.8260   19.2180 C   0  0  0  0  0
   75.6840   60.4290   18.8640 C   0  0  0  0  0
   73.7850   60.5670   20.2430 C   0  0  0  0  0
   72.2960   60.7840   20.3190 C   0  0  0  0  0
   66.1520   52.3500   12.9070 C   0  0  0  0  0
   65.9890   53.8680   13.0390 C   0  0  0  0  0
   66.9380   54.6610   13.9450 C   0  0  0  0  0
   68.0370   53.9270   14.7150 C   0  0  0  0  0
   68.2130   52.4160   14.5810 C   0  0  0  0  0
   67.2570   51.6190   13.6640 C   0  0  0  0  0
   71.1680   54.5980   13.9480 C   0  0  0  0  0
   72.7030   54.9420   13.9760 C   0  0  0  0  0
   70.9640   58.0030   14.6730 C   0  0  0  0  0
   70.5540   58.3010   16.1360 C   0  0  0  0  0
   72.4760   58.9650   17.6930 C   0  0  0  0  0
   74.3850   61.9940   19.9530 C   0  0  0  0  0
   72.0440   61.9080   19.6760 C   0  0  0  0  0
   69.1560   58.9050   16.2160 C   0  0  0  0  0
   68.8870   59.3690   17.7120 C   0  0  0  0  0
   68.5170   58.3320   18.7820 C   0  0  0  0  0
   68.2600   58.7810   20.2310 C   0  0  0  0  0
   68.3730   60.2600   20.6050 C   0  0  0  0  0
   68.7440   61.3030   19.5300 C   0  0  0  0  0
   69.0000   60.8550   18.0870 C   0  0  0  0  0
   64.8850   50.2330   12.6180 C   0  0  0  0  0
   65.2230   51.6020   12.0070 C   0  0  0  0  0
   73.4710   53.9360   13.0800 C   0  0  0  0  0
   73.2230   54.8460   15.4150 C   0  0  0  0  0
   70.4130   55.5700   14.7290 N   0  0  0  0  0
   71.4660   59.2860   16.6460 N   0  0  0  0  0
   68.4360   55.9710   16.4890 O   0  0  0  0  0
   69.7650   54.1130   16.8750 O   0  0  0  0  0
   70.8330   59.1470   13.9330 O   0  0  0  0  0
   72.5190   57.8710   18.2150 O   0  0  0  0  0
   73.3750   60.0130   18.0570 O   0  0  0  0  0
   75.5350   61.7510   18.9160 O   0  0  0  0  0
   73.4540   62.6820   19.4420 O   0  0  0  0  0
   65.8730   51.4250   10.7650 O   0  0  0  0  0
   69.1780   54.9150   15.7910 S   0  0  0  0  0
   70.2914   56.8144   12.9944 H   0  0  0  0  0
   69.0379   57.1265   14.2204 H   0  0  0  0  0
   74.1610   58.7668   19.4734 H   0  0  0  0  0
   76.0356   60.0973   17.8870 H   0  0  0  0  0
   76.4415   60.0771   19.5643 H   0  0  0  0  0
   74.0912   60.0673   21.1620 H   0  0  0  0  0
   71.9648   60.8466   21.3556 H   0  0  0  0  0
   71.7582   59.9497   19.8687 H   0  0  0  0  0
   65.2003   54.3826   12.4901 H   0  0  0  0  0
   66.8302   55.7415   14.0399 H   0  0  0  0  0
   69.0055   51.9041   15.1269 H   0  0  0  0  0
   67.3717   50.5402   13.5587 H   0  0  0  0  0
   71.0192   53.6069   14.3765 H   0  0  0  0  0
   70.8179   54.6240   12.9161 H   0  0  0  0  0
   72.8567   55.9544   13.6026 H   0  0  0  0  0
   71.9992   57.6618   14.6634 H   0  0  0  0  0
   70.5716   57.3681   16.6995 H   0  0  0  0  0
   74.7676   62.5108   20.8332 H   0  0  0  0  0
   71.3656   62.5307   20.2591 H   0  0  0  0  0
   71.5687   61.6949   18.7185 H   0  0  0  0  0
   68.4144   58.1634   15.9191 H   0  0  0  0  0
   69.0828   59.7601   15.5440 H   0  0  0  0  0
   68.4364   57.2782   18.5153 H   0  0  0  0  0
   67.9974   58.0452   20.9911 H   0  0  0  0  0
   68.1913   60.5774   21.6318 H   0  0  0  0  0
   68.8239   62.3569   19.7966 H   0  0  0  0  0
   69.2623   61.5905   17.3265 H   0  0  0  0  0
   64.2278   49.6868   11.9414 H   0  0  0  0  0
   65.8042   49.6671   12.7692 H   0  0  0  0  0
   64.3841   50.3775   13.5753 H   0  0  0  0  0
   64.2943   52.1575   11.8767 H   0  0  0  0  0
   73.3164   52.9248   13.4563 H   0  0  0  0  0
   73.0998   54.0052   12.0575 H   0  0  0  0  0
   74.5347   54.1734   13.0986 H   0  0  0  0  0
   72.6806   55.5520   16.0438 H   0  0  0  0  0
   73.0704   53.8334   15.7883 H   0  0  0  0  0
   74.2864   55.0846   15.4324 H   0  0  0  0  0
   71.4208   60.2367   16.2793 H   0  0  0  0  0
   71.0857   58.9695   13.0240 H   0  0  0  0  0
   66.0813   52.2834   10.3889 H   0  0  0  0  0
  1 14  1  0  0  0
 30  1  1  0  0  0
  2  3  1  0  0  0
  2  4  1  0  0  0
 36  2  1  0  0  0
  3 37  1  0  0  0
  4  5  1  0  0  0
  4 17  1  0  0  0
  5 18  1  0  0  0
  7  6  4  0  0  0
 11  6  4  0  0  0
  6 27  1  0  0  0
  8  7  4  0  0  0
  9  8  4  0  0  0
  9 10  4  0  0  0
 40  9  1  0  0  0
 10 11  4  0  0  0
 12 13  1  0  0  0
 30 12  1  0  0  0
 13 28  1  0  0  0
 13 29  1  0  0  0
 14 15  1  0  0  0
 14 34  1  0  0  0
 15 19  1  0  0  0
 15 31  1  0  0  0
 31 16  1  0  0  0
 16 35  2  0  0  0
 16 36  1  0  0  0
 17 37  1  0  0  0
 17 38  1  0  0  0
 38 18  1  0  0  0
 19 20  1  0  0  0
 20 21  4  0  0  0
 20 25  4  0  0  0
 21 22  4  0  0  0
 22 23  4  0  0  0
 24 23  4  0  0  0
 25 24  4  0  0  0
 27 26  1  0  0  0
 27 39  1  0  0  0
 30 40  1  0  0  0
 40 32  2  0  0  0
 40 33  2  0  0  0
  1 41  1  0  0  0
  1 42  1  0  0  0
  2 43  1  0  0  0
  3 44  1  0  0  0
  3 45  1  0  0  0
  4 46  1  0  0  0
  5 47  1  0  0  0
  5 48  1  0  0  0
  7 49  1  0  0  0
  8 50  1  0  0  0
 10 51  1  0  0  0
 11 52  1  0  0  0
 12 53  1  0  0  0
 12 54  1  0  0  0
 13 55  1  0  0  0
 14 56  1  0  0  0
 15 57  1  0  0  0
 17 58  1  0  0  0
 18 59  1  0  0  0
 18 60  1  0  0  0
 19 61  1  0  0  0
 19 62  1  0  0  0
 21 63  1  0  0  0
 22 64  1  0  0  0
 23 65  1  0  0  0
 24 66  1  0  0  0
 25 67  1  0  0  0
 26 68  1  0  0  0
 26 69  1  0  0  0
 26 70  1  0  0  0
 27 71  1  0  0  0
 28 72  1  0  0  0
 28 73  1  0  0  0
 28 74  1  0  0  0
 29 75  1  0  0  0
 29 76  1  0  0  0
 29 77  1  0  0  0
 31 78  1  0  0  0
 34 79  1  0  0  0
 39 80  1  0  0  0
M  END
$$$$
