6pnn_ligand
  -I-interpret- 

 37 37  0  0  0  0  0  0  0  0999 V2000
   18.2860   -7.6220   13.6290 C   0  0  0  0  0
   17.8360   -6.4360   14.3700 C   0  0  0  0  0
   18.5810   -5.4640   14.3610 O   0  0  0  0  0
   16.5470   -6.5100   14.8530 N   0  0  0  0  0
   16.0560   -5.5260   15.6420 C   0  0  0  0  0
   16.9330   -4.6830   16.3910 C   0  0  0  0  0
   14.6740   -5.3780   15.7890 C   0  0  0  0  0
   14.2050   -4.3790   16.6340 C   0  0  0  0  0
   15.0980   -3.5390   17.3440 C   0  0  0  0  0
   14.4970   -2.3320   18.3230 Cl  0  0  0  0  0
   16.4900   -3.6590   17.2340 C   0  0  0  0  0
   17.7840   -2.4650   18.2510 S   0  0  0  0  0
   17.3600   -2.5260   19.7180 O   0  0  0  0  0
   19.2980   -2.8250   18.0940 O   0  0  0  0  0
   17.8800   -0.7160   17.8170 N   0  0  0  0  0
   16.5720   -0.0980   17.5230 C   0  0  0  0  0
   18.9060   -0.5160   16.7600 C   0  0  0  0  0
   18.5170   -1.2980   15.4570 C   0  0  0  0  0
   19.2740   -2.5220   15.1850 O   0  0  0  0  0
   18.9760   -2.9460   13.8240 C   0  0  0  0  0
   18.4215   -7.3630   12.5789 H   0  0  0  0  0
   19.2319   -7.9706   14.0435 H   0  0  0  0  0
   17.5373   -8.4093   13.7167 H   0  0  0  0  0
   15.9606   -7.3099   14.6147 H   0  0  0  0  0
   18.0068   -4.8470   16.3004 H   0  0  0  0  0
   13.9820   -6.0291   15.2549 H   0  0  0  0  0
   13.1305   -4.2393   16.7526 H   0  0  0  0  0
   16.1086   -0.6140   16.6821 H   0  0  0  0  0
   15.9286   -0.1780   18.3992 H   0  0  0  0  0
   16.7164    0.9527   17.2714 H   0  0  0  0  0
   19.8638   -0.8889   17.1228 H   0  0  0  0  0
   18.9708    0.5470   16.5276 H   0  0  0  0  0
   18.7213   -0.6234   14.6255 H   0  0  0  0  0
   17.4791   -1.6050   15.5855 H   0  0  0  0  0
   17.9069   -3.1365   13.7300 H   0  0  0  0  0
   19.2689   -2.1603   13.1277 H   0  0  0  0  0
   19.5299   -3.8575   13.5993 H   0  0  0  0  0
  1  2  1  0  0  0
  2  3  2  0  0  0
  2  4  1  0  0  0
  4  5  1  0  0  0
  5  6  4  0  0  0
  5  7  4  0  0  0
  6 11  4  0  0  0
  7  8  4  0  0  0
  8  9  4  0  0  0
  9 10  1  0  0  0
  9 11  4  0  0  0
 11 12  1  0  0  0
 12 13  2  0  0  0
 12 14  2  0  0  0
 12 15  1  0  0  0
 15 16  1  0  0  0
 15 17  1  0  0  0
 17 18  1  0  0  0
 18 19  1  0  0  0
 19 20  1  0  0  0
  1 21  1  0  0  0
  1 22  1  0  0  0
  1 23  1  0  0  0
  4 24  1  0  0  0
  6 25  1  0  0  0
  7 26  1  0  0  0
  8 27  1  0  0  0
 16 28  1  0  0  0
 16 29  1  0  0  0
 16 30  1  0  0  0
 17 31  1  0  0  0
 17 32  1  0  0  0
 18 33  1  0  0  0
 18 34  1  0  0  0
 20 35  1  0  0  0
 20 36  1  0  0  0
 20 37  1  0  0  0
M  END
$$$$
