4cby_ligand
  -I-interpret- 

 40 43  0  0  0  0  0  0  0  0999 V2000
   23.7810    1.4040   34.7310 C   0  0  0  0  0
   24.9910    0.6710   34.1610 C   0  0  0  0  0
   26.3690    1.3150   33.9040 C   0  0  0  0  0
   26.1730    0.3580   35.0850 C   0  0  0  0  0
   26.9950    0.8340   32.6300 C   0  0  0  0  0
   26.9280    1.7140   31.5530 C   0  0  0  0  0
   27.4640    1.3910   30.3160 C   0  0  0  0  0
   28.0920    0.1720   30.1330 C   0  0  0  0  0
   28.1590   -0.7360   31.1940 C   0  0  0  0  0
   27.6190   -0.4060   32.4460 C   0  0  0  0  0
   26.3780    0.9920   36.4030 C   0  0  0  0  0
   25.5600    0.6420   37.4650 C   0  0  0  0  0
   25.7900    1.2020   38.7250 C   0  0  0  0  0
   26.8450    2.0980   38.9230 C   0  0  0  0  0
   27.6800    2.4210   37.8480 C   0  0  0  0  0
   27.4500    1.8580   36.5950 C   0  0  0  0  0
   28.6240   -0.1070   28.7680 C   0  0  0  0  0
   28.5450   -1.2990   28.0900 O   0  0  0  0  0
   29.1250   -1.1150   26.8450 C   0  0  0  0  0
   29.5420    0.1730   26.7630 N   0  0  0  0  0
   29.2390    0.8090   27.9200 C   0  0  0  0  0
   23.7300    2.5730   35.1240 O   0  0  0  0  0
   22.7150    0.5990   34.7040 N   0  0  0  0  0
   21.4410    1.0290   35.0590 O   0  0  0  0  0
   24.3015    0.1218   33.5199 H   0  0  0  0  0
   26.8096    2.3100   33.8404 H   0  0  0  0  0
   26.5554   -0.5954   35.4496 H   0  0  0  0  0
   26.4421    2.6806   31.6858 H   0  0  0  0  0
   27.3907    2.0967   29.4885 H   0  0  0  0  0
   28.6337   -1.7062   31.0475 H   0  0  0  0  0
   27.6850   -1.1128   33.2732 H   0  0  0  0  0
   24.7431   -0.0648   37.3191 H   0  0  0  0  0
   25.1414    0.9379   39.5603 H   0  0  0  0  0
   27.0151    2.5402   39.9046 H   0  0  0  0  0
   28.5101    3.1128   37.9909 H   0  0  0  0  0
   28.1117    2.0965   35.7623 H   0  0  0  0  0
   29.2280   -1.8724   26.0680 H   0  0  0  0  0
   29.4416    1.8557   28.1471 H   0  0  0  0  0
   22.8407   -0.3700   34.4112 H   0  0  0  0  0
   20.8223    0.3003   34.9706 H   0  0  0  0  0
  1  2  1  0  0  0
  1 22  2  0  0  0
  1 23  1  0  0  0
  2  3  1  0  0  0
  2  4  1  0  0  0
  3  4  1  0  0  0
  3  5  1  0  0  0
  4 11  1  0  0  0
  5  6  4  0  0  0
  5 10  4  0  0  0
  6  7  4  0  0  0
  7  8  4  0  0  0
  8  9  4  0  0  0
  8 17  1  0  0  0
  9 10  4  0  0  0
 11 12  4  0  0  0
 11 16  4  0  0  0
 12 13  4  0  0  0
 13 14  4  0  0  0
 14 15  4  0  0  0
 15 16  4  0  0  0
 17 18  4  0  0  0
 17 21  4  0  0  0
 18 19  4  0  0  0
 19 20  4  0  0  0
 20 21  4  0  0  0
 23 24  1  0  0  0
  2 25  1  0  0  0
  3 26  1  0  0  0
  4 27  1  0  0  0
  6 28  1  0  0  0
  7 29  1  0  0  0
  9 30  1  0  0  0
 10 31  1  0  0  0
 12 32  1  0  0  0
 13 33  1  0  0  0
 14 34  1  0  0  0
 15 35  1  0  0  0
 16 36  1  0  0  0
 19 37  1  0  0  0
 21 38  1  0  0  0
 23 39  1  0  0  0
 24 40  1  0  0  0
M  END
$$$$
