### 
### Created by X-TOOL on Mon Sep 10 21:13:06 2018
### 

@<TRIPOS>MOLECULE
3haw_ligand
  123   122     1     0     0
SMALL
GAST_HUCK


@<TRIPOS>ATOM
      1 C           4.2490   -8.7840   16.3760 C.2       1 2NC         0.1752
      2 O           3.3990   -8.4190   17.1880 O.2       1 2NC        -0.3972
      3 CH3         3.8520   -9.2350   14.9850 C.3       1 2NC         0.0258
      4 N           5.5410   -8.5260   16.5750 N.am      1 2NC        -0.2635
      5 CA          6.1130   -7.9230   17.8040 C.3       1 2NC         0.1564
      6 C1          6.7580   -6.5050   17.6600 C.2       1 2NC         0.2065
      7 O1          7.0490   -5.8530   18.6280 O.2       1 2NC        -0.3943
      8 CB          7.1630   -8.8500   18.4490 C.3       1 2NC         0.0924
      9 OG1         8.2460   -9.0350   17.5500 O.3       1 2NC        -0.3874
     10 CG2         6.5680  -10.2270   18.8310 C.3       1 2NC        -0.0346
     11 N1          6.9280   -6.0360   16.4470 N.am      1 2NC        -0.2634
     12 CA1         7.4710   -4.7190   16.1510 C.3       1 2NC         0.1334
     13 C2          6.4280   -3.8420   15.4740 C.2       1 2NC         0.2023
     14 O2          6.3260   -3.7520   14.2700 O.2       1 2NC        -0.3945
     15 CB1         8.7570   -4.7590   15.3400 C.3       1 2NC        -0.0037
     16 CG1         9.7530   -5.7560   15.8940 C.3       1 2NC        -0.0491
     17 CG21        9.3760   -3.3960   15.2740 C.3       1 2NC        -0.0582
     18 CD1        10.2250   -5.6300   17.3620 C.3       1 2NC        -0.0648
     19 N2          5.5860   -3.2280   16.2640 N.am      1 2NC        -0.2769
     20 CA2         4.4200   -2.4680   15.7050 C.3       1 2NC         0.0817
     21 C3          4.6020   -0.9780   15.4940 C.3       1 2NC        -0.0081
     22 CB2         3.1150   -2.8240   16.4090 C.3       1 2NC        -0.0249
     23 CG          2.8250   -4.2810   16.6900 C.3       1 2NC        -0.0510
     24 CD          2.6610   -5.1210   15.4300 C.3       1 2NC        -0.0558
     25 CE          1.4880   -4.5600   14.6520 C.3       1 2NC        -0.0653
     26 N3          5.8840   -0.6630   14.8790 N.4       1 2NC         0.2477
     27 CA3         5.8850    0.5090   14.0120 C.3       1 2NC         0.0668
     28 C4          4.8010    0.3940   12.9520 C.2       1 2NC         0.2268
     29 O3          4.5900   -0.6530   12.3180 O.2       1 2NC        -0.3907
     30 CB3         7.2780    0.7310   13.4310 C.3       1 2NC         0.0079
     31 CG3         7.4050    1.9410   12.4900 C.3       1 2NC        -0.0460
     32 CD2         7.3070    1.5460   11.0180 C.3       1 2NC        -0.0556
     33 CE1         8.5360    0.8160   10.5150 C.3       1 2NC        -0.0653
     34 N4          4.1500    1.4980   12.6540 N.am      1 2NC        -0.2609
     35 CA4         3.1490    1.5690   11.5620 C.3       1 2NC         0.1331
     36 C5          3.2010    2.9630   10.9130 C.2       1 2NC         0.2040
     37 O4          3.2910    4.0260   11.5790 O.2       1 2NC        -0.3944
     38 CB4         1.7760    1.1520   12.0340 C.3       1 2NC         0.0045
     39 CG4         0.6880    1.3080   11.0050 C.3       1 2NC         0.0412
     40 CD3         0.1140    2.7020   10.9280 C.2       1 2NC         0.1737
     41 OE1         0.1320    3.4220   11.8920 O.2       1 2NC        -0.3973
     42 NE2        -0.4440    3.0600    9.7970 N.am      1 2NC        -0.3009
     43 N5          3.0930    2.9790    9.5900 N.am      1 2NC        -0.2637
     44 CA5         3.2080    4.2080    8.8410 C.3       1 2NC         0.1307
     45 C6          2.0210    4.3120    7.9630 C.2       1 2NC         0.1992
     46 O5          1.6630    3.3380    7.2640 O.2       1 2NC        -0.3947
     47 CB5         4.4990    4.2280    7.9810 C.3       1 2NC        -0.0092
     48 CG5         5.6660    3.3520    8.4230 C.3       1 2NC        -0.0156
     49 CD4         7.0650    3.9930    8.3100 C.3       1 2NC         0.0627
     50 NE          7.1850    5.0010    7.2470 N.pl3     1 2NC        -0.2723
     51 CZ          8.3270    5.4940    6.7520 C.cat     1 2NC         0.2882
     52 NH1         9.5000    5.0860    7.1910 N.pl3     1 2NC        -0.2849
     53 NH2         8.2860    6.4280    5.8040 N.pl3     1 2NC        -0.2849
     54 N6          1.3540    5.4600    7.9920 N.am      1 2NC        -0.2990
     55 H           3.1844  -10.0934   15.0595 H         1 2NC         0.0467
     56 H           3.3418   -8.4198   14.4719 H         1 2NC         0.0467
     57 H           4.7452   -9.5151   14.4265 H         1 2NC         0.0467
     58 H           6.1882   -8.7618   15.8227 H         1 2NC         0.1883
     59 H           5.2300   -7.7967   18.4305 H         1 2NC         0.0826
     60 H           7.5077   -8.3727   19.3663 H         1 2NC         0.0639
     61 H           7.9223   -9.4327   16.7384 H         1 2NC         0.2101
     62 H           6.2125  -10.7299   17.9317 H         1 2NC         0.0257
     63 H           7.3373  -10.8340   19.3082 H         1 2NC         0.0257
     64 H           5.7367  -10.0833   19.5212 H         1 2NC         0.0257
     65 H           6.6631   -6.6315   15.6624 H         1 2NC         0.1883
     66 H           7.7354   -4.2784   17.1123 H         1 2NC         0.0802
     67 H           8.4920   -5.0854   14.3343 H         1 2NC         0.0345
     68 H          10.6545   -5.6038   15.3005 H         1 2NC         0.0267
     69 H           9.2359   -6.7146   15.8520 H         1 2NC         0.0267
     70 H           8.6789   -2.7043   14.8011 H         1 2NC         0.0235
     71 H           9.6027   -3.0521   16.2832 H         1 2NC         0.0235
     72 H          10.2951   -3.4436   14.6899 H         1 2NC         0.0235
     73 H          10.7060   -4.6625   17.5059 H         1 2NC         0.0230
     74 H           9.3653   -5.7123   18.0270 H         1 2NC         0.0230
     75 H          10.9350   -6.4268   17.5837 H         1 2NC         0.0230
     76 H           5.7240   -3.2664   17.2739 H         1 2NC         0.1857
     77 H           4.3584   -2.8268   14.6776 H         1 2NC         0.0609
     78 H           4.5636   -0.4900   16.4679 H         1 2NC         0.0837
     79 H           3.8117   -0.6303   14.8287 H         1 2NC         0.0837
     80 H           2.3261   -2.5010   15.7298 H         1 2NC         0.0289
     81 H           3.1802   -2.3510   17.3889 H         1 2NC         0.0289
     82 H           1.8852   -4.3281   17.2401 H         1 2NC         0.0266
     83 H           3.6731   -4.6832   17.2441 H         1 2NC         0.0266
     84 H           2.4797   -6.1638   15.6902 H         1 2NC         0.0263
     85 H           3.5687   -5.0828   14.8278 H         1 2NC         0.0263
     86 H           0.5880   -4.6145   15.2645 H         1 2NC         0.0230
     87 H           1.6897   -3.5209   14.3920 H         1 2NC         0.0230
     88 H           1.3454   -5.1425   13.7418 H         1 2NC         0.0230
     89 H           6.1319   -1.4606   14.2936 H         1 2NC         0.2036
     90 H           6.5333   -0.4648   15.6403 H         1 2NC         0.2036
     91 H           5.6437    1.3968   14.5965 H         1 2NC         0.1099
     92 H           7.5170   -0.1533   12.8403 H         1 2NC         0.0346
     93 H           7.9443    0.9164   14.2735 H         1 2NC         0.0346
     94 H           8.3827    2.3943   12.6533 H         1 2NC         0.0269
     95 H           6.5872    2.6271   12.7104 H         1 2NC         0.0269
     96 H           7.2043    2.4616   10.4356 H         1 2NC         0.0263
     97 H           6.4558    0.8735   10.9116 H         1 2NC         0.0263
     98 H           9.4098    1.4578   10.6277 H         1 2NC         0.0230
     99 H           8.6770   -0.0969   11.0937 H         1 2NC         0.0230
    100 H           8.4021    0.5638    9.4631 H         1 2NC         0.0230
    101 H           4.3418    2.3401   13.1967 H         1 2NC         0.1885
    102 H           3.3973    0.8468   10.7842 H         1 2NC         0.0801
    103 H           1.5170    1.7984   12.8726 H         1 2NC         0.0337
    104 H           1.8319    0.0918   12.2809 H         1 2NC         0.0337
    105 H          -0.1241    0.6383   11.2879 H         1 2NC         0.0504
    106 H           1.1269    1.0841   10.0327 H         1 2NC         0.0504
    107 H          -0.8830    3.9768    9.7126 H         1 2NC         0.1814
    108 H          -0.4392    2.4217    9.0014 H         1 2NC         0.1814
    109 H           2.9253    2.1047    9.0921 H         1 2NC         0.1883
    110 H           3.2622    5.0504    9.5306 H         1 2NC         0.0800
    111 H           4.8683    5.2520    8.0370 H         1 2NC         0.0313
    112 H           4.2025    3.8443    7.0048 H         1 2NC         0.0313
    113 H           5.6693    2.4857    7.7614 H         1 2NC         0.0301
    114 H           5.5087    3.1392    9.4804 H         1 2NC         0.0301
    115 H           7.7661    3.1926    8.0734 H         1 2NC         0.0689
    116 H           7.2632    4.4987    9.2551 H         1 2NC         0.0689
    117 H           6.3165    5.3585    6.8491 H         1 2NC         0.2642
    118 H           9.5523    4.3790    7.9243 H         1 2NC         0.2615
    119 H          10.3560    5.4771    6.7976 H         1 2NC         0.2615
    120 H           7.3874    6.7646    5.4582 H         1 2NC         0.2615
    121 H           9.1532    6.8069    5.4235 H         1 2NC         0.2615
    122 H           0.5115    5.5747    7.4286 H         1 2NC         0.1815
    123 H           1.6842    6.2270    8.5777 H         1 2NC         0.1815
@<TRIPOS>BOND
     1    1    2 2  
     2    1    3 1  
     3    1    4 am 
     4    4    5 1  
     5    5    6 1  
     6    5    8 1  
     7    6    7 2  
     8    6   11 am 
     9    8    9 1  
    10    8   10 1  
    11   11   12 1  
    12   12   13 1  
    13   12   15 1  
    14   13   14 2  
    15   13   19 am 
    16   15   16 1  
    17   15   17 1  
    18   16   18 1  
    19   19   20 1  
    20   20   21 1  
    21   20   22 1  
    22   21   26 1  
    23   22   23 1  
    24   23   24 1  
    25   24   25 1  
    26   26   27 1  
    27   27   28 1  
    28   27   30 1  
    29   28   29 2  
    30   28   34 am 
    31   30   31 1  
    32   31   32 1  
    33   32   33 1  
    34   34   35 1  
    35   35   36 1  
    36   35   38 1  
    37   36   37 2  
    38   36   43 am 
    39   38   39 1  
    40   39   40 1  
    41   40   41 2  
    42   40   42 am 
    43   43   44 1  
    44   44   45 1  
    45   44   47 1  
    46   45   46 2  
    47   45   54 am 
    48   47   48 1  
    49   48   49 1  
    50   49   50 1  
    51   50   51 ar 
    52   51   52 ar 
    53   51   53 ar 
    54    3   55 1  
    55    3   56 1  
    56    3   57 1  
    57    4   58 1  
    58    5   59 1  
    59    8   60 1  
    60    9   61 1  
    61   10   62 1  
    62   10   63 1  
    63   10   64 1  
    64   11   65 1  
    65   12   66 1  
    66   15   67 1  
    67   16   68 1  
    68   16   69 1  
    69   17   70 1  
    70   17   71 1  
    71   17   72 1  
    72   18   73 1  
    73   18   74 1  
    74   18   75 1  
    75   19   76 1  
    76   20   77 1  
    77   21   78 1  
    78   21   79 1  
    79   22   80 1  
    80   22   81 1  
    81   23   82 1  
    82   23   83 1  
    83   24   84 1  
    84   24   85 1  
    85   25   86 1  
    86   25   87 1  
    87   25   88 1  
    88   26   89 1  
    89   26   90 1  
    90   27   91 1  
    91   30   92 1  
    92   30   93 1  
    93   31   94 1  
    94   31   95 1  
    95   32   96 1  
    96   32   97 1  
    97   33   98 1  
    98   33   99 1  
    99   33  100 1  
   100   34  101 1  
   101   35  102 1  
   102   38  103 1  
   103   38  104 1  
   104   39  105 1  
   105   39  106 1  
   106   42  107 1  
   107   42  108 1  
   108   43  109 1  
   109   44  110 1  
   110   47  111 1  
   111   47  112 1  
   112   48  113 1  
   113   48  114 1  
   114   49  115 1  
   115   49  116 1  
   116   50  117 1  
   117   52  118 1  
   118   52  119 1  
   119   53  120 1  
   120   53  121 1  
   121   54  122 1  
   122   54  123 1  
@<TRIPOS>SUBSTRUCTURE
     1 2NC         1

