3haw_ligand
  -I-interpret- 

122121  0  0  0  0  0  0  0  0999 V2000
    4.2490   -8.7840   16.3760 C   0  0  0  0  0
    3.3990   -8.4190   17.1880 O   0  0  0  0  0
    3.8520   -9.2350   14.9850 C   0  0  0  0  0
    5.5410   -8.5260   16.5750 N   0  0  0  0  0
    6.1130   -7.9230   17.8040 C   0  0  0  0  0
    6.7580   -6.5050   17.6600 C   0  0  0  0  0
    7.0490   -5.8530   18.6280 O   0  0  0  0  0
    7.1630   -8.8500   18.4490 C   0  0  0  0  0
    8.2460   -9.0350   17.5500 O   0  0  0  0  0
    6.5680  -10.2270   18.8310 C   0  0  0  0  0
    6.9280   -6.0360   16.4470 N   0  0  0  0  0
    7.4710   -4.7190   16.1510 C   0  0  0  0  0
    6.4280   -3.8420   15.4740 C   0  0  0  0  0
    6.3260   -3.7520   14.2700 O   0  0  0  0  0
    8.7570   -4.7590   15.3400 C   0  0  0  0  0
    9.7530   -5.7560   15.8940 C   0  0  0  0  0
    9.3760   -3.3960   15.2740 C   0  0  0  0  0
   10.2250   -5.6300   17.3620 C   0  0  0  0  0
    5.5860   -3.2280   16.2640 N   0  0  0  0  0
    4.4200   -2.4680   15.7050 C   0  0  0  0  0
    4.6020   -0.9780   15.4940 C   0  0  0  0  0
    3.1150   -2.8240   16.4090 C   0  0  0  0  0
    2.8250   -4.2810   16.6900 C   0  0  0  0  0
    2.6610   -5.1210   15.4300 C   0  0  0  0  0
    1.4880   -4.5600   14.6520 C   0  0  0  0  0
    5.8840   -0.6630   14.8790 N   0  3  0  0  0
    5.8850    0.5090   14.0120 C   0  0  0  0  0
    4.8010    0.3940   12.9520 C   0  0  0  0  0
    4.5900   -0.6530   12.3180 O   0  0  0  0  0
    7.2780    0.7310   13.4310 C   0  0  0  0  0
    7.4050    1.9410   12.4900 C   0  0  0  0  0
    7.3070    1.5460   11.0180 C   0  0  0  0  0
    8.5360    0.8160   10.5150 C   0  0  0  0  0
    4.1500    1.4980   12.6540 N   0  0  0  0  0
    3.1490    1.5690   11.5620 C   0  0  0  0  0
    3.2010    2.9630   10.9130 C   0  0  0  0  0
    3.2910    4.0260   11.5790 O   0  0  0  0  0
    1.7760    1.1520   12.0340 C   0  0  0  0  0
    0.6880    1.3080   11.0050 C   0  0  0  0  0
    0.1140    2.7020   10.9280 C   0  0  0  0  0
    0.1320    3.4220   11.8920 O   0  0  0  0  0
   -0.4440    3.0600    9.7970 N   0  0  0  0  0
    3.0930    2.9790    9.5900 N   0  0  0  0  0
    3.2080    4.2080    8.8410 C   0  0  0  0  0
    2.0210    4.3120    7.9630 C   0  0  0  0  0
    1.6630    3.3380    7.2640 O   0  0  0  0  0
    4.4990    4.2280    7.9810 C   0  0  0  0  0
    5.6660    3.3520    8.4230 C   0  0  0  0  0
    7.0650    3.9930    8.3100 C   0  0  0  0  0
    7.1850    5.0010    7.2470 N   0  0  0  0  0
    8.3270    5.4940    6.7520 C   0  0  0  0  0
    9.5000    5.0860    7.1910 N   0  0  0  0  0
    8.2860    6.4280    5.8040 N   0  0  0  0  0
    1.3540    5.4600    7.9920 N   0  0  0  0  0
    3.1844  -10.0934   15.0595 H   0  0  0  0  0
    3.3418   -8.4198   14.4719 H   0  0  0  0  0
    4.7452   -9.5151   14.4265 H   0  0  0  0  0
    6.1882   -8.7618   15.8227 H   0  0  0  0  0
    5.2300   -7.7967   18.4305 H   0  0  0  0  0
    7.5077   -8.3727   19.3663 H   0  0  0  0  0
    8.6140   -8.1803   17.3139 H   0  0  0  0  0
    6.2125  -10.7299   17.9317 H   0  0  0  0  0
    7.3373  -10.8340   19.3082 H   0  0  0  0  0
    5.7367  -10.0833   19.5212 H   0  0  0  0  0
    6.6631   -6.6315   15.6624 H   0  0  0  0  0
    7.7354   -4.2784   17.1123 H   0  0  0  0  0
    8.4920   -5.0854   14.3343 H   0  0  0  0  0
   10.6545   -5.6038   15.3005 H   0  0  0  0  0
    9.2359   -6.7146   15.8520 H   0  0  0  0  0
    8.6789   -2.7043   14.8011 H   0  0  0  0  0
    9.6027   -3.0521   16.2832 H   0  0  0  0  0
   10.2951   -3.4436   14.6899 H   0  0  0  0  0
   10.7060   -4.6625   17.5059 H   0  0  0  0  0
    9.3653   -5.7123   18.0270 H   0  0  0  0  0
   10.9350   -6.4268   17.5837 H   0  0  0  0  0
    5.7240   -3.2664   17.2739 H   0  0  0  0  0
    4.3584   -2.8268   14.6776 H   0  0  0  0  0
    4.5636   -0.4900   16.4679 H   0  0  0  0  0
    3.8117   -0.6303   14.8287 H   0  0  0  0  0
    2.3261   -2.5010   15.7298 H   0  0  0  0  0
    3.1802   -2.3510   17.3889 H   0  0  0  0  0
    1.8852   -4.3281   17.2401 H   0  0  0  0  0
    3.6731   -4.6832   17.2441 H   0  0  0  0  0
    2.4797   -6.1638   15.6902 H   0  0  0  0  0
    3.5687   -5.0828   14.8278 H   0  0  0  0  0
    0.5880   -4.6145   15.2645 H   0  0  0  0  0
    1.6897   -3.5209   14.3920 H   0  0  0  0  0
    1.3454   -5.1425   13.7418 H   0  0  0  0  0
    6.1319   -1.4606   14.2936 H   0  0  0  0  0
    6.5333   -0.4648   15.6403 H   0  0  0  0  0
    5.6437    1.3968   14.5965 H   0  0  0  0  0
    7.5170   -0.1533   12.8403 H   0  0  0  0  0
    7.9443    0.9164   14.2735 H   0  0  0  0  0
    8.3827    2.3943   12.6533 H   0  0  0  0  0
    6.5872    2.6271   12.7104 H   0  0  0  0  0
    7.2043    2.4616   10.4356 H   0  0  0  0  0
    6.4558    0.8735   10.9116 H   0  0  0  0  0
    9.4098    1.4578   10.6277 H   0  0  0  0  0
    8.6770   -0.0969   11.0937 H   0  0  0  0  0
    8.4021    0.5638    9.4631 H   0  0  0  0  0
    4.3418    2.3401   13.1967 H   0  0  0  0  0
    3.3973    0.8468   10.7842 H   0  0  0  0  0
    1.5170    1.7984   12.8726 H   0  0  0  0  0
    1.8319    0.0918   12.2809 H   0  0  0  0  0
   -0.1241    0.6383   11.2879 H   0  0  0  0  0
    1.1269    1.0841   10.0327 H   0  0  0  0  0
   -0.8830    3.9768    9.7126 H   0  0  0  0  0
   -0.4392    2.4217    9.0014 H   0  0  0  0  0
    2.9253    2.1047    9.0921 H   0  0  0  0  0
    3.2622    5.0504    9.5306 H   0  0  0  0  0
    4.8683    5.2520    8.0370 H   0  0  0  0  0
    4.2025    3.8443    7.0048 H   0  0  0  0  0
    5.6693    2.4857    7.7614 H   0  0  0  0  0
    5.5087    3.1392    9.4804 H   0  0  0  0  0
    7.7661    3.1926    8.0734 H   0  0  0  0  0
    7.2632    4.4987    9.2551 H   0  0  0  0  0
    6.3165    5.3585    6.8491 H   0  0  0  0  0
    9.5523    4.3790    7.9243 H   0  0  0  0  0
    9.1531    6.8144    5.4309 H   0  0  0  0  0
    7.3875    6.7572    5.4509 H   0  0  0  0  0
    0.5115    5.5747    7.4286 H   0  0  0  0  0
    1.6842    6.2270    8.5777 H   0  0  0  0  0
  1  2  2  0  0  0
  1  3  1  0  0  0
  1  4  1  0  0  0
  4  5  1  0  0  0
  5  6  1  0  0  0
  5  8  1  0  0  0
  6  7  2  0  0  0
  6 11  1  0  0  0
  8  9  1  0  0  0
  8 10  1  0  0  0
 11 12  1  0  0  0
 12 13  1  0  0  0
 12 15  1  0  0  0
 13 14  2  0  0  0
 13 19  1  0  0  0
 15 16  1  0  0  0
 15 17  1  0  0  0
 16 18  1  0  0  0
 19 20  1  0  0  0
 20 21  1  0  0  0
 20 22  1  0  0  0
 21 26  1  0  0  0
 22 23  1  0  0  0
 23 24  1  0  0  0
 24 25  1  0  0  0
 26 27  1  0  0  0
 27 28  1  0  0  0
 27 30  1  0  0  0
 28 29  2  0  0  0
 28 34  1  0  0  0
 30 31  1  0  0  0
 31 32  1  0  0  0
 32 33  1  0  0  0
 34 35  1  0  0  0
 35 36  1  0  0  0
 35 38  1  0  0  0
 36 37  2  0  0  0
 36 43  1  0  0  0
 38 39  1  0  0  0
 39 40  1  0  0  0
 40 41  2  0  0  0
 40 42  1  0  0  0
 43 44  1  0  0  0
 44 45  1  0  0  0
 44 47  1  0  0  0
 45 46  2  0  0  0
 45 54  1  0  0  0
 47 48  1  0  0  0
 48 49  1  0  0  0
 49 50  1  0  0  0
 50 51  1  0  0  0
 51 52  2  0  0  0
 51 53  1  0  0  0
  3 55  1  0  0  0
  3 56  1  0  0  0
  3 57  1  0  0  0
  4 58  1  0  0  0
  5 59  1  0  0  0
  8 60  1  0  0  0
  9 61  1  0  0  0
 10 62  1  0  0  0
 10 63  1  0  0  0
 10 64  1  0  0  0
 11 65  1  0  0  0
 12 66  1  0  0  0
 15 67  1  0  0  0
 16 68  1  0  0  0
 16 69  1  0  0  0
 17 70  1  0  0  0
 17 71  1  0  0  0
 17 72  1  0  0  0
 18 73  1  0  0  0
 18 74  1  0  0  0
 18 75  1  0  0  0
 19 76  1  0  0  0
 20 77  1  0  0  0
 21 78  1  0  0  0
 21 79  1  0  0  0
 22 80  1  0  0  0
 22 81  1  0  0  0
 23 82  1  0  0  0
 23 83  1  0  0  0
 24 84  1  0  0  0
 24 85  1  0  0  0
 25 86  1  0  0  0
 25 87  1  0  0  0
 25 88  1  0  0  0
 26 89  1  0  0  0
 26 90  1  0  0  0
 27 91  1  0  0  0
 30 92  1  0  0  0
 30 93  1  0  0  0
 31 94  1  0  0  0
 31 95  1  0  0  0
 32 96  1  0  0  0
 32 97  1  0  0  0
 33 98  1  0  0  0
 33 99  1  0  0  0
 33100  1  0  0  0
 34101  1  0  0  0
 35102  1  0  0  0
 38103  1  0  0  0
 38104  1  0  0  0
 39105  1  0  0  0
 39106  1  0  0  0
 42107  1  0  0  0
 42108  1  0  0  0
 43109  1  0  0  0
 44110  1  0  0  0
 47111  1  0  0  0
 47112  1  0  0  0
 48113  1  0  0  0
 48114  1  0  0  0
 49115  1  0  0  0
 49116  1  0  0  0
 50117  1  0  0  0
 52118  1  0  0  0
 53119  1  0  0  0
 53120  1  0  0  0
 54121  1  0  0  0
 54122  1  0  0  0
M  END
$$$$
