5mym_ligand
  -I-interpret- 

 60 64  0  0  0  0  0  0  0  0999 V2000
   31.7720  -12.2460   26.3260 C   0  0  0  0  0
   28.2610  -11.5820   24.5020 C   0  0  0  0  0
   25.8130  -12.4690   24.7920 C   0  0  0  0  0
   25.4950  -14.0550   22.6730 C   0  0  0  0  0
   25.5030  -15.8730   20.9890 C   0  0  0  0  0
   26.3710  -16.0510   18.6950 C   0  0  0  0  0
   26.2000  -18.2130   18.3240 C   0  0  0  0  0
   28.0470  -11.7580   23.0760 C   0  0  0  0  0
   36.5240   -7.3460   28.9330 C   0  0  0  0  0
   36.9050   -8.5370   28.3720 C   0  0  0  0  0
   35.9650   -9.3890   27.8220 C   0  0  0  0  0
   34.6140   -9.0800   27.8470 C   0  0  0  0  0
   34.2250   -7.8720   28.4030 C   0  0  0  0  0
   35.1810   -7.0150   28.9450 C   0  0  0  0  0
   33.6120  -10.0790   27.2150 C   0  0  0  0  0
   32.2740  -10.3620   27.9300 C   0  0  0  0  0
   31.9410  -11.7930   27.7660 C   0  0  0  0  0
   30.4720  -11.6590   25.8810 N   0  0  0  0  0
   29.5810  -12.2650   24.9160 C   0  0  0  0  0
   27.1370  -11.9280   25.3650 C   0  0  0  0  0
   25.8730  -12.8200   23.3300 N   0  0  0  0  0
   24.6340  -15.0480   23.0280 N   0  0  0  0  0
   24.6350  -16.1480   22.0070 N   0  0  0  0  0
   25.8470  -16.6200   19.7910 N   0  0  0  0  0
   26.5970  -17.0370   17.7560 C   0  0  0  0  0
   25.7370  -17.9370   19.6040 C   0  0  0  0  0
   26.2040  -14.4490   21.2780 S   0  0  0  0  0
   26.5870  -11.6910   22.6500 C   0  0  0  0  0
   29.9270  -13.2670   24.4200 O   0  0  0  0  0
   30.1210  -10.3710   26.5990 C   0  0  0  0  0
   31.2120   -9.5610   27.3100 C   0  0  0  0  0
   31.7717  -13.3329   26.2437 H   0  0  0  0  0
   32.5993  -11.9124   25.6997 H   0  0  0  0  0
   28.3445  -10.5075   24.6652 H   0  0  0  0  0
   25.0679  -11.6813   24.9038 H   0  0  0  0  0
   25.5780  -13.3851   25.3338 H   0  0  0  0  0
   26.5826  -14.9893   18.5675 H   0  0  0  0  0
   26.2394  -19.1963   17.8552 H   0  0  0  0  0
   28.4120  -12.7518   22.8167 H   0  0  0  0  0
   28.5668  -10.9442   22.5703 H   0  0  0  0  0
   37.2656   -6.6720   29.3618 H   0  0  0  0  0
   37.9588   -8.8152   28.3593 H   0  0  0  0  0
   36.2924  -10.3206   27.3604 H   0  0  0  0  0
   33.1716   -7.5921   28.4165 H   0  0  0  0  0
   34.8655   -6.0691   29.3853 H   0  0  0  0  0
   34.1351  -11.0353   27.2154 H   0  0  0  0  0
   33.3291   -9.6255   26.2650 H   0  0  0  0  0
   32.3608  -10.1088   28.9866 H   0  0  0  0  0
   32.7732  -12.3614   28.1812 H   0  0  0  0  0
   30.9845  -11.9546   28.2632 H   0  0  0  0  0
   26.8543  -10.9765   25.8155 H   0  0  0  0  0
   27.5165  -12.7553   25.9648 H   0  0  0  0  0
   27.0113  -16.9029   16.7568 H   0  0  0  0  0
   25.3546  -18.6617   20.3228 H   0  0  0  0  0
   26.4993  -11.7789   21.5671 H   0  0  0  0  0
   26.1486  -10.7342   22.9334 H   0  0  0  0  0
   29.4498  -10.6819   27.3996 H   0  0  0  0  0
   29.7644   -9.7097   25.8094 H   0  0  0  0  0
   31.6882   -8.9402   26.5511 H   0  0  0  0  0
   30.7224   -9.0111   28.1138 H   0  0  0  0  0
  1 17  1  0  0  0
 18  1  1  0  0  0
  2  8  1  0  0  0
 19  2  1  0  0  0
  2 20  1  0  0  0
 20  3  1  0  0  0
  3 21  1  0  0  0
 21  4  1  0  0  0
  4 22  4  0  0  0
  4 27  4  0  0  0
  5 23  4  0  0  0
  5 24  1  0  0  0
 27  5  4  0  0  0
 24  6  4  0  0  0
  6 25  4  0  0  0
 25  7  4  0  0  0
  7 26  4  0  0  0
  8 28  1  0  0  0
 10  9  4  0  0  0
 14  9  4  0  0  0
 11 10  4  0  0  0
 12 11  4  0  0  0
 12 13  4  0  0  0
 15 12  1  0  0  0
 13 14  4  0  0  0
 16 15  1  0  0  0
 17 16  1  0  0  0
 16 31  1  0  0  0
 18 19  1  0  0  0
 18 30  1  0  0  0
 19 29  2  0  0  0
 21 28  1  0  0  0
 22 23  4  0  0  0
 24 26  4  0  0  0
 30 31  1  0  0  0
  1 32  1  0  0  0
  1 33  1  0  0  0
  2 34  1  0  0  0
  3 35  1  0  0  0
  3 36  1  0  0  0
  6 37  1  0  0  0
  7 38  1  0  0  0
  8 39  1  0  0  0
  8 40  1  0  0  0
  9 41  1  0  0  0
 10 42  1  0  0  0
 11 43  1  0  0  0
 13 44  1  0  0  0
 14 45  1  0  0  0
 15 46  1  0  0  0
 15 47  1  0  0  0
 16 48  1  0  0  0
 17 49  1  0  0  0
 17 50  1  0  0  0
 20 51  1  0  0  0
 20 52  1  0  0  0
 25 53  1  0  0  0
 26 54  1  0  0  0
 28 55  1  0  0  0
 28 56  1  0  0  0
 30 57  1  0  0  0
 30 58  1  0  0  0
 31 59  1  0  0  0
 31 60  1  0  0  0
M  END
$$$$
