5xw6_ligand
  -I-interpret- 

 63 67  0  0  0  0  0  0  0  0999 V2000
  -18.6900  -22.5630  -38.9960 P   0  0  0  0  0
  -19.3240  -23.9170  -38.8060 O   0  0  0  0  0
  -19.4360  -21.7250  -40.0090 O   0  0  0  0  0
  -17.2120  -22.6570  -39.3070 O   0  0  0  0  0
  -18.2850  -22.0230  -36.0680 P   0  0  0  0  0
  -17.1230  -22.9410  -36.0570 O   0  0  0  0  0
  -18.1740  -20.7160  -35.3780 O   0  0  0  0  0
  -18.7360  -21.7560  -37.5870 O   0  0  0  0  0
  -20.4120  -24.0470  -35.8610 P   0  0  0  0  0
  -19.6430  -25.2790  -35.5270 O   0  0  0  0  0
  -20.9260  -23.8410  -37.2430 O   0  0  0  0  0
  -19.5730  -22.7550  -35.4560 O   0  0  0  0  0
  -21.6430  -23.9030  -34.8590 O   0  0  0  0  0
  -22.8280  -24.6870  -35.1360 C   0  0  0  0  0
  -23.8360  -23.9470  -34.3040 C   0  0  0  0  0
  -23.3850  -23.9740  -32.9390 O   0  0  0  0  0
  -23.8350  -22.4590  -34.6110 C   0  0  0  0  0
  -24.8030  -22.0780  -35.6060 O   0  0  0  0  0
  -24.3380  -21.8270  -33.3080 C   0  0  0  0  0
  -25.7310  -21.7310  -33.5510 O   0  0  0  0  0
  -23.9860  -22.8900  -32.2460 C   0  0  0  0  0
  -23.0200  -22.4320  -31.2660 N   0  0  0  0  0
  -21.6660  -22.2970  -31.4490 C   0  0  0  0  0
  -21.0590  -21.8510  -30.3770 N   0  0  0  0  0
  -22.0660  -21.6970  -29.4340 C   0  0  0  0  0
  -22.0550  -21.2560  -28.0960 C   0  0  0  0  0
  -20.9500  -20.8700  -27.4580 N   0  0  0  0  0
  -23.2430  -21.2190  -27.4420 N   0  0  0  0  0
  -24.3440  -21.6050  -28.0980 C   0  0  0  0  0
  -24.4720  -22.0310  -29.3520 N   0  0  0  0  0
  -23.2830  -22.0530  -29.9740 C   0  0  0  0  0
  -25.8680  -21.3640  -34.9360 C   0  0  0  0  0
  -27.2670  -21.9100  -35.1500 C   0  0  0  0  0
  -28.3470  -21.1540  -35.5110 C   0  0  0  0  0
  -28.2360  -19.7940  -35.7130 C   0  0  0  0  0
  -27.0080  -19.1700  -35.5920 C   0  0  0  0  0
  -25.8590  -19.8640  -35.2410 C   0  0  0  0  0
  -27.5110  -23.2660  -34.9370 N   0  0  0  0  0
  -29.3890  -19.0960  -36.0560 N   0  0  0  0  0
  -24.6780  -19.0810  -35.1610 N   0  0  0  0  0
  -26.5730  -24.0300  -34.6160 O   0  0  0  0  0
  -28.6760  -23.7000  -35.0760 O   0  0  0  0  0
  -29.3430  -17.7480  -36.2910 O   0  0  0  0  0
  -30.5010  -19.6820  -36.1630 O   0  0  0  0  0
  -24.7610  -17.8550  -35.4060 O   0  0  0  0  0
  -23.5700  -19.5840  -34.8680 O   0  0  0  0  0
  -19.0017  -20.8737  -40.1004 H   0  0  0  0  0
  -16.8530  -21.7738  -39.4193 H   0  0  0  0  0
  -18.9998  -20.2353  -35.4707 H   0  0  0  0  0
  -19.3875  -25.2545  -34.6019 H   0  0  0  0  0
  -22.7336  -25.7449  -34.8909 H   0  0  0  0  0
  -23.0831  -24.7565  -36.1934 H   0  0  0  0  0
  -24.8055  -24.4073  -34.4942 H   0  0  0  0  0
  -22.8486  -22.1610  -34.9665 H   0  0  0  0  0
  -23.9393  -20.8615  -32.9966 H   0  0  0  0  0
  -24.9020  -23.1466  -31.7138 H   0  0  0  0  0
  -21.1536  -22.5342  -32.3814 H   0  0  0  0  0
  -20.0513  -20.8847  -27.9401 H   0  0  0  0  0
  -21.0033  -20.5600  -26.4877 H   0  0  0  0  0
  -25.2686  -21.5645  -27.5222 H   0  0  0  0  0
  -29.3160  -21.6357  -35.6420 H   0  0  0  0  0
  -26.9405  -18.0982  -35.7784 H   0  0  0  0  0
  -25.8306  -20.9529  -35.2809 H   0  0  0  0  0
  1  2  2  0  0  0
  1  3  1  0  0  0
  1  4  1  0  0  0
  8  1  1  0  0  0
  5  6  2  0  0  0
  5  7  1  0  0  0
  5  8  1  0  0  0
 12  5  1  0  0  0
  9 10  1  0  0  0
  9 11  2  0  0  0
  9 12  1  0  0  0
  9 13  1  0  0  0
 13 14  1  0  0  0
 14 15  1  0  0  0
 15 16  1  0  0  0
 15 17  1  0  0  0
 16 21  1  0  0  0
 17 18  1  0  0  0
 17 19  1  0  0  0
 18 32  1  0  0  0
 19 20  1  0  0  0
 19 21  1  0  0  0
 20 32  1  0  0  0
 21 22  1  0  0  0
 22 23  4  0  0  0
 22 31  4  0  0  0
 23 24  4  0  0  0
 24 25  4  0  0  0
 25 26  4  0  0  0
 25 31  4  0  0  0
 26 27  1  0  0  0
 26 28  4  0  0  0
 28 29  4  0  0  0
 29 30  4  0  0  0
 30 31  4  0  0  0
 32 33  1  0  0  0
 32 37  1  0  0  0
 33 34  2  0  0  0
 33 38  1  0  0  0
 34 35  1  0  0  0
 35 36  2  0  0  0
 35 39  1  0  0  0
 36 37  1  0  0  0
 37 40  1  0  0  0
 38 41  2  0  0  0
 38 42  2  0  0  0
 39 43  2  0  0  0
 39 44  2  0  0  0
 40 45  2  0  0  0
 40 46  2  0  0  0
  3 47  1  0  0  0
  4 48  1  0  0  0
  7 49  1  0  0  0
 10 50  1  0  0  0
 14 51  1  0  0  0
 14 52  1  0  0  0
 15 53  1  0  0  0
 17 54  1  0  0  0
 19 55  1  0  0  0
 21 56  1  0  0  0
 23 57  1  0  0  0
 27 58  1  0  0  0
 27 59  1  0  0  0
 29 60  1  0  0  0
 34 61  1  0  0  0
 36 62  1  0  0  0
 37 63  1  0  0  0
M  END
$$$$
