### 
### Created by X-TOOL on Mon Sep 10 21:13:34 2018
### 

@<TRIPOS>MOLECULE
5xw6_ligand
   59    63     1     0     0
SMALL
GAST_HUCK


@<TRIPOS>ATOM
      1 PG        -18.6900  -22.5630  -38.9960 P.3       1 128         0.1879
      2 O1G       -19.3240  -23.9170  -38.8060 O.co2     1 128        -0.6091
      3 O2G       -19.4360  -21.7250  -40.0090 O.co2     1 128        -0.6091
      4 O3G       -17.2120  -22.6570  -39.3070 O.co2     1 128        -0.6091
      5 PB        -18.2850  -22.0230  -36.0680 P.3       1 128         0.3553
      6 O1B       -17.1230  -22.9410  -36.0570 O.co2     1 128        -0.5652
      7 O2B       -18.1740  -20.7160  -35.3780 O.co2     1 128        -0.5652
      8 O3B       -18.7360  -21.7560  -37.5870 O.3       1 128        -0.1546
      9 PA        -20.4120  -24.0470  -35.8610 P.3       1 128         0.3266
     10 O1A       -19.6430  -25.2790  -35.5270 O.co2     1 128        -0.5692
     11 O2A       -20.9260  -23.8410  -37.2430 O.co2     1 128        -0.5692
     12 O3A       -19.5730  -22.7550  -35.4560 O.3       1 128        -0.1171
     13 O5'       -21.6430  -23.9030  -34.8590 O.3       1 128        -0.2441
     14 C5'       -22.8280  -24.6870  -35.1360 C.3       1 128         0.1131
     15 C4'       -23.8360  -23.9470  -34.3040 C.3       1 128         0.1175
     16 O4'       -23.3850  -23.9740  -32.9390 O.3       1 128        -0.3365
     17 C3'       -23.8350  -22.4590  -34.6110 C.3       1 128         0.1010
     18 O3'       -24.8030  -22.0780  -35.6060 O.3       1 128        -0.4077
     19 C2'       -24.3380  -21.8270  -33.3080 C.3       1 128         0.1251
     20 O2'       -25.7310  -21.7310  -33.5510 O.3       1 128        -0.4054
     21 C1'       -23.9860  -22.8900  -32.2460 C.3       1 128         0.1996
     22 N9        -23.0200  -22.4320  -31.2660 N.pl3     1 128        -0.1920
     23 C8        -21.6660  -22.2970  -31.4490 C.2       1 128         0.1123
     24 N7        -21.0590  -21.8510  -30.3770 N.2       1 128        -0.2958
     25 C5        -22.0660  -21.6970  -29.4340 C.ar      1 128         0.1045
     26 C6        -22.0550  -21.2560  -28.0960 C.ar      1 128         0.1298
     27 N6        -20.9500  -20.8700  -27.4580 N.pl3     1 128        -0.3152
     28 N1        -23.2430  -21.2190  -27.4420 N.ar      1 128        -0.2698
     29 C2        -24.3440  -21.6050  -28.0980 C.ar      1 128         0.0533
     30 N3        -24.4720  -22.0310  -29.3520 N.ar      1 128        -0.2714
     31 C4        -23.2830  -22.0530  -29.9740 C.ar      1 128         0.1613
     32 C1F       -25.8680  -21.3640  -34.9360 C.3       1 128         0.2110
     33 C2F       -27.2670  -21.9100  -35.1500 C.2       1 128         0.2069
     34 C3F       -28.3470  -21.1540  -35.5110 C.2       1 128         0.0587
     35 C4F       -28.2360  -19.7940  -35.7130 C.2       1 128         0.2783
     36 C5F       -27.0080  -19.1700  -35.5920 C.2       1 128         0.0740
     37 C6F       -25.8590  -19.8640  -35.2410 C.3       1 128         0.2630
     38 N2F       -27.5110  -23.2660  -34.9370 N.2       1 128         0.3015
     39 N4F       -29.3890  -19.0960  -36.0560 N.2       1 128         0.3272
     40 N6F       -24.6780  -19.0810  -35.1610 N.2       1 128         0.3140
     41 O2F       -26.5730  -24.0300  -34.6160 O.2       1 128         0.1726
     42 O3F       -28.6760  -23.7000  -35.0760 O.2       1 128         0.1726
     43 O4F       -29.3430  -17.7480  -36.2910 O.2       1 128         0.1744
     44 O5F       -30.5010  -19.6820  -36.1630 O.2       1 128         0.1744
     45 O6F       -24.7610  -17.8550  -35.4060 O.2       1 128         0.1908
     46 O7F       -23.5700  -19.5840  -34.8680 O.2       1 128         0.1908
     47 H1        -22.7133  -25.7298  -34.8051 H         1 128         0.0648
     48 H2        -23.0887  -24.6679  -36.2045 H         1 128         0.0648
     49 H3        -24.8367  -24.3871  -34.4263 H         1 128         0.0650
     50 H4        -22.8293  -22.1140  -34.8929 H         1 128         0.0633
     51 H5        -23.8885  -20.8501  -33.0763 H         1 128         0.0661
     52 H6        -24.9034  -23.2136  -31.7326 H         1 128         0.0995
     53 H7        -21.1541  -22.5340  -32.3805 H         1 128         0.1349
     54 H8        -21.0038  -20.5569  -26.4782 H         1 128         0.1820
     55 H9        -20.0424  -20.8848  -27.9448 H         1 128         0.1820
     56 H10       -25.2635  -21.5648  -27.5254 H         1 128         0.0996
     57 H11       -29.3151  -21.6353  -35.6418 H         1 128         0.1304
     58 H12       -26.9405  -18.0992  -35.7782 H         1 128         0.1572
     59 H13       -25.6553  -20.0919  -36.2977 H         1 128         0.0988
@<TRIPOS>BOND
     1    1    2 ar 
     2    1    3 ar 
     3    1    4 ar 
     4    8    1 1  
     5    5    6 ar 
     6    5    7 ar 
     7    5    8 1  
     8   12    5 1  
     9    9   10 ar 
    10    9   11 ar 
    11    9   12 1  
    12    9   13 1  
    13   13   14 1  
    14   14   15 1  
    15   15   16 1  
    16   15   17 1  
    17   16   21 1  
    18   17   18 1  
    19   17   19 1  
    20   18   32 1  
    21   19   20 1  
    22   19   21 1  
    23   20   32 1  
    24   21   22 1  
    25   22   23 1  
    26   22   31 1  
    27   23   24 2  
    28   24   25 1  
    29   25   26 ar 
    30   25   31 ar 
    31   26   27 1  
    32   26   28 ar 
    33   28   29 ar 
    34   29   30 ar 
    35   30   31 ar 
    36   32   33 1  
    37   32   37 1  
    38   33   34 2  
    39   33   38 1  
    40   34   35 1  
    41   35   36 2  
    42   35   39 1  
    43   36   37 1  
    44   37   40 1  
    45   38   41 2  
    46   38   42 2  
    47   39   43 2  
    48   39   44 2  
    49   40   45 2  
    50   40   46 2  
    51   14   47 1  
    52   14   48 1  
    53   15   49 1  
    54   17   50 1  
    55   19   51 1  
    56   21   52 1  
    57   23   53 1  
    58   27   54 1  
    59   27   55 1  
    60   29   56 1  
    61   34   57 1  
    62   36   58 1  
    63   37   59 1  
@<TRIPOS>SUBSTRUCTURE
     1 128         1

