### 
### Created by X-TOOL on Mon Sep 10 21:13:03 2018
### 

@<TRIPOS>MOLECULE
3nf3_ligand
  132   132     1     0     0
SMALL
GAST_HUCK


@<TRIPOS>ATOM
      1 N          16.7050   33.5580    6.0930 N.4       1 ARG         0.2379
      2 CA         17.7540   34.3590    5.4740 C.3       1 ARG         0.0651
      3 C          17.9120   35.7260    6.1170 C.2       1 ARG         0.2267
      4 O          16.9380   36.3610    6.5120 O.2       1 ARG        -0.3907
      5 CB         17.5000   34.5240    3.9790 C.3       1 ARG         0.0110
      6 CG         17.7260   33.2490    3.1830 C.3       1 ARG        -0.0125
      7 CD         17.6760   33.5040    1.6840 C.3       1 ARG         0.0629
      8 NE         16.3790   33.1580    1.1160 N.pl3     1 ARG        -0.2723
      9 CZ         16.0510   31.9370    0.7030 C.cat     1 ARG         0.2882
     10 NH1        14.8480   31.7060    0.1970 N.pl3     1 ARG        -0.2849
     11 NH2        16.9280   30.9450    0.7980 N.pl3     1 ARG        -0.2849
     12 N          19.1580   36.1710    6.2130 N.am      1 ARG        -0.2610
     13 CA         19.4660   37.4940    6.7280 C.3       1 ARG         0.1312
     14 C          19.1240   38.5480    5.6840 C.2       1 ARG         0.2040
     15 O          19.0860   38.2630    4.4840 O.2       1 ARG        -0.3944
     16 CB         20.9480   37.5820    7.0890 C.3       1 ARG        -0.0092
     17 CG         21.3930   36.5200    8.0810 C.3       1 ARG        -0.0156
     18 CD         22.9010   36.3800    8.1010 C.3       1 ARG         0.0627
     19 NE         23.5590   37.6780    8.2090 N.pl3     1 ARG        -0.2723
     20 CZ         24.4680   38.1210    7.3480 C.cat     1 ARG         0.2882
     21 NH1        24.8330   37.3610    6.3210 N.pl3     1 ARG        -0.2849
     22 NH2        25.0150   39.3170    7.5140 N.pl3     1 ARG        -0.2849
     23 N          18.8850   39.7670    6.1520 N.am      1 PHE        -0.2619
     24 CA         18.5380   40.8860    5.2850 C.3       1 PHE         0.1402
     25 C          19.5310   41.0630    4.1360 C.2       1 PHE         0.2030
     26 O          19.1590   41.5130    3.0530 O.2       1 PHE        -0.3945
     27 CB         18.4380   42.1680    6.1160 C.3       1 PHE         0.0214
     28 CG         18.1790   43.3990    5.3070 C.ar      1 PHE        -0.0386
     29 CD1        16.9730   43.5670    4.6430 C.ar      1 PHE        -0.0601
     30 CD2        19.1310   44.4010    5.2280 C.ar      1 PHE        -0.0601
     31 CE1        16.7250   44.7060    3.8990 C.ar      1 PHE        -0.0686
     32 CE2        18.8880   45.5460    4.4890 C.ar      1 PHE        -0.0686
     33 CZ         17.6820   45.6970    3.8230 C.ar      1 PHE        -0.0687
     34 N          20.7880   40.7020    4.3740 N.am      1 AIB        -0.2744
     35 CA         21.8330   40.8150    3.3620 C.3       1 AIB         0.1274
     36 C          21.4200   40.1240    2.0580 C.2       1 AIB         0.2260
     37 O          21.9110   40.6100    0.8410 O.2       1 AIB        -0.3419
     38 CB1        22.1310   42.2880    3.0850 C.3       1 AIB        -0.0323
     39 CB2        23.1100   40.1540    3.8790 C.3       1 AIB        -0.0323
     40 N          20.6000   39.0800    2.1520 N.am      1 ALA        -0.2631
     41 CA         20.2230   38.2860    0.9820 C.3       1 ALA         0.1283
     42 C          19.1360   38.9400    0.1250 C.2       1 ALA         0.2038
     43 O          18.7760   38.4180   -0.9300 O.2       1 ALA        -0.3944
     44 CB         19.7970   36.8800    1.4020 C.3       1 ALA        -0.0243
     45 N          18.6080   40.0730    0.5800 N.am      1 MET        -0.2637
     46 CA         17.6460   40.8250   -0.2160 C.3       1 MET         0.1317
     47 C          18.3840   41.7920   -1.1340 C.2       1 MET         0.2039
     48 O          17.7720   42.4830   -1.9510 O.2       1 MET        -0.3944
     49 CB         16.6750   41.5900    0.6860 C.3       1 MET        -0.0034
     50 CG         15.8830   40.7160    1.6560 C.3       1 MET        -0.0024
     51 SD         14.6110   39.6980    0.8750 S.3       1 MET        -0.1639
     52 CE         15.5130   38.1940    0.4920 C.3       1 MET        -0.0181
     53 N          19.7070   41.8290   -0.9930 N.am      1 LEU        -0.2637
     54 CA         20.5540   42.7400   -1.7600 C.3       1 LEU         0.1309
     55 C          21.5900   42.0070   -2.6050 C.2       1 LEU         0.1992
     56 O          21.3610   40.8850   -3.0540 O.2       1 LEU        -0.3947
     57 CB         21.2670   43.7180   -0.8260 C.3       1 LEU        -0.0101
     58 CG         20.5360   45.0240   -0.5160 C.3       1 LEU        -0.0425
     59 CD1        19.2240   44.7740    0.2210 C.3       1 LEU        -0.0625
     60 CD2        21.4470   45.9390    0.2770 C.3       1 LEU        -0.0625
     61 N          22.7320   42.6540   -2.8160 N.am      1 ALA        -0.2990
     62 H          16.8962   33.4617    7.0903 H         1 ARG         0.2015
     63 H          15.8046   34.0187    5.9611 H         1 ARG         0.2015
     64 H          16.6829   32.6351    5.6592 H         1 ARG         0.2015
     65 H          18.6844   33.8133    5.6312 H         1 ARG         0.1098
     66 H          18.2010   35.2715    3.6075 H         1 ARG         0.0347
     67 H          16.4554   34.8088    3.8530 H         1 ARG         0.0347
     68 H          16.9368   32.5414    3.4371 H         1 ARG         0.0302
     69 H          18.7131   32.8595    3.4320 H         1 ARG         0.0302
     70 H          18.4344   32.8835    1.2066 H         1 ARG         0.0689
     71 H          17.8517   34.5659    1.5122 H         1 ARG         0.0689
     72 H          15.6809   33.8967    1.0301 H         1 ARG         0.2642
     73 H          14.1712   32.4655    0.1236 H         1 ARG         0.2615
     74 H          14.5990   30.7687   -0.1190 H         1 ARG         0.2615
     75 H          17.8543   31.1188    1.1880 H         1 ARG         0.2615
     76 H          16.6755   30.0090    0.4810 H         1 ARG         0.2615
     77 H          19.9234   35.5656    5.9161 H         1 ARG         0.1884
     78 H          18.8717   37.6732    7.6240 H         1 ARG         0.0800
     79 H          21.1157   38.5544    7.5521 H         1 ARG         0.0313
     80 H          21.5184   37.4340    6.1720 H         1 ARG         0.0313
     81 H          20.9605   35.5649    7.7829 H         1 ARG         0.0301
     82 H          21.0594   36.8142    9.0761 H         1 ARG         0.0301
     83 H          23.2159   35.9105    7.1691 H         1 ARG         0.0689
     84 H          23.1799   35.7792    8.9667 H         1 ARG         0.0689
     85 H          23.3059   38.2807    8.9920 H         1 ARG         0.2642
     86 H          24.4152   36.4391    6.1949 H         1 ARG         0.2615
     87 H          25.5310   37.6995    5.6587 H         1 ARG         0.2615
     88 H          24.7380   39.8993    8.3043 H         1 ARG         0.2615
     89 H          25.7129   39.6550    6.8514 H         1 ARG         0.2615
     90 H          18.9466   39.9268    7.1575 H         1 PHE         0.1885
     91 H          17.5713   40.6681    4.8310 H         1 PHE         0.0823
     92 H          19.3972   42.3052    6.6153 H         1 PHE         0.0474
     93 H          17.5964   42.0464    6.7979 H         1 PHE         0.0474
     94 H          16.2105   42.7909    4.7085 H         1 PHE         0.0557
     95 H          20.0799   44.2874    5.7521 H         1 PHE         0.0557
     96 H          15.7765   44.8205    3.3743 H         1 PHE         0.0599
     97 H          19.6447   46.3284    4.4309 H         1 PHE         0.0599
     98 H          17.4898   46.5976    3.2398 H         1 PHE         0.0559
     99 H          21.0299   40.3340    5.2940 H         1 AIB         0.1839
    100 H          21.2267   42.7790    2.7255 H         1 AIB         0.0242
    101 H          22.4660   42.7687    4.0041 H         1 AIB         0.0242
    102 H          22.9121   42.3633    2.3285 H         1 AIB         0.0242
    103 H          23.4312   40.6527    4.7934 H         1 AIB         0.0242
    104 H          22.9146   39.1020    4.0868 H         1 AIB         0.0242
    105 H          23.8920   40.2374    3.1242 H         1 AIB         0.0242
    106 H          20.2237   38.8261    3.0654 H         1 ALA         0.1889
    107 H          21.1130   38.2256    0.3556 H         1 ALA         0.0799
    108 H          20.6252   36.3879    1.9119 H         1 ALA         0.0277
    109 H          18.9423   36.9466    2.0751 H         1 ALA         0.0277
    110 H          19.5207   36.3060    0.5175 H         1 ALA         0.0277
    111 H          18.8803   40.4206    1.4994 H         1 MET         0.1883
    112 H          17.0688   40.1246   -0.8197 H         1 MET         0.0800
    113 H          15.9505   42.0761    0.0326 H         1 MET         0.0320
    114 H          17.2731   42.2727    1.2896 H         1 MET         0.0320
    115 H          15.3751   41.3866    2.3491 H         1 MET         0.0378
    116 H          16.5930   40.0357    2.1264 H         1 MET         0.0378
    117 H          16.3411   38.4288   -0.1767 H         1 MET         0.0340
    118 H          15.9004   37.7595    1.4136 H         1 MET         0.0340
    119 H          14.8432   37.4836    0.0074 H         1 MET         0.0340
    120 H          20.1466   41.1971   -0.3238 H         1 LEU         0.1883
    121 H          19.8940   43.2813   -2.4378 H         1 LEU         0.0800
    122 H          22.1886   44.0020   -1.3340 H         1 LEU         0.0315
    123 H          21.3751   43.1999    0.1269 H         1 LEU         0.0315
    124 H          20.2790   45.5096   -1.4574 H         1 LEU         0.0298
    125 H          18.5741   44.1543   -0.3968 H         1 LEU         0.0232
    126 H          19.4288   44.2628    1.1616 H         1 LEU         0.0232
    127 H          18.7349   45.7269    0.4229 H         1 LEU         0.0232
    128 H          21.7285   45.4500    1.2096 H         1 LEU         0.0232
    129 H          22.3421   46.1534   -0.3069 H         1 LEU         0.0232
    130 H          20.9234   46.8694    0.4967 H         1 LEU         0.0232
    131 H          23.4683   42.2206   -3.3732 H         1 ALA         0.1815
    132 H          22.8719   43.5838   -2.4207 H         1 ALA         0.1815
@<TRIPOS>BOND
     1    1    2 1  
     2    2    3 1  
     3    2    5 1  
     4    3    4 2  
     5    3   12 am 
     6    5    6 1  
     7    6    7 1  
     8    7    8 1  
     9    8    9 ar 
    10    9   10 ar 
    11    9   11 ar 
    12   12   13 1  
    13   13   14 1  
    14   13   16 1  
    15   14   15 2  
    16   14   23 am 
    17   16   17 1  
    18   17   18 1  
    19   18   19 1  
    20   19   20 ar 
    21   20   21 ar 
    22   20   22 ar 
    23   23   24 1  
    24   24   25 1  
    25   24   27 1  
    26   25   26 2  
    27   25   34 am 
    28   27   28 1  
    29   28   29 ar 
    30   28   30 ar 
    31   29   31 ar 
    32   30   32 ar 
    33   31   33 ar 
    34   32   33 ar 
    35   34   35 1  
    36   35   36 1  
    37   35   38 1  
    38   35   39 1  
    39   36   37 2  
    40   36   40 am 
    41   40   41 1  
    42   41   42 1  
    43   41   44 1  
    44   42   43 2  
    45   42   45 am 
    46   45   46 1  
    47   46   47 1  
    48   46   49 1  
    49   47   48 2  
    50   47   53 am 
    51   49   50 1  
    52   50   51 1  
    53   51   52 1  
    54   53   54 1  
    55   54   55 1  
    56   54   57 1  
    57   55   56 2  
    58   55   61 am 
    59   57   58 1  
    60   58   59 1  
    61   58   60 1  
    62    1   62 1  
    63    1   63 1  
    64    1   64 1  
    65    2   65 1  
    66    5   66 1  
    67    5   67 1  
    68    6   68 1  
    69    6   69 1  
    70    7   70 1  
    71    7   71 1  
    72    8   72 1  
    73   10   73 1  
    74   10   74 1  
    75   11   75 1  
    76   11   76 1  
    77   12   77 1  
    78   13   78 1  
    79   16   79 1  
    80   16   80 1  
    81   17   81 1  
    82   17   82 1  
    83   18   83 1  
    84   18   84 1  
    85   19   85 1  
    86   21   86 1  
    87   21   87 1  
    88   22   88 1  
    89   22   89 1  
    90   23   90 1  
    91   24   91 1  
    92   27   92 1  
    93   27   93 1  
    94   29   94 1  
    95   30   95 1  
    96   31   96 1  
    97   32   97 1  
    98   33   98 1  
    99   34   99 1  
   100   38  100 1  
   101   38  101 1  
   102   38  102 1  
   103   39  103 1  
   104   39  104 1  
   105   39  105 1  
   106   40  106 1  
   107   41  107 1  
   108   44  108 1  
   109   44  109 1  
   110   44  110 1  
   111   45  111 1  
   112   46  112 1  
   113   49  113 1  
   114   49  114 1  
   115   50  115 1  
   116   50  116 1  
   117   52  117 1  
   118   52  118 1  
   119   52  119 1  
   120   53  120 1  
   121   54  121 1  
   122   57  122 1  
   123   57  123 1  
   124   58  124 1  
   125   59  125 1  
   126   59  126 1  
   127   59  127 1  
   128   60  128 1  
   129   60  129 1  
   130   60  130 1  
   131   61  131 1  
   132   61  132 1  
@<TRIPOS>SUBSTRUCTURE
     1 ARG         1

