3nf3_ligand
  -I-interpret- 

130130  0  0  0  0  0  0  0  0999 V2000
   16.7050   33.5580    6.0930 N   0  3  0  0  0
   17.7540   34.3590    5.4740 C   0  0  0  0  0
   17.9120   35.7260    6.1170 C   0  0  0  0  0
   16.9380   36.3610    6.5120 O   0  0  0  0  0
   17.5000   34.5240    3.9790 C   0  0  0  0  0
   17.7260   33.2490    3.1830 C   0  0  0  0  0
   17.6760   33.5040    1.6840 C   0  0  0  0  0
   16.3790   33.1580    1.1160 N   0  0  0  0  0
   16.0510   31.9370    0.7030 C   0  0  0  0  0
   14.8480   31.7060    0.1970 N   0  0  0  0  0
   16.9280   30.9450    0.7980 N   0  0  0  0  0
   19.1580   36.1710    6.2130 N   0  0  0  0  0
   19.4660   37.4940    6.7280 C   0  0  0  0  0
   19.1240   38.5480    5.6840 C   0  0  0  0  0
   19.0860   38.2630    4.4840 O   0  0  0  0  0
   20.9480   37.5820    7.0890 C   0  0  0  0  0
   21.3930   36.5200    8.0810 C   0  0  0  0  0
   22.9010   36.3800    8.1010 C   0  0  0  0  0
   23.5590   37.6780    8.2090 N   0  0  0  0  0
   24.4680   38.1210    7.3480 C   0  0  0  0  0
   24.8330   37.3610    6.3210 N   0  0  0  0  0
   25.0150   39.3170    7.5140 N   0  0  0  0  0
   18.8850   39.7670    6.1520 N   0  0  0  0  0
   18.5380   40.8860    5.2850 C   0  0  0  0  0
   19.5310   41.0630    4.1360 C   0  0  0  0  0
   19.1590   41.5130    3.0530 O   0  0  0  0  0
   18.4380   42.1680    6.1160 C   0  0  0  0  0
   18.1790   43.3990    5.3070 C   0  0  0  0  0
   16.9730   43.5670    4.6430 C   0  0  0  0  0
   19.1310   44.4010    5.2280 C   0  0  0  0  0
   16.7250   44.7060    3.8990 C   0  0  0  0  0
   18.8880   45.5460    4.4890 C   0  0  0  0  0
   17.6820   45.6970    3.8230 C   0  0  0  0  0
   20.7880   40.7020    4.3740 N   0  0  0  0  0
   21.8330   40.8150    3.3620 C   0  0  0  0  0
   21.4200   40.1240    2.0580 C   0  0  0  0  0
   21.9110   40.6100    0.8410 O   0  0  0  0  0
   22.1310   42.2880    3.0850 C   0  0  0  0  0
   23.1100   40.1540    3.8790 C   0  0  0  0  0
   20.6000   39.0800    2.1520 N   0  0  0  0  0
   20.2230   38.2860    0.9820 C   0  0  0  0  0
   19.1360   38.9400    0.1250 C   0  0  0  0  0
   18.7760   38.4180   -0.9300 O   0  0  0  0  0
   19.7970   36.8800    1.4020 C   0  0  0  0  0
   18.6080   40.0730    0.5800 N   0  0  0  0  0
   17.6460   40.8250   -0.2160 C   0  0  0  0  0
   18.3840   41.7920   -1.1340 C   0  0  0  0  0
   17.7720   42.4830   -1.9510 O   0  0  0  0  0
   16.6750   41.5900    0.6860 C   0  0  0  0  0
   15.8830   40.7160    1.6560 C   0  0  0  0  0
   14.6110   39.6980    0.8750 S   0  0  0  0  0
   15.5130   38.1940    0.4920 C   0  0  0  0  0
   19.7070   41.8290   -0.9930 N   0  0  0  0  0
   20.5540   42.7400   -1.7600 C   0  0  0  0  0
   21.5900   42.0070   -2.6050 C   0  0  0  0  0
   21.3610   40.8850   -3.0540 O   0  0  0  0  0
   21.2670   43.7180   -0.8260 C   0  0  0  0  0
   20.5360   45.0240   -0.5160 C   0  0  0  0  0
   19.2240   44.7740    0.2210 C   0  0  0  0  0
   21.4470   45.9390    0.2770 C   0  0  0  0  0
   22.7320   42.6540   -2.8160 N   0  0  0  0  0
   16.8962   33.4617    7.0903 H   0  0  0  0  0
   15.8046   34.0187    5.9611 H   0  0  0  0  0
   16.6829   32.6351    5.6592 H   0  0  0  0  0
   18.6844   33.8133    5.6312 H   0  0  0  0  0
   18.2010   35.2715    3.6075 H   0  0  0  0  0
   16.4554   34.8088    3.8530 H   0  0  0  0  0
   16.9368   32.5414    3.4371 H   0  0  0  0  0
   18.7131   32.8595    3.4320 H   0  0  0  0  0
   18.4344   32.8835    1.2066 H   0  0  0  0  0
   17.8517   34.5659    1.5122 H   0  0  0  0  0
   15.6809   33.8967    1.0301 H   0  0  0  0  0
   14.1712   32.4655    0.1236 H   0  0  0  0  0
   16.6751   30.0087    0.4821 H   0  0  0  0  0
   17.8547   31.1191    1.1869 H   0  0  0  0  0
   19.9234   35.5656    5.9161 H   0  0  0  0  0
   18.8717   37.6732    7.6240 H   0  0  0  0  0
   21.1157   38.5544    7.5521 H   0  0  0  0  0
   21.5184   37.4340    6.1720 H   0  0  0  0  0
   20.9605   35.5649    7.7829 H   0  0  0  0  0
   21.0594   36.8142    9.0761 H   0  0  0  0  0
   23.2159   35.9105    7.1691 H   0  0  0  0  0
   23.1799   35.7792    8.9667 H   0  0  0  0  0
   23.3059   38.2807    8.9920 H   0  0  0  0  0
   25.5338   37.6980    5.6609 H   0  0  0  0  0
   24.4124   36.4406    6.1928 H   0  0  0  0  0
   24.7380   39.8993    8.3043 H   0  0  0  0  0
   18.9466   39.9268    7.1575 H   0  0  0  0  0
   17.5713   40.6681    4.8310 H   0  0  0  0  0
   19.3972   42.3052    6.6153 H   0  0  0  0  0
   17.5964   42.0464    6.7979 H   0  0  0  0  0
   16.2105   42.7909    4.7085 H   0  0  0  0  0
   20.0799   44.2874    5.7521 H   0  0  0  0  0
   15.7765   44.8205    3.3743 H   0  0  0  0  0
   19.6447   46.3284    4.4309 H   0  0  0  0  0
   17.4898   46.5976    3.2398 H   0  0  0  0  0
   21.0299   40.3340    5.2940 H   0  0  0  0  0
   21.2267   42.7790    2.7255 H   0  0  0  0  0
   22.4660   42.7687    4.0041 H   0  0  0  0  0
   22.9121   42.3633    2.3285 H   0  0  0  0  0
   23.4312   40.6527    4.7934 H   0  0  0  0  0
   22.9146   39.1020    4.0868 H   0  0  0  0  0
   23.8920   40.2374    3.1242 H   0  0  0  0  0
   20.2237   38.8261    3.0654 H   0  0  0  0  0
   21.1130   38.2256    0.3556 H   0  0  0  0  0
   20.6252   36.3879    1.9119 H   0  0  0  0  0
   18.9423   36.9466    2.0751 H   0  0  0  0  0
   19.5207   36.3060    0.5175 H   0  0  0  0  0
   18.8803   40.4206    1.4994 H   0  0  0  0  0
   17.0688   40.1246   -0.8197 H   0  0  0  0  0
   15.9505   42.0761    0.0326 H   0  0  0  0  0
   17.2731   42.2727    1.2896 H   0  0  0  0  0
   15.3751   41.3866    2.3491 H   0  0  0  0  0
   16.5930   40.0357    2.1264 H   0  0  0  0  0
   16.3411   38.4288   -0.1767 H   0  0  0  0  0
   15.9004   37.7595    1.4136 H   0  0  0  0  0
   14.8432   37.4836    0.0074 H   0  0  0  0  0
   20.1466   41.1971   -0.3238 H   0  0  0  0  0
   19.8940   43.2813   -2.4378 H   0  0  0  0  0
   22.1886   44.0020   -1.3340 H   0  0  0  0  0
   21.3751   43.1999    0.1269 H   0  0  0  0  0
   20.2790   45.5096   -1.4574 H   0  0  0  0  0
   18.5741   44.1543   -0.3968 H   0  0  0  0  0
   19.4288   44.2628    1.1616 H   0  0  0  0  0
   18.7349   45.7269    0.4229 H   0  0  0  0  0
   21.7285   45.4500    1.2096 H   0  0  0  0  0
   22.3421   46.1534   -0.3069 H   0  0  0  0  0
   20.9234   46.8694    0.4967 H   0  0  0  0  0
   23.4683   42.2206   -3.3732 H   0  0  0  0  0
   22.8719   43.5838   -2.4207 H   0  0  0  0  0
  1  2  1  0  0  0
  2  3  1  0  0  0
  2  5  1  0  0  0
  3  4  2  0  0  0
  3 12  1  0  0  0
  5  6  1  0  0  0
  6  7  1  0  0  0
  7  8  1  0  0  0
  8  9  1  0  0  0
  9 10  2  0  0  0
  9 11  1  0  0  0
 12 13  1  0  0  0
 13 14  1  0  0  0
 13 16  1  0  0  0
 14 15  2  0  0  0
 14 23  1  0  0  0
 16 17  1  0  0  0
 17 18  1  0  0  0
 18 19  1  0  0  0
 19 20  1  0  0  0
 20 21  1  0  0  0
 20 22  2  0  0  0
 23 24  1  0  0  0
 24 25  1  0  0  0
 24 27  1  0  0  0
 25 26  2  0  0  0
 25 34  1  0  0  0
 27 28  1  0  0  0
 28 29  4  0  0  0
 28 30  4  0  0  0
 29 31  4  0  0  0
 30 32  4  0  0  0
 31 33  4  0  0  0
 32 33  4  0  0  0
 34 35  1  0  0  0
 35 36  1  0  0  0
 35 38  1  0  0  0
 35 39  1  0  0  0
 36 37  2  0  0  0
 36 40  1  0  0  0
 40 41  1  0  0  0
 41 42  1  0  0  0
 41 44  1  0  0  0
 42 43  2  0  0  0
 42 45  1  0  0  0
 45 46  1  0  0  0
 46 47  1  0  0  0
 46 49  1  0  0  0
 47 48  2  0  0  0
 47 53  1  0  0  0
 49 50  1  0  0  0
 50 51  1  0  0  0
 51 52  1  0  0  0
 53 54  1  0  0  0
 54 55  1  0  0  0
 54 57  1  0  0  0
 55 56  2  0  0  0
 55 61  1  0  0  0
 57 58  1  0  0  0
 58 59  1  0  0  0
 58 60  1  0  0  0
  1 62  1  0  0  0
  1 63  1  0  0  0
  1 64  1  0  0  0
  2 65  1  0  0  0
  5 66  1  0  0  0
  5 67  1  0  0  0
  6 68  1  0  0  0
  6 69  1  0  0  0
  7 70  1  0  0  0
  7 71  1  0  0  0
  8 72  1  0  0  0
 10 73  1  0  0  0
 11 74  1  0  0  0
 11 75  1  0  0  0
 12 76  1  0  0  0
 13 77  1  0  0  0
 16 78  1  0  0  0
 16 79  1  0  0  0
 17 80  1  0  0  0
 17 81  1  0  0  0
 18 82  1  0  0  0
 18 83  1  0  0  0
 19 84  1  0  0  0
 21 85  1  0  0  0
 21 86  1  0  0  0
 22 87  1  0  0  0
 23 88  1  0  0  0
 24 89  1  0  0  0
 27 90  1  0  0  0
 27 91  1  0  0  0
 29 92  1  0  0  0
 30 93  1  0  0  0
 31 94  1  0  0  0
 32 95  1  0  0  0
 33 96  1  0  0  0
 34 97  1  0  0  0
 38 98  1  0  0  0
 38 99  1  0  0  0
 38100  1  0  0  0
 39101  1  0  0  0
 39102  1  0  0  0
 39103  1  0  0  0
 40104  1  0  0  0
 41105  1  0  0  0
 44106  1  0  0  0
 44107  1  0  0  0
 44108  1  0  0  0
 45109  1  0  0  0
 46110  1  0  0  0
 49111  1  0  0  0
 49112  1  0  0  0
 50113  1  0  0  0
 50114  1  0  0  0
 52115  1  0  0  0
 52116  1  0  0  0
 52117  1  0  0  0
 53118  1  0  0  0
 54119  1  0  0  0
 57120  1  0  0  0
 57121  1  0  0  0
 58122  1  0  0  0
 59123  1  0  0  0
 59124  1  0  0  0
 59125  1  0  0  0
 60126  1  0  0  0
 60127  1  0  0  0
 60128  1  0  0  0
 61129  1  0  0  0
 61130  1  0  0  0
M  END
$$$$
