4a9u_ligand
  -I-interpret- 

 48 51  0  0  0  0  0  0  0  0999 V2000
   34.5160  -33.4250   12.6700 C   0  0  0  0  0
   34.9870  -32.4320   13.6130 N   0  0  0  0  0
   40.8970  -30.5630    3.0780 O   0  0  0  0  0
   35.2110  -33.5870   11.3200 C   0  0  0  0  0
   35.8410  -32.5690   10.7730 C   0  0  0  0  0
   37.2650  -31.8550    8.6100 N   0  0  0  0  0
   36.5330  -32.7380    9.4180 C   0  0  0  0  0
   37.2390  -33.7650    7.5240 N   0  0  0  0  0
   37.6640  -32.5580    7.4260 C   0  0  0  0  0
   36.4910  -33.8960    8.8070 C   0  0  0  0  0
   35.7600  -35.0770    9.4440 C   0  0  0  0  0
   35.1660  -34.9330   10.6100 C   0  0  0  0  0
   38.5030  -32.0110    6.2730 C   0  0  0  0  0
   38.5970  -32.7990    4.9670 C   0  0  0  0  0
   39.3320  -32.3440    3.9720 C   0  0  0  0  0
   40.0940  -31.0290    4.1250 C   0  0  0  0  0
   40.0180  -30.3530    5.2540 C   0  0  0  0  0
   39.1660  -30.8800    6.4090 C   0  0  0  0  0
   43.8310  -29.7100    0.6420 C   0  0  0  0  0
   42.7390  -29.9040    1.6970 C   0  0  0  0  0
   41.6020  -29.0800    1.4560 C   0  0  0  0  0
   41.1530  -29.2070    0.1140 C   0  0  0  0  0
   42.2900  -29.0090   -0.8850 C   0  0  0  0  0
   43.3020  -29.9110   -0.6210 N   0  3  0  0  0
   40.5480  -29.4090    2.3680 C   0  0  0  0  0
   33.5880  -34.1090   12.9460 O   0  0  0  0  0
   34.5204  -32.3219   14.5133 H   0  0  0  0  0
   35.7854  -31.8427   13.3769 H   0  0  0  0  0
   35.8700  -31.6068   11.2842 H   0  0  0  0  0
   35.7303  -36.0392    8.9327 H   0  0  0  0  0
   34.6438  -35.7744   11.0654 H   0  0  0  0  0
   38.0554  -33.7387    4.8582 H   0  0  0  0  0
   39.3961  -32.9059    3.0402 H   0  0  0  0  0
   40.5639  -29.4160    5.3645 H   0  0  0  0  0
   39.1070  -30.3214    7.3431 H   0  0  0  0  0
   44.6325  -30.4280    0.8160 H   0  0  0  0  0
   44.2237  -28.6956    0.7115 H   0  0  0  0  0
   43.1542  -29.6321    2.6675 H   0  0  0  0  0
   42.4161  -30.9445    1.6622 H   0  0  0  0  0
   41.8956  -28.0426    1.6162 H   0  0  0  0  0
   40.3989  -28.4416   -0.0690 H   0  0  0  0  0
   40.7508  -30.2113   -0.0192 H   0  0  0  0  0
   42.6774  -27.9941   -0.7958 H   0  0  0  0  0
   41.9158  -29.1706   -1.8959 H   0  0  0  0  0
   42.9185  -30.8550   -0.6680 H   0  0  0  0  0
   44.0430  -29.7813   -1.3099 H   0  0  0  0  0
   40.3955  -28.5838    3.0636 H   0  0  0  0  0
   39.6264  -29.5856    1.8134 H   0  0  0  0  0
  1  2  1  0  0  0
  4  1  1  0  0  0
  1 26  2  0  0  0
  3 16  1  0  0  0
 25  3  1  0  0  0
  5  4  4  0  0  0
 12  4  4  0  0  0
  7  5  4  0  0  0
  6  7  4  0  0  0
  9  6  4  0  0  0
 10  7  4  0  0  0
  9  8  4  0  0  0
  8 10  4  0  0  0
 13  9  1  0  0  0
 10 11  4  0  0  0
 11 12  4  0  0  0
 14 13  4  0  0  0
 18 13  4  0  0  0
 15 14  4  0  0  0
 16 15  4  0  0  0
 16 17  4  0  0  0
 17 18  4  0  0  0
 20 19  1  0  0  0
 19 24  1  0  0  0
 21 20  1  0  0  0
 21 22  1  0  0  0
 21 25  1  0  0  0
 22 23  1  0  0  0
 23 24  1  0  0  0
  2 27  1  0  0  0
  2 28  1  0  0  0
  5 29  1  0  0  0
 11 30  1  0  0  0
 12 31  1  0  0  0
 14 32  1  0  0  0
 15 33  1  0  0  0
 17 34  1  0  0  0
 18 35  1  0  0  0
 19 36  1  0  0  0
 19 37  1  0  0  0
 20 38  1  0  0  0
 20 39  1  0  0  0
 21 40  1  0  0  0
 22 41  1  0  0  0
 22 42  1  0  0  0
 23 43  1  0  0  0
 23 44  1  0  0  0
 24 45  1  0  0  0
 24 46  1  0  0  0
 25 47  1  0  0  0
 25 48  1  0  0  0
M  END
$$$$
