5ngr_ligand
  -I-interpret- 

 18 19  0  0  0  0  0  0  0  0999 V2000
   -0.8320  -11.6840   15.2790 C   0  0  0  0  0
   -2.7130  -12.4130   14.1220 C   0  0  0  0  0
   -2.9280  -10.5610   15.3740 C   0  0  0  0  0
   -1.3370   -9.5830   16.6280 N   0  0  0  0  0
    0.4440  -11.8670   15.6160 N   0  0  0  0  0
   -1.6120  -10.6260   15.7700 C   0  0  0  0  0
   -1.4250  -12.5910   14.4570 N   0  0  0  0  0
   -1.0270   -7.3070   18.1900 C   0  0  0  0  0
   -2.7460   -7.5350   17.7600 S   0  0  0  0  0
   -2.4730   -8.9350   16.7600 C   0  0  0  0  0
   -3.5240  -11.4400   14.5410 N   0  0  0  0  0
   -3.4650   -9.4690   15.9940 N   0  0  0  0  0
   -3.1420  -13.1415   13.4340 H   0  0  0  0  0
    0.8990  -11.2205   16.2605 H   0  0  0  0  0
    0.9658  -12.6536   15.2295 H   0  0  0  0  0
   -0.6605   -8.1972   18.7012 H   0  0  0  0  0
   -0.4456   -7.1422   17.2828 H   0  0  0  0  0
   -0.9298   -6.4430   18.8474 H   0  0  0  0  0
  1  5  1  0  0  0
  6  1  4  0  0  0
  1  7  4  0  0  0
  7  2  4  0  0  0
 11  2  4  0  0  0
  6  3  4  0  0  0
  3 11  4  0  0  0
  3 12  4  0  0  0
  4  6  4  0  0  0
 10  4  4  0  0  0
  9  8  1  0  0  0
  9 10  1  0  0  0
 10 12  4  0  0  0
  2 13  1  0  0  0
  5 14  1  0  0  0
  5 15  1  0  0  0
  8 16  1  0  0  0
  8 17  1  0  0  0
  8 18  1  0  0  0
M  END
$$$$
