2lty_ligand
  -I-interpret- 

242248  0  0  0  0  0  0  0  0999 V2000
   -0.8920  -12.1020   -3.2330 N   0  3  0  0  0
    0.1120  -11.8380   -4.2900 C   0  0  0  0  0
    1.3730  -12.6740   -4.0710 C   0  0  0  0  0
    2.1630  -12.8570   -4.9950 O   0  0  0  0  0
    0.4780  -10.3470   -4.3340 C   0  0  0  0  0
   -0.7230   -9.4140   -4.2960 C   0  0  0  0  0
   -1.8410   -9.8600   -5.2140 C   0  0  0  0  0
   -1.8090   -9.5260   -6.4160 O   0  0  0  0  0
   -2.7500  -10.5660   -4.7310 O   0  0  0  0  0
    1.5770  -13.1410   -2.8320 N   0  0  0  0  0
    2.7250  -13.9900   -2.4740 C   0  0  0  0  0
    4.0480  -13.2260   -2.5810 C   0  0  0  0  0
    5.1270  -13.8110   -2.4600 O   0  0  0  0  0
    2.7700  -15.2470   -3.3580 C   0  0  0  0  0
    1.5610  -16.1820   -3.2340 C   0  0  0  0  0
    1.7090  -17.3660   -4.1770 C   0  0  0  0  0
    1.3980  -16.6630   -1.7990 C   0  0  0  0  0
    3.9530  -11.9160   -2.7590 N   0  0  0  0  0
    5.1250  -11.0590   -2.8880 C   0  0  0  0  0
    5.7840  -10.8200   -1.5340 C   0  0  0  0  0
    5.1230  -10.8890   -0.4950 O   0  0  0  0  0
    4.7210   -9.7200   -3.5080 C   0  0  0  0  0
    4.4960   -9.7840   -5.0070 C   0  0  0  0  0
    5.7760  -10.0560   -5.7660 C   0  0  0  0  0
    6.6270   -9.1440   -5.8430 O   0  0  0  0  0
    5.9490  -11.1840   -6.2710 O   0  0  0  0  0
    7.0810  -10.5290   -1.5610 N   0  0  0  0  0
    7.8240  -10.1650   -0.3600 C   0  0  0  0  0
    7.1560   -8.9560    0.2930 C   0  0  0  0  0
    6.6490   -8.0850   -0.4090 O   0  0  0  0  0
    9.2800   -9.8440   -0.7360 C   0  0  0  0  0
   10.0720   -9.5660    0.4110 O   0  0  0  0  0
    7.1630   -8.8800    1.6360 N   0  0  0  0  0
    6.4720   -7.8180    2.3820 C   0  0  0  0  0
    6.7760   -6.4220    1.8420 C   0  0  0  0  0
    7.9360   -6.0920    1.5770 O   0  0  0  0  0
    7.0330   -7.9700    3.7920 C   0  0  0  0  0
    7.3520   -9.4160    3.8990 C   0  0  0  0  0
    7.8280   -9.8350    2.5390 C   0  0  0  0  0
    5.7250   -5.5950    1.6740 N   0  0  0  0  0
    5.8360   -4.2520    1.0890 C   0  0  0  0  0
    6.9460   -3.4090    1.7010 C   0  0  0  0  0
    7.2600   -3.5340    2.8890 O   0  0  0  0  0
    4.4830   -3.6260    1.4110 C   0  0  0  0  0
    3.5470   -4.7690    1.4410 C   0  0  0  0  0
    4.3230   -5.9120    2.0290 C   0  0  0  0  0
    7.5210   -2.5100    0.8890 N   0  0  0  0  0
    8.5900   -1.6070    1.3210 C   0  0  0  0  0
    8.1490   -0.7530    2.5060 C   0  0  0  0  0
    7.0330   -0.2240    2.5090 O   0  0  0  0  0
    8.8360   -0.7360    0.0810 C   0  0  0  0  0
    8.3270   -1.5460   -1.0580 C   0  0  0  0  0
    7.1500   -2.2890   -0.5180 C   0  0  0  0  0
    9.0200   -0.6060    3.5230 N   0  0  0  0  0
    8.7030    0.1300    4.7500 C   0  0  0  0  0
    8.0990    1.4990    4.4670 C   0  0  0  0  0
    8.7180    2.3520    3.8270 O   0  0  0  0  0
   10.0570    0.2690    5.4640 C   0  0  0  0  0
   11.0850   -0.1910    4.4810 C   0  0  0  0  0
   10.3850   -1.1410    3.5570 C   0  0  0  0  0
    6.8850    1.6980    4.9490 N   0  0  0  0  0
    6.1470    2.9090    4.6620 C   0  0  0  0  0
    6.4220    3.9710    5.7170 C   0  0  0  0  0
    6.1450    3.7710    6.8980 O   0  0  0  0  0
    4.6490    2.6110    4.5950 C   0  0  0  0  0
    3.8430    3.7420    4.0110 C   0  0  0  0  0
    3.7220    3.8800    2.6380 C   0  0  0  0  0
    3.2080    4.6720    4.8250 C   0  0  0  0  0
    2.9930    4.9090    2.0890 C   0  0  0  0  0
    2.4750    5.7060    4.2790 C   0  0  0  0  0
    2.3720    5.8150    2.9110 C   0  0  0  0  0
    1.6510    6.8410    2.3630 O   0  0  0  0  0
    6.9810    5.0930    5.2880 N   0  0  0  0  0
    7.2160    6.2070    6.1880 C   0  0  0  0  0
    6.1610    7.2950    5.9770 C   0  0  0  0  0
    5.2350    7.4320    6.7770 O   0  0  0  0  0
    8.6200    6.7690    5.9710 C   0  0  0  0  0
    9.6020    5.7540    6.1100 O   0  0  0  0  0
    6.2840    8.0530    4.8900 N   0  0  0  0  0
    5.2950    9.0760    4.5710 C   0  0  0  0  0
    4.6510    8.8090    3.2130 C   0  0  0  0  0
    3.4260    8.7710    3.0890 O   0  0  0  0  0
    5.9250   10.4700    4.6000 C   0  0  0  0  0
    4.9070   11.5900    4.4600 C   0  0  0  0  0
    5.5580   12.9590    4.5410 C   0  0  0  0  0
    4.5920   14.0350    4.3370 N   0  0  0  0  0
    4.9270   15.3160    4.1980 C   0  0  0  0  0
    6.1970   15.6930    4.2830 N   0  0  0  0  0
    3.9870   16.2260    3.9880 N   0  0  0  0  0
    5.4870    8.6410    2.1950 N   0  0  0  0  0
    5.0150    8.3560    0.8450 C   0  0  0  0  0
    5.5310    6.9960    0.3880 C   0  0  0  0  0
    6.6190    6.5760    0.7890 O   0  0  0  0  0
    5.4710    9.4480   -0.1310 C   0  0  0  0  0
    4.7590   10.7740    0.0500 C   0  0  0  0  0
    5.2480   11.7300    0.9250 C   0  0  0  0  0
    3.6010   11.0700   -0.6600 C   0  0  0  0  0
    4.6100   12.9420    1.0940 C   0  0  0  0  0
    2.9560   12.2840   -0.5000 C   0  0  0  0  0
    3.4660   13.2170    0.3790 C   0  0  0  0  0
    2.8310   14.4280    0.5490 O   0  0  0  0  0
    4.7580    6.3010   -0.4580 N   0  0  0  0  0
    5.1160    4.9650   -0.9560 C   0  0  0  0  0
    6.2950    4.9860   -1.9260 C   0  0  0  0  0
    6.3350    5.7890   -2.8580 O   0  0  0  0  0
    3.8510    4.5100   -1.6830 C   0  0  0  0  0
    3.1730    5.7710   -2.0860 C   0  0  0  0  0
    3.4650    6.7600   -0.9970 C   0  0  0  0  0
    7.2380    4.0830   -1.7110 N   0  0  0  0  0
    8.3950    3.9620   -2.5850 C   0  0  0  0  0
    8.7050    2.4860   -2.8330 C   0  0  0  0  0
    8.8760    1.7140   -1.8920 O   0  0  0  0  0
    9.6070    4.6900   -1.9800 C   0  0  0  0  0
   10.0570    4.1530   -0.6290 C   0  0  0  0  0
   11.4890    5.0350    0.0270 S   0  0  0  0  0
   10.8400    6.7020    0.1370 C   0  0  0  0  0
    8.7610    2.0960   -4.1020 N   0  0  0  0  0
    8.9710    0.7000   -4.4740 C   0  0  0  0  0
   10.0730    0.5940   -5.5170 C   0  0  0  0  0
    9.8980    1.1510   -6.6190 O   0  0  0  0  0
    7.6760    0.0920   -5.0210 C   0  0  0  0  0
    7.8220   -1.3740   -5.3910 C   0  0  0  0  0
    7.8000   -2.2300   -4.4810 O   0  0  0  0  0
    7.9410   -1.6820   -6.5970 O   0  0  0  0  0
   11.1010   -0.0530   -5.2430 O   0  0  0  0  0
   -1.1193  -13.0963   -3.2224 H   0  0  0  0  0
   -0.5100  -11.8296   -2.3273 H   0  0  0  0  0
   -1.7354  -11.5612   -3.4242 H   0  0  0  0  0
   -0.3322  -12.1212   -5.2442 H   0  0  0  0  0
    0.9963  -10.1688   -5.2762 H   0  0  0  0  0
    1.0800  -10.1355   -3.4503 H   0  0  0  0  0
   -0.3918   -8.4297   -4.6269 H   0  0  0  0  0
   -1.1097   -9.4087   -3.2769 H   0  0  0  0  0
   -2.5837  -10.7039   -3.7956 H   0  0  0  0  0
    0.9061  -12.8971   -2.1034 H   0  0  0  0  0
    2.5925  -14.2918   -1.4350 H   0  0  0  0  0
    3.6407  -15.8203   -3.0397 H   0  0  0  0  0
    2.7906  -14.9003   -4.3912 H   0  0  0  0  0
    0.6662  -15.6250   -3.5118 H   0  0  0  0  0
    1.7763  -17.0052   -5.2034 H   0  0  0  0  0
    2.6139  -17.9188   -3.9248 H   0  0  0  0  0
    0.8425  -18.0196   -4.0763 H   0  0  0  0  0
    2.2945  -17.2029   -1.4941 H   0  0  0  0  0
    1.2489  -15.8045   -1.1441 H   0  0  0  0  0
    0.5343  -17.3248   -1.7349 H   0  0  0  0  0
    3.0264  -11.4923   -2.8075 H   0  0  0  0  0
    5.8446  -11.5615   -3.5344 H   0  0  0  0  0
    5.5373   -9.0198   -3.3309 H   0  0  0  0  0
    3.7785   -9.4203   -3.0498 H   0  0  0  0  0
    4.1069   -8.8194   -5.3330 H   0  0  0  0  0
    3.8011  -10.5986   -5.2111 H   0  0  0  0  0
    6.2991   -8.3629   -5.3914 H   0  0  0  0  0
    7.5739  -10.5615   -2.4534 H   0  0  0  0  0
    7.8238  -10.9940    0.3477 H   0  0  0  0  0
    9.2821   -8.9617   -1.3760 H   0  0  0  0  0
    9.7026  -10.7120   -1.2421 H   0  0  0  0  0
   10.9714   -9.3708    0.1378 H   0  0  0  0  0
    5.3883   -7.9142    2.3155 H   0  0  0  0  0
    6.3252   -7.6460    4.5549 H   0  0  0  0  0
    7.9076   -7.3410    3.9582 H   0  0  0  0  0
    6.4791   -9.9916    4.2069 H   0  0  0  0  0
    8.1134   -9.5977    4.6575 H   0  0  0  0  0
    8.9140   -9.8099    2.4491 H   0  0  0  0  0
    7.5799  -10.8712    2.3092 H   0  0  0  0  0
    6.0809   -4.3045    0.0282 H   0  0  0  0  0
    4.1921   -2.8778    0.6736 H   0  0  0  0  0
    4.4974   -3.0836    2.3564 H   0  0  0  0  0
    3.1793   -5.0088    0.4433 H   0  0  0  0  0
    2.6609   -4.5425    2.0340 H   0  0  0  0  0
    4.1754   -6.0083    3.1047 H   0  0  0  0  0
    4.0018   -6.8789    1.6416 H   0  0  0  0  0
    9.4807   -2.1365    1.6592 H   0  0  0  0  0
    9.8904   -0.4863   -0.0373 H   0  0  0  0  0
    8.3293    0.2263    0.1535 H   0  0  0  0  0
    9.0894   -2.2250   -1.4398 H   0  0  0  0  0
    8.0509   -0.9181   -1.9051 H   0  0  0  0  0
    6.2147   -1.7403   -0.6289 H   0  0  0  0  0
    6.9512   -3.2165   -1.0549 H   0  0  0  0  0
    7.9542   -0.3907    5.3469 H   0  0  0  0  0
   10.0869   -0.3261    6.3767 H   0  0  0  0  0
   10.2378    1.2981    5.7744 H   0  0  0  0  0
   11.9205   -0.6770    4.9848 H   0  0  0  0  0
   11.5082    0.6505    3.9324 H   0  0  0  0  0
   10.8465   -1.1946    2.5710 H   0  0  0  0  0
   10.4289   -2.1759    3.8963 H   0  0  0  0  0
    6.4584    0.9817    5.5367 H   0  0  0  0  0
    6.4766    3.2900    3.6954 H   0  0  0  0  0
    4.2991    2.4487    5.6145 H   0  0  0  0  0
    4.5140    1.7426    3.9503 H   0  0  0  0  0
    4.2127    3.1612    1.9818 H   0  0  0  0  0
    3.2898    4.5838    5.9083 H   0  0  0  0  0
    2.9091    5.0042    1.0064 H   0  0  0  0  0
    1.9814    6.4308    4.9263 H   0  0  0  0  0
    1.2825    7.3823    3.0650 H   0  0  0  0  0
    7.2510    5.1753    4.3078 H   0  0  0  0  0
    7.1389    5.8516    7.2155 H   0  0  0  0  0
    8.8068    7.5405    6.7179 H   0  0  0  0  0
    8.6806    7.1780    4.9625 H   0  0  0  0  0
   10.4732    6.1318    5.9693 H   0  0  0  0  0
    7.0826    7.9162    4.2703 H   0  0  0  0  0
    4.5154    9.0356    5.3317 H   0  0  0  0  0
    6.6113   10.5400    3.7561 H   0  0  0  0  0
    6.4175   10.5899    5.5650 H   0  0  0  0  0
    4.1892   11.5038    5.2757 H   0  0  0  0  0
    4.4273   11.4964    3.4857 H   0  0  0  0  0
    6.3132   13.0250    3.7578 H   0  0  0  0  0
    5.9913   13.0729    5.5347 H   0  0  0  0  0
    3.6024   13.7908    4.2988 H   0  0  0  0  0
    6.4442   16.6779    4.1868 H   0  0  0  0  0
    6.9257   14.9978    4.4445 H   0  0  0  0  0
    3.0081   15.9447    3.9330 H   0  0  0  0  0
    6.4905    8.7136    2.3626 H   0  0  0  0  0
    3.9252    8.3386    0.8566 H   0  0  0  0  0
    5.2468    9.0956   -1.1378 H   0  0  0  0  0
    6.5312    9.6229    0.0521 H   0  0  0  0  0
    6.1553   11.5207    1.4917 H   0  0  0  0  0
    3.1945   10.3341   -1.3538 H   0  0  0  0  0
    5.0102   13.6786    1.7907 H   0  0  0  0  0
    2.0499   12.5018   -1.0654 H   0  0  0  0  0
    2.0558   14.4637   -0.0162 H   0  0  0  0  0
    5.4302    4.3085   -0.1446 H   0  0  0  0  0
    3.2165    3.8923   -1.0474 H   0  0  0  0  0
    4.0801    3.8791   -2.5418 H   0  0  0  0  0
    2.1002    5.6221   -2.2083 H   0  0  0  0  0
    3.5367    6.1253   -3.0505 H   0  0  0  0  0
    3.5037    7.7863   -1.3622 H   0  0  0  0  0
    2.6825    6.7919   -0.2389 H   0  0  0  0  0
    7.1516    3.4553   -0.9117 H   0  0  0  0  0
    8.1698    4.4327   -3.5420 H   0  0  0  0  0
    9.3119    5.7282   -1.8280 H   0  0  0  0  0
   10.4389    4.5524   -2.6708 H   0  0  0  0  0
   10.3380    3.1081   -0.7602 H   0  0  0  0  0
    9.2337    4.2808    0.0738 H   0  0  0  0  0
   10.5370    7.0387   -0.8544 H   0  0  0  0  0
    9.9784    6.7118    0.8045 H   0  0  0  0  0
   11.6113    7.3658    0.5275 H   0  0  0  0  0
    8.6540    2.7933   -4.8387 H   0  0  0  0  0
    9.2702    0.1469   -3.5837 H   0  0  0  0  0
    9.0455    1.5924   -6.6214 H   0  0  0  0  0
    7.4073    0.6385   -5.9250 H   0  0  0  0  0
    6.9183    0.1648   -4.2408 H   0  0  0  0  0
    7.9356   -0.8847   -7.1318 H   0  0  0  0  0
  1  2  1  0  0  0
  2  3  1  0  0  0
  2  5  1  0  0  0
  3  4  2  0  0  0
  3 10  1  0  0  0
  5  6  1  0  0  0
  6  7  1  0  0  0
  7  8  2  0  0  0
  7  9  1  0  0  0
 10 11  1  0  0  0
 11 12  1  0  0  0
 11 14  1  0  0  0
 12 13  2  0  0  0
 12 18  1  0  0  0
 14 15  1  0  0  0
 15 16  1  0  0  0
 15 17  1  0  0  0
 18 19  1  0  0  0
 19 20  1  0  0  0
 19 22  1  0  0  0
 20 21  2  0  0  0
 20 27  1  0  0  0
 22 23  1  0  0  0
 23 24  1  0  0  0
 24 25  1  0  0  0
 24 26  2  0  0  0
 27 28  1  0  0  0
 28 29  1  0  0  0
 28 31  1  0  0  0
 29 30  2  0  0  0
 29 33  1  0  0  0
 31 32  1  0  0  0
 33 34  1  0  0  0
 33 39  1  0  0  0
 34 35  1  0  0  0
 34 37  1  0  0  0
 35 36  2  0  0  0
 35 40  1  0  0  0
 37 38  1  0  0  0
 38 39  1  0  0  0
 40 41  1  0  0  0
 40 46  1  0  0  0
 41 42  1  0  0  0
 41 44  1  0  0  0
 42 43  2  0  0  0
 42 47  1  0  0  0
 44 45  1  0  0  0
 45 46  1  0  0  0
 47 48  1  0  0  0
 47 53  1  0  0  0
 48 49  1  0  0  0
 48 51  1  0  0  0
 49 50  2  0  0  0
 49 54  1  0  0  0
 51 52  1  0  0  0
 52 53  1  0  0  0
 54 55  1  0  0  0
 54 60  1  0  0  0
 55 56  1  0  0  0
 55 58  1  0  0  0
 56 57  2  0  0  0
 56 61  1  0  0  0
 58 59  1  0  0  0
 59 60  1  0  0  0
 61 62  1  0  0  0
 62 63  1  0  0  0
 62 65  1  0  0  0
 63 64  2  0  0  0
 63 73  1  0  0  0
 65 66  1  0  0  0
 66 67  4  0  0  0
 66 68  4  0  0  0
 67 69  4  0  0  0
 68 70  4  0  0  0
 69 71  4  0  0  0
 70 71  4  0  0  0
 71 72  1  0  0  0
 73 74  1  0  0  0
 74 75  1  0  0  0
 74 77  1  0  0  0
 75 76  2  0  0  0
 75 79  1  0  0  0
 77 78  1  0  0  0
 79 80  1  0  0  0
 80 81  1  0  0  0
 80 83  1  0  0  0
 81 82  2  0  0  0
 81 90  1  0  0  0
 83 84  1  0  0  0
 84 85  1  0  0  0
 85 86  1  0  0  0
 86 87  1  0  0  0
 87 88  1  0  0  0
 87 89  2  0  0  0
 90 91  1  0  0  0
 91 92  1  0  0  0
 91 94  1  0  0  0
 92 93  2  0  0  0
 92102  1  0  0  0
 94 95  1  0  0  0
 95 96  4  0  0  0
 95 97  4  0  0  0
 96 98  4  0  0  0
 97 99  4  0  0  0
 98100  4  0  0  0
 99100  4  0  0  0
100101  1  0  0  0
102103  1  0  0  0
102108  1  0  0  0
103104  1  0  0  0
103106  1  0  0  0
104105  2  0  0  0
104109  1  0  0  0
106107  1  0  0  0
107108  1  0  0  0
109110  1  0  0  0
110111  1  0  0  0
110113  1  0  0  0
111112  2  0  0  0
111117  1  0  0  0
113114  1  0  0  0
114115  1  0  0  0
115116  1  0  0  0
117118  1  0  0  0
118119  1  0  0  0
118121  1  0  0  0
119120  1  0  0  0
119125  2  0  0  0
121122  1  0  0  0
122123  2  0  0  0
122124  1  0  0  0
  1126  1  0  0  0
  1127  1  0  0  0
  1128  1  0  0  0
  2129  1  0  0  0
  5130  1  0  0  0
  5131  1  0  0  0
  6132  1  0  0  0
  6133  1  0  0  0
  9134  1  0  0  0
 10135  1  0  0  0
 11136  1  0  0  0
 14137  1  0  0  0
 14138  1  0  0  0
 15139  1  0  0  0
 16140  1  0  0  0
 16141  1  0  0  0
 16142  1  0  0  0
 17143  1  0  0  0
 17144  1  0  0  0
 17145  1  0  0  0
 18146  1  0  0  0
 19147  1  0  0  0
 22148  1  0  0  0
 22149  1  0  0  0
 23150  1  0  0  0
 23151  1  0  0  0
 25152  1  0  0  0
 27153  1  0  0  0
 28154  1  0  0  0
 31155  1  0  0  0
 31156  1  0  0  0
 32157  1  0  0  0
 34158  1  0  0  0
 37159  1  0  0  0
 37160  1  0  0  0
 38161  1  0  0  0
 38162  1  0  0  0
 39163  1  0  0  0
 39164  1  0  0  0
 41165  1  0  0  0
 44166  1  0  0  0
 44167  1  0  0  0
 45168  1  0  0  0
 45169  1  0  0  0
 46170  1  0  0  0
 46171  1  0  0  0
 48172  1  0  0  0
 51173  1  0  0  0
 51174  1  0  0  0
 52175  1  0  0  0
 52176  1  0  0  0
 53177  1  0  0  0
 53178  1  0  0  0
 55179  1  0  0  0
 58180  1  0  0  0
 58181  1  0  0  0
 59182  1  0  0  0
 59183  1  0  0  0
 60184  1  0  0  0
 60185  1  0  0  0
 61186  1  0  0  0
 62187  1  0  0  0
 65188  1  0  0  0
 65189  1  0  0  0
 67190  1  0  0  0
 68191  1  0  0  0
 69192  1  0  0  0
 70193  1  0  0  0
 72194  1  0  0  0
 73195  1  0  0  0
 74196  1  0  0  0
 77197  1  0  0  0
 77198  1  0  0  0
 78199  1  0  0  0
 79200  1  0  0  0
 80201  1  0  0  0
 83202  1  0  0  0
 83203  1  0  0  0
 84204  1  0  0  0
 84205  1  0  0  0
 85206  1  0  0  0
 85207  1  0  0  0
 86208  1  0  0  0
 88209  1  0  0  0
 88210  1  0  0  0
 89211  1  0  0  0
 90212  1  0  0  0
 91213  1  0  0  0
 94214  1  0  0  0
 94215  1  0  0  0
 96216  1  0  0  0
 97217  1  0  0  0
 98218  1  0  0  0
 99219  1  0  0  0
101220  1  0  0  0
103221  1  0  0  0
106222  1  0  0  0
106223  1  0  0  0
107224  1  0  0  0
107225  1  0  0  0
108226  1  0  0  0
108227  1  0  0  0
109228  1  0  0  0
110229  1  0  0  0
113230  1  0  0  0
113231  1  0  0  0
114232  1  0  0  0
114233  1  0  0  0
116234  1  0  0  0
116235  1  0  0  0
116236  1  0  0  0
117237  1  0  0  0
118238  1  0  0  0
120239  1  0  0  0
121240  1  0  0  0
121241  1  0  0  0
124242  1  0  0  0
M  END
$$$$
