### 
### Created by X-TOOL on Mon Sep 10 21:13:12 2018
### 

@<TRIPOS>MOLECULE
2lty_ligand
  239   245     1     0     0
SMALL
GAST_HUCK


@<TRIPOS>ATOM
      1 N          -0.8920  -12.1020   -3.2330 N.4       1 GLU         0.2380
      2 CA          0.1120  -11.8380   -4.2900 C.3       1 GLU         0.0665
      3 C           1.3730  -12.6740   -4.0710 C.2       1 GLU         0.2268
      4 O           2.1630  -12.8570   -4.9950 O.2       1 GLU        -0.3907
      5 CB          0.4780  -10.3470   -4.3340 C.3       1 GLU         0.0194
      6 CG         -0.7230   -9.4140   -4.2960 C.3       1 GLU         0.0075
      7 CD         -1.8410   -9.8600   -5.2140 C.2       1 GLU         0.0351
      8 OE1        -1.8090   -9.5260   -6.4160 O.co2     1 GLU        -0.5690
      9 OE2        -2.7500  -10.5660   -4.7310 O.co2     1 GLU        -0.5690
     10 N           1.5770  -13.1410   -2.8320 N.am      1 LEU        -0.2610
     11 CA          2.7250  -13.9900   -2.4740 C.3       1 LEU         0.1313
     12 C           4.0480  -13.2260   -2.5810 C.2       1 LEU         0.2039
     13 O           5.1270  -13.8110   -2.4600 O.2       1 LEU        -0.3944
     14 CB          2.7700  -15.2470   -3.3580 C.3       1 LEU        -0.0101
     15 CG          1.5610  -16.1820   -3.2340 C.3       1 LEU        -0.0425
     16 CD1         1.7090  -17.3660   -4.1770 C.3       1 LEU        -0.0625
     17 CD2         1.3980  -16.6630   -1.7990 C.3       1 LEU        -0.0625
     18 N           3.9530  -11.9160   -2.7590 N.am      1 GLU        -0.2636
     19 CA          5.1250  -11.0590   -2.8880 C.3       1 GLU         0.1325
     20 C           5.7840  -10.8200   -1.5340 C.2       1 GLU         0.2041
     21 O           5.1230  -10.8890   -0.4950 O.2       1 GLU        -0.3944
     22 CB          4.7210   -9.7200   -3.5080 C.3       1 GLU        -0.0008
     23 CG          4.4960   -9.7840   -5.0070 C.3       1 GLU         0.0044
     24 CD          5.7760  -10.0560   -5.7660 C.2       1 GLU         0.0350
     25 OE1         6.6270   -9.1440   -5.8430 O.co2     1 GLU        -0.5690
     26 OE2         5.9490  -11.1840   -6.2710 O.co2     1 GLU        -0.5690
     27 N           7.0810  -10.5290   -1.5610 N.am      1 SER        -0.2616
     28 CA          7.8240  -10.1650   -0.3600 C.3       1 SER         0.1541
     29 C           7.1560   -8.9560    0.2930 C.2       1 SER         0.2087
     30 O           6.6490   -8.0850   -0.4090 O.2       1 SER        -0.3941
     31 CB          9.2800   -9.8440   -0.7360 C.3       1 SER         0.0843
     32 OG         10.0720   -9.5660    0.4110 O.3       1 SER        -0.3903
     33 N           7.1630   -8.8800    1.6360 N.am      1 PRO        -0.2498
     34 CA          6.4720   -7.8180    2.3820 C.3       1 PRO         0.1340
     35 C           6.7760   -6.4220    1.8420 C.2       1 PRO         0.2066
     36 O           7.9360   -6.0920    1.5770 O.2       1 PRO        -0.3942
     37 CB          7.0330   -7.9700    3.7920 C.3       1 PRO        -0.0104
     38 CG          7.3520   -9.4160    3.8990 C.3       1 PRO        -0.0281
     39 CD          7.8280   -9.8350    2.5390 C.3       1 PRO         0.0369
     40 N           5.7250   -5.5950    1.6740 N.am      1 PRO        -0.2498
     41 CA          5.8360   -4.2520    1.0890 C.3       1 PRO         0.1340
     42 C           6.9460   -3.4090    1.7010 C.2       1 PRO         0.2066
     43 O           7.2600   -3.5340    2.8890 O.2       1 PRO        -0.3942
     44 CB          4.4830   -3.6260    1.4110 C.3       1 PRO        -0.0104
     45 CG          3.5470   -4.7690    1.4410 C.3       1 PRO        -0.0281
     46 CD          4.3230   -5.9120    2.0290 C.3       1 PRO         0.0369
     47 N           7.5210   -2.5100    0.8890 N.am      1 PRO        -0.2498
     48 CA          8.5900   -1.6070    1.3210 C.3       1 PRO         0.1340
     49 C           8.1490   -0.7530    2.5060 C.2       1 PRO         0.2066
     50 O           7.0330   -0.2240    2.5090 O.2       1 PRO        -0.3942
     51 CB          8.8360   -0.7360    0.0810 C.3       1 PRO        -0.0104
     52 CG          8.3270   -1.5460   -1.0580 C.3       1 PRO        -0.0281
     53 CD          7.1500   -2.2890   -0.5180 C.3       1 PRO         0.0369
     54 N           9.0200   -0.6060    3.5230 N.am      1 PRO        -0.2498
     55 CA          8.7030    0.1300    4.7500 C.3       1 PRO         0.1338
     56 C           8.0990    1.4990    4.4670 C.2       1 PRO         0.2042
     57 O           8.7180    2.3520    3.8270 O.2       1 PRO        -0.3944
     58 CB         10.0570    0.2690    5.4640 C.3       1 PRO        -0.0104
     59 CG         11.0850   -0.1910    4.4810 C.3       1 PRO        -0.0281
     60 CD         10.3850   -1.1410    3.5570 C.3       1 PRO         0.0369
     61 N           6.8850    1.6980    4.9490 N.am      1 TYR        -0.2621
     62 CA          6.1470    2.9090    4.6620 C.3       1 TYR         0.1390
     63 C           6.4220    3.9710    5.7170 C.2       1 TYR         0.2058
     64 O           6.1450    3.7710    6.8980 O.2       1 TYR        -0.3942
     65 CB          4.6490    2.6110    4.5950 C.3       1 TYR         0.0163
     66 CG          3.8430    3.7420    4.0110 C.ar      1 TYR        -0.0493
     67 CD1         3.7220    3.8800    2.6380 C.ar      1 TYR        -0.0685
     68 CD2         3.2080    4.6720    4.8250 C.ar      1 TYR        -0.0685
     69 CE1         2.9930    4.9090    2.0890 C.ar      1 TYR        -0.0398
     70 CE2         2.4750    5.7060    4.2790 C.ar      1 TYR        -0.0398
     71 CZ          2.3720    5.8150    2.9110 C.ar      1 TYR         0.0805
     72 OH          1.6510    6.8410    2.3630 O.3       1 TYR        -0.3376
     73 N           6.9810    5.0930    5.2880 N.am      1 SER        -0.2614
     74 CA          7.2160    6.2070    6.1880 C.3       1 SER         0.1539
     75 C           6.1610    7.2950    5.9770 C.2       1 SER         0.2062
     76 O           5.2350    7.4320    6.7770 O.2       1 SER        -0.3943
     77 CB          8.6200    6.7690    5.9710 C.3       1 SER         0.0843
     78 OG          9.6020    5.7540    6.1100 O.3       1 SER        -0.3903
     79 N           6.2840    8.0530    4.8900 N.am      1 ARG        -0.2637
     80 CA          5.2950    9.0760    4.5710 C.3       1 ARG         0.1311
     81 C           4.6510    8.8090    3.2130 C.2       1 ARG         0.2040
     82 O           3.4260    8.7710    3.0890 O.2       1 ARG        -0.3944
     83 CB          5.9250   10.4700    4.6000 C.3       1 ARG        -0.0092
     84 CG          4.9070   11.5900    4.4600 C.3       1 ARG        -0.0156
     85 CD          5.5580   12.9590    4.5410 C.3       1 ARG         0.0627
     86 NE          4.5920   14.0350    4.3370 N.pl3     1 ARG        -0.2723
     87 CZ          4.9270   15.3160    4.1980 C.cat     1 ARG         0.2882
     88 NH1         6.1970   15.6930    4.2830 N.pl3     1 ARG        -0.2849
     89 NH2         3.9870   16.2260    3.9880 N.pl3     1 ARG        -0.2849
     90 N           5.4870    8.6410    2.1950 N.am      1 TYR        -0.2621
     91 CA          5.0150    8.3560    0.8450 C.3       1 TYR         0.1392
     92 C           5.5310    6.9960    0.3880 C.2       1 TYR         0.2082
     93 O           6.6190    6.5760    0.7890 O.2       1 TYR        -0.3940
     94 CB          5.4710    9.4480   -0.1310 C.3       1 TYR         0.0164
     95 CG          4.7590   10.7740    0.0500 C.ar      1 TYR        -0.0493
     96 CD1         5.2480   11.7300    0.9250 C.ar      1 TYR        -0.0685
     97 CD2         3.6010   11.0700   -0.6600 C.ar      1 TYR        -0.0685
     98 CE1         4.6100   12.9420    1.0940 C.ar      1 TYR        -0.0398
     99 CE2         2.9560   12.2840   -0.5000 C.ar      1 TYR        -0.0398
    100 CZ          3.4660   13.2170    0.3790 C.ar      1 TYR         0.0805
    101 OH          2.8310   14.4280    0.5490 O.3       1 TYR        -0.3376
    102 N           4.7580    6.3010   -0.4580 N.am      1 PRO        -0.2497
    103 CA          5.1160    4.9650   -0.9560 C.3       1 PRO         0.1338
    104 C           6.2950    4.9860   -1.9260 C.2       1 PRO         0.2041
    105 O           6.3350    5.7890   -2.8580 O.2       1 PRO        -0.3944
    106 CB          3.8510    4.5100   -1.6830 C.3       1 PRO        -0.0104
    107 CG          3.1730    5.7710   -2.0860 C.3       1 PRO        -0.0281
    108 CD          3.4650    6.7600   -0.9970 C.3       1 PRO         0.0369
    109 N           7.2380    4.0830   -1.7110 N.am      1 MET        -0.2637
    110 CA          8.3950    3.9620   -2.5850 C.3       1 MET         0.1317
    111 C           8.7050    2.4860   -2.8330 C.2       1 MET         0.2035
    112 O           8.8760    1.7140   -1.8920 O.2       1 MET        -0.3944
    113 CB          9.6070    4.6900   -1.9800 C.3       1 MET        -0.0034
    114 CG         10.0570    4.1530   -0.6290 C.3       1 MET        -0.0024
    115 SD         11.4890    5.0350    0.0270 S.3       1 MET        -0.1639
    116 CE         10.8400    6.7020    0.1370 C.3       1 MET        -0.0181
    117 N           8.7610    2.0960   -4.1020 N.am      1 ASP        -0.2679
    118 CA          8.9710    0.7000   -4.4740 C.3       1 ASP         0.1057
    119 C          10.0730    0.5940   -5.5170 C.2       1 ASP         0.0618
    120 O           9.8980    1.1510   -6.6190 O.co2     1 ASP        -0.5665
    121 CB          7.6760    0.0920   -5.0210 C.3       1 ASP         0.0351
    122 CG          7.8220   -1.3740   -5.3910 C.2       1 ASP         0.0387
    123 OD1         7.8000   -2.2300   -4.4810 O.co2     1 ASP        -0.5688
    124 OD2         7.9410   -1.6820   -6.5970 O.co2     1 ASP        -0.5688
    125 OXT        11.1010   -0.0530   -5.2430 O.co2     1 ASP        -0.5665
    126 H          -1.1193  -13.0963   -3.2224 H         1 GLU         0.2015
    127 H          -0.5100  -11.8296   -2.3273 H         1 GLU         0.2015
    128 H          -1.7354  -11.5612   -3.4242 H         1 GLU         0.2015
    129 H          -0.3322  -12.1212   -5.2442 H         1 GLU         0.1099
    130 H           0.9963  -10.1688   -5.2762 H         1 GLU         0.0363
    131 H           1.0800  -10.1355   -3.4503 H         1 GLU         0.0363
    132 H          -0.3918   -8.4297   -4.6269 H         1 GLU         0.0434
    133 H          -1.1097   -9.4087   -3.2769 H         1 GLU         0.0434
    134 H           0.9061  -12.8971   -2.1034 H         1 LEU         0.1884
    135 H           2.5925  -14.2918   -1.4350 H         1 LEU         0.0800
    136 H           3.6407  -15.8203   -3.0397 H         1 LEU         0.0315
    137 H           2.7906  -14.9003   -4.3912 H         1 LEU         0.0315
    138 H           0.6662  -15.6250   -3.5118 H         1 LEU         0.0298
    139 H           1.7763  -17.0052   -5.2034 H         1 LEU         0.0232
    140 H           2.6139  -17.9188   -3.9248 H         1 LEU         0.0232
    141 H           0.8425  -18.0196   -4.0763 H         1 LEU         0.0232
    142 H           2.2945  -17.2029   -1.4941 H         1 LEU         0.0232
    143 H           1.2489  -15.8045   -1.1441 H         1 LEU         0.0232
    144 H           0.5343  -17.3248   -1.7349 H         1 LEU         0.0232
    145 H           3.0264  -11.4923   -2.8075 H         1 GLU         0.1883
    146 H           5.8446  -11.5615   -3.5344 H         1 GLU         0.0801
    147 H           5.5373   -9.0198   -3.3309 H         1 GLU         0.0330
    148 H           3.7785   -9.4203   -3.0498 H         1 GLU         0.0330
    149 H           4.1069   -8.8194   -5.3330 H         1 GLU         0.0433
    150 H           3.8011  -10.5986   -5.2111 H         1 GLU         0.0433
    151 H           7.5739  -10.5615   -2.4534 H         1 SER         0.1884
    152 H           7.8238  -10.9940    0.3477 H         1 SER         0.0823
    153 H           9.2821   -8.9617   -1.3760 H         1 SER         0.0606
    154 H           9.7026  -10.7120   -1.2421 H         1 SER         0.0606
    155 H          10.9714   -9.3708    0.1378 H         1 SER         0.2097
    156 H           5.3883   -7.9142    2.3155 H         1 PRO         0.0802
    157 H           6.3252   -7.6460    4.5549 H         1 PRO         0.0313
    158 H           7.9076   -7.3410    3.9582 H         1 PRO         0.0313
    159 H           6.4791   -9.9916    4.2069 H         1 PRO         0.0287
    160 H           8.1134   -9.5977    4.6575 H         1 PRO         0.0287
    161 H           8.9140   -9.8099    2.4491 H         1 PRO         0.0524
    162 H           7.5799  -10.8712    2.3092 H         1 PRO         0.0524
    163 H           6.0809   -4.3045    0.0282 H         1 PRO         0.0802
    164 H           4.1921   -2.8778    0.6736 H         1 PRO         0.0313
    165 H           4.4974   -3.0836    2.3564 H         1 PRO         0.0313
    166 H           3.1793   -5.0088    0.4433 H         1 PRO         0.0287
    167 H           2.6609   -4.5425    2.0340 H         1 PRO         0.0287
    168 H           4.1754   -6.0083    3.1047 H         1 PRO         0.0524
    169 H           4.0018   -6.8789    1.6416 H         1 PRO         0.0524
    170 H           9.4807   -2.1365    1.6592 H         1 PRO         0.0802
    171 H           9.8904   -0.4863   -0.0373 H         1 PRO         0.0313
    172 H           8.3293    0.2263    0.1535 H         1 PRO         0.0313
    173 H           9.0894   -2.2250   -1.4398 H         1 PRO         0.0287
    174 H           8.0509   -0.9181   -1.9051 H         1 PRO         0.0287
    175 H           6.2147   -1.7403   -0.6289 H         1 PRO         0.0524
    176 H           6.9512   -3.2165   -1.0549 H         1 PRO         0.0524
    177 H           7.9542   -0.3907    5.3469 H         1 PRO         0.0802
    178 H          10.0869   -0.3261    6.3767 H         1 PRO         0.0313
    179 H          10.2378    1.2981    5.7744 H         1 PRO         0.0313
    180 H          11.9205   -0.6770    4.9848 H         1 PRO         0.0287
    181 H          11.5082    0.6505    3.9324 H         1 PRO         0.0287
    182 H          10.8465   -1.1946    2.5710 H         1 PRO         0.0524
    183 H          10.4289   -2.1759    3.8963 H         1 PRO         0.0524
    184 H           6.4584    0.9817    5.5367 H         1 TYR         0.1885
    185 H           6.4766    3.2900    3.6954 H         1 TYR         0.0821
    186 H           4.2991    2.4487    5.6145 H         1 TYR         0.0453
    187 H           4.5140    1.7426    3.9503 H         1 TYR         0.0453
    188 H           4.2127    3.1612    1.9818 H         1 TYR         0.0530
    189 H           3.2898    4.5838    5.9083 H         1 TYR         0.0530
    190 H           2.9091    5.0042    1.0064 H         1 TYR         0.0525
    191 H           1.9814    6.4308    4.9263 H         1 TYR         0.0525
    192 H           2.0302    7.6792    2.6371 H         1 TYR         0.2458
    193 H           7.2510    5.1753    4.3078 H         1 SER         0.1884
    194 H           7.1389    5.8516    7.2155 H         1 SER         0.0823
    195 H           8.8068    7.5405    6.7179 H         1 SER         0.0606
    196 H           8.6806    7.1780    4.9625 H         1 SER         0.0606
    197 H          10.4732    6.1318    5.9693 H         1 SER         0.2097
    198 H           7.0826    7.9162    4.2703 H         1 ARG         0.1883
    199 H           4.5154    9.0356    5.3317 H         1 ARG         0.0800
    200 H           6.6113   10.5400    3.7561 H         1 ARG         0.0313
    201 H           6.4175   10.5899    5.5650 H         1 ARG         0.0313
    202 H           4.1892   11.5038    5.2757 H         1 ARG         0.0301
    203 H           4.4273   11.4964    3.4857 H         1 ARG         0.0301
    204 H           6.3132   13.0250    3.7578 H         1 ARG         0.0689
    205 H           5.9913   13.0729    5.5347 H         1 ARG         0.0689
    206 H           3.6024   13.7908    4.2988 H         1 ARG         0.2642
    207 H           6.9245   14.9992    4.4560 H         1 ARG         0.2615
    208 H           6.4454   16.6764    4.1753 H         1 ARG         0.2615
    209 H           3.0081   15.9447    3.9330 H         1 ARG         0.2615
    210 H           4.2423   17.2077    3.8813 H         1 ARG         0.2615
    211 H           6.4905    8.7136    2.3626 H         1 TYR         0.1885
    212 H           3.9252    8.3386    0.8566 H         1 TYR         0.0821
    213 H           5.2468    9.0956   -1.1378 H         1 TYR         0.0453
    214 H           6.5312    9.6229    0.0521 H         1 TYR         0.0453
    215 H           6.1553   11.5207    1.4917 H         1 TYR         0.0530
    216 H           3.1945   10.3341   -1.3538 H         1 TYR         0.0530
    217 H           5.0102   13.6786    1.7907 H         1 TYR         0.0525
    218 H           2.0499   12.5018   -1.0654 H         1 TYR         0.0525
    219 H           3.3139   14.9540    1.1908 H         1 TYR         0.2458
    220 H           5.4302    4.3085   -0.1446 H         1 PRO         0.0802
    221 H           3.2165    3.8923   -1.0474 H         1 PRO         0.0313
    222 H           4.0801    3.8791   -2.5418 H         1 PRO         0.0313
    223 H           2.1002    5.6221   -2.2083 H         1 PRO         0.0287
    224 H           3.5367    6.1253   -3.0505 H         1 PRO         0.0287
    225 H           3.5037    7.7863   -1.3622 H         1 PRO         0.0524
    226 H           2.6825    6.7919   -0.2389 H         1 PRO         0.0524
    227 H           7.1516    3.4553   -0.9117 H         1 MET         0.1883
    228 H           8.1698    4.4327   -3.5420 H         1 MET         0.0800
    229 H           9.3119    5.7282   -1.8280 H         1 MET         0.0320
    230 H          10.4389    4.5524   -2.6708 H         1 MET         0.0320
    231 H          10.3380    3.1081   -0.7602 H         1 MET         0.0378
    232 H           9.2337    4.2808    0.0738 H         1 MET         0.0378
    233 H          10.5370    7.0387   -0.8544 H         1 MET         0.0340
    234 H           9.9784    6.7118    0.8045 H         1 MET         0.0340
    235 H          11.6113    7.3658    0.5275 H         1 MET         0.0340
    236 H           8.6540    2.7933   -4.8387 H         1 ASP         0.1876
    237 H           9.2702    0.1469   -3.5837 H         1 ASP         0.0745
    238 H           7.4073    0.6385   -5.9250 H         1 ASP         0.0471
    239 H           6.9183    0.1648   -4.2408 H         1 ASP         0.0471
@<TRIPOS>BOND
     1    1    2 1  
     2    2    3 1  
     3    2    5 1  
     4    3    4 2  
     5    3   10 am 
     6    5    6 1  
     7    6    7 1  
     8    7    8 ar 
     9    7    9 ar 
    10   10   11 1  
    11   11   12 1  
    12   11   14 1  
    13   12   13 2  
    14   12   18 am 
    15   14   15 1  
    16   15   16 1  
    17   15   17 1  
    18   18   19 1  
    19   19   20 1  
    20   19   22 1  
    21   20   21 2  
    22   20   27 am 
    23   22   23 1  
    24   23   24 1  
    25   24   25 ar 
    26   24   26 ar 
    27   27   28 1  
    28   28   29 1  
    29   28   31 1  
    30   29   30 2  
    31   29   33 am 
    32   31   32 1  
    33   33   34 1  
    34   33   39 1  
    35   34   35 1  
    36   34   37 1  
    37   35   36 2  
    38   35   40 am 
    39   37   38 1  
    40   38   39 1  
    41   40   41 1  
    42   40   46 1  
    43   41   42 1  
    44   41   44 1  
    45   42   43 2  
    46   42   47 am 
    47   44   45 1  
    48   45   46 1  
    49   47   48 1  
    50   47   53 1  
    51   48   49 1  
    52   48   51 1  
    53   49   50 2  
    54   49   54 am 
    55   51   52 1  
    56   52   53 1  
    57   54   55 1  
    58   54   60 1  
    59   55   56 1  
    60   55   58 1  
    61   56   57 2  
    62   56   61 am 
    63   58   59 1  
    64   59   60 1  
    65   61   62 1  
    66   62   63 1  
    67   62   65 1  
    68   63   64 2  
    69   63   73 am 
    70   65   66 1  
    71   66   67 ar 
    72   66   68 ar 
    73   67   69 ar 
    74   68   70 ar 
    75   69   71 ar 
    76   70   71 ar 
    77   71   72 1  
    78   73   74 1  
    79   74   75 1  
    80   74   77 1  
    81   75   76 2  
    82   75   79 am 
    83   77   78 1  
    84   79   80 1  
    85   80   81 1  
    86   80   83 1  
    87   81   82 2  
    88   81   90 am 
    89   83   84 1  
    90   84   85 1  
    91   85   86 1  
    92   86   87 ar 
    93   87   88 ar 
    94   87   89 ar 
    95   90   91 1  
    96   91   92 1  
    97   91   94 1  
    98   92   93 2  
    99   92  102 am 
   100   94   95 1  
   101   95   96 ar 
   102   95   97 ar 
   103   96   98 ar 
   104   97   99 ar 
   105   98  100 ar 
   106   99  100 ar 
   107  100  101 1  
   108  102  103 1  
   109  102  108 1  
   110  103  104 1  
   111  103  106 1  
   112  104  105 2  
   113  104  109 am 
   114  106  107 1  
   115  107  108 1  
   116  109  110 1  
   117  110  111 1  
   118  110  113 1  
   119  111  112 2  
   120  111  117 am 
   121  113  114 1  
   122  114  115 1  
   123  115  116 1  
   124  117  118 1  
   125  118  119 1  
   126  118  121 1  
   127  119  120 ar 
   128  119  125 ar 
   129  121  122 1  
   130  122  123 ar 
   131  122  124 ar 
   132    1  126 1  
   133    1  127 1  
   134    1  128 1  
   135    2  129 1  
   136    5  130 1  
   137    5  131 1  
   138    6  132 1  
   139    6  133 1  
   140   10  134 1  
   141   11  135 1  
   142   14  136 1  
   143   14  137 1  
   144   15  138 1  
   145   16  139 1  
   146   16  140 1  
   147   16  141 1  
   148   17  142 1  
   149   17  143 1  
   150   17  144 1  
   151   18  145 1  
   152   19  146 1  
   153   22  147 1  
   154   22  148 1  
   155   23  149 1  
   156   23  150 1  
   157   27  151 1  
   158   28  152 1  
   159   31  153 1  
   160   31  154 1  
   161   32  155 1  
   162   34  156 1  
   163   37  157 1  
   164   37  158 1  
   165   38  159 1  
   166   38  160 1  
   167   39  161 1  
   168   39  162 1  
   169   41  163 1  
   170   44  164 1  
   171   44  165 1  
   172   45  166 1  
   173   45  167 1  
   174   46  168 1  
   175   46  169 1  
   176   48  170 1  
   177   51  171 1  
   178   51  172 1  
   179   52  173 1  
   180   52  174 1  
   181   53  175 1  
   182   53  176 1  
   183   55  177 1  
   184   58  178 1  
   185   58  179 1  
   186   59  180 1  
   187   59  181 1  
   188   60  182 1  
   189   60  183 1  
   190   61  184 1  
   191   62  185 1  
   192   65  186 1  
   193   65  187 1  
   194   67  188 1  
   195   68  189 1  
   196   69  190 1  
   197   70  191 1  
   198   72  192 1  
   199   73  193 1  
   200   74  194 1  
   201   77  195 1  
   202   77  196 1  
   203   78  197 1  
   204   79  198 1  
   205   80  199 1  
   206   83  200 1  
   207   83  201 1  
   208   84  202 1  
   209   84  203 1  
   210   85  204 1  
   211   85  205 1  
   212   86  206 1  
   213   88  207 1  
   214   88  208 1  
   215   89  209 1  
   216   89  210 1  
   217   90  211 1  
   218   91  212 1  
   219   94  213 1  
   220   94  214 1  
   221   96  215 1  
   222   97  216 1  
   223   98  217 1  
   224   99  218 1  
   225  101  219 1  
   226  103  220 1  
   227  106  221 1  
   228  106  222 1  
   229  107  223 1  
   230  107  224 1  
   231  108  225 1  
   232  108  226 1  
   233  109  227 1  
   234  110  228 1  
   235  113  229 1  
   236  113  230 1  
   237  114  231 1  
   238  114  232 1  
   239  116  233 1  
   240  116  234 1  
   241  116  235 1  
   242  117  236 1  
   243  118  237 1  
   244  121  238 1  
   245  121  239 1  
@<TRIPOS>SUBSTRUCTURE
     1 GLU         1

