3qbn_ligand
  -I-interpret- 

 42 44  0  0  0  0  0  0  0  0999 V2000
   -2.9690   33.1570   -7.6050 N   0  0  0  0  0
   -3.0740   33.2420   -6.2690 C   0  0  0  0  0
   -3.7000   32.2570   -5.6190 N   0  0  0  0  0
   -4.1990   31.1730   -6.2340 C   0  0  0  0  0
   -4.0650   31.0860   -7.6210 C   0  0  0  0  0
   -3.4350   32.1260   -8.2770 C   0  0  0  0  0
   -0.0660   37.9720    3.4700 C   0  0  0  0  0
   -2.3920   33.7190   -3.2560 C   0  0  0  0  0
   -1.1750   35.5660   -4.1970 C   0  0  0  0  0
   -1.8240   33.9850   -2.0000 C   0  0  0  0  0
   -0.6110   35.8380   -2.9450 C   0  0  0  0  0
    0.2520   36.7890    1.3290 C   0  0  0  0  0
   -0.6030   36.6340    0.0210 C   0  0  0  0  0
   -4.8530   29.8900   -2.9030 C   0  0  0  0  0
   -6.2380   29.4750   -3.4620 C   0  0  0  0  0
   -2.5850   34.3330   -5.6250 N   0  0  0  0  0
   -4.8030   30.2280   -5.4750 N   0  0  0  0  0
   -0.5190   36.8900    2.5900 O   0  0  0  0  0
   -0.3630   35.3140   -0.5980 O   0  0  0  0  0
   -2.0700   34.5030   -4.3760 C   0  0  0  0  0
   -0.9350   35.0580   -1.8300 C   0  0  0  0  0
   -5.4570   30.5970   -4.1500 C   0  0  0  0  0
   -4.6620   29.7490   -8.5480 Cl  0  0  0  0  0
   -3.3230   32.0922   -9.3607 H   0  0  0  0  0
    0.9776   37.8077    3.7381 H   0  0  0  0  0
   -0.1633   38.9255    2.9510 H   0  0  0  0  0
   -0.6768   37.9842    4.3727 H   0  0  0  0  0
   -3.0934   32.8916   -3.3636 H   0  0  0  0  0
   -0.9128   36.1933   -5.0490 H   0  0  0  0  0
   -2.0757   33.3524   -1.1488 H   0  0  0  0  0
    0.0886   36.6670   -2.8378 H   0  0  0  0  0
    0.8045   37.7232    1.2285 H   0  0  0  0  0
    0.8602   35.8881    1.4096 H   0  0  0  0  0
   -0.3171   37.4141   -0.6845 H   0  0  0  0  0
   -1.6594   36.7200    0.2752 H   0  0  0  0  0
   -3.9174   29.4273   -2.5890 H   0  0  0  0  0
   -4.3915   30.1491   -1.9501 H   0  0  0  0  0
   -7.2460   29.2993   -3.0862 H   0  0  0  0  0
   -6.7601   28.5597   -3.7409 H   0  0  0  0  0
   -2.6078   35.1869   -6.1825 H   0  0  0  0  0
   -4.8201   29.2593   -5.7939 H   0  0  0  0  0
   -5.6787   31.6282   -4.4249 H   0  0  0  0  0
  2  1  4  0  0  0
  1  6  4  0  0  0
  2  3  4  0  0  0
 16  2  1  0  0  0
  3  4  4  0  0  0
  4  5  4  0  0  0
  4 17  1  0  0  0
  6  5  4  0  0  0
  5 23  1  0  0  0
 18  7  1  0  0  0
 10  8  4  0  0  0
  8 20  4  0  0  0
 11  9  4  0  0  0
  9 20  4  0  0  0
 21 10  4  0  0  0
 21 11  4  0  0  0
 13 12  1  0  0  0
 12 18  1  0  0  0
 19 13  1  0  0  0
 15 14  1  0  0  0
 22 14  1  0  0  0
 22 15  1  0  0  0
 20 16  1  0  0  0
 17 22  1  0  0  0
 19 21  1  0  0  0
  6 24  1  0  0  0
  7 25  1  0  0  0
  7 26  1  0  0  0
  7 27  1  0  0  0
  8 28  1  0  0  0
  9 29  1  0  0  0
 10 30  1  0  0  0
 11 31  1  0  0  0
 12 32  1  0  0  0
 12 33  1  0  0  0
 13 34  1  0  0  0
 13 35  1  0  0  0
 14 36  1  0  0  0
 14 37  1  0  0  0
 15 38  1  0  0  0
 15 39  1  0  0  0
 16 40  1  0  0  0
 17 41  1  0  0  0
 22 42  1  0  0  0
M  END
$$$$
