4kzc_ligand
  -I-interpret- 

 36 38  0  0  0  0  0  0  0  0999 V2000
   25.1360   13.3580   18.6920 F   0  0  0  0  0
   26.2740   13.5650   19.3510 C   0  0  0  0  0
   26.4640   14.8800   19.4020 F   0  0  0  0  0
   27.2220   13.0810   18.5580 F   0  0  0  0  0
   26.2800   12.9270   20.7150 C   0  0  0  0  0
   27.3920   12.1870   21.3170 C   0  0  0  0  0
   28.5870   12.1170   20.7240 N   0  0  0  0  0
   27.2400   11.5760   22.5150 N   0  0  0  0  0
   26.0670   11.6610   23.1560 C   0  0  0  0  0
   25.0960   13.0060   21.4470 C   0  0  0  0  0
   24.9690   12.3650   22.6780 C   0  0  0  0  0
   23.6460   12.3170   23.3720 C   0  0  0  0  0
   22.6120   13.1820   23.0070 C   0  0  0  0  0
   23.4120   11.3780   24.4520 C   0  0  0  0  0
   22.2270   11.2640   25.0920 C   0  0  0  0  0
   21.1590   12.1060   24.6980 C   0  0  0  0  0
   21.3870   13.0730   23.6550 N   0  0  0  0  0
   20.2010   13.7400   23.4420 C   0  0  0  0  0
   19.8940   12.1480   25.1120 N   0  0  0  0  0
   19.2790   13.1530   24.3360 C   0  0  0  0  0
   17.9200   13.3810   24.5400 N   0  0  0  0  0
   17.1150   14.3470   23.9980 C   0  0  0  0  0
   17.5570   15.2530   23.2980 O   0  0  0  0  0
   15.6660   14.2630   24.3740 C   0  0  0  0  0
   28.7415   12.5853   19.8311 H   0  0  0  0  0
   29.3449   11.5952   21.1641 H   0  0  0  0  0
   25.9679   11.1461   24.1116 H   0  0  0  0  0
   24.2570   13.5778   21.0505 H   0  0  0  0  0
   22.7629   13.9292   22.2279 H   0  0  0  0  0
   24.2328   10.7318   24.7632 H   0  0  0  0  0
   22.0962   10.5387   25.8951 H   0  0  0  0  0
   20.0141   14.5480   22.7347 H   0  0  0  0  0
   17.4597   12.7377   25.1839 H   0  0  0  0  0
   15.3834   15.1577   24.9287 H   0  0  0  0  0
   15.0612   14.1881   23.4703 H   0  0  0  0  0
   15.5037   13.3823   24.9954 H   0  0  0  0  0
  1  2  1  0  0  0
  2  3  1  0  0  0
  2  4  1  0  0  0
  2  5  1  0  0  0
  5  6  4  0  0  0
  5 10  4  0  0  0
  6  7  1  0  0  0
  6  8  4  0  0  0
  8  9  4  0  0  0
  9 11  4  0  0  0
 10 11  4  0  0  0
 11 12  1  0  0  0
 12 13  4  0  0  0
 12 14  4  0  0  0
 13 17  4  0  0  0
 14 15  4  0  0  0
 15 16  4  0  0  0
 16 17  4  0  0  0
 16 19  4  0  0  0
 17 18  4  0  0  0
 18 20  4  0  0  0
 19 20  4  0  0  0
 20 21  1  0  0  0
 21 22  1  0  0  0
 22 23  2  0  0  0
 22 24  1  0  0  0
  7 25  1  0  0  0
  7 26  1  0  0  0
  9 27  1  0  0  0
 10 28  1  0  0  0
 13 29  1  0  0  0
 14 30  1  0  0  0
 15 31  1  0  0  0
 18 32  1  0  0  0
 21 33  1  0  0  0
 24 34  1  0  0  0
 24 35  1  0  0  0
 24 36  1  0  0  0
M  END
$$$$
