### 
### Created by X-TOOL on Mon Sep 10 21:13:08 2018
### 

@<TRIPOS>MOLECULE
2l7u_ligand
  117   117     1     0     0
SMALL
GAST_HUCK


@<TRIPOS>ATOM
      1 N          11.3440  -10.6260   -6.6430 N.4       1 ASP         0.2391
      2 CA         10.1920  -11.5090   -6.7850 C.3       1 ASP         0.0764
      3 C           8.9190  -10.8260   -6.2920 C.2       1 ASP         0.2284
      4 O           7.9230  -10.7560   -7.0100 O.2       1 ASP        -0.3906
      5 CB         10.4200  -12.8090   -6.0120 C.3       1 ASP         0.0607
      6 CG          9.2610  -13.7760   -6.1500 C.2       1 ASP         0.0425
      7 OD1         8.2820  -13.6420   -5.3870 O.co2     1 ASP        -0.5686
      8 OD2         9.3310  -14.6670   -7.0230 O.co2     1 ASP        -0.5686
      9 N           8.9630  -10.3250   -5.0630 N.am      1 GLU        -0.2608
     10 CA          7.8120   -9.6480   -4.4720 C.3       1 GLU         0.1326
     11 C           8.1830   -8.2400   -4.0190 C.2       1 GLU         0.2041
     12 O           8.2090   -7.9460   -2.8240 O.2       1 GLU        -0.3944
     13 CB          7.2730  -10.4520   -3.2870 C.3       1 GLU        -0.0008
     14 CG          8.3600  -11.0030   -2.3790 C.3       1 GLU         0.0044
     15 CD          8.5070  -12.5080   -2.4880 C.2       1 GLU         0.0350
     16 OE1         7.4700  -13.2050   -2.4850 O.co2     1 GLU        -0.5690
     17 OE2         9.6550  -12.9880   -2.5770 O.co2     1 GLU        -0.5690
     18 N           8.4660   -7.3700   -4.9840 N.am      1 PHE        -0.2619
     19 CA          8.8370   -5.9910   -4.6860 C.3       1 PHE         0.1404
     20 C          10.0980   -5.9410   -3.8280 C.2       1 PHE         0.2060
     21 O          10.7340   -6.9300   -3.7120 O.2       1 PHE        -0.3942
     22 CB          7.6890   -5.2780   -3.9680 C.3       1 PHE         0.0214
     23 CG          7.1640   -4.0860   -4.7160 C.ar      1 PHE        -0.0386
     24 CD1         8.0260   -3.0970   -5.1640 C.ar      1 PHE        -0.0601
     25 CD2         5.8090   -3.9530   -4.9700 C.ar      1 PHE        -0.0601
     26 CE1         7.5460   -1.9990   -5.8520 C.ar      1 PHE        -0.0686
     27 CE2         5.3230   -2.8570   -5.6580 C.ar      1 PHE        -0.0686
     28 CZ          6.1920   -1.8790   -6.0990 C.ar      1 PHE        -0.0687
     29 N          10.3660   -4.8350   -3.3080 N.am      1 MCL        -0.2636
     30 CA         11.5380   -4.6230   -2.4670 C.3       1 MCL         0.1310
     31 CB         11.4030   -3.2900   -1.7000 C.3       1 MCL        -0.0122
     32 CG         11.6920   -2.1100   -2.6530 C.3       1 MCL        -0.0440
     33 CD         13.1370   -1.6140   -2.4430 C.3       1 MCL        -0.0123
     34 CE         13.3750   -0.3470   -3.2910 C.3       1 MCL        -0.0321
     35 NZ         12.7560    0.8130   -2.6360 N.4       1 MCL         0.2407
     36 CX1        12.7870    2.0050   -3.5770 C.3       1 MCL         0.0272
     37 C1         14.2150    2.5770   -3.6360 C.3       1 MCL        -0.0094
     38 CX2        11.7990    3.1270   -3.2080 C.2       1 MCL         0.0842
     39 O1         11.1270    3.6320   -4.4500 O.co2     1 MCL        -0.5643
     40 O2         11.5877    3.5550   -2.0419 O.co2     1 MCL        -0.5643
     41 C          11.6110   -5.7490   -1.4980 C.2       1 MCL         0.2039
     42 O          12.6380   -6.4200   -1.3770 O.2       1 MCL        -0.3944
     43 N          10.5110   -5.9750   -0.7870 N.am      1 ALA        -0.2640
     44 CA         10.4460   -7.0480    0.1970 C.3       1 ALA         0.1282
     45 C          10.8570   -8.3820   -0.4160 C.2       1 ALA         0.2037
     46 O          10.6990   -8.5990   -1.6180 O.2       1 ALA        -0.3944
     47 CB          9.0440   -7.1430    0.7810 C.3       1 ALA        -0.0244
     48 N          11.3860   -9.2720    0.4160 N.am      1 ASP        -0.2622
     49 CA         11.8200  -10.5860   -0.0450 C.3       1 ASP         0.1423
     50 C          12.2180  -11.4720    1.1330 C.2       1 ASP         0.2051
     51 O          13.1740  -11.1740    1.8480 O.2       1 ASP        -0.3943
     52 CB         12.9950  -10.4470   -1.0140 C.3       1 ASP         0.0406
     53 CG         13.4210  -11.7790   -1.6030 C.2       1 ASP         0.0393
     54 OD1        14.2230  -12.4830   -0.9560 O.co2     1 ASP        -0.5688
     55 OD2        12.9510  -12.1160   -2.7100 O.co2     1 ASP        -0.5688
     56 N          11.4770  -12.5580    1.3260 N.am      1 GLU        -0.2693
     57 CA         11.7520  -13.4850    2.4180 C.3       1 GLU         0.0959
     58 C          12.1390  -14.8590    1.8810 C.2       1 GLU         0.0602
     59 O          12.9290  -14.9710    0.9450 O.co2     1 GLU        -0.5666
     60 CB         10.5310  -13.6070    3.3320 C.3       1 GLU        -0.0064
     61 CG          9.2860  -14.1100    2.6210 C.3       1 GLU         0.0038
     62 CD          9.2400  -15.6220    2.5270 C.2       1 GLU         0.0350
     63 OE1         9.5210  -16.2890    3.5460 O.co2     1 GLU        -0.5690
     64 OE2         8.9230  -16.1410    1.4360 O.co2     1 GLU        -0.5690
     65 H          11.1769   -9.7647   -7.1633 H         1 ASP         0.2016
     66 H          11.4835  -10.4071   -5.6566 H         1 ASP         0.2016
     67 H          12.1744  -11.0908   -7.0101 H         1 ASP         0.2016
     68 H          10.0720  -11.7410   -7.8432 H         1 ASP         0.1117
     69 H          10.5259  -12.5589   -4.9564 H         1 ASP         0.0512
     70 H          11.3100  -13.2902   -6.4175 H         1 ASP         0.0512
     71 H           9.8211  -10.4152   -4.5189 H         1 GLU         0.1885
     72 H           7.0360   -9.5729   -5.2338 H         1 GLU         0.0801
     73 H           6.7242  -11.3022   -3.6921 H         1 GLU         0.0330
     74 H           6.6582   -9.7794   -2.6890 H         1 GLU         0.0330
     75 H           8.0878  -10.7672   -1.3502 H         1 GLU         0.0433
     76 H           9.3061  -10.5520   -2.6782 H         1 GLU         0.0433
     77 H           8.4226   -7.6744   -5.9566 H         1 PHE         0.1885
     78 H           9.0400   -5.4822   -5.6283 H         1 PHE         0.0823
     79 H           8.0712   -4.9224   -3.0111 H         1 PHE         0.0474
     80 H           6.8701   -5.9908   -3.8706 H         1 PHE         0.0474
     81 H           9.0951   -3.1866   -4.9712 H         1 PHE         0.0557
     82 H           5.1179   -4.7214   -4.6234 H         1 PHE         0.0557
     83 H           8.2346   -1.2287   -6.1993 H         1 PHE         0.0599
     84 H           4.2544   -2.7649   -5.8522 H         1 PHE         0.0599
     85 H           5.8105   -1.0137   -6.6411 H         1 PHE         0.0559
     86 H           9.7387   -4.0492   -3.4795 H         1 MCL         0.1883
     87 H          12.4393   -4.5812   -3.0786 H         1 MCL         0.0800
     88 H          12.1171   -3.2729   -0.8767 H         1 MCL         0.0312
     89 H          10.3896   -3.1990   -1.3091 H         1 MCL         0.0312
     90 H          10.9969   -1.2972   -2.4427 H         1 MCL         0.0269
     91 H          11.5698   -2.4404   -3.6845 H         1 MCL         0.0269
     92 H          13.8361   -2.3923   -2.7489 H         1 MCL         0.0317
     93 H          13.2911   -1.3801   -1.3896 H         1 MCL         0.0317
     94 H          12.9306   -0.4841   -4.2768 H         1 MCL         0.0814
     95 H          14.4469   -0.1756   -3.3903 H         1 MCL         0.0814
     96 H          13.2728    1.0383   -1.7860 H         1 MCL         0.2030
     97 H          11.7886    0.5927   -2.3993 H         1 MCL         0.2030
     98 H          12.4718    1.6307   -4.5510 H         1 MCL         0.1022
     99 H          14.5198    2.8934   -2.6385 H         1 MCL         0.0303
    100 H          14.8979    1.8091   -3.9995 H         1 MCL         0.0303
    101 H          14.2349    3.4321   -4.3117 H         1 MCL         0.0303
    102 O3         11.6429  -15.8929    2.4031 O.co2     1 GLU        -0.5666
    103 H           9.6931   -5.3835   -0.9335 H         1 ALA         0.1883
    104 H          11.1475   -6.8156    0.9983 H         1 ALA         0.0797
    105 H           8.7883   -6.1999    1.2639 H         1 ALA         0.0277
    106 H           8.3319   -7.3482   -0.0184 H         1 ALA         0.0277
    107 H           9.0111   -7.9488    1.5143 H         1 ALA         0.0277
    108 H          11.4913   -9.0307    1.4014 H         1 ASP         0.1884
    109 H          10.9844  -11.0560   -0.5636 H         1 ASP         0.0819
    110 H          13.8405  -10.0370   -0.4616 H         1 ASP         0.0478
    111 H          12.6809   -9.8011   -1.8339 H         1 ASP         0.0478
    112 H          10.6977  -12.7478    0.6958 H         1 GLU         0.1875
    113 H          12.5895  -13.0906    2.9934 H         1 GLU         0.0727
    114 H          10.3086  -12.6109    3.7146 H         1 GLU         0.0323
    115 H          10.7767  -14.3292    4.1106 H         1 GLU         0.0323
    116 H           9.2943  -13.7108    1.6068 H         1 GLU         0.0432
    117 H           8.4176  -13.7827    3.1928 H         1 GLU         0.0432
@<TRIPOS>BOND
     1    1    2 1  
     2    2    3 1  
     3    2    5 1  
     4    3    4 2  
     5    3    9 am 
     6    5    6 1  
     7    6    7 ar 
     8    6    8 ar 
     9    9   10 1  
    10   10   11 1  
    11   10   13 1  
    12   11   12 2  
    13   11   18 am 
    14   13   14 1  
    15   14   15 1  
    16   15   16 ar 
    17   15   17 ar 
    18   18   19 1  
    19   19   20 1  
    20   19   22 1  
    21   20   21 2  
    22   20   29 am 
    23   22   23 1  
    24   23   24 ar 
    25   23   25 ar 
    26   24   26 ar 
    27   25   27 ar 
    28   26   28 ar 
    29   27   28 ar 
    30   29   30 1  
    31   30   31 1  
    32   30   41 1  
    33   31   32 1  
    34   32   33 1  
    35   33   34 1  
    36   34   35 1  
    37   35   36 1  
    38   36   37 1  
    39   36   38 1  
    40   38   39 ar 
    41   38   40 ar 
    42   41   42 2  
    43   41   43 am 
    44   43   44 1  
    45   44   45 1  
    46   44   47 1  
    47   45   46 2  
    48   45   48 am 
    49   48   49 1  
    50   49   50 1  
    51   49   52 1  
    52   50   51 2  
    53   50   56 am 
    54   52   53 1  
    55   53   54 ar 
    56   53   55 ar 
    57   56   57 1  
    58   57   58 1  
    59   57   60 1  
    60   58   59 ar 
    61   60   61 1  
    62   61   62 1  
    63   62   63 ar 
    64   62   64 ar 
    65    1   65 1  
    66    1   66 1  
    67    1   67 1  
    68    2   68 1  
    69    5   69 1  
    70    5   70 1  
    71    9   71 1  
    72   10   72 1  
    73   13   73 1  
    74   13   74 1  
    75   14   75 1  
    76   14   76 1  
    77   18   77 1  
    78   19   78 1  
    79   22   79 1  
    80   22   80 1  
    81   24   81 1  
    82   25   82 1  
    83   26   83 1  
    84   27   84 1  
    85   28   85 1  
    86   29   86 1  
    87   30   87 1  
    88   31   88 1  
    89   31   89 1  
    90   32   90 1  
    91   32   91 1  
    92   33   92 1  
    93   33   93 1  
    94   34   94 1  
    95   34   95 1  
    96   35   96 1  
    97   35   97 1  
    98   36   98 1  
    99   37   99 1  
   100   37  100 1  
   101   37  101 1  
   102   58  102 ar 
   103   43  103 1  
   104   44  104 1  
   105   47  105 1  
   106   47  106 1  
   107   47  107 1  
   108   48  108 1  
   109   49  109 1  
   110   52  110 1  
   111   52  111 1  
   112   56  112 1  
   113   57  113 1  
   114   60  114 1  
   115   60  115 1  
   116   61  116 1  
   117   61  117 1  
@<TRIPOS>SUBSTRUCTURE
     1 ASP         1

