2l7u_ligand
  -I-interpret- 

123123  0  0  0  0  0  0  0  0999 V2000
   11.3440  -10.6260   -6.6430 N   0  3  0  0  0
   10.1920  -11.5090   -6.7850 C   0  0  0  0  0
    8.9190  -10.8260   -6.2920 C   0  0  0  0  0
    7.9230  -10.7560   -7.0100 O   0  0  0  0  0
   10.4200  -12.8090   -6.0120 C   0  0  0  0  0
    9.2610  -13.7760   -6.1500 C   0  0  0  0  0
    8.2820  -13.6420   -5.3870 O   0  0  0  0  0
    9.3310  -14.6670   -7.0230 O   0  0  0  0  0
    8.9630  -10.3250   -5.0630 N   0  0  0  0  0
    7.8120   -9.6480   -4.4720 C   0  0  0  0  0
    8.1830   -8.2400   -4.0190 C   0  0  0  0  0
    8.2090   -7.9460   -2.8240 O   0  0  0  0  0
    7.2730  -10.4520   -3.2870 C   0  0  0  0  0
    8.3600  -11.0030   -2.3790 C   0  0  0  0  0
    8.5070  -12.5080   -2.4880 C   0  0  0  0  0
    7.4700  -13.2050   -2.4850 O   0  0  0  0  0
    9.6550  -12.9880   -2.5770 O   0  0  0  0  0
    8.4660   -7.3700   -4.9840 N   0  0  0  0  0
    8.8370   -5.9910   -4.6860 C   0  0  0  0  0
   10.0980   -5.9410   -3.8280 C   0  0  0  0  0
   10.7340   -6.9300   -3.7120 O   0  0  0  0  0
    7.6890   -5.2780   -3.9680 C   0  0  0  0  0
    7.1640   -4.0860   -4.7160 C   0  0  0  0  0
    8.0260   -3.0970   -5.1640 C   0  0  0  0  0
    5.8090   -3.9530   -4.9700 C   0  0  0  0  0
    7.5460   -1.9990   -5.8520 C   0  0  0  0  0
    5.3230   -2.8570   -5.6580 C   0  0  0  0  0
    6.1920   -1.8790   -6.0990 C   0  0  0  0  0
   10.3660   -4.8350   -3.3080 N   0  0  0  0  0
   11.5380   -4.6230   -2.4670 C   0  0  0  0  0
   11.4030   -3.2900   -1.7000 C   0  0  0  0  0
   11.6920   -2.1100   -2.6530 C   0  0  0  0  0
   13.1370   -1.6140   -2.4430 C   0  0  0  0  0
   13.3750   -0.3470   -3.2910 C   0  0  0  0  0
   12.7560    0.8130   -2.6360 N   0  3  0  0  0
   12.7870    2.0050   -3.5770 C   0  0  0  0  0
   14.2150    2.5770   -3.6360 C   0  0  0  0  0
   11.7990    3.1270   -3.2080 C   0  0  0  0  0
   11.1270    3.6320   -4.4500 O   0  0  0  0  0
   11.5877    3.5550   -2.0419 O   0  0  0  0  0
   11.6110   -5.7490   -1.4980 C   0  0  0  0  0
   12.6380   -6.4200   -1.3770 O   0  0  0  0  0
   10.5110   -5.9750   -0.7870 N   0  0  0  0  0
   10.4460   -7.0480    0.1970 C   0  0  0  0  0
   10.8570   -8.3820   -0.4160 C   0  0  0  0  0
   10.6990   -8.5990   -1.6180 O   0  0  0  0  0
    9.0440   -7.1430    0.7810 C   0  0  0  0  0
   11.3860   -9.2720    0.4160 N   0  0  0  0  0
   11.8200  -10.5860   -0.0450 C   0  0  0  0  0
   12.2180  -11.4720    1.1330 C   0  0  0  0  0
   13.1740  -11.1740    1.8480 O   0  0  0  0  0
   12.9950  -10.4470   -1.0140 C   0  0  0  0  0
   13.4210  -11.7790   -1.6030 C   0  0  0  0  0
   14.2230  -12.4830   -0.9560 O   0  0  0  0  0
   12.9510  -12.1160   -2.7100 O   0  0  0  0  0
   11.4770  -12.5580    1.3260 N   0  0  0  0  0
   11.7520  -13.4850    2.4180 C   0  0  0  0  0
   12.1390  -14.8590    1.8810 C   0  0  0  0  0
   12.9290  -14.9710    0.9450 O   0  0  0  0  0
   10.5310  -13.6070    3.3320 C   0  0  0  0  0
    9.2860  -14.1100    2.6210 C   0  0  0  0  0
    9.2400  -15.6220    2.5270 C   0  0  0  0  0
    9.5210  -16.2890    3.5460 O   0  0  0  0  0
    8.9230  -16.1410    1.4360 O   0  0  0  0  0
   11.6429  -15.8929    2.4031 O   0  0  0  0  0
   11.1769   -9.7647   -7.1633 H   0  0  0  0  0
   11.4835  -10.4071   -5.6566 H   0  0  0  0  0
   12.1744  -11.0908   -7.0101 H   0  0  0  0  0
   10.0720  -11.7410   -7.8432 H   0  0  0  0  0
   10.5259  -12.5589   -4.9564 H   0  0  0  0  0
   11.3100  -13.2902   -6.4175 H   0  0  0  0  0
   10.1643  -14.5880   -7.4932 H   0  0  0  0  0
    9.8211  -10.4152   -4.5189 H   0  0  0  0  0
    7.0360   -9.5729   -5.2338 H   0  0  0  0  0
    6.7242  -11.3022   -3.6921 H   0  0  0  0  0
    6.6582   -9.7794   -2.6890 H   0  0  0  0  0
    8.0878  -10.7672   -1.3502 H   0  0  0  0  0
    9.3061  -10.5520   -2.6782 H   0  0  0  0  0
    6.7022  -12.6339   -2.4084 H   0  0  0  0  0
    8.4226   -7.6744   -5.9566 H   0  0  0  0  0
    9.0400   -5.4822   -5.6283 H   0  0  0  0  0
    8.0712   -4.9224   -3.0111 H   0  0  0  0  0
    6.8701   -5.9908   -3.8706 H   0  0  0  0  0
    9.0951   -3.1866   -4.9712 H   0  0  0  0  0
    5.1179   -4.7214   -4.6234 H   0  0  0  0  0
    8.2346   -1.2287   -6.1993 H   0  0  0  0  0
    4.2544   -2.7649   -5.8522 H   0  0  0  0  0
    5.8105   -1.0137   -6.6411 H   0  0  0  0  0
    9.7387   -4.0492   -3.4795 H   0  0  0  0  0
   12.4393   -4.5812   -3.0786 H   0  0  0  0  0
   12.1171   -3.2729   -0.8767 H   0  0  0  0  0
   10.3896   -3.1990   -1.3091 H   0  0  0  0  0
   10.9969   -1.2972   -2.4427 H   0  0  0  0  0
   11.5698   -2.4404   -3.6845 H   0  0  0  0  0
   13.8361   -2.3923   -2.7489 H   0  0  0  0  0
   13.2911   -1.3801   -1.3896 H   0  0  0  0  0
   12.9306   -0.4841   -4.2768 H   0  0  0  0  0
   14.4469   -0.1756   -3.3903 H   0  0  0  0  0
   13.2728    1.0383   -1.7860 H   0  0  0  0  0
   11.7886    0.5927   -2.3993 H   0  0  0  0  0
   12.4718    1.6307   -4.5510 H   0  0  0  0  0
   14.5198    2.8934   -2.6385 H   0  0  0  0  0
   14.8979    1.8091   -3.9995 H   0  0  0  0  0
   14.2349    3.4321   -4.3117 H   0  0  0  0  0
   11.4566    3.1475   -5.2104 H   0  0  0  0  0
    9.6931   -5.3835   -0.9335 H   0  0  0  0  0
   11.1475   -6.8156    0.9983 H   0  0  0  0  0
    8.7883   -6.1999    1.2639 H   0  0  0  0  0
    8.3319   -7.3482   -0.0184 H   0  0  0  0  0
    9.0111   -7.9488    1.5143 H   0  0  0  0  0
   11.4913   -9.0307    1.4014 H   0  0  0  0  0
   10.9844  -11.0560   -0.5636 H   0  0  0  0  0
   13.8405  -10.0370   -0.4616 H   0  0  0  0  0
   12.6809   -9.8011   -1.8339 H   0  0  0  0  0
   12.3586  -11.4303   -3.0270 H   0  0  0  0  0
   10.6977  -12.7478    0.6958 H   0  0  0  0  0
   12.5895  -13.0906    2.9934 H   0  0  0  0  0
   10.3086  -12.6109    3.7146 H   0  0  0  0  0
   10.7767  -14.3292    4.1106 H   0  0  0  0  0
    9.2943  -13.7108    1.6068 H   0  0  0  0  0
    8.4176  -13.7827    3.1928 H   0  0  0  0  0
    9.7341  -15.6935    4.2682 H   0  0  0  0  0
   11.0509  -15.6382    3.1146 H   0  0  0  0  0
  1  2  1  0  0  0
  2  3  1  0  0  0
  2  5  1  0  0  0
  3  4  2  0  0  0
  3  9  1  0  0  0
  5  6  1  0  0  0
  6  7  2  0  0  0
  6  8  1  0  0  0
  9 10  1  0  0  0
 10 11  1  0  0  0
 10 13  1  0  0  0
 11 12  2  0  0  0
 11 18  1  0  0  0
 13 14  1  0  0  0
 14 15  1  0  0  0
 15 16  1  0  0  0
 15 17  2  0  0  0
 18 19  1  0  0  0
 19 20  1  0  0  0
 19 22  1  0  0  0
 20 21  2  0  0  0
 20 29  1  0  0  0
 22 23  1  0  0  0
 23 24  4  0  0  0
 23 25  4  0  0  0
 24 26  4  0  0  0
 25 27  4  0  0  0
 26 28  4  0  0  0
 27 28  4  0  0  0
 29 30  1  0  0  0
 30 31  1  0  0  0
 30 41  1  0  0  0
 31 32  1  0  0  0
 32 33  1  0  0  0
 33 34  1  0  0  0
 34 35  1  0  0  0
 35 36  1  0  0  0
 36 37  1  0  0  0
 36 38  1  0  0  0
 38 39  1  0  0  0
 38 40  2  0  0  0
 41 42  2  0  0  0
 41 43  1  0  0  0
 43 44  1  0  0  0
 44 45  1  0  0  0
 44 47  1  0  0  0
 45 46  2  0  0  0
 45 48  1  0  0  0
 48 49  1  0  0  0
 49 50  1  0  0  0
 49 52  1  0  0  0
 50 51  2  0  0  0
 50 56  1  0  0  0
 52 53  1  0  0  0
 53 54  2  0  0  0
 53 55  1  0  0  0
 56 57  1  0  0  0
 57 58  1  0  0  0
 57 60  1  0  0  0
 58 59  2  0  0  0
 60 61  1  0  0  0
 61 62  1  0  0  0
 62 63  1  0  0  0
 62 64  2  0  0  0
 58 65  1  0  0  0
  1 66  1  0  0  0
  1 67  1  0  0  0
  1 68  1  0  0  0
  2 69  1  0  0  0
  5 70  1  0  0  0
  5 71  1  0  0  0
  8 72  1  0  0  0
  9 73  1  0  0  0
 10 74  1  0  0  0
 13 75  1  0  0  0
 13 76  1  0  0  0
 14 77  1  0  0  0
 14 78  1  0  0  0
 16 79  1  0  0  0
 18 80  1  0  0  0
 19 81  1  0  0  0
 22 82  1  0  0  0
 22 83  1  0  0  0
 24 84  1  0  0  0
 25 85  1  0  0  0
 26 86  1  0  0  0
 27 87  1  0  0  0
 28 88  1  0  0  0
 29 89  1  0  0  0
 30 90  1  0  0  0
 31 91  1  0  0  0
 31 92  1  0  0  0
 32 93  1  0  0  0
 32 94  1  0  0  0
 33 95  1  0  0  0
 33 96  1  0  0  0
 34 97  1  0  0  0
 34 98  1  0  0  0
 35 99  1  0  0  0
 35100  1  0  0  0
 36101  1  0  0  0
 37102  1  0  0  0
 37103  1  0  0  0
 37104  1  0  0  0
 39105  1  0  0  0
 43106  1  0  0  0
 44107  1  0  0  0
 47108  1  0  0  0
 47109  1  0  0  0
 47110  1  0  0  0
 48111  1  0  0  0
 49112  1  0  0  0
 52113  1  0  0  0
 52114  1  0  0  0
 55115  1  0  0  0
 56116  1  0  0  0
 57117  1  0  0  0
 60118  1  0  0  0
 60119  1  0  0  0
 61120  1  0  0  0
 61121  1  0  0  0
 63122  1  0  0  0
 65123  1  0  0  0
M  END
$$$$
