3ti4_ligand
  -I-interpret- 

 50 50  0  0  0  0  0  0  0  0999 V2000
   29.5670   13.3780  -22.7790 C   0  0  0  0  0
   31.0040   13.6470  -22.5320 C   0  0  0  0  0
   31.3290   14.5130  -21.2880 C   0  0  0  0  0
   30.1860   14.5580  -20.2550 C   0  0  0  0  0
   28.7710   14.5230  -20.8810 C   0  0  0  0  0
   28.6370   13.5180  -21.8210 O   0  0  0  0  0
   29.1870   12.5060  -23.9290 C   0  0  0  0  0
   30.1800   11.9660  -24.6480 O   0  0  0  0  0
   28.0670   12.4120  -24.1740 O   0  0  0  0  0
   27.7160   14.3790  -19.8320 C   0  0  0  0  0
   26.4080   14.2930  -20.5380 C   0  0  0  0  0
   25.3630   13.8430  -19.5360 C   0  0  0  0  0
   24.4300   12.9300  -20.0160 O   0  0  0  0  0
   24.6250   11.6640  -20.0770 C   0  0  0  0  0
   24.8680   10.9640  -19.1020 O   0  0  0  0  0
   27.9460   13.2280  -19.1190 O   0  0  0  0  0
   27.6530   13.3740  -17.8090 C   0  0  0  0  0
   26.0830   15.4430  -21.1580 O   0  0  0  0  0
   32.6560   14.3550  -20.7300 N   0  0  0  0  0
   33.4400   15.3880  -20.1770 C   0  0  0  0  0
   34.5220   15.0320  -19.5590 N   0  0  0  0  0
   33.1710   16.6080  -20.4360 N   0  0  0  0  0
   30.9800   15.3190  -18.0600 C   0  0  0  0  0
   31.2150   16.5870  -17.3250 C   0  0  0  0  0
   31.2400   14.3060  -17.6250 O   0  0  0  0  0
   30.3310   15.5690  -19.2800 N   0  0  0  0  0
   29.4924   14.3988  -23.1538 H   0  0  0  0  0
   31.3639   14.2053  -23.3962 H   0  0  0  0  0
   31.4720   12.6775  -22.3609 H   0  0  0  0  0
   31.3843   15.5250  -21.6891 H   0  0  0  0  0
   30.2850   13.6184  -19.7115 H   0  0  0  0  0
   28.6380   15.4779  -21.3896 H   0  0  0  0  0
   31.0224   12.1840  -24.2425 H   0  0  0  0  0
   27.7215   15.2212  -19.1401 H   0  0  0  0  0
   26.4702   13.5598  -21.3421 H   0  0  0  0  0
   24.8059   14.7339  -19.2462 H   0  0  0  0  0
   25.9000   13.3441  -18.7293 H   0  0  0  0  0
   24.5713   11.1829  -21.0536 H   0  0  0  0  0
   28.2716   14.1653  -17.3856 H   0  0  0  0  0
   26.6006   13.6364  -17.7004 H   0  0  0  0  0
   27.8510   12.4377  -17.2872 H   0  0  0  0  0
   25.2357   15.3400  -21.5974 H   0  0  0  0  0
   33.0572   13.4173  -20.7377 H   0  0  0  0  0
   35.1950   15.7382  -19.2610 H   0  0  0  0  0
   34.7007   14.0456  -19.3706 H   0  0  0  0  0
   32.3862   16.8390  -21.0452 H   0  0  0  0  0
   30.6502   16.5752  -16.3928 H   0  0  0  0  0
   32.2781   16.6868  -17.1059 H   0  0  0  0  0
   30.8887   17.4269  -17.9384 H   0  0  0  0  0
   29.9568   16.4996  -19.4655 H   0  0  0  0  0
  2  1  1  0  0  0
  6  1  1  0  0  0
  1  7  1  0  0  0
  3  2  1  0  0  0
  4  3  1  0  0  0
  3 19  1  0  0  0
  4  5  1  0  0  0
 26  4  1  0  0  0
  5  6  1  0  0  0
  5 10  1  0  0  0
  7  8  1  0  0  0
  7  9  2  0  0  0
 10 11  1  0  0  0
 10 16  1  0  0  0
 11 12  1  0  0  0
 11 18  1  0  0  0
 12 13  1  0  0  0
 13 14  1  0  0  0
 14 15  2  0  0  0
 16 17  1  0  0  0
 19 20  1  0  0  0
 20 21  1  0  0  0
 20 22  2  0  0  0
 23 24  1  0  0  0
 23 25  2  0  0  0
 23 26  1  0  0  0
  1 27  1  0  0  0
  2 28  1  0  0  0
  2 29  1  0  0  0
  3 30  1  0  0  0
  4 31  1  0  0  0
  5 32  1  0  0  0
  8 33  1  0  0  0
 10 34  1  0  0  0
 11 35  1  0  0  0
 12 36  1  0  0  0
 12 37  1  0  0  0
 14 38  1  0  0  0
 17 39  1  0  0  0
 17 40  1  0  0  0
 17 41  1  0  0  0
 18 42  1  0  0  0
 19 43  1  0  0  0
 21 44  1  0  0  0
 21 45  1  0  0  0
 22 46  1  0  0  0
 24 47  1  0  0  0
 24 48  1  0  0  0
 24 49  1  0  0  0
 26 50  1  0  0  0
M  END
$$$$
