4ryd_ligand
  -I-interpret- 

112113  0  0  0  0  0  0  0  0999 V2000
   31.8760   26.5350   -9.2170 C   0  0  0  0  0
   35.3160   22.1990   -5.7460 N   0  0  0  0  0
   29.7470   25.8850   -8.3520 O   0  0  0  0  0
   30.6950   26.6620   -8.3100 C   0  0  0  0  0
   34.2510   23.3930   -4.0530 N   0  0  0  0  0
   32.9860   25.7230   -8.6220 C   0  0  0  0  0
   34.0950   21.0890   -4.1510 N   0  0  0  0  0
   32.9090   24.3200   -8.6340 C   0  0  0  0  0
   34.0380   26.3430   -7.9250 C   0  0  0  0  0
   33.8640   23.5470   -7.9400 C   0  0  0  0  0
   34.9160   24.1760   -7.2190 C   0  0  0  0  0
   34.9940   25.5780   -7.2320 C   0  0  0  0  0
   35.9040   23.3630   -6.4230 C   0  0  0  0  0
   34.5590   22.2330   -4.6470 C   0  0  0  0  0
   30.8120   27.6490   -7.4280 N   0  0  0  0  0
   29.7860   27.9390   -6.4370 C   0  0  0  0  0
   29.2380   29.3470   -6.6350 C   0  0  0  0  0
   30.0030   30.3040   -6.7290 O   0  0  0  0  0
   30.4020   27.7430   -5.0540 C   0  0  0  0  0
   30.9940   26.3340   -4.8620 C   0  0  0  0  0
   29.8850   25.2910   -4.8800 C   0  0  0  0  0
   30.3430   23.9110   -4.7190 N   0  0  0  0  0
   30.4360   23.0350   -5.7190 C   0  0  0  0  0
   30.8470   21.7900   -5.4950 N   0  0  0  0  0
   30.1250   23.4100   -6.9560 N   0  0  0  0  0
   27.9100   29.4630   -6.6950 N   0  0  0  0  0
   27.2750   30.6220   -6.8840 C   0  0  0  0  0
   26.5090   30.5740   -8.2750 C   0  0  0  0  0
   25.9750   31.9680   -8.6540 C   0  0  0  0  0
   27.4640   30.1090   -9.3740 C   0  0  0  0  0
   25.3460   29.5650   -8.2240 C   0  0  0  0  0
   26.3010   31.0370   -5.7610 C   0  0  0  0  0
   25.6880   30.2100   -5.1160 O   0  0  0  0  0
   26.1870   32.3570   -5.5780 N   0  0  0  0  0
   25.2840   32.9070   -4.5560 C   0  0  0  0  0
   23.8890   32.5380   -5.0740 C   0  0  0  0  0
   23.5870   32.7330   -6.2510 O   0  0  0  0  0
   25.4060   34.4330   -4.4600 C   0  0  0  0  0
   26.7080   34.9410   -3.8820 C   0  0  0  0  0
   26.7550   36.4610   -3.9760 C   0  0  0  0  0
   27.9950   37.0300   -3.4540 N   0  0  0  0  0
   29.1870   36.8720   -4.0210 C   0  0  0  0  0
   29.3100   36.1500   -5.1310 N   0  0  0  0  0
   30.2530   37.4670   -3.4970 N   0  0  0  0  0
   23.0490   32.0080   -4.1980 N   0  0  0  0  0
   21.7040   31.5970   -4.5540 C   0  0  0  0  0
   21.6860   30.1050   -4.7510 C   0  0  0  0  0
   21.4690   29.2500   -3.6580 C   0  0  0  0  0
   21.5850   27.8470   -3.7950 C   0  0  0  0  0
   21.9130   27.2680   -5.0290 C   0  0  0  0  0
   22.0310   25.7820   -5.1610 C   0  0  0  0  0
   21.4410   25.0410   -4.2300 N   0  0  0  0  0
   22.7070   25.2160   -6.1590 N   0  0  0  0  0
   22.1200   28.1110   -6.1380 C   0  0  0  0  0
   22.0050   29.5350   -6.0020 C   0  0  0  0  0
   32.2609   27.5376   -9.4036 H   0  0  0  0  0
   31.5450   26.0305  -10.1247 H   0  0  0  0  0
   35.5031   21.2824   -6.1524 H   0  0  0  0  0
   33.6611   23.3990   -3.2209 H   0  0  0  0  0
   34.6063   24.2705   -4.4326 H   0  0  0  0  0
   33.5051   21.0959   -3.3189 H   0  0  0  0  0
   32.1070   23.8260   -9.1825 H   0  0  0  0  0
   34.1139   27.4304   -7.9215 H   0  0  0  0  0
   33.7948   22.4593   -7.9567 H   0  0  0  0  0
   35.8031   26.0785   -6.7000 H   0  0  0  0  0
   36.6497   22.9862   -7.1231 H   0  0  0  0  0
   36.3092   24.0153   -5.6494 H   0  0  0  0  0
   31.6532   28.2256   -7.4461 H   0  0  0  0  0
   28.9376   27.2632   -6.5449 H   0  0  0  0  0
   29.6134   27.8787   -4.3138 H   0  0  0  0  0
   31.2115   28.4644   -4.9426 H   0  0  0  0  0
   31.5088   26.2910   -3.9022 H   0  0  0  0  0
   31.6921   26.1267   -5.6731 H   0  0  0  0  0
   29.4047   25.3546   -5.8564 H   0  0  0  0  0
   29.2300   25.5089   -4.0364 H   0  0  0  0  0
   30.6073   23.6003   -3.7841 H   0  0  0  0  0
   30.9218   21.1305   -6.2695 H   0  0  0  0  0
   31.0874   21.4948   -4.5487 H   0  0  0  0  0
   29.8165   24.3652   -7.1370 H   0  0  0  0  0
   27.3481   28.6181   -6.5905 H   0  0  0  0  0
   28.0506   31.3878   -6.8763 H   0  0  0  0  0
   25.2849   32.3130   -7.8840 H   0  0  0  0  0
   26.8088   32.6653   -8.7353 H   0  0  0  0  0
   25.4546   31.9088   -9.6099 H   0  0  0  0  0
   28.3001   30.8047   -9.4453 H   0  0  0  0  0
   27.8373   29.1139   -9.1321 H   0  0  0  0  0
   26.9333   30.0780  -10.3256 H   0  0  0  0  0
   25.7376   28.5720   -8.0032 H   0  0  0  0  0
   24.6434   29.8614   -7.4451 H   0  0  0  0  0
   24.8370   29.5502   -9.1877 H   0  0  0  0  0
   26.7356   32.9928   -6.1570 H   0  0  0  0  0
   25.5055   32.5177   -3.5623 H   0  0  0  0  0
   24.6146   34.7682   -3.7897 H   0  0  0  0  0
   25.3458   34.8160   -5.4787 H   0  0  0  0  0
   27.5412   34.5189   -4.4439 H   0  0  0  0  0
   26.7796   34.6418   -2.8363 H   0  0  0  0  0
   25.9328   36.8551   -3.3787 H   0  0  0  0  0
   26.6855   36.7297   -5.0301 H   0  0  0  0  0
   27.9429   37.5843   -2.5993 H   0  0  0  0  0
   30.2216   36.0538   -5.5785 H   0  0  0  0  0
   28.4928   35.6924   -5.5349 H   0  0  0  0  0
   30.1559   38.0437   -2.6613 H   0  0  0  0  0
   23.3601   31.8838   -3.2346 H   0  0  0  0  0
   21.3985   32.0939   -5.4748 H   0  0  0  0  0
   21.0120   31.8719   -3.7580 H   0  0  0  0  0
   21.2070   29.6744   -2.6888 H   0  0  0  0  0
   21.4170   27.2069   -2.9289 H   0  0  0  0  0
   20.9344   25.4894   -3.4666 H   0  0  0  0  0
   22.7770   24.2000   -6.2159 H   0  0  0  0  0
   23.1548   25.7985   -6.8665 H   0  0  0  0  0
   22.3694   27.6786   -7.1070 H   0  0  0  0  0
   22.1645   30.1782   -6.8674 H   0  0  0  0  0
  1  4  1  0  0  0
  6  1  1  0  0  0
 13  2  1  0  0  0
  2 14  1  0  0  0
  4  3  2  0  0  0
  4 15  1  0  0  0
 14  5  1  0  0  0
  8  6  4  0  0  0
  9  6  4  0  0  0
 14  7  2  0  0  0
 10  8  4  0  0  0
 12  9  4  0  0  0
 11 10  4  0  0  0
 11 12  4  0  0  0
 11 13  1  0  0  0
 15 16  1  0  0  0
 16 17  1  0  0  0
 16 19  1  0  0  0
 17 18  2  0  0  0
 17 26  1  0  0  0
 19 20  1  0  0  0
 20 21  1  0  0  0
 21 22  1  0  0  0
 22 23  1  0  0  0
 23 24  1  0  0  0
 23 25  2  0  0  0
 26 27  1  0  0  0
 27 28  1  0  0  0
 27 32  1  0  0  0
 28 29  1  0  0  0
 28 30  1  0  0  0
 28 31  1  0  0  0
 32 33  2  0  0  0
 32 34  1  0  0  0
 34 35  1  0  0  0
 35 36  1  0  0  0
 35 38  1  0  0  0
 36 37  2  0  0  0
 36 45  1  0  0  0
 38 39  1  0  0  0
 39 40  1  0  0  0
 40 41  1  0  0  0
 41 42  1  0  0  0
 42 43  1  0  0  0
 42 44  2  0  0  0
 45 46  1  0  0  0
 46 47  1  0  0  0
 47 48  4  0  0  0
 47 55  4  0  0  0
 48 49  4  0  0  0
 49 50  4  0  0  0
 50 51  1  0  0  0
 50 54  4  0  0  0
 51 52  2  0  0  0
 51 53  1  0  0  0
 54 55  4  0  0  0
  1 56  1  0  0  0
  1 57  1  0  0  0
  2 58  1  0  0  0
  5 59  1  0  0  0
  5 60  1  0  0  0
  7 61  1  0  0  0
  8 62  1  0  0  0
  9 63  1  0  0  0
 10 64  1  0  0  0
 12 65  1  0  0  0
 13 66  1  0  0  0
 13 67  1  0  0  0
 15 68  1  0  0  0
 16 69  1  0  0  0
 19 70  1  0  0  0
 19 71  1  0  0  0
 20 72  1  0  0  0
 20 73  1  0  0  0
 21 74  1  0  0  0
 21 75  1  0  0  0
 22 76  1  0  0  0
 24 77  1  0  0  0
 24 78  1  0  0  0
 25 79  1  0  0  0
 26 80  1  0  0  0
 27 81  1  0  0  0
 29 82  1  0  0  0
 29 83  1  0  0  0
 29 84  1  0  0  0
 30 85  1  0  0  0
 30 86  1  0  0  0
 30 87  1  0  0  0
 31 88  1  0  0  0
 31 89  1  0  0  0
 31 90  1  0  0  0
 34 91  1  0  0  0
 35 92  1  0  0  0
 38 93  1  0  0  0
 38 94  1  0  0  0
 39 95  1  0  0  0
 39 96  1  0  0  0
 40 97  1  0  0  0
 40 98  1  0  0  0
 41 99  1  0  0  0
 43100  1  0  0  0
 43101  1  0  0  0
 44102  1  0  0  0
 45103  1  0  0  0
 46104  1  0  0  0
 46105  1  0  0  0
 48106  1  0  0  0
 49107  1  0  0  0
 52108  1  0  0  0
 53109  1  0  0  0
 53110  1  0  0  0
 54111  1  0  0  0
 55112  1  0  0  0
M  END
$$$$
