2ov4_ligand
  -I-interpret- 

 52 54  0  0  0  0  0  0  0  0999 V2000
   51.1460   29.0220   31.8380 N   0  0  0  0  0
   52.2750   28.8580   32.4770 C   0  0  0  0  0
   53.4120   29.6040   32.0730 N   0  0  0  0  0
   54.6810   29.5440   32.6720 C   0  0  0  0  0
   54.8530   28.6600   33.7150 N   0  0  0  0  0
   53.7570   27.8670   34.1650 C   0  0  0  0  0
   53.6730   26.9270   35.1720 N   0  0  0  0  0
   52.3560   26.4780   35.2010 C   0  0  0  0  0
   51.5810   27.0780   34.2510 N   0  0  0  0  0
   52.4660   27.9410   33.5980 C   0  0  0  0  0
   52.1980   22.3360   37.8890 P   0  0  0  0  0
   51.6120   21.6220   36.7860 O   0  0  0  0  0
   52.9140   21.5440   38.8630 O   0  0  0  0  0
   51.0690   23.1410   38.5820 O   0  0  0  0  0
   50.0590   24.1580   37.9240 P   0  0  0  0  0
   50.4020   25.6320   38.1860 O   0  0  0  0  0
   48.6960   23.9080   38.5220 O   0  0  0  0  0
   50.2170   23.5890   36.4150 O   0  0  0  0  0
   49.3000   23.5010   35.1850 P   0  0  0  0  0
   50.0220   23.5710   33.8870 O   0  0  0  0  0
   48.2900   24.5410   35.3320 O   0  0  0  0  0
   48.6350   22.2100   35.3990 O   0  0  0  0  0
   47.2260   21.8180   36.1040 P   0  0  0  0  0
   47.1290   20.3560   36.2910 O   0  0  0  0  0
   47.0860   22.4710   37.4390 O   0  0  0  0  0
   46.0990   22.2620   35.2000 O   0  0  0  0  0
   54.7930   26.4770   36.0620 C   0  0  0  0  0
   54.9120   25.1730   35.7410 O   0  0  0  0  0
   55.2540   24.3270   36.8730 C   0  0  0  0  0
   54.5000   23.0840   36.8950 C   0  0  0  0  0
   53.1670   23.3990   37.3510 O   0  0  0  0  0
   55.2190   25.2560   38.1090 C   0  0  0  0  0
   56.5050   25.5860   38.6200 O   0  0  0  0  0
   54.3970   26.3810   37.5080 C   0  0  0  0  0
   54.2830   27.6080   38.1140 O   0  0  0  0  0
   51.0911   29.6795   31.0602 H   0  0  0  0  0
   50.3202   28.4924   32.1174 H   0  0  0  0  0
   55.5000   30.1738   32.3245 H   0  0  0  0  0
   51.9852   25.7313   35.9032 H   0  0  0  0  0
   53.2603   22.1191   39.5492 H   0  0  0  0  0
   51.2665   25.8285   37.8178 H   0  0  0  0  0
   50.6720   22.8657   33.8452 H   0  0  0  0  0
   47.1468   23.4235   37.3360 H   0  0  0  0  0
   46.1500   23.2118   35.0697 H   0  0  0  0  0
   55.6419   27.1500   35.9414 H   0  0  0  0  0
   56.2574   23.9036   36.8268 H   0  0  0  0  0
   54.9719   22.3614   37.5608 H   0  0  0  0  0
   54.4693   22.6369   35.9014 H   0  0  0  0  0
   54.7965   24.8469   39.0267 H   0  0  0  0  0
   56.4072   26.1618   39.3819 H   0  0  0  0  0
   53.3668   26.0729   37.6865 H   0  0  0  0  0
   54.0292   27.4879   39.0320 H   0  0  0  0  0
  2  1  1  0  0  0
  2  3  4  0  0  0
 10  2  4  0  0  0
  4  3  4  0  0  0
  5  4  4  0  0  0
  6  5  4  0  0  0
  7  6  4  0  0  0
  6 10  4  0  0  0
  7  8  4  0  0  0
 27  7  1  0  0  0
  8  9  4  0  0  0
  9 10  4  0  0  0
 11 12  2  0  0  0
 11 13  1  0  0  0
 11 14  1  0  0  0
 31 11  1  0  0  0
 14 15  1  0  0  0
 15 16  1  0  0  0
 15 17  2  0  0  0
 15 18  1  0  0  0
 18 19  1  0  0  0
 19 20  1  0  0  0
 19 21  2  0  0  0
 19 22  1  0  0  0
 22 23  1  0  0  0
 23 24  2  0  0  0
 23 25  1  0  0  0
 23 26  1  0  0  0
 28 27  1  0  0  0
 27 34  1  0  0  0
 29 28  1  0  0  0
 30 29  1  0  0  0
 29 32  1  0  0  0
 30 31  1  0  0  0
 32 33  1  0  0  0
 32 34  1  0  0  0
 34 35  1  0  0  0
  1 36  1  0  0  0
  1 37  1  0  0  0
  4 38  1  0  0  0
  8 39  1  0  0  0
 13 40  1  0  0  0
 16 41  1  0  0  0
 20 42  1  0  0  0
 25 43  1  0  0  0
 26 44  1  0  0  0
 27 45  1  0  0  0
 29 46  1  0  0  0
 30 47  1  0  0  0
 30 48  1  0  0  0
 32 49  1  0  0  0
 33 50  1  0  0  0
 34 51  1  0  0  0
 35 52  1  0  0  0
M  END
$$$$
