1bxo_ligand
  -I-interpret- 

 91 92  0  0  0  0  0  0  0  0999 V2000
   18.0510    5.3170   18.4320 N   0  0  0  0  0
   16.0920    4.0570   17.7300 C   0  0  0  0  0
   19.3060    5.5990   19.1250 C   0  0  0  0  0
   14.8410    3.8900   18.5460 C   0  0  0  0  0
   20.5230    5.4920   18.2140 C   0  0  0  0  0
   14.6890    4.9220   19.5530 C   0  0  0  0  0
   20.6780    4.1160   17.6370 C   0  0  0  0  0
   13.6180    3.7750   17.5780 C   0  0  0  0  0
   20.5270    6.5810   17.1570 C   0  0  0  0  0
   17.3280    4.2240   18.5800 C   0  0  0  0  0
   19.1970    6.9640   19.8490 C   0  0  0  0  0
   17.7060    3.2880   19.3500 O   0  0  0  0  0
   18.3670    7.8170   19.5170 O   0  0  0  0  0
   20.1090    7.1410   20.8050 N   0  0  0  0  0
   20.1150    8.3280   21.6850 C   0  0  0  0  0
   19.3710    8.0260   22.9740 C   0  0  0  0  0
   19.1900    9.1290   23.9840 C   0  0  0  0  0
   19.0640    8.8360   25.2000 O   0  0  0  0  0
   19.0770   10.3600   23.5810 N   0  0  0  0  0
   18.6640   11.4770   24.4420 C   0  0  0  0  0
   21.5550    8.7340   21.9250 C   0  0  0  0  0
   22.1800    8.3600   22.9420 O   0  0  0  0  0
   22.1390    9.4880   20.9720 N   0  0  0  0  0
   23.5530    9.8470   20.9350 C   0  0  0  0  0
   24.2340    9.3230   19.6550 C   0  0  0  0  0
   23.9710    7.8600   19.2910 C   0  0  0  0  0
   24.5990    7.4880   17.9690 C   0  0  0  0  0
   24.4280    6.9130   20.4160 C   0  0  0  0  0
   23.7220   11.6490   21.1010 P   0  0  0  0  0
   22.7540   12.2890   20.1340 O   0  0  0  0  0
   25.1710   12.0470   20.9650 O   0  0  0  0  0
   23.3540   11.9260   22.6220 O   0  0  0  0  0
   23.9660   12.9730   23.4040 C   0  0  0  0  0
   22.9070   14.0680   23.7130 C   0  0  0  0  0
   25.5130   12.9980   26.7790 C   0  0  0  0  0
   21.8170   13.6320   24.6150 C   0  0  0  0  0
   21.7200   14.0880   25.9480 C   0  0  0  0  0
   20.8070   12.7680   24.1780 C   0  0  0  0  0
   20.6880   13.6680   26.7730 C   0  0  0  0  0
   19.7380   12.7580   26.3260 C   0  0  0  0  0
   19.7820   12.3320   24.9830 C   0  0  0  0  0
   24.5240   12.3800   24.6900 C   0  0  0  0  0
   24.9760   13.3280   25.4650 O   0  0  0  0  0
   24.5270   11.2170   24.9550 O   0  0  0  0  0
   17.7062    6.0226   17.7811 H   0  0  0  0  0
   16.2202    3.1572   17.1283 H   0  0  0  0  0
   15.9785    4.9573   17.1261 H   0  0  0  0  0
   19.4690    4.8286   19.8787 H   0  0  0  0  0
   14.9081    2.9669   19.1217 H   0  0  0  0  0
   21.4065    5.6572   18.8306 H   0  0  0  0  0
   14.5673    5.8890   19.0649 H   0  0  0  0  0
   13.8104    4.7075   20.1615 H   0  0  0  0  0
   15.5754    4.9426   20.1870 H   0  0  0  0  0
   19.8547    3.9162   16.9511 H   0  0  0  0  0
   21.6240    4.0534   17.0992 H   0  0  0  0  0
   20.6675    3.3822   18.4429 H   0  0  0  0  0
   12.7221    3.5404   18.1528 H   0  0  0  0  0
   13.4789    4.7219   17.0563 H   0  0  0  0  0
   13.8036    2.9829   16.8526 H   0  0  0  0  0
   21.4708    6.5536   16.6125 H   0  0  0  0  0
   19.7016    6.4164   16.4644 H   0  0  0  0  0
   20.4114    7.5525   17.6376 H   0  0  0  0  0
   20.8295    6.4306   20.9338 H   0  0  0  0  0
   19.5955    9.1638   21.2164 H   0  0  0  0  0
   19.9780    7.2760   23.4810 H   0  0  0  0  0
   18.3609    7.7612   22.6614 H   0  0  0  0  0
   19.2887   10.5635   22.6042 H   0  0  0  0  0
   18.1676   11.0344   25.3056 H   0  0  0  0  0
   18.0458   12.1300   23.8259 H   0  0  0  0  0
   21.5461    9.8346   20.2179 H   0  0  0  0  0
   24.0627    9.3709   21.7726 H   0  0  0  0  0
   25.3069    9.4021   19.8301 H   0  0  0  0  0
   23.8299    9.9154   18.8341 H   0  0  0  0  0
   22.8931    7.7446   19.1777 H   0  0  0  0  0
   24.1839    8.1167   17.1813 H   0  0  0  0  0
   25.6771    7.6383   18.0253 H   0  0  0  0  0
   24.3877    6.4414   17.7496 H   0  0  0  0  0
   25.4969    7.0420   20.5860 H   0  0  0  0  0
   23.8825    7.1471   21.3302 H   0  0  0  0  0
   24.2269    5.8819   20.1253 H   0  0  0  0  0
   21.8672   11.9661   20.3099 H   0  0  0  0  0
   24.7853   13.4284   22.8476 H   0  0  0  0  0
   23.4286   14.8833   24.2143 H   0  0  0  0  0
   22.4453   14.3416   22.7643 H   0  0  0  0  0
   24.7393   12.5144   27.3753 H   0  0  0  0  0
   26.3607   12.3224   26.6645 H   0  0  0  0  0
   25.8393   13.9113   27.2766 H   0  0  0  0  0
   22.4678   14.7807   26.3341 H   0  0  0  0  0
   20.8346   12.4225   23.1446 H   0  0  0  0  0
   20.6208   14.0580   27.7886 H   0  0  0  0  0
   18.9715   12.3798   27.0025 H   0  0  0  0  0
 10  1  1  0  0  0
  1  3  1  0  0  0
  3 11  1  0  0  0
  3  5  1  0  0  0
  5  9  1  0  0  0
  5  7  1  0  0  0
 11 14  1  0  0  0
 11 13  2  0  0  0
 14 15  1  0  0  0
 15 21  1  0  0  0
 15 16  1  0  0  0
 16 17  1  0  0  0
 17 19  1  0  0  0
 17 18  2  0  0  0
 19 20  1  0  0  0
 20 41  1  0  0  0
 41 40  4  0  0  0
 41 38  4  0  0  0
 38 36  4  0  0  0
 36 37  4  0  0  0
 36 34  1  0  0  0
 34 33  1  0  0  0
 33 42  1  0  0  0
 33 32  1  0  0  0
 32 29  1  0  0  0
 29 31  2  0  0  0
 29 30  1  0  0  0
 29 24  1  0  0  0
 24 25  1  0  0  0
 24 23  1  0  0  0
 21 23  1  0  0  0
 21 22  2  0  0  0
 25 26  1  0  0  0
 26 28  1  0  0  0
 26 27  1  0  0  0
 42 44  2  0  0  0
 42 43  1  0  0  0
 43 35  1  0  0  0
 37 39  4  0  0  0
 40 39  4  0  0  0
 10  2  1  0  0  0
 10 12  2  0  0  0
  2  4  1  0  0  0
  4  6  1  0  0  0
  4  8  1  0  0  0
  1 45  1  0  0  0
  2 46  1  0  0  0
  2 47  1  0  0  0
  3 48  1  0  0  0
  4 49  1  0  0  0
  5 50  1  0  0  0
  6 51  1  0  0  0
  6 52  1  0  0  0
  6 53  1  0  0  0
  7 54  1  0  0  0
  7 55  1  0  0  0
  7 56  1  0  0  0
  8 57  1  0  0  0
  8 58  1  0  0  0
  8 59  1  0  0  0
  9 60  1  0  0  0
  9 61  1  0  0  0
  9 62  1  0  0  0
 14 63  1  0  0  0
 15 64  1  0  0  0
 16 65  1  0  0  0
 16 66  1  0  0  0
 19 67  1  0  0  0
 20 68  1  0  0  0
 20 69  1  0  0  0
 23 70  1  0  0  0
 24 71  1  0  0  0
 25 72  1  0  0  0
 25 73  1  0  0  0
 26 74  1  0  0  0
 27 75  1  0  0  0
 27 76  1  0  0  0
 27 77  1  0  0  0
 28 78  1  0  0  0
 28 79  1  0  0  0
 28 80  1  0  0  0
 30 81  1  0  0  0
 33 82  1  0  0  0
 34 83  1  0  0  0
 34 84  1  0  0  0
 35 85  1  0  0  0
 35 86  1  0  0  0
 35 87  1  0  0  0
 37 88  1  0  0  0
 38 89  1  0  0  0
 39 90  1  0  0  0
 40 91  1  0  0  0
M  END
$$$$
