4pp3_ligand
  -I-interpret- 

 47 48  0  0  0  0  0  0  0  0999 V2000
   66.3680   46.7770   29.5870 C   0  0  0  0  0
   67.2290   45.7890   30.3770 C   0  0  0  0  0
   67.7310   46.4350   31.6720 C   0  0  0  0  0
   66.6150   47.0710   32.5030 C   0  0  0  0  0
   66.7140   47.0800   33.8980 C   0  0  0  0  0
   65.7190   47.6370   34.6920 C   0  0  0  0  0
   65.8510   47.6300   36.2190 C   0  0  0  0  0
   64.6140   48.2070   34.0680 C   0  0  0  0  0
   64.5060   48.2280   32.6950 C   0  0  0  0  0
   65.5180   47.6420   31.9000 C   0  0  0  0  0
   65.4060   47.5920   30.4590 C   0  0  0  0  0
   64.3870   48.3100   29.8370 C   0  0  0  0  0
   64.1180   48.3200   28.3850 C   0  0  0  0  0
   65.2260   48.7890   27.4380 C   0  0  0  0  0
   62.8800   47.9630   27.9000 C   0  0  0  0  0
   61.7510   47.5780   28.7750 C   0  0  0  0  0
   60.5970   47.0080   28.2610 C   0  0  0  0  0
   59.4900   46.6410   29.1580 C   0  0  0  0  0
   59.7750   45.8860   30.4600 C   0  0  0  0  0
   58.1990   46.9800   28.7720 C   0  0  0  0  0
   56.9870   46.7060   29.5480 C   0  0  0  0  0
   56.9560   45.7290   30.3270 O   0  0  0  0  0
   56.0200   47.4840   29.3730 O   0  0  0  0  0
   65.7634   46.1969   28.8899 H   0  0  0  0  0
   67.0433   47.4814   29.1014 H   0  0  0  0  0
   68.0862   45.5000   29.7689 H   0  0  0  0  0
   66.6279   44.9146   30.6263 H   0  0  0  0  0
   68.4285   47.2261   31.3967 H   0  0  0  0  0
   68.1859   45.6505   32.2767 H   0  0  0  0  0
   67.5911   46.6403   34.3729 H   0  0  0  0  0
   65.9200   46.6010   36.5717 H   0  0  0  0  0
   66.7498   48.1752   36.5072 H   0  0  0  0  0
   64.9768   48.1089   36.6602 H   0  0  0  0  0
   63.8212   48.6439   34.6752 H   0  0  0  0  0
   63.6422   48.6954   32.2222 H   0  0  0  0  0
   63.7370   48.9118   30.4721 H   0  0  0  0  0
   65.4498   47.9977   26.7225 H   0  0  0  0  0
   64.8935   49.6795   26.9046 H   0  0  0  0  0
   66.1207   49.0225   28.0151 H   0  0  0  0  0
   62.7244   47.9641   26.8212 H   0  0  0  0  0
   61.8285   47.7466   29.8491 H   0  0  0  0  0
   60.5093   46.8311   27.1890 H   0  0  0  0  0
   59.4130   46.4718   31.3049 H   0  0  0  0  0
   59.2652   44.9228   30.4390 H   0  0  0  0  0
   60.8489   45.7280   30.5593 H   0  0  0  0  0
   58.0785   47.4901   27.8163 H   0  0  0  0  0
   56.2647   48.1583   28.7350 H   0  0  0  0  0
  1  2  1  0  0  0
  1 11  1  0  0  0
  2  3  1  0  0  0
  3  4  1  0  0  0
  4  5  4  0  0  0
  4 10  4  0  0  0
  5  6  4  0  0  0
  6  7  1  0  0  0
  6  8  4  0  0  0
  8  9  4  0  0  0
  9 10  4  0  0  0
 10 11  1  0  0  0
 11 12  2  0  0  0
 12 13  1  0  0  0
 13 14  1  0  0  0
 13 15  2  0  0  0
 15 16  1  0  0  0
 16 17  2  0  0  0
 17 18  1  0  0  0
 18 19  1  0  0  0
 18 20  2  0  0  0
 20 21  1  0  0  0
 21 22  2  0  0  0
 21 23  1  0  0  0
  1 24  1  0  0  0
  1 25  1  0  0  0
  2 26  1  0  0  0
  2 27  1  0  0  0
  3 28  1  0  0  0
  3 29  1  0  0  0
  5 30  1  0  0  0
  7 31  1  0  0  0
  7 32  1  0  0  0
  7 33  1  0  0  0
  8 34  1  0  0  0
  9 35  1  0  0  0
 12 36  1  0  0  0
 14 37  1  0  0  0
 14 38  1  0  0  0
 14 39  1  0  0  0
 15 40  1  0  0  0
 16 41  1  0  0  0
 17 42  1  0  0  0
 19 43  1  0  0  0
 19 44  1  0  0  0
 19 45  1  0  0  0
 20 46  1  0  0  0
 23 47  1  0  0  0
M  END
$$$$
