3tsd_ligand
  -I-interpret- 

 37 39  0  0  0  0  0  0  0  0999 V2000
  -44.3870   46.7520    1.4130 P   0  0  0  0  0
  -44.4730   45.2770    1.6310 O   0  0  0  0  0
  -45.6640   47.5440    1.0200 O   0  0  0  0  0
  -43.1780   47.1060    0.4300 O   0  0  0  0  0
  -43.9530   47.3130    2.7450 O   0  0  0  0  0
  -41.8760   46.5860    0.6620 C   0  0  0  0  0
  -40.8810   47.0950   -0.3500 C   0  0  0  0  0
  -40.6720   48.5140   -0.1620 O   0  0  0  0  0
  -39.3590   48.8650   -0.5620 C   0  0  0  0  0
  -38.7100   49.5970    0.5420 N   0  0  0  0  0
  -38.0390   50.7550    0.3990 C   0  0  0  0  0
  -37.7400   51.5600   -0.6360 N   0  0  0  0  0
  -36.5880   53.0510    0.7560 N   0  0  0  0  0
  -37.0240   52.6840   -0.4580 C   0  0  0  0  0
  -36.7410   53.4660   -1.5390 O   0  0  0  0  0
  -36.8560   52.2880    1.8330 C   0  0  0  0  0
  -36.3890   52.6750    3.1180 O   0  0  0  0  0
  -37.5940   51.1110    1.6760 C   0  0  0  0  0
  -38.0130   50.1590    2.5330 N   0  0  0  0  0
  -38.6960   49.2360    1.8350 C   0  0  0  0  0
  -38.6080   47.5760   -0.9160 C   0  0  0  0  0
  -38.6070   47.4280   -2.3290 O   0  0  0  0  0
  -39.4810   46.5080   -0.2530 C   0  0  0  0  0
  -39.3740   45.2260   -0.8490 O   0  0  0  0  0
  -45.4442   48.4728    0.9173 H   0  0  0  0  0
  -43.8760   48.2676    2.6791 H   0  0  0  0  0
  -41.9215   45.4999    0.5813 H   0  0  0  0  0
  -41.5511   46.9052    1.6523 H   0  0  0  0  0
  -41.3272   46.8113   -1.3032 H   0  0  0  0  0
  -39.3623   49.5136   -1.4380 H   0  0  0  0  0
  -38.0619   51.3136   -1.5720 H   0  0  0  0  0
  -36.0512   53.9116    0.8641 H   0  0  0  0  0
  -39.1616   48.3421    2.2499 H   0  0  0  0  0
  -37.5681   47.5380   -0.5916 H   0  0  0  0  0
  -38.1393   46.6236   -2.5650 H   0  0  0  0  0
  -39.1739   46.3072    0.7734 H   0  0  0  0  0
  -38.4733   44.9064   -0.7583 H   0  0  0  0  0
  1  2  2  0  0  0
  1  3  1  0  0  0
  1  4  1  0  0  0
  1  5  1  0  0  0
  4  6  1  0  0  0
  6  7  1  0  0  0
  7  8  1  0  0  0
  7 23  1  0  0  0
  8  9  1  0  0  0
  9 10  1  0  0  0
  9 21  1  0  0  0
 10 11  4  0  0  0
 10 20  4  0  0  0
 11 12  1  0  0  0
 11 18  4  0  0  0
 12 14  1  0  0  0
 14 13  1  0  0  0
 13 16  1  0  0  0
 14 15  2  0  0  0
 16 17  2  0  0  0
 16 18  1  0  0  0
 18 19  4  0  0  0
 19 20  4  0  0  0
 21 22  1  0  0  0
 21 23  1  0  0  0
 23 24  1  0  0  0
  3 25  1  0  0  0
  5 26  1  0  0  0
  6 27  1  0  0  0
  6 28  1  0  0  0
  7 29  1  0  0  0
  9 30  1  0  0  0
 12 31  1  0  0  0
 13 32  1  0  0  0
 20 33  1  0  0  0
 21 34  1  0  0  0
 22 35  1  0  0  0
 23 36  1  0  0  0
 24 37  1  0  0  0
M  END
$$$$
