### 
### Created by X-TOOL on Mon Sep 10 21:13:06 2018
### 

@<TRIPOS>MOLECULE
3tsd_ligand
   35    37     1     0     0
SMALL
GAST_HUCK


@<TRIPOS>ATOM
      1 P         -44.3870   46.7520    1.4130 P.3       1 XMP         0.2008
      2 O1P       -44.4730   45.2770    1.6310 O.co2     1 XMP        -0.5537
      3 O2P       -45.6640   47.5440    1.0200 O.co2     1 XMP        -0.5537
      4 O5'       -43.1780   47.1060    0.4300 O.3       1 XMP        -0.2734
      5 O3P       -43.9530   47.3130    2.7450 O.co2     1 XMP        -0.5537
      6 C5'       -41.8760   46.5860    0.6620 C.3       1 XMP         0.1072
      7 C4'       -40.8810   47.0950   -0.3500 C.3       1 XMP         0.1182
      8 O4'       -40.6720   48.5140   -0.1620 O.3       1 XMP        -0.3363
      9 C1'       -39.3590   48.8650   -0.5620 C.3       1 XMP         0.2010
     10 N9        -38.7100   49.5970    0.5420 N.pl3     1 XMP        -0.1896
     11 C4        -38.0390   50.7550    0.3990 C.2       1 XMP         0.2049
     12 N3        -37.7400   51.5600   -0.6360 N.am      1 XMP        -0.1835
     13 N1        -36.5880   53.0510    0.7560 N.am      1 XMP        -0.1870
     14 C2        -37.0240   52.6840   -0.4580 C.2       1 XMP         0.3214
     15 O2        -36.7410   53.4660   -1.5390 O.2       1 XMP        -0.3846
     16 C6        -36.8560   52.2880    1.8330 C.2       1 XMP         0.1997
     17 O6        -36.3890   52.6750    3.1180 O.2       1 XMP        -0.4080
     18 C5        -37.5940   51.1110    1.6760 C.2       1 XMP         0.1084
     19 N7        -38.0130   50.1590    2.5330 N.2       1 XMP        -0.3331
     20 C8        -38.6960   49.2360    1.8350 C.2       1 XMP         0.0923
     21 C2'       -38.6080   47.5760   -0.9160 C.3       1 XMP         0.1387
     22 O2'       -38.6070   47.4280   -2.3290 O.3       1 XMP        -0.3836
     23 C3'       -39.4810   46.5080   -0.2530 C.3       1 XMP         0.1149
     24 O3'       -39.3740   45.2260   -0.8490 O.3       1 XMP        -0.3864
     25 H1        -41.9151   45.4884    0.6018 H         1 XMP         0.0639
     26 H2        -41.5465   46.8866    1.6675 H         1 XMP         0.0639
     27 H3        -41.2861   46.8973   -1.3534 H         1 XMP         0.0650
     28 H4        -39.3997   49.5144   -1.4489 H         1 XMP         0.0998
     29 H5        -38.0556   51.3185   -1.5536 H         1 XMP         0.2360
     30 H6        -36.0617   53.8947    0.8620 H         1 XMP         0.2254
     31 H7        -39.1612   48.3429    2.2496 H         1 XMP         0.1125
     32 H8        -37.5801   47.5674   -0.5245 H         1 XMP         0.0676
     33 H9        -38.1441   46.6320   -2.5626 H         1 XMP         0.2101
     34 H10       -39.1954   46.4065    0.8044 H         1 XMP         0.0648
     35 H11       -39.6372   45.2787   -1.7603 H         1 XMP         0.2100
@<TRIPOS>BOND
     1    1    2 ar 
     2    1    3 ar 
     3    1    4 1  
     4    1    5 ar 
     5    4    6 1  
     6    6    7 1  
     7    7    8 1  
     8    7   23 1  
     9    8    9 1  
    10    9   10 1  
    11    9   21 1  
    12   10   11 1  
    13   10   20 1  
    14   11   12 am 
    15   11   18 2  
    16   12   14 am 
    17   14   13 am 
    18   13   16 am 
    19   14   15 2  
    20   16   17 2  
    21   16   18 1  
    22   18   19 1  
    23   19   20 2  
    24   21   22 1  
    25   21   23 1  
    26   23   24 1  
    27    6   25 1  
    28    6   26 1  
    29    7   27 1  
    30    9   28 1  
    31   12   29 1  
    32   13   30 1  
    33   20   31 1  
    34   21   32 1  
    35   22   33 1  
    36   23   34 1  
    37   24   35 1  
@<TRIPOS>SUBSTRUCTURE
     1 XMP         1

