3hqw_ligand
  -I-interpret- 

 43 46  0  0  0  0  0  0  0  0999 V2000
   10.7060   15.8140   40.8570 C   0  0  0  0  0
    9.0760   17.8030   37.4190 C   0  0  0  0  0
   13.4670   16.2080   40.9450 C   0  0  0  0  0
   12.6850   22.1920   40.0820 C   0  0  0  0  0
   12.6750   16.9530   40.0640 C   0  0  0  0  0
    7.4250   18.2930   35.5620 C   0  0  0  0  0
   12.1930   21.2420   40.9690 C   0  0  0  0  0
   13.7100   24.4030   39.9140 C   0  0  0  0  0
   13.3640   23.2420   40.6610 O   0  0  0  0  0
   12.4860   22.0440   38.6940 C   0  0  0  0  0
   11.7770   20.9240   38.2080 C   0  0  0  0  0
   11.5060   20.1340   40.4950 C   0  0  0  0  0
   11.3140   19.9810   39.1270 C   0  0  0  0  0
   10.5460   18.8250   38.6480 C   0  0  0  0  0
    9.6040   18.9780   37.6330 N   0  0  0  0  0
    8.0330   17.5000   36.4620 C   0  0  0  0  0
    7.2910   15.9310   36.3700 S   0  0  0  0  0
    6.1640   16.3330   35.0890 C   0  0  0  0  0
    6.3780   17.6130   34.7830 C   0  0  0  0  0
    9.6090   16.8910   38.2660 N   0  0  0  0  0
   10.5150   17.5340   39.0480 C   0  0  0  0  0
   11.3010   16.7710   40.0360 C   0  0  0  0  0
   11.4780   15.0640   41.7490 C   0  0  0  0  0
   12.8720   15.2670   41.8040 C   0  0  0  0  0
   13.5960   14.5080   42.6830 O   0  0  0  0  0
   15.0300   14.6370   42.7920 C   0  0  0  0  0
    9.6299   15.6493   40.8029 H   0  0  0  0  0
   14.5465   16.3573   40.9654 H   0  0  0  0  0
   13.1402   17.6791   39.3973 H   0  0  0  0  0
    7.6838   19.3426   35.4224 H   0  0  0  0  0
   12.3474   21.3679   42.0406 H   0  0  0  0  0
   14.3522   24.1190   39.0803 H   0  0  0  0  0
   12.8029   24.8716   39.5324 H   0  0  0  0  0
   14.2390   25.1044   40.5593 H   0  0  0  0  0
   12.8768   22.7891   38.0010 H   0  0  0  0  0
   11.5955   20.7987   37.1405 H   0  0  0  0  0
   11.1196   19.3888   41.1903 H   0  0  0  0  0
    5.4318   15.6672   34.6322 H   0  0  0  0  0
    5.8124   18.1241   34.0040 H   0  0  0  0  0
   11.0051   14.3269   42.3979 H   0  0  0  0  0
   15.4883   14.4072   41.8301 H   0  0  0  0  0
   15.2808   15.6577   43.0808 H   0  0  0  0  0
   15.3996   13.9432   43.5470 H   0  0  0  0  0
 22  1  4  0  0  0
  1 23  4  0  0  0
  2 15  4  0  0  0
  2 16  1  0  0  0
 20  2  4  0  0  0
  5  3  4  0  0  0
  3 24  4  0  0  0
  7  4  4  0  0  0
  4  9  1  0  0  0
 10  4  4  0  0  0
 22  5  4  0  0  0
 16  6  4  0  0  0
  6 19  4  0  0  0
 12  7  4  0  0  0
  9  8  1  0  0  0
 11 10  4  0  0  0
 13 11  4  0  0  0
 13 12  4  0  0  0
 14 13  1  0  0  0
 14 15  4  0  0  0
 21 14  4  0  0  0
 16 17  4  0  0  0
 17 18  4  0  0  0
 18 19  4  0  0  0
 21 20  4  0  0  0
 21 22  1  0  0  0
 23 24  4  0  0  0
 24 25  1  0  0  0
 25 26  1  0  0  0
  1 27  1  0  0  0
  3 28  1  0  0  0
  5 29  1  0  0  0
  6 30  1  0  0  0
  7 31  1  0  0  0
  8 32  1  0  0  0
  8 33  1  0  0  0
  8 34  1  0  0  0
 10 35  1  0  0  0
 11 36  1  0  0  0
 12 37  1  0  0  0
 18 38  1  0  0  0
 19 39  1  0  0  0
 23 40  1  0  0  0
 26 41  1  0  0  0
 26 42  1  0  0  0
 26 43  1  0  0  0
M  END
$$$$
