5auz_ligand
  -I-interpret- 

 30 32  0  0  0  0  0  0  0  0999 V2000
  -21.1710   -0.6150  -12.3610 C   0  0  0  0  0
  -19.9650   -0.9970  -11.7820 C   0  0  0  0  0
  -19.3320   -2.1100  -12.2440 O   0  0  0  0  0
  -19.4200   -0.2510  -10.7390 C   0  0  0  0  0
  -20.1000    0.8790  -10.2980 C   0  0  0  0  0
  -19.6270    1.6620   -9.2910 O   0  0  0  0  0
  -21.3030    1.2860  -10.8740 C   0  0  0  0  0
  -21.9440    2.4150  -10.3690 C   0  0  0  0  0
  -21.4380    3.0380   -9.4280 O   0  0  0  0  0
  -23.1670    2.7690  -10.9390 C   0  0  0  0  0
  -23.6610    1.9860  -11.9770 C   0  0  0  0  0
  -23.0260    0.8930  -12.4850 O   0  0  0  0  0
  -21.8410    0.5190  -11.9110 C   0  0  0  0  0
  -24.0060    3.8020  -10.5150 C   0  0  0  0  0
  -24.0780    4.2050   -9.1820 C   0  0  0  0  0
  -24.9770    5.1960   -8.8040 C   0  0  0  0  0
  -25.8160    5.7680   -9.7530 C   0  0  0  0  0
  -26.6860    6.7390   -9.3950 O   0  0  0  0  0
  -25.7570    5.3610  -11.0850 C   0  0  0  0  0
  -24.8670    4.3610  -11.4480 C   0  0  0  0  0
  -21.5939   -1.2076  -13.1722 H   0  0  0  0  0
  -18.5198   -2.2432  -11.7499 H   0  0  0  0  0
  -18.4782   -0.5476  -10.2773 H   0  0  0  0  0
  -20.2372    2.3870   -9.1373 H   0  0  0  0  0
  -24.6201    2.2655  -12.4130 H   0  0  0  0  0
  -23.4300    3.7435   -8.4369 H   0  0  0  0  0
  -25.0237    5.5237   -7.7655 H   0  0  0  0  0
  -27.1844    7.0206  -10.1657 H   0  0  0  0  0
  -26.4024    5.8230  -11.8321 H   0  0  0  0  0
  -24.8438    4.0099  -12.4796 H   0  0  0  0  0
  1  2  4  0  0  0
  1 13  4  0  0  0
  2  3  1  0  0  0
  2  4  4  0  0  0
  4  5  4  0  0  0
  5  6  1  0  0  0
  5  7  4  0  0  0
  7  8  1  0  0  0
  7 13  4  0  0  0
  8  9  2  0  0  0
  8 10  1  0  0  0
 10 11  2  0  0  0
 10 14  1  0  0  0
 11 12  1  0  0  0
 12 13  1  0  0  0
 14 15  4  0  0  0
 14 20  4  0  0  0
 15 16  4  0  0  0
 16 17  4  0  0  0
 17 18  1  0  0  0
 17 19  4  0  0  0
 19 20  4  0  0  0
  1 21  1  0  0  0
  3 22  1  0  0  0
  4 23  1  0  0  0
  6 24  1  0  0  0
 11 25  1  0  0  0
 15 26  1  0  0  0
 16 27  1  0  0  0
 18 28  1  0  0  0
 19 29  1  0  0  0
 20 30  1  0  0  0
M  END
$$$$
