### 
### Created by X-TOOL on Mon Sep 10 21:13:04 2018
### 

@<TRIPOS>MOLECULE
3lk0_ligand
   40    42     1     0     0
SMALL
GAST_HUCK


@<TRIPOS>ATOM
      1 C1         11.9840   15.2940   53.7220 C.ar      1 Z80         0.0749
      2 N1         13.3370   15.0720   53.3120 N.pl3     1 Z80        -0.2643
      3 S1         12.7820   15.5080   56.2720 S.3       1 Z80        -0.0555
      4 C2         11.6170   15.5080   55.0530 C.ar      1 Z80         0.0508
      5 N2         13.2220   17.6110   49.5360 N.4       1 Z80         0.3987
      6 C3         14.2980   15.2200   55.5880 C.ar      1 Z80         0.0510
      7 C4         14.4520   15.0290   54.2120 C.ar      1 Z80         0.0754
      8 C5          9.6370   15.5270   53.1070 C.ar      1 Z80        -0.0795
      9 C6          9.2900   15.7380   54.4360 C.ar      1 Z80        -0.0802
     10 C7         10.2850   15.7280   55.4070 C.ar      1 Z80        -0.0579
     11 C8         15.3940   15.1820   56.4460 C.ar      1 Z80        -0.0572
     12 C9         16.6750   14.9520   55.9660 C.ar      1 Z80        -0.0662
     13 C10        16.8540   14.7600   54.6040 C.ar      1 Z80         0.0225
     14 C11        15.7550   14.7970   53.7370 C.ar      1 Z80        -0.0313
     15 C12        13.5660   14.8610   51.8710 C.3       1 Z80         0.0403
     16 C13        14.1770   16.0800   51.1690 C.3       1 Z80        -0.0485
     17 C14        13.1630   17.2010   50.9360 C.3       1 Z80        -0.1117
     18 C15        12.5210   16.8500   48.5090 C.3       1 Z80        -0.1260
     19 C16        13.9560   18.8120   49.1620 C.3       1 Z80        -0.1260
     20 CL1        18.5200   14.4670   53.9970 Cl        1 Z80        -0.0801
     21 C17        10.9680   15.3070   52.7600 C.ar      1 Z80        -0.0451
     22 H           8.8670   15.5337   52.3355 H         1 Z80         0.0529
     23 H           8.2500   15.9093   54.7139 H         1 Z80         0.0494
     24 H          10.0230   15.8931   56.4521 H         1 Z80         0.0529
     25 H          15.2426   15.3358   57.5144 H         1 Z80         0.0530
     26 H          17.5256   14.9227   56.6469 H         1 Z80         0.0501
     27 H          15.9132   14.6425   52.6697 H         1 Z80         0.0507
     28 H          12.5984   14.6654   51.4088 H         1 Z80         0.0556
     29 H          14.2687   14.0343   51.7667 H         1 Z80         0.0556
     30 H          14.5442   15.7549   50.1956 H         1 Z80         0.0268
     31 H          14.9667   16.4726   51.8096 H         1 Z80         0.0268
     32 H          12.1604   16.8452   51.1731 H         1 Z80         0.0017
     33 H          13.3989   18.0497   51.5780 H         1 Z80         0.0017
     34 H          12.8991   15.8278   48.4945 H         1 Z80        -0.0019
     35 H          11.4537   16.8409   48.7303 H         1 Z80        -0.0019
     36 H          12.6879   17.3143   47.5371 H         1 Z80        -0.0019
     37 H          13.5254   19.6733   49.6728 H         1 Z80        -0.0019
     38 H          15.0013   18.7020   49.4506 H         1 Z80        -0.0019
     39 H          13.8887   18.9564   48.0837 H         1 Z80        -0.0019
     40 H          11.2243   15.1409   51.7137 H         1 Z80         0.0502
@<TRIPOS>BOND
     1    2    1 1  
     2    1    4 ar 
     3    1   21 ar 
     4    2    7 1  
     5   15    2 1  
     6    4    3 1  
     7    6    3 1  
     8    4   10 ar 
     9   17    5 1  
    10    5   18 1  
    11    5   19 1  
    12    7    6 ar 
    13    6   11 ar 
    14    7   14 ar 
    15    8    9 ar 
    16   21    8 ar 
    17   10    9 ar 
    18   11   12 ar 
    19   13   12 ar 
    20   14   13 ar 
    21   13   20 1  
    22   16   15 1  
    23   16   17 1  
    24    8   22 1  
    25    9   23 1  
    26   10   24 1  
    27   11   25 1  
    28   12   26 1  
    29   14   27 1  
    30   15   28 1  
    31   15   29 1  
    32   16   30 1  
    33   16   31 1  
    34   17   32 1  
    35   17   33 1  
    36   18   34 1  
    37   18   35 1  
    38   18   36 1  
    39   19   37 1  
    40   19   38 1  
    41   19   39 1  
    42   21   40 1  
@<TRIPOS>SUBSTRUCTURE
     1 Z80         1

