3lk0_ligand
  -I-interpret- 

 41 43  0  0  0  0  0  0  0  0999 V2000
   11.9840   15.2940   53.7220 C   0  0  0  0  0
   13.3370   15.0720   53.3120 N   0  0  0  0  0
   12.7820   15.5080   56.2720 S   0  0  0  0  0
   11.6170   15.5080   55.0530 C   0  0  0  0  0
   13.2220   17.6110   49.5360 N   0  3  0  0  0
   14.2980   15.2200   55.5880 C   0  0  0  0  0
   14.4520   15.0290   54.2120 C   0  0  0  0  0
    9.6370   15.5270   53.1070 C   0  0  0  0  0
    9.2900   15.7380   54.4360 C   0  0  0  0  0
   10.2850   15.7280   55.4070 C   0  0  0  0  0
   15.3940   15.1820   56.4460 C   0  0  0  0  0
   16.6750   14.9520   55.9660 C   0  0  0  0  0
   16.8540   14.7600   54.6040 C   0  0  0  0  0
   15.7550   14.7970   53.7370 C   0  0  0  0  0
   13.5660   14.8610   51.8710 C   0  0  0  0  0
   14.1770   16.0800   51.1690 C   0  0  0  0  0
   13.1630   17.2010   50.9360 C   0  0  0  0  0
   12.5210   16.8500   48.5090 C   0  0  0  0  0
   13.9560   18.8120   49.1620 C   0  0  0  0  0
   18.5200   14.4670   53.9970 Cl  0  0  0  0  0
   10.9680   15.3070   52.7600 C   0  0  0  0  0
   13.8529   16.8142   49.6225 H   0  0  0  0  0
    8.8670   15.5337   52.3355 H   0  0  0  0  0
    8.2500   15.9093   54.7139 H   0  0  0  0  0
   10.0230   15.8931   56.4521 H   0  0  0  0  0
   15.2426   15.3358   57.5144 H   0  0  0  0  0
   17.5256   14.9227   56.6469 H   0  0  0  0  0
   15.9132   14.6425   52.6697 H   0  0  0  0  0
   12.5984   14.6654   51.4088 H   0  0  0  0  0
   14.2687   14.0343   51.7667 H   0  0  0  0  0
   14.5442   15.7549   50.1956 H   0  0  0  0  0
   14.9667   16.4726   51.8096 H   0  0  0  0  0
   12.1604   16.8452   51.1731 H   0  0  0  0  0
   13.3989   18.0497   51.5780 H   0  0  0  0  0
   12.8991   15.8278   48.4945 H   0  0  0  0  0
   11.4537   16.8409   48.7303 H   0  0  0  0  0
   12.6879   17.3143   47.5371 H   0  0  0  0  0
   13.5254   19.6733   49.6728 H   0  0  0  0  0
   15.0013   18.7020   49.4506 H   0  0  0  0  0
   13.8887   18.9564   48.0837 H   0  0  0  0  0
   11.2243   15.1409   51.7137 H   0  0  0  0  0
  2  1  1  0  0  0
  1  4  4  0  0  0
  1 21  4  0  0  0
  2  7  1  0  0  0
 15  2  1  0  0  0
  4  3  1  0  0  0
  6  3  1  0  0  0
  4 10  4  0  0  0
 17  5  1  0  0  0
  5 18  1  0  0  0
  5 19  1  0  0  0
  7  6  4  0  0  0
  6 11  4  0  0  0
  7 14  4  0  0  0
  8  9  4  0  0  0
 21  8  4  0  0  0
 10  9  4  0  0  0
 11 12  4  0  0  0
 13 12  4  0  0  0
 14 13  4  0  0  0
 13 20  1  0  0  0
 16 15  1  0  0  0
 16 17  1  0  0  0
  5 22  1  0  0  0
  8 23  1  0  0  0
  9 24  1  0  0  0
 10 25  1  0  0  0
 11 26  1  0  0  0
 12 27  1  0  0  0
 14 28  1  0  0  0
 15 29  1  0  0  0
 15 30  1  0  0  0
 16 31  1  0  0  0
 16 32  1  0  0  0
 17 33  1  0  0  0
 17 34  1  0  0  0
 18 35  1  0  0  0
 18 36  1  0  0  0
 18 37  1  0  0  0
 19 38  1  0  0  0
 19 39  1  0  0  0
 19 40  1  0  0  0
 21 41  1  0  0  0
M  END
$$$$
