5v8p_ligand
  -I-interpret- 

 26 27  0  0  0  0  0  0  0  0999 V2000
    4.7970  -41.3840  -21.3270 O   0  0  0  0  0
    4.7840  -41.3440  -22.5520 C   0  0  0  0  0
    5.1090  -40.0870  -23.3200 C   0  0  0  0  0
    3.6540  -39.0150  -23.3420 S   0  0  0  0  0
    4.4750  -42.3710  -23.3230 N   0  0  0  0  0
    3.9760  -43.4950  -22.7930 C   0  0  0  0  0
    4.2640  -44.2200  -21.6560 C   0  0  0  0  0
    3.0110  -44.0650  -23.5190 N   0  0  0  0  0
    2.6300  -45.2180  -22.8170 N   0  0  0  0  0
    3.3970  -45.3060  -21.7010 C   0  0  0  0  0
    3.3130  -46.3770  -20.6750 C   0  0  0  0  0
    3.2870  -46.0410  -19.3260 C   0  0  0  0  0
    3.2940  -47.7090  -21.0670 C   0  0  0  0  0
    3.2210  -48.7120  -20.1070 C   0  0  0  0  0
    3.1820  -48.3800  -18.7530 C   0  0  0  0  0
    3.0940  -49.6710  -17.5000 Cl  0  0  0  0  0
    3.2170  -47.0420  -18.3640 C   0  0  0  0  0
    5.3910  -40.3436  -24.3411 H   0  0  0  0  0
    5.9393  -39.5686  -22.8405 H   0  0  0  0  0
    3.9338  -37.9043  -24.0179 H   0  0  0  0  0
    4.6177  -42.3074  -24.3310 H   0  0  0  0  0
    5.0067  -43.9922  -20.8914 H   0  0  0  0  0
    3.3214  -44.9944  -19.0233 H   0  0  0  0  0
    3.3362  -47.9676  -22.1250 H   0  0  0  0  0
    3.1942  -49.7579  -20.4126 H   0  0  0  0  0
    3.1895  -46.7807  -17.3061 H   0  0  0  0  0
  1  2  2  0  0  0
  2  3  1  0  0  0
  2  5  1  0  0  0
  3  4  1  0  0  0
  5  6  1  0  0  0
  6  7  4  0  0  0
  6  8  4  0  0  0
  7 10  4  0  0  0
  8  9  4  0  0  0
  9 10  4  0  0  0
 10 11  1  0  0  0
 11 12  4  0  0  0
 11 13  4  0  0  0
 12 17  4  0  0  0
 13 14  4  0  0  0
 14 15  4  0  0  0
 15 16  1  0  0  0
 15 17  4  0  0  0
  3 18  1  0  0  0
  3 19  1  0  0  0
  4 20  1  0  0  0
  5 21  1  0  0  0
  7 22  1  0  0  0
 12 23  1  0  0  0
 13 24  1  0  0  0
 14 25  1  0  0  0
 17 26  1  0  0  0
M  END
$$$$
