4qws_ligand
  -I-interpret- 

114116  0  0  0  0  0  0  0  0999 V2000
   59.6530 -135.7200   31.6990 C   0  0  0  0  0
   60.1920 -134.7030   31.2630 O   0  0  0  0  0
   59.3760 -136.9490   30.8280 C   0  0  0  0  0
   58.9170 -136.6040   29.4640 N   0  3  0  0  0
   58.4390 -135.0090   27.3390 O   0  0  0  0  0
   60.0160 -136.0820   28.6070 C   0  0  0  0  0
   57.7350 -135.6970   29.4670 C   0  0  0  0  0
   59.4800 -135.9760   27.2240 C   0  0  0  0  0
   57.3010 -135.5310   28.0900 C   0  0  0  0  0
   59.2450 -135.8620   32.9530 N   0  0  0  0  0
   59.4520 -134.8250   33.9510 C   0  0  0  0  0
   60.6520 -135.2830   34.7590 C   0  0  0  0  0
   60.8980 -136.4820   34.8800 O   0  0  0  0  0
   58.2570 -134.7880   34.8580 C   0  0  0  0  0
   57.4400 -133.5750   34.4550 C   0  0  0  0  0
   56.1840 -133.6430   35.1070 C   0  0  0  0  0
   55.0160 -133.3270   34.4090 C   0  0  0  0  0
   56.0710 -133.9990   36.4560 C   0  0  0  0  0
   53.7740 -133.3810   35.0370 C   0  0  0  0  0
   54.8310 -134.0560   37.0820 C   0  0  0  0  0
   53.6780 -133.7460   36.3750 C   0  0  0  0  0
   61.3750 -134.3140   35.3140 N   0  0  0  0  0
   62.5360 -134.6530   36.1370 C   0  0  0  0  0
   62.0560 -134.8290   37.5670 C   0  0  0  0  0
   61.3610 -133.9610   38.0960 O   0  0  0  0  0
   63.5160 -133.5250   36.1010 C   0  0  0  0  0
   64.2250 -133.6650   34.7410 C   0  0  0  0  0
   64.7500 -132.2950   34.2950 C   0  0  0  0  0
   65.3870 -134.6680   34.8500 C   0  0  0  0  0
   62.4330 -135.9750   38.1540 N   0  0  0  0  0
   62.0730 -136.2750   39.5450 C   0  0  0  0  0
   63.3570 -136.2890   40.3610 C   0  0  0  0  0
   64.4610 -136.3120   39.8120 O   0  0  0  0  0
   61.3790 -137.5910   39.6680 C   0  0  0  0  0
   60.0900 -137.3770   39.1710 C   0  0  0  0  0
   59.7830 -137.7100   37.8530 C   0  0  0  0  0
   59.1020 -136.8320   39.9910 C   0  0  0  0  0
   58.5000 -137.5010   37.3580 C   0  0  0  0  0
   57.8190 -136.6240   39.4950 C   0  0  0  0  0
   57.5160 -136.9580   38.1780 C   0  0  0  0  0
   63.1530 -136.2330   41.6860 N   0  0  0  0  0
   64.2490 -136.0700   42.6350 C   0  0  0  0  0
   64.0170 -134.6670   43.1750 C   0  0  0  0  0
   65.0830 -133.6880   42.6490 C   0  0  0  0  0
   64.6840 -132.2710   43.0860 C   0  0  0  0  0
   65.1940 -133.7180   41.1200 C   0  0  0  0  0
   64.2000 -137.0240   43.8440 C   0  0  0  0  0
   64.5630 -138.5470   43.5850 C   0  0  0  0  0
   65.7890 -138.6580   42.6450 C   0  0  0  0  0
   63.4110 -139.2300   42.8380 C   0  0  0  0  0
   62.2310 -138.9560   43.5950 O   0  0  0  0  0
   62.9110 -136.9190   44.4610 O   0  0  0  0  0
   58.5836 -137.5230   31.3083 H   0  0  0  0  0
   60.3094 -137.5038   30.7324 H   0  0  0  0  0
   58.6088 -137.4810   29.0441 H   0  0  0  0  0
   60.8766 -136.7503   28.6357 H   0  0  0  0  0
   60.3533 -135.1090   28.9643 H   0  0  0  0  0
   57.9987 -134.7322   29.9002 H   0  0  0  0  0
   56.9321 -136.1228   30.0688 H   0  0  0  0  0
   60.2432 -135.6821   26.5034 H   0  0  0  0  0
   59.1199 -136.9316   26.8429 H   0  0  0  0  0
   56.9706 -136.4828   27.6742 H   0  0  0  0  0
   56.4563 -134.8444   28.0338 H   0  0  0  0  0
   58.7722 -136.7238   33.2252 H   0  0  0  0  0
   59.5988 -133.8419   33.5038 H   0  0  0  0  0
   58.5640 -134.7198   35.9017 H   0  0  0  0  0
   57.6691 -135.7009   34.7627 H   0  0  0  0  0
   57.2984 -133.5638   33.3743 H   0  0  0  0  0
   57.9609 -132.6623   34.7445 H   0  0  0  0  0
   55.0773 -133.0348   33.3607 H   0  0  0  0  0
   56.9701 -134.2354   37.0251 H   0  0  0  0  0
   52.8721 -133.1357   34.4762 H   0  0  0  0  0
   54.7643 -134.3450   38.1309 H   0  0  0  0  0
   52.7051 -133.7883   36.8646 H   0  0  0  0  0
   61.1206 -133.3374   35.1661 H   0  0  0  0  0
   63.0100 -135.5619   35.7664 H   0  0  0  0  0
   64.2193 -133.5711   36.9325 H   0  0  0  0  0
   63.0256 -132.5572   36.2058 H   0  0  0  0  0
   63.5148 -134.0357   34.0019 H   0  0  0  0  0
   63.9152 -131.6006   34.2005 H   0  0  0  0  0
   65.4552 -131.9187   35.0361 H   0  0  0  0  0
   65.2515 -132.3953   33.3325 H   0  0  0  0  0
   66.1026 -134.3138   35.5920 H   0  0  0  0  0
   64.9987 -135.6404   35.1530 H   0  0  0  0  0
   65.8798 -134.7578   33.8819 H   0  0  0  0  0
   62.9810 -136.6517   37.6228 H   0  0  0  0  0
   61.3817 -135.5150   39.9092 H   0  0  0  0  0
   61.3579 -137.9381   40.7011 H   0  0  0  0  0
   61.8985 -138.3717   39.1123 H   0  0  0  0  0
   60.5512 -138.1359   37.2076 H   0  0  0  0  0
   59.3357 -136.5685   41.0225 H   0  0  0  0  0
   58.2653 -137.7630   36.3263 H   0  0  0  0  0
   57.0493 -136.1986   40.1390 H   0  0  0  0  0
   56.5105 -136.7945   37.7903 H   0  0  0  0  0
   62.1999 -136.3069   42.0416 H   0  0  0  0  0
   65.1994 -136.2645   42.1381 H   0  0  0  0  0
   64.0774 -134.6973   44.2629 H   0  0  0  0  0
   63.0359 -134.3243   42.8464 H   0  0  0  0  0
   66.0501 -133.9821   43.0569 H   0  0  0  0  0
   63.7077 -132.0248   42.6685 H   0  0  0  0  0
   64.6368 -132.2275   44.1741 H   0  0  0  0  0
   65.4253 -131.5584   42.7245 H   0  0  0  0  0
   65.4672 -134.7224   40.7965 H   0  0  0  0  0
   64.2348 -133.4421   40.6819 H   0  0  0  0  0
   65.9586 -133.0108   40.7986 H   0  0  0  0  0
   65.0057 -136.6870   44.4962 H   0  0  0  0  0
   64.7590 -139.0075   44.5533 H   0  0  0  0  0
   65.5593 -138.1804   41.6925 H   0  0  0  0  0
   66.6438 -138.1621   43.1048 H   0  0  0  0  0
   66.0236 -139.7094   42.4785 H   0  0  0  0  0
   63.5810 -140.3029   42.7478 H   0  0  0  0  0
   63.3225 -138.8517   41.8196 H   0  0  0  0  0
   61.4753 -139.3646   43.1666 H   0  0  0  0  0
   62.8699 -137.5101   45.2163 H   0  0  0  0  0
  1  2  2  0  0  0
  3  1  1  0  0  0
  1 10  1  0  0  0
  4  3  1  0  0  0
  6  4  1  0  0  0
  4  7  1  0  0  0
  8  5  1  0  0  0
  5  9  1  0  0  0
  6  8  1  0  0  0
  7  9  1  0  0  0
 10 11  1  0  0  0
 11 12  1  0  0  0
 11 14  1  0  0  0
 12 13  2  0  0  0
 12 22  1  0  0  0
 14 15  1  0  0  0
 15 16  1  0  0  0
 16 17  4  0  0  0
 16 18  4  0  0  0
 17 19  4  0  0  0
 18 20  4  0  0  0
 19 21  4  0  0  0
 20 21  4  0  0  0
 22 23  1  0  0  0
 23 24  1  0  0  0
 23 26  1  0  0  0
 24 25  2  0  0  0
 24 30  1  0  0  0
 26 27  1  0  0  0
 27 28  1  0  0  0
 27 29  1  0  0  0
 30 31  1  0  0  0
 31 32  1  0  0  0
 31 34  1  0  0  0
 32 33  2  0  0  0
 32 41  1  0  0  0
 34 35  1  0  0  0
 35 36  4  0  0  0
 35 37  4  0  0  0
 36 38  4  0  0  0
 37 39  4  0  0  0
 38 40  4  0  0  0
 39 40  4  0  0  0
 41 42  1  0  0  0
 42 43  1  0  0  0
 42 47  1  0  0  0
 43 44  1  0  0  0
 44 45  1  0  0  0
 44 46  1  0  0  0
 47 48  1  0  0  0
 47 52  1  0  0  0
 48 49  1  0  0  0
 48 50  1  0  0  0
 50 51  1  0  0  0
  3 53  1  0  0  0
  3 54  1  0  0  0
  4 55  1  0  0  0
  6 56  1  0  0  0
  6 57  1  0  0  0
  7 58  1  0  0  0
  7 59  1  0  0  0
  8 60  1  0  0  0
  8 61  1  0  0  0
  9 62  1  0  0  0
  9 63  1  0  0  0
 10 64  1  0  0  0
 11 65  1  0  0  0
 14 66  1  0  0  0
 14 67  1  0  0  0
 15 68  1  0  0  0
 15 69  1  0  0  0
 17 70  1  0  0  0
 18 71  1  0  0  0
 19 72  1  0  0  0
 20 73  1  0  0  0
 21 74  1  0  0  0
 22 75  1  0  0  0
 23 76  1  0  0  0
 26 77  1  0  0  0
 26 78  1  0  0  0
 27 79  1  0  0  0
 28 80  1  0  0  0
 28 81  1  0  0  0
 28 82  1  0  0  0
 29 83  1  0  0  0
 29 84  1  0  0  0
 29 85  1  0  0  0
 30 86  1  0  0  0
 31 87  1  0  0  0
 34 88  1  0  0  0
 34 89  1  0  0  0
 36 90  1  0  0  0
 37 91  1  0  0  0
 38 92  1  0  0  0
 39 93  1  0  0  0
 40 94  1  0  0  0
 41 95  1  0  0  0
 42 96  1  0  0  0
 43 97  1  0  0  0
 43 98  1  0  0  0
 44 99  1  0  0  0
 45100  1  0  0  0
 45101  1  0  0  0
 45102  1  0  0  0
 46103  1  0  0  0
 46104  1  0  0  0
 46105  1  0  0  0
 47106  1  0  0  0
 48107  1  0  0  0
 49108  1  0  0  0
 49109  1  0  0  0
 49110  1  0  0  0
 50111  1  0  0  0
 50112  1  0  0  0
 51113  1  0  0  0
 52114  1  0  0  0
M  END
$$$$
