### 
### Created by X-TOOL on Mon Sep 10 21:13:23 2018
### 

@<TRIPOS>MOLECULE
4qws_ligand
  114   116     1     0     0
SMALL
GAST_HUCK


@<TRIPOS>ATOM
      1 C8         59.6530 -135.7200   31.6990 C.2       1 3BV         0.2238
      2 O9         60.1920 -134.7030   31.2630 O.2       1 3BV        -0.3910
      3 C7         59.3760 -136.9490   30.8280 C.3       1 3BV         0.0582
      4 N4         58.9170 -136.6040   29.4640 N.4       1 3BV         0.2552
      5 O1         58.4390 -135.0090   27.3390 O.3       1 3BV        -0.3693
      6 C5         60.0160 -136.0820   28.6070 C.3       1 3BV        -0.0060
      7 C3         57.7350 -135.6970   29.4670 C.3       1 3BV        -0.0060
      8 C6         59.4800 -135.9760   27.2240 C.3       1 3BV         0.0878
      9 C2         57.3010 -135.5310   28.0900 C.3       1 3BV         0.0878
     10 N10        59.2450 -135.8620   32.9530 N.am      1 3BV        -0.2611
     11 C11        59.4520 -134.8250   33.9510 C.3       1 3BV         0.1328
     12 C20        60.6520 -135.2830   34.7590 C.2       1 3BV         0.2041
     13 O21        60.8980 -136.4820   34.8800 O.2       1 3BV        -0.3944
     14 C12        58.2570 -134.7880   34.8580 C.3       1 3BV        -0.0027
     15 C13        57.4400 -133.5750   34.4550 C.3       1 3BV        -0.0149
     16 C14        56.1840 -133.6430   35.1070 C.ar      1 3BV        -0.0428
     17 C19        55.0160 -133.3270   34.4090 C.ar      1 3BV        -0.0603
     18 C15        56.0710 -133.9990   36.4560 C.ar      1 3BV        -0.0603
     19 C18        53.7740 -133.3810   35.0370 C.ar      1 3BV        -0.0686
     20 C16        54.8310 -134.0560   37.0820 C.ar      1 3BV        -0.0686
     21 C17        53.6780 -133.7460   36.3750 C.ar      1 3BV        -0.0687
     22 N22        61.3750 -134.3140   35.3140 N.am      1 3BV        -0.2637
     23 C23        62.5360 -134.6530   36.1370 C.3       1 3BV         0.1312
     24 C28        62.0560 -134.8290   37.5670 C.2       1 3BV         0.2040
     25 O29        61.3610 -133.9610   38.0960 O.2       1 3BV        -0.3944
     26 C24        63.5160 -133.5250   36.1010 C.3       1 3BV        -0.0101
     27 C25        64.2250 -133.6650   34.7410 C.3       1 3BV        -0.0425
     28 C26        64.7500 -132.2950   34.2950 C.3       1 3BV        -0.0625
     29 C27        65.3870 -134.6680   34.8500 C.3       1 3BV        -0.0625
     30 N30        62.4330 -135.9750   38.1540 N.am      1 3BV        -0.2619
     31 C31        62.0730 -136.2750   39.5450 C.3       1 3BV         0.1403
     32 C39        63.3570 -136.2890   40.3610 C.2       1 3BV         0.2040
     33 O40        64.4610 -136.3120   39.8120 O.2       1 3BV        -0.3943
     34 C32        61.3790 -137.5910   39.6680 C.3       1 3BV         0.0214
     35 C33        60.0900 -137.3770   39.1710 C.ar      1 3BV        -0.0386
     36 C34        59.7830 -137.7100   37.8530 C.ar      1 3BV        -0.0601
     37 C38        59.1020 -136.8320   39.9910 C.ar      1 3BV        -0.0601
     38 C35        58.5000 -137.5010   37.3580 C.ar      1 3BV        -0.0686
     39 C37        57.8190 -136.6240   39.4950 C.ar      1 3BV        -0.0686
     40 C36        57.5160 -136.9580   38.1780 C.ar      1 3BV        -0.0687
     41 N41        63.1530 -136.2330   41.6860 N.am      1 3BV        -0.2794
     42 C42        64.2490 -136.0700   42.6350 C.3       1 3BV         0.0685
     43 C43        64.0170 -134.6670   43.1750 C.3       1 3BV        -0.0251
     44 C44        65.0830 -133.6880   42.6490 C.3       1 3BV        -0.0446
     45 C45        64.6840 -132.2710   43.0860 C.3       1 3BV        -0.0626
     46 C46        65.1940 -133.7180   41.1200 C.3       1 3BV        -0.0626
     47 C47        64.2000 -137.0240   43.8440 C.3       1 3BV         0.0827
     48 C51        64.5630 -138.5470   43.5850 C.3       1 3BV         0.0075
     49 C58        65.7890 -138.6580   42.6450 C.3       1 3BV        -0.0579
     50 C59        63.4110 -139.2300   42.8380 C.3       1 3BV         0.0492
     51 O60        62.2310 -138.9560   43.5950 O.3       1 3BV        -0.3947
     52 O48        62.9110 -136.9190   44.4610 O.3       1 3BV        -0.3892
     53 H1         58.5986 -137.5554   31.3157 H         1 3BV         0.1063
     54 H2         60.3024 -137.5365   30.7472 H         1 3BV         0.1063
     55 H3         58.6120 -137.4671   29.0420 H         1 3BV         0.2054
     56 H4         60.8715 -136.7731   28.6280 H         1 3BV         0.0837
     57 H5         60.3355 -135.0920   28.9646 H         1 3BV         0.0837
     58 H6         58.0127 -134.7213   29.8923 H         1 3BV         0.0837
     59 H7         56.9245 -136.1401   30.0642 H         1 3BV         0.0837
     60 H8         60.2586 -135.6333   26.5267 H         1 3BV         0.0613
     61 H9         59.0816 -136.9427   26.8825 H         1 3BV         0.0613
     62 H10        56.9875 -136.4999   27.6742 H         1 3BV         0.0613
     63 H11        56.4610 -134.8224   28.0424 H         1 3BV         0.0613
     64 H12        58.7815 -136.7069   33.2199 H         1 3BV         0.1884
     65 H13        59.6252 -133.8431   33.4863 H         1 3BV         0.0801
     66 H14        58.5792 -134.6967   35.9058 H         1 3BV         0.0334
     67 H15        57.6604 -135.7041   34.7363 H         1 3BV         0.0334
     68 H16        57.2926 -133.5722   33.3649 H         1 3BV         0.0428
     69 H17        57.9654 -132.6568   34.7564 H         1 3BV         0.0428
     70 H18        55.0770 -133.0364   33.3665 H         1 3BV         0.0557
     71 H19        56.9651 -134.2341   37.0219 H         1 3BV         0.0557
     72 H20        52.8771 -133.1370   34.4793 H         1 3BV         0.0599
     73 H21        54.7647 -134.3434   38.1251 H         1 3BV         0.0599
     74 H22        52.7104 -133.7881   36.8619 H         1 3BV         0.0559
     75 H23        61.1256 -133.3565   35.1690 H         1 3BV         0.1883
     76 H24        63.0071 -135.5774   35.7717 H         1 3BV         0.0800
     77 H25        64.2386 -133.6126   36.9257 H         1 3BV         0.0315
     78 H26        62.9966 -132.5578   36.1697 H         1 3BV         0.0315
     79 H27        63.5042 -134.0335   33.9962 H         1 3BV         0.0298
     80 H28        65.2564 -132.3949   33.3236 H         1 3BV         0.0232
     81 H29        65.4619 -131.9141   35.0421 H         1 3BV         0.0232
     82 H30        63.9084 -131.5932   34.1992 H         1 3BV         0.0232
     83 H31        64.9984 -135.6459   35.1703 H         1 3BV         0.0232
     84 H32        66.1174 -134.3043   35.5877 H         1 3BV         0.0232
     85 H33        65.8758 -134.7709   33.8700 H         1 3BV         0.0232
     86 H34        62.9703 -136.6384   37.6332 H         1 3BV         0.1885
     87 H35        61.4050 -135.4870   39.9230 H         1 3BV         0.0823
     88 H36        61.3382 -137.9081   40.7205 H         1 3BV         0.0474
     89 H37        61.8984 -138.3574   39.0740 H         1 3BV         0.0474
     90 H38        60.5470 -138.1335   37.2111 H         1 3BV         0.0557
     91 H39        59.3344 -136.5700   41.0169 H         1 3BV         0.0557
     92 H40        58.2665 -137.7615   36.3320 H         1 3BV         0.0599
     93 H41        57.0536 -136.2009   40.1355 H         1 3BV         0.0599
     94 H42        56.5160 -136.7954   37.7924 H         1 3BV         0.0559
     95 H43        62.2185 -136.3054   42.0346 H         1 3BV         0.1856
     96 H44        65.2190 -136.1647   42.1250 H         1 3BV         0.0582
     97 H45        64.0635 -134.6925   44.2737 H         1 3BV         0.0291
     98 H46        63.0226 -134.3198   42.8580 H         1 3BV         0.0291
     99 H47        66.0587 -133.9511   43.0834 H         1 3BV         0.0296
    100 H48        65.4315 -131.5509   42.7217 H         1 3BV         0.0232
    101 H49        64.6360 -132.2258   44.1840 H         1 3BV         0.0232
    102 H50        63.6988 -132.0213   42.6653 H         1 3BV         0.0232
    103 H51        65.4796 -134.7287   40.7929 H         1 3BV         0.0232
    104 H52        65.9583 -132.9973   40.7936 H         1 3BV         0.0232
    105 H53        64.2238 -133.4496   40.6766 H         1 3BV         0.0232
    106 H54        64.9460 -136.6519   44.5616 H         1 3BV         0.0620
    107 H55        64.7614 -139.0513   44.5422 H         1 3BV         0.0346
    108 H56        66.0267 -139.7187   42.4762 H         1 3BV         0.0234
    109 H57        66.6525 -138.1579   43.1079 H         1 3BV         0.0234
    110 H58        65.5585 -138.1764   41.6833 H         1 3BV         0.0234
    111 H59        63.5838 -140.3148   42.7795 H         1 3BV         0.0560
    112 H60        63.3172 -138.8183   41.8223 H         1 3BV         0.0560
    113 H61        62.0988 -138.0165   43.6443 H         1 3BV         0.2094
    114 H62        62.2556 -137.3022   43.8899 H         1 3BV         0.2099
@<TRIPOS>BOND
     1    1    2 2  
     2    3    1 1  
     3    1   10 am 
     4    4    3 1  
     5    6    4 1  
     6    4    7 1  
     7    8    5 1  
     8    5    9 1  
     9    6    8 1  
    10    7    9 1  
    11   10   11 1  
    12   11   12 1  
    13   11   14 1  
    14   12   13 2  
    15   12   22 am 
    16   14   15 1  
    17   15   16 1  
    18   16   17 ar 
    19   16   18 ar 
    20   17   19 ar 
    21   18   20 ar 
    22   19   21 ar 
    23   20   21 ar 
    24   22   23 1  
    25   23   24 1  
    26   23   26 1  
    27   24   25 2  
    28   24   30 am 
    29   26   27 1  
    30   27   28 1  
    31   27   29 1  
    32   30   31 1  
    33   31   32 1  
    34   31   34 1  
    35   32   33 2  
    36   32   41 am 
    37   34   35 1  
    38   35   36 ar 
    39   35   37 ar 
    40   36   38 ar 
    41   37   39 ar 
    42   38   40 ar 
    43   39   40 ar 
    44   41   42 1  
    45   42   43 1  
    46   42   47 1  
    47   43   44 1  
    48   44   45 1  
    49   44   46 1  
    50   47   48 1  
    51   47   52 1  
    52   48   49 1  
    53   48   50 1  
    54   50   51 1  
    55    3   53 1  
    56    3   54 1  
    57    4   55 1  
    58    6   56 1  
    59    6   57 1  
    60    7   58 1  
    61    7   59 1  
    62    8   60 1  
    63    8   61 1  
    64    9   62 1  
    65    9   63 1  
    66   10   64 1  
    67   11   65 1  
    68   14   66 1  
    69   14   67 1  
    70   15   68 1  
    71   15   69 1  
    72   17   70 1  
    73   18   71 1  
    74   19   72 1  
    75   20   73 1  
    76   21   74 1  
    77   22   75 1  
    78   23   76 1  
    79   26   77 1  
    80   26   78 1  
    81   27   79 1  
    82   28   80 1  
    83   28   81 1  
    84   28   82 1  
    85   29   83 1  
    86   29   84 1  
    87   29   85 1  
    88   30   86 1  
    89   31   87 1  
    90   34   88 1  
    91   34   89 1  
    92   36   90 1  
    93   37   91 1  
    94   38   92 1  
    95   39   93 1  
    96   40   94 1  
    97   41   95 1  
    98   42   96 1  
    99   43   97 1  
   100   43   98 1  
   101   44   99 1  
   102   45  100 1  
   103   45  101 1  
   104   45  102 1  
   105   46  103 1  
   106   46  104 1  
   107   46  105 1  
   108   47  106 1  
   109   48  107 1  
   110   49  108 1  
   111   49  109 1  
   112   49  110 1  
   113   50  111 1  
   114   50  112 1  
   115   51  113 1  
   116   52  114 1  
@<TRIPOS>SUBSTRUCTURE
     1 3BV         1

