2bro_ligand
  -I-interpret- 

 46 49  0  0  0  0  0  0  0  0999 V2000
    6.0080   -2.2440   19.4940 C   0  0  0  0  0
    2.0170   -4.2580   19.5640 C   0  0  0  0  0
    0.6750   -4.5770   19.7620 C   0  0  0  0  0
    0.0310   -5.6330   19.1180 C   0  0  0  0  0
   -1.3250   -5.9030   19.3630 C   0  0  0  0  0
   -2.0480   -5.0900   20.2500 C   0  0  0  0  0
   -1.4140   -4.0250   20.8720 C   0  0  0  0  0
   -0.0610   -3.7700   20.6310 C   0  0  0  0  0
    2.4130   -6.5850   17.1240 C   0  0  0  0  0
    2.3890   -7.9450   16.7750 C   0  0  0  0  0
    2.8260   -8.9490   17.6610 C   0  0  0  0  0
    3.3390   -8.7590   18.9190 C   0  0  0  0  0
    4.7640   -2.1100   19.9200 N   0  0  0  0  0
    8.6480   -5.4600   15.6850 C   0  0  0  0  0
    3.8480   -3.0580   19.6860 C   0  0  0  0  0
    4.1910   -4.2270   19.0050 C   0  0  0  0  0
    7.8400   -6.5480   15.2260 O   0  0  0  0  0
    6.0290   -5.3850   17.9910 N   0  0  0  0  0
    5.5280   -4.3360   18.6050 C   0  0  0  0  0
    6.4000   -3.3520   18.8690 N   0  0  0  0  0
    2.5400   -3.1060   19.9750 N   0  0  0  0  0
    3.3500   -7.3800   19.1670 C   0  0  0  0  0
    3.0190   -4.9960   18.9380 C   0  0  0  0  0
    2.9050   -6.3050   18.3830 C   0  0  0  0  0
    7.7500   -4.5820   16.5380 C   0  0  0  0  0
    7.4670   -5.4010   17.8080 C   0  0  0  0  0
    8.3350   -3.2640   16.8360 O   0  0  0  0  0
    6.7222   -1.4368   19.6566 H   0  0  0  0  0
    0.5864   -6.2557   18.4167 H   0  0  0  0  0
   -1.8144   -6.7408   18.8663 H   0  0  0  0  0
   -3.1001   -5.2943   20.4484 H   0  0  0  0  0
   -1.9738   -3.3833   21.5525 H   0  0  0  0  0
    0.4253   -2.9305   21.1279 H   0  0  0  0  0
    2.0668   -5.8039   16.4471 H   0  0  0  0  0
    2.0215   -8.2320   15.7898 H   0  0  0  0  0
    2.7489   -9.9789   17.3125 H   0  0  0  0  0
    3.6766   -9.5389   19.6015 H   0  0  0  0  0
    9.0577   -4.8983   14.8455 H   0  0  0  0  0
    9.4986   -5.8232   16.2617 H   0  0  0  0  0
    8.3715   -7.1315   14.6795 H   0  0  0  0  0
    5.4372   -6.1473   17.6608 H   0  0  0  0  0
    3.7751   -7.0950   20.1294 H   0  0  0  0  0
    6.8315   -4.3355   16.0054 H   0  0  0  0  0
    7.8379   -6.4210   17.7073 H   0  0  0  0  0
    7.9767   -4.9737   18.6715 H   0  0  0  0  0
    7.7230   -2.7581   17.3756 H   0  0  0  0  0
  1 13  4  0  0  0
 20  1  4  0  0  0
  2  3  1  0  0  0
  2 21  4  0  0  0
 23  2  4  0  0  0
  3  4  4  0  0  0
  3  8  4  0  0  0
  4  5  4  0  0  0
  5  6  4  0  0  0
  7  6  4  0  0  0
  8  7  4  0  0  0
  9 10  4  0  0  0
 24  9  4  0  0  0
 10 11  4  0  0  0
 12 11  4  0  0  0
 22 12  4  0  0  0
 15 13  4  0  0  0
 14 17  1  0  0  0
 25 14  1  0  0  0
 16 15  4  0  0  0
 15 21  4  0  0  0
 19 16  4  0  0  0
 16 23  4  0  0  0
 18 19  1  0  0  0
 26 18  1  0  0  0
 19 20  4  0  0  0
 24 22  4  0  0  0
 23 24  1  0  0  0
 25 26  1  0  0  0
 25 27  1  0  0  0
  1 28  1  0  0  0
  4 29  1  0  0  0
  5 30  1  0  0  0
  6 31  1  0  0  0
  7 32  1  0  0  0
  8 33  1  0  0  0
  9 34  1  0  0  0
 10 35  1  0  0  0
 11 36  1  0  0  0
 12 37  1  0  0  0
 14 38  1  0  0  0
 14 39  1  0  0  0
 17 40  1  0  0  0
 18 41  1  0  0  0
 22 42  1  0  0  0
 25 43  1  0  0  0
 26 44  1  0  0  0
 26 45  1  0  0  0
 27 46  1  0  0  0
M  END
$$$$
