3wv2_ligand
  -I-interpret- 

 38 40  0  0  0  0  0  0  0  0999 V2000
   -3.1430  -30.5370   47.8010 C   0  0  0  0  0
   -3.2010  -30.2210   46.4580 C   0  0  0  0  0
  -12.0830  -30.0370   44.9140 C   0  0  0  0  0
   -4.1760  -31.2500   48.3730 C   0  0  0  0  0
  -10.9710  -30.7880   44.6100 C   0  0  0  0  0
   -4.2820  -30.6100   45.6920 C   0  0  0  0  0
  -13.2800  -30.2900   44.2790 C   0  0  0  0  0
  -12.2450  -32.0460   43.0590 C   0  0  0  0  0
   -5.2490  -31.6390   47.5950 C   0  0  0  0  0
  -11.0470  -31.8010   43.6800 C   0  0  0  0  0
   -5.3190  -31.3270   46.2530 C   0  0  0  0  0
  -13.3630  -31.3010   43.3450 C   0  0  0  0  0
   -6.3440  -32.3980   48.2140 C   0  0  0  0  0
   -7.3450  -32.3730   46.0320 C   0  0  0  0  0
   -8.5540  -32.8230   45.2530 C   0  0  0  0  0
  -15.5150  -30.6160   42.9230 C   0  0  0  0  0
   -9.8800  -32.6660   43.2940 C   0  0  0  0  0
   -6.4010  -31.7040   45.4560 N   0  0  0  0  0
   -7.3610  -32.7330   47.3530 N   0  0  0  0  0
   -8.6490  -32.3780   43.9660 N   0  0  0  0  0
   -6.2940  -32.6810   49.4020 O   0  0  0  0  0
   -9.3780  -33.5240   45.8060 O   0  0  0  0  0
  -14.5380  -31.6320   42.6630 O   0  0  0  0  0
   -2.2893  -30.2261   48.4032 H   0  0  0  0  0
   -2.3870  -29.6600   45.9989 H   0  0  0  0  0
  -12.0174  -29.2421   45.6569 H   0  0  0  0  0
   -4.1458  -31.5049   49.4324 H   0  0  0  0  0
  -10.0241  -30.5800   45.1082 H   0  0  0  0  0
   -4.3165  -30.3483   44.6344 H   0  0  0  0  0
  -14.1599  -29.6916   44.5149 H   0  0  0  0  0
  -12.3113  -32.8480   42.3238 H   0  0  0  0  0
  -15.7075  -30.5646   43.9946 H   0  0  0  0  0
  -15.1391  -29.6544   42.5736 H   0  0  0  0  0
  -16.4387  -30.8591   42.3978 H   0  0  0  0  0
   -9.7022  -32.4912   42.2329 H   0  0  0  0  0
  -10.1487  -33.6874   43.5636 H   0  0  0  0  0
   -8.1535  -33.2671   47.7094 H   0  0  0  0  0
   -7.8896  -31.8714   43.5110 H   0  0  0  0  0
  2  1  4  0  0  0
  4  1  4  0  0  0
  6  2  4  0  0  0
  5  3  4  0  0  0
  3  7  4  0  0  0
  9  4  4  0  0  0
 10  5  4  0  0  0
 11  6  4  0  0  0
 12  7  4  0  0  0
 10  8  4  0  0  0
  8 12  4  0  0  0
 11  9  4  0  0  0
 13  9  1  0  0  0
 17 10  1  0  0  0
 18 11  1  0  0  0
 12 23  1  0  0  0
 19 13  1  0  0  0
 13 21  2  0  0  0
 15 14  1  0  0  0
 14 18  2  0  0  0
 14 19  1  0  0  0
 20 15  1  0  0  0
 15 22  2  0  0  0
 23 16  1  0  0  0
 17 20  1  0  0  0
  1 24  1  0  0  0
  2 25  1  0  0  0
  3 26  1  0  0  0
  4 27  1  0  0  0
  5 28  1  0  0  0
  6 29  1  0  0  0
  7 30  1  0  0  0
  8 31  1  0  0  0
 16 32  1  0  0  0
 16 33  1  0  0  0
 16 34  1  0  0  0
 17 35  1  0  0  0
 17 36  1  0  0  0
 19 37  1  0  0  0
 20 38  1  0  0  0
M  END
$$$$
