5ct1_ligand
  -I-interpret- 

 31 31  0  0  0  0  0  0  0  0999 V2000
   -0.6290   24.6990  -11.4960 C   0  0  0  0  0
   -1.6190   25.8010  -11.8960 C   0  0  0  0  0
   -2.4670   26.4220  -10.7720 C   0  0  0  0  0
   -1.7210   26.4950   -9.4300 C   0  0  0  0  0
   -2.8570   27.7720  -11.1650 N   0  3  0  0  0
   -4.2410   28.2060  -11.2820 C   0  0  0  0  0
   -4.3480   29.7350  -11.3650 C   0  0  0  0  0
   -4.9380   30.3090  -12.8250 S   0  0  0  0  0
   -3.9110   31.0910  -13.5590 O   0  0  0  0  0
   -5.3510   29.1610  -13.6720 O   0  0  0  0  0
   -6.0990   31.2020  -12.5810 O   0  0  0  0  0
   -0.8040   25.3100   -9.0890 C   0  0  0  0  0
    0.1640   25.0080  -10.2260 C   0  0  0  0  0
    0.0893   24.5982  -12.3096 H   0  0  0  0  0
   -1.2094   23.7967  -11.3037 H   0  0  0  0  0
   -2.3278   25.3305  -12.5775 H   0  0  0  0  0
   -1.0128   26.6144  -12.2948 H   0  0  0  0  0
   -3.3356   25.7792  -10.6289 H   0  0  0  0  0
   -2.4903   26.5129   -8.6580 H   0  0  0  0  0
   -1.0732   27.3694   -9.4923 H   0  0  0  0  0
   -2.5147   27.8389  -12.1235 H   0  0  0  0  0
   -2.5019   28.3446  -10.3992 H   0  0  0  0  0
   -4.7834   27.8701  -10.3982 H   0  0  0  0  0
   -4.6594   27.7813  -12.1945 H   0  0  0  0  0
   -3.3400   30.1332  -11.2484 H   0  0  0  0  0
   -5.0482   30.0493  -10.5911 H   0  0  0  0  0
   -6.0158   28.6460  -13.2090 H   0  0  0  0  0
   -1.4249   24.4300   -8.9212 H   0  0  0  0  0
   -0.2252   25.5655   -8.2014 H   0  0  0  0  0
    0.8060   25.8719  -10.3978 H   0  0  0  0  0
    0.7800   24.1483   -9.9622 H   0  0  0  0  0
  1  2  1  0  0  0
  1 13  1  0  0  0
  2  3  1  0  0  0
  3  4  1  0  0  0
  3  5  1  0  0  0
  4 12  1  0  0  0
  5  6  1  0  0  0
  6  7  1  0  0  0
  7  8  1  0  0  0
  8  9  2  0  0  0
  8 10  1  0  0  0
  8 11  2  0  0  0
 12 13  1  0  0  0
  1 14  1  0  0  0
  1 15  1  0  0  0
  2 16  1  0  0  0
  2 17  1  0  0  0
  3 18  1  0  0  0
  4 19  1  0  0  0
  4 20  1  0  0  0
  5 21  1  0  0  0
  5 22  1  0  0  0
  6 23  1  0  0  0
  6 24  1  0  0  0
  7 25  1  0  0  0
  7 26  1  0  0  0
 10 27  1  0  0  0
 12 28  1  0  0  0
 12 29  1  0  0  0
 13 30  1  0  0  0
 13 31  1  0  0  0
M  END
$$$$
