2dq7_ligand
  -I-interpret- 

 62 69  0  0  0  0  0  0  0  0999 V2000
  -15.0110   20.1620  -13.9350 O   0  0  0  0  0
  -14.8410   18.9340  -14.6700 C   0  0  0  0  0
  -15.7380   18.7990  -15.9230 C   0  0  0  0  0
  -16.4480   20.0920  -16.1960 C   0  0  0  0  0
  -17.2790   20.3420  -14.9420 C   0  0  0  0  0
  -16.3160   20.6850  -13.7260 C   0  0  0  0  0
  -16.0520   22.1960  -13.5440 C   0  0  0  0  0
  -16.9390   20.2490  -12.4460 N   0  0  0  0  0
  -16.7450   18.9490  -12.1130 C   0  0  0  0  0
  -15.9190   17.9010  -12.6540 C   0  0  0  0  0
  -15.8730   16.6270  -11.9850 C   0  0  0  0  0
  -16.6140   16.3480  -10.7920 C   0  0  0  0  0
  -17.4360   17.3700  -10.2580 C   0  0  0  0  0
  -17.4610   18.6370  -10.9240 C   0  0  0  0  0
  -18.2560   19.7840  -10.5930 C   0  0  0  0  0
  -17.8200   20.7400  -11.5370 C   0  0  0  0  0
  -18.4210   21.9960  -11.5170 C   0  0  0  0  0
  -19.3910   22.3400  -10.5460 C   0  0  0  0  0
  -19.7650   21.3880   -9.5730 C   0  0  0  0  0
  -19.2000   20.0680   -9.5850 C   0  0  0  0  0
  -18.1120   16.7780   -9.0440 C   0  0  0  0  0
  -17.5470   15.3950   -9.0420 N   0  0  0  0  0
  -16.6510   15.1550  -10.0520 C   0  0  0  0  0
  -16.0100   14.1080  -10.2170 O   0  0  0  0  0
  -15.0000   15.7690  -12.7170 C   0  0  0  0  0
  -14.5650   16.6060  -13.8000 C   0  0  0  0  0
  -13.6730   16.0910  -14.7720 C   0  0  0  0  0
  -13.2370   14.7330  -14.6380 C   0  0  0  0  0
  -13.6650   13.9260  -13.5580 C   0  0  0  0  0
  -14.5650   14.4400  -12.5740 C   0  0  0  0  0
  -15.1080   17.8510  -13.7350 N   0  0  0  0  0
  -18.0390   19.1520  -14.7230 O   0  0  0  0  0
  -19.4150   19.3850  -14.3480 C   0  0  0  0  0
  -17.2800   19.9270  -17.4030 N   0  3  0  0  0
  -17.8560   21.2250  -17.8740 C   0  0  0  0  0
  -13.8252   18.9101  -15.0646 H   0  0  0  0  0
  -16.4770   18.0168  -15.7493 H   0  0  0  0  0
  -15.1152   18.5466  -16.7812 H   0  0  0  0  0
  -15.7857   20.9358  -16.3899 H   0  0  0  0  0
  -17.9531   21.1921  -15.0470 H   0  0  0  0  0
  -16.9959   22.7087  -13.3590 H   0  0  0  0  0
  -15.3828   22.3472  -12.6970 H   0  0  0  0  0
  -15.5917   22.5946  -14.4481 H   0  0  0  0  0
  -18.1370   22.7328  -12.2684 H   0  0  0  0  0
  -19.8452   23.3308  -10.5492 H   0  0  0  0  0
  -20.4899   21.6577   -8.8050 H   0  0  0  0  0
  -19.4881   19.3188   -8.8476 H   0  0  0  0  0
  -19.2006   16.8073   -9.0898 H   0  0  0  0  0
  -17.9234   17.3305   -8.1235 H   0  0  0  0  0
  -17.8050   14.6912   -8.3503 H   0  0  0  0  0
  -13.3277   16.7109  -15.5994 H   0  0  0  0  0
  -12.5617   14.3130  -15.3835 H   0  0  0  0  0
  -13.3044   12.9007  -13.4753 H   0  0  0  0  0
  -14.9025   13.8228  -11.7414 H   0  0  0  0  0
  -19.4456   19.9584  -13.4215 H   0  0  0  0  0
  -19.9163   19.9430  -15.1389 H   0  0  0  0  0
  -19.9173   18.4288  -14.2017 H   0  0  0  0  0
  -18.0524   19.3018  -17.1730 H   0  0  0  0  0
  -16.6901   19.5532  -18.1464 H   0  0  0  0  0
  -18.4794   21.6509  -17.0879 H   0  0  0  0  0
  -17.0466   21.9153  -18.1117 H   0  0  0  0  0
  -18.4602   21.0511  -18.7644 H   0  0  0  0  0
  1  2  1  0  0  0
  1  6  1  0  0  0
  2  3  1  0  0  0
  2 31  1  0  0  0
  3  4  1  0  0  0
  4  5  1  0  0  0
  4 34  1  0  0  0
  5  6  1  0  0  0
  5 32  1  0  0  0
  6  7  1  0  0  0
  6  8  1  0  0  0
  8  9  4  0  0  0
  8 16  4  0  0  0
  9 10  4  0  0  0
  9 14  4  0  0  0
 10 11  4  0  0  0
 10 31  4  0  0  0
 11 12  4  0  0  0
 11 25  4  0  0  0
 12 13  4  0  0  0
 12 23  1  0  0  0
 13 14  4  0  0  0
 13 21  1  0  0  0
 14 15  4  0  0  0
 15 16  4  0  0  0
 15 20  4  0  0  0
 16 17  4  0  0  0
 17 18  4  0  0  0
 18 19  4  0  0  0
 19 20  4  0  0  0
 21 22  1  0  0  0
 22 23  1  0  0  0
 23 24  2  0  0  0
 25 26  4  0  0  0
 25 30  4  0  0  0
 26 27  4  0  0  0
 26 31  4  0  0  0
 27 28  4  0  0  0
 28 29  4  0  0  0
 29 30  4  0  0  0
 32 33  1  0  0  0
 34 35  1  0  0  0
  2 36  1  0  0  0
  3 37  1  0  0  0
  3 38  1  0  0  0
  4 39  1  0  0  0
  5 40  1  0  0  0
  7 41  1  0  0  0
  7 42  1  0  0  0
  7 43  1  0  0  0
 17 44  1  0  0  0
 18 45  1  0  0  0
 19 46  1  0  0  0
 20 47  1  0  0  0
 21 48  1  0  0  0
 21 49  1  0  0  0
 22 50  1  0  0  0
 27 51  1  0  0  0
 28 52  1  0  0  0
 29 53  1  0  0  0
 30 54  1  0  0  0
 33 55  1  0  0  0
 33 56  1  0  0  0
 33 57  1  0  0  0
 34 58  1  0  0  0
 34 59  1  0  0  0
 35 60  1  0  0  0
 35 61  1  0  0  0
 35 62  1  0  0  0
M  END
$$$$
