5d6q_ligand
  -I-interpret- 

 40 42  0  0  0  0  0  0  0  0999 V2000
  -15.5230  -16.2070  -30.2150 O   0  0  0  0  0
  -19.3630  -16.3090  -31.2610 C   0  0  0  0  0
   -9.4040  -21.4410  -32.8900 C   0  0  0  0  0
  -10.6390  -20.5610  -32.5860 C   0  0  0  0  0
  -10.4050  -19.4550  -31.8630 C   0  0  0  0  0
  -11.5170  -18.5640  -31.4360 C   0  0  0  0  0
  -13.6470  -17.7300  -31.4340 C   0  0  0  0  0
  -15.8210  -16.8210  -31.2300 C   0  0  0  0  0
  -17.9720  -15.6220  -31.3870 C   0  0  0  0  0
  -16.9330  -16.6010  -31.8450 N   0  0  0  0  0
   -8.0760  -20.9890  -32.7320 C   0  0  0  0  0
   -7.0430  -21.9180  -32.9890 C   0  0  0  0  0
  -10.1730  -17.2360  -29.5800 C   0  0  0  0  0
  -14.9560  -17.6600  -31.8730 N   0  0  0  0  0
  -11.3620  -17.5300  -30.3910 C   0  0  0  0  0
   -9.6510  -22.7410  -33.2760 C   0  0  0  0  0
   -7.4140  -23.1880  -33.4090 C   0  0  0  0  0
  -12.9330  -16.7850  -30.1970 S   0  0  0  0  0
   -9.9260  -16.0040  -29.1150 N   0  0  0  0  0
   -8.7600  -16.0950  -28.3990 C   0  0  0  0  0
   -8.3370  -17.3890  -28.3790 C   0  0  0  0  0
   -9.2620  -18.1460  -29.0690 C   0  0  0  0  0
  -12.8140  -18.6680  -32.0040 N   0  0  0  0  0
   -8.6800  -23.5720  -33.5770 N   0  0  0  0  0
  -19.6591  -16.7077  -32.2313 H   0  0  0  0  0
  -19.3015  -17.1210  -30.5365 H   0  0  0  0  0
  -20.0991  -15.5776  -30.9273 H   0  0  0  0  0
  -11.6371  -20.8228  -32.9371 H   0  0  0  0  0
   -9.3815  -19.2050  -31.5835 H   0  0  0  0  0
  -17.6824  -15.2339  -30.4105 H   0  0  0  0  0
  -18.0429  -14.8173  -32.1188 H   0  0  0  0  0
  -17.1177  -17.1275  -32.6989 H   0  0  0  0  0
   -7.8568  -19.9664  -32.4247 H   0  0  0  0  0
   -5.9947  -21.6478  -32.8623 H   0  0  0  0  0
  -15.2700  -18.2244  -32.6624 H   0  0  0  0  0
  -10.6823  -23.0892  -33.3330 H   0  0  0  0  0
   -6.6257  -23.9126  -33.6131 H   0  0  0  0  0
   -8.2500  -15.2595  -27.9194 H   0  0  0  0  0
   -7.4297  -17.7608  -27.9030 H   0  0  0  0  0
   -9.2733  -19.2296  -29.1868 H   0  0  0  0  0
  8  1  2  0  0  0
  9  2  1  0  0  0
  4  3  1  0  0  0
  3 11  4  0  0  0
  3 16  4  0  0  0
  5  4  2  0  0  0
  6  5  1  0  0  0
  6 15  4  0  0  0
 23  6  4  0  0  0
 14  7  1  0  0  0
  7 18  4  0  0  0
  7 23  4  0  0  0
 10  8  1  0  0  0
  8 14  1  0  0  0
  9 10  1  0  0  0
 11 12  4  0  0  0
 12 17  4  0  0  0
 15 13  1  0  0  0
 13 19  4  0  0  0
 13 22  4  0  0  0
 15 18  4  0  0  0
 16 24  4  0  0  0
 17 24  4  0  0  0
 19 20  4  0  0  0
 20 21  4  0  0  0
 21 22  4  0  0  0
  2 25  1  0  0  0
  2 26  1  0  0  0
  2 27  1  0  0  0
  4 28  1  0  0  0
  5 29  1  0  0  0
  9 30  1  0  0  0
  9 31  1  0  0  0
 10 32  1  0  0  0
 11 33  1  0  0  0
 12 34  1  0  0  0
 14 35  1  0  0  0
 16 36  1  0  0  0
 17 37  1  0  0  0
 20 38  1  0  0  0
 21 39  1  0  0  0
 22 40  1  0  0  0
M  END
$$$$
