3t85_ligand
  -I-interpret- 

 39 39  0  0  0  0  0  0  0  0999 V2000
   16.9100    1.9370   11.6300 C   0  0  0  0  0
   16.8830    2.0640   13.0700 O   0  0  0  0  0
   16.5680    3.1850   10.8550 C   0  0  0  0  0
   17.0400    4.4280   11.4420 C   0  0  0  0  0
   16.8440    4.5030   12.8700 C   0  0  0  0  0
   17.4380    3.2840   13.5290 C   0  0  0  0  0
   18.1250    1.4390   11.2350 O   0  0  0  0  0
   15.1630    3.2430   10.7540 O   0  0  0  0  0
   16.3210    5.5110   10.8810 O   0  0  0  0  0
   16.9150    6.3120   10.0940 C   0  0  0  0  0
   16.2040    7.5370    9.5780 C   0  0  0  0  0
   18.1010    6.0840    9.7800 O   0  0  0  0  0
   17.5150    5.6200   13.3900 O   0  0  0  0  0
   17.8020    7.8540   14.2910 C   0  0  0  0  0
   16.9330    6.6940   13.8560 C   0  0  0  0  0
   15.6940    6.9050   13.6370 O   0  0  0  0  0
   17.4160    2.9590   15.0090 C   0  0  0  0  0
   16.3320    3.5160   15.6880 O   0  0  0  0  0
   15.4200    2.6410   16.4770 S   0  0  0  0  0
   14.0320    3.0260   16.7900 O   0  0  0  0  0
   15.9420    3.1630   17.7480 O   0  0  0  0  0
   15.8140    1.1460   16.6140 N   0  0  0  0  0
   16.1052    1.2435   11.3862 H   0  0  0  0  0
   17.0742    3.1066    9.8928 H   0  0  0  0  0
   18.1090    4.4703   11.2331 H   0  0  0  0  0
   15.7734    4.5713   13.0629 H   0  0  0  0  0
   18.4398    3.6183   13.2592 H   0  0  0  0  0
   18.3239    0.6465   11.7390 H   0  0  0  0  0
   14.8372    2.4270   10.3672 H   0  0  0  0  0
   16.7340    8.4299    9.9097 H   0  0  0  0  0
   16.1810    7.5103    8.4886 H   0  0  0  0  0
   15.1848    7.5535    9.9640 H   0  0  0  0  0
   17.7842    8.6275   13.5233 H   0  0  0  0  0
   17.4205    8.2609   15.2275 H   0  0  0  0  0
   18.8250    7.5062   14.4345 H   0  0  0  0  0
   18.3238    3.3732   15.4477 H   0  0  0  0  0
   17.3393    1.8759   15.1043 H   0  0  0  0  0
   15.1200    0.4611   16.9135 H   0  0  0  0  0
   16.7669    0.8485   16.4045 H   0  0  0  0  0
  1  2  1  0  0  0
  1  3  1  0  0  0
  1  7  1  0  0  0
  2  6  1  0  0  0
  3  4  1  0  0  0
  3  8  1  0  0  0
  4  5  1  0  0  0
  4  9  1  0  0  0
  5  6  1  0  0  0
  5 13  1  0  0  0
  6 17  1  0  0  0
  9 10  1  0  0  0
 10 11  1  0  0  0
 10 12  2  0  0  0
 13 15  1  0  0  0
 15 14  1  0  0  0
 15 16  2  0  0  0
 17 18  1  0  0  0
 18 19  1  0  0  0
 19 20  2  0  0  0
 19 21  2  0  0  0
 19 22  1  0  0  0
  1 23  1  0  0  0
  3 24  1  0  0  0
  4 25  1  0  0  0
  5 26  1  0  0  0
  6 27  1  0  0  0
  7 28  1  0  0  0
  8 29  1  0  0  0
 11 30  1  0  0  0
 11 31  1  0  0  0
 11 32  1  0  0  0
 14 33  1  0  0  0
 14 34  1  0  0  0
 14 35  1  0  0  0
 17 36  1  0  0  0
 17 37  1  0  0  0
 22 38  1  0  0  0
 22 39  1  0  0  0
M  END
$$$$
