### 
### Created by X-TOOL on Mon Sep 10 21:13:17 2018
### 

@<TRIPOS>MOLECULE
4usw_ligand
   43    45     1     0     0
SMALL
GAST_HUCK


@<TRIPOS>ATOM
      1 PG        -23.8530  -36.5320    0.6170 P.3       1 ATP         0.1879
      2 O1G       -23.5980  -35.7560    1.8800 O.co2     1 ATP        -0.6091
      3 O2G       -22.6710  -36.6300   -0.3000 O.co2     1 ATP        -0.6091
      4 O3G       -24.5790  -37.8460    0.7280 O.co2     1 ATP        -0.6091
      5 PB        -24.6000  -34.1160   -0.6060 P.3       1 ATP         0.3553
      6 O1B       -23.1750  -33.7390   -0.9560 O.co2     1 ATP        -0.5652
      7 O2B       -25.5900  -33.8690   -1.7250 O.co2     1 ATP        -0.5652
      8 O3B       -24.8930  -35.6310   -0.1860 O.3       1 ATP        -0.1546
      9 PA        -24.8020  -31.7250    1.1590 P.3       1 ATP         0.3266
     10 O1A       -25.6050  -30.8390    0.2230 O.co2     1 ATP        -0.5692
     11 O2A       -25.1820  -31.6030    2.6260 O.co2     1 ATP        -0.5692
     12 O3A       -24.9400  -33.3340    0.7890 O.3       1 ATP        -0.1171
     13 O5'       -23.2090  -31.4250    1.0200 O.3       1 ATP        -0.2441
     14 C5'       -22.2370  -32.2090    1.7310 C.3       1 ATP         0.1131
     15 C4'       -21.5680  -31.3990    2.8350 C.3       1 ATP         0.1189
     16 O4'       -20.6370  -32.1540    3.6360 O.3       1 ATP        -0.3364
     17 C3'       -20.7880  -30.2560    2.2190 C.3       1 ATP         0.1149
     18 O3'       -21.4360  -29.0490    2.5620 O.3       1 ATP        -0.3864
     19 C2'       -19.4030  -30.2840    2.8210 C.3       1 ATP         0.1385
     20 O2'       -19.0120  -28.9910    3.3150 O.3       1 ATP        -0.3836
     21 C1'       -19.4710  -31.3560    3.9130 C.3       1 ATP         0.2010
     22 N9        -18.1570  -32.0960    3.9430 N.pl3     1 ATP        -0.1919
     23 C8        -16.9870  -31.4210    3.9750 C.2       1 ATP         0.1123
     24 N7        -15.9210  -32.2570    4.0010 N.2       1 ATP        -0.2958
     25 C5        -16.3710  -33.5150    3.9760 C.ar      1 ATP         0.1045
     26 C6        -15.7130  -34.8510    3.9900 C.ar      1 ATP         0.1298
     27 N6        -14.3630  -35.0020    4.0410 N.pl3     1 ATP        -0.3152
     28 N1        -16.5440  -35.9140    3.9680 N.ar      1 ATP        -0.2698
     29 C2        -17.8840  -35.7910    3.9310 C.ar      1 ATP         0.0533
     30 N3        -18.5360  -34.6050    3.9140 N.ar      1 ATP        -0.2714
     31 C4        -17.8550  -33.4250    3.9410 C.ar      1 ATP         0.1613
     32 H         -21.4680  -32.5529    1.0236 H         1 ATP         0.0648
     33 H         -22.7382  -33.0794    2.1796 H         1 ATP         0.0648
     34 H         -22.3543  -30.9985    3.4917 H         1 ATP         0.0651
     35 H         -20.7344  -30.3632    1.1256 H         1 ATP         0.0648
     36 H         -20.9615  -28.3177    2.1844 H         1 ATP         0.2100
     37 H         -18.6737  -30.5899    2.0564 H         1 ATP         0.0676
     38 H         -19.6244  -28.7108    3.9850 H         1 ATP         0.2101
     39 H         -19.6089  -30.8768    4.8935 H         1 ATP         0.0996
     40 H         -16.9099  -30.3347    3.9794 H         1 ATP         0.1349
     41 H         -13.9503  -35.9457    4.0489 H         1 ATP         0.1820
     42 H         -13.7528  -34.1728    4.0718 H         1 ATP         0.1820
     43 H         -18.4776  -36.6979    3.9138 H         1 ATP         0.0996
@<TRIPOS>BOND
     1    1    2 ar 
     2    1    3 ar 
     3    1    4 ar 
     4    8    1 1  
     5    5    6 ar 
     6    5    7 ar 
     7    5    8 1  
     8   12    5 1  
     9    9   10 ar 
    10    9   11 ar 
    11    9   12 1  
    12    9   13 1  
    13   13   14 1  
    14   14   15 1  
    15   15   16 1  
    16   15   17 1  
    17   16   21 1  
    18   17   18 1  
    19   17   19 1  
    20   19   20 1  
    21   19   21 1  
    22   21   22 1  
    23   22   23 1  
    24   22   31 1  
    25   23   24 2  
    26   24   25 1  
    27   25   26 ar 
    28   25   31 ar 
    29   26   27 1  
    30   26   28 ar 
    31   28   29 ar 
    32   29   30 ar 
    33   30   31 ar 
    34   14   32 1  
    35   14   33 1  
    36   15   34 1  
    37   17   35 1  
    38   18   36 1  
    39   19   37 1  
    40   20   38 1  
    41   21   39 1  
    42   23   40 1  
    43   27   41 1  
    44   27   42 1  
    45   29   43 1  
@<TRIPOS>SUBSTRUCTURE
     1 ATP         1

