4usw_ligand
  -I-interpret- 

 47 49  0  0  0  0  0  0  0  0999 V2000
  -23.8530  -36.5320    0.6170 P   0  0  0  0  0
  -23.5980  -35.7560    1.8800 O   0  0  0  0  0
  -22.6710  -36.6300   -0.3000 O   0  0  0  0  0
  -24.5790  -37.8460    0.7280 O   0  0  0  0  0
  -24.6000  -34.1160   -0.6060 P   0  0  0  0  0
  -23.1750  -33.7390   -0.9560 O   0  0  0  0  0
  -25.5900  -33.8690   -1.7250 O   0  0  0  0  0
  -24.8930  -35.6310   -0.1860 O   0  0  0  0  0
  -24.8020  -31.7250    1.1590 P   0  0  0  0  0
  -25.6050  -30.8390    0.2230 O   0  0  0  0  0
  -25.1820  -31.6030    2.6260 O   0  0  0  0  0
  -24.9400  -33.3340    0.7890 O   0  0  0  0  0
  -23.2090  -31.4250    1.0200 O   0  0  0  0  0
  -22.2370  -32.2090    1.7310 C   0  0  0  0  0
  -21.5680  -31.3990    2.8350 C   0  0  0  0  0
  -20.6370  -32.1540    3.6360 O   0  0  0  0  0
  -20.7880  -30.2560    2.2190 C   0  0  0  0  0
  -21.4360  -29.0490    2.5620 O   0  0  0  0  0
  -19.4030  -30.2840    2.8210 C   0  0  0  0  0
  -19.0120  -28.9910    3.3150 O   0  0  0  0  0
  -19.4710  -31.3560    3.9130 C   0  0  0  0  0
  -18.1570  -32.0960    3.9430 N   0  0  0  0  0
  -16.9870  -31.4210    3.9750 C   0  0  0  0  0
  -15.9210  -32.2570    4.0010 N   0  0  0  0  0
  -16.3710  -33.5150    3.9760 C   0  0  0  0  0
  -15.7130  -34.8510    3.9900 C   0  0  0  0  0
  -14.3630  -35.0020    4.0410 N   0  0  0  0  0
  -16.5440  -35.9140    3.9680 N   0  0  0  0  0
  -17.8840  -35.7910    3.9310 C   0  0  0  0  0
  -18.5360  -34.6050    3.9140 N   0  0  0  0  0
  -17.8550  -33.4250    3.9410 C   0  0  0  0  0
  -24.3978  -35.7387    2.4106 H   0  0  0  0  0
  -25.3277  -37.7476    1.3208 H   0  0  0  0  0
  -22.6038  -33.9205   -0.2061 H   0  0  0  0  0
  -24.6317  -32.1915    3.1479 H   0  0  0  0  0
  -21.4708  -32.5321    1.0263 H   0  0  0  0  0
  -22.7444  -33.0600    2.1854 H   0  0  0  0  0
  -22.3784  -31.0615    3.4811 H   0  0  0  0  0
  -20.7291  -30.3404    1.1339 H   0  0  0  0  0
  -20.9565  -28.3100    2.1805 H   0  0  0  0  0
  -18.6341  -30.5267    2.0875 H   0  0  0  0  0
  -18.1297  -29.0461    3.6892 H   0  0  0  0  0
  -19.5915  -30.9627    4.9224 H   0  0  0  0  0
  -16.9099  -30.3337    3.9794 H   0  0  0  0  0
  -13.7588  -34.1808    4.0715 H   0  0  0  0  0
  -13.9543  -35.9365    4.0488 H   0  0  0  0  0
  -18.4809  -36.7029    3.9137 H   0  0  0  0  0
  1  2  1  0  0  0
  1  3  2  0  0  0
  1  4  1  0  0  0
  8  1  1  0  0  0
  5  6  1  0  0  0
  5  7  2  0  0  0
  5  8  1  0  0  0
 12  5  1  0  0  0
  9 10  2  0  0  0
  9 11  1  0  0  0
  9 12  1  0  0  0
  9 13  1  0  0  0
 13 14  1  0  0  0
 14 15  1  0  0  0
 15 16  1  0  0  0
 15 17  1  0  0  0
 16 21  1  0  0  0
 17 18  1  0  0  0
 17 19  1  0  0  0
 19 20  1  0  0  0
 19 21  1  0  0  0
 21 22  1  0  0  0
 22 23  4  0  0  0
 22 31  4  0  0  0
 23 24  4  0  0  0
 24 25  4  0  0  0
 25 26  4  0  0  0
 25 31  4  0  0  0
 26 27  1  0  0  0
 26 28  4  0  0  0
 28 29  4  0  0  0
 29 30  4  0  0  0
 30 31  4  0  0  0
  2 32  1  0  0  0
  4 33  1  0  0  0
  6 34  1  0  0  0
 11 35  1  0  0  0
 14 36  1  0  0  0
 14 37  1  0  0  0
 15 38  1  0  0  0
 17 39  1  0  0  0
 18 40  1  0  0  0
 19 41  1  0  0  0
 20 42  1  0  0  0
 21 43  1  0  0  0
 23 44  1  0  0  0
 27 45  1  0  0  0
 27 46  1  0  0  0
 29 47  1  0  0  0
M  END
$$$$
