3l4y_ligand
  -I-interpret- 

 51 51  0  0  0  0  0  0  0  0999 V2000
   -0.5440  -24.4780  -22.7250 O   0  0  0  0  0
   -3.7160  -13.9230  -18.7190 O   0  0  0  0  0
   -3.3850  -23.5690  -24.1010 O   0  0  0  0  0
    1.0140  -14.4210  -20.8550 O   0  0  0  0  0
   -2.2240  -18.5740  -22.8000 O   0  0  0  0  0
   -2.8910  -23.2990  -21.6740 O   0  0  0  0  0
   -0.1040  -14.4500  -18.2140 O   0  0  0  0  0
   -4.0970  -21.0070  -22.7340 O   0  0  0  0  0
   -1.3470  -22.4200  -19.4000 O   0  0  0  0  0
   -1.4850  -20.2880  -18.3250 O   0  0  0  0  0
   -3.1860  -21.9130  -17.9840 O   0  0  0  0  0
   -0.9410  -24.0090  -24.0470 C   0  0  0  0  0
   -3.1480  -15.0910  -18.1410 C   0  0  0  0  0
   -1.1540  -15.4750  -21.6280 C   0  0  0  0  0
   -2.0830  -18.0630  -20.4600 C   0  0  0  0  0
   -3.0880  -20.8320  -20.0970 O   0  0  0  0  0
   -2.0830  -23.0050  -23.8940 C   0  0  0  0  0
   -0.1310  -15.2670  -20.5010 C   0  0  0  0  0
   -2.7330  -18.9150  -21.5230 C   0  0  0  0  0
   -2.1040  -22.4550  -22.4940 C   0  0  0  0  0
   -0.9450  -14.6170  -19.3670 C   0  0  0  0  0
   -2.6910  -21.0720  -22.5240 C   0  0  0  0  0
   -2.0270  -15.6800  -19.0430 C   0  0  0  0  0
   -2.3530  -20.3510  -21.2490 C   0  0  0  0  0
   -2.5150  -16.3410  -20.6720 S   0  0  0  0  0
   -2.2730  -21.3450  -18.9670 S   0  0  0  0  0
    0.1736  -25.1096  -22.8129 H   0  0  0  0  0
   -4.4031  -13.5830  -18.1411 H   0  0  0  0  0
   -4.0499  -22.8855  -23.9898 H   0  0  0  0  0
    1.5997  -14.3442  -20.0983 H   0  0  0  0  0
   -2.6441  -19.1216  -23.4673 H   0  0  0  0  0
   -2.9064  -22.9506  -20.7796 H   0  0  0  0  0
   -0.6102  -14.0448  -17.5061 H   0  0  0  0  0
   -4.3768  -20.0887  -22.7373 H   0  0  0  0  0
   -1.8480  -23.1211  -19.8231 H   0  0  0  0  0
   -1.2709  -24.8525  -24.6534 H   0  0  0  0  0
   -0.0935  -23.5309  -24.5381 H   0  0  0  0  0
   -3.9325  -15.8395  -18.0293 H   0  0  0  0  0
   -2.7139  -14.8252  -17.1772 H   0  0  0  0  0
   -0.7759  -16.0356  -22.4829 H   0  0  0  0  0
   -1.4668  -14.5586  -22.1284 H   0  0  0  0  0
   -1.0009  -18.1659  -20.5409 H   0  0  0  0  0
   -2.4324  -18.3947  -19.4822 H   0  0  0  0  0
   -1.8897  -22.2473  -24.6534 H   0  0  0  0  0
    0.3263  -16.2207  -20.2376 H   0  0  0  0  0
   -3.8124  -18.7642  -21.5065 H   0  0  0  0  0
   -1.0922  -22.4100  -22.0911 H   0  0  0  0  0
   -1.3539  -13.6434  -19.6370 H   0  0  0  0  0
   -2.2410  -20.5948  -23.3945 H   0  0  0  0  0
   -1.6829  -16.5102  -18.4261 H   0  0  0  0  0
   -1.3026  -20.4995  -20.9988 H   0  0  0  0  0
 12  1  1  0  0  0
 13  2  1  0  0  0
 17  3  1  0  0  0
 18  4  1  0  0  0
 19  5  1  0  0  0
 20  6  1  0  0  0
 21  7  1  0  0  0
 22  8  1  0  0  0
 26  9  1  0  0  0
 26 10  2  0  0  0
 26 11  2  0  0  0
 17 12  1  0  0  0
 23 13  1  0  0  0
 14 18  1  0  0  0
 25 14  1  0  0  0
 19 15  1  0  0  0
 15 25  1  0  0  0
 24 16  1  0  0  0
 16 26  1  0  0  0
 20 17  1  0  0  0
 18 21  1  0  0  0
 24 19  1  0  0  0
 22 20  1  0  0  0
 21 23  1  0  0  0
 22 24  1  0  0  0
 23 25  1  0  0  0
  1 27  1  0  0  0
  2 28  1  0  0  0
  3 29  1  0  0  0
  4 30  1  0  0  0
  5 31  1  0  0  0
  6 32  1  0  0  0
  7 33  1  0  0  0
  8 34  1  0  0  0
  9 35  1  0  0  0
 12 36  1  0  0  0
 12 37  1  0  0  0
 13 38  1  0  0  0
 13 39  1  0  0  0
 14 40  1  0  0  0
 14 41  1  0  0  0
 15 42  1  0  0  0
 15 43  1  0  0  0
 17 44  1  0  0  0
 18 45  1  0  0  0
 19 46  1  0  0  0
 20 47  1  0  0  0
 21 48  1  0  0  0
 22 49  1  0  0  0
 23 50  1  0  0  0
 24 51  1  0  0  0
M  END
$$$$
