### 
### Created by X-TOOL on Tue Oct 16 15:18:05 2018
### 

@<TRIPOS>MOLECULE
5nwk_ligand
   83    84     1     0     0
SMALL
GAST_HUCK


@<TRIPOS>ATOM
      1 N         -16.6340  -19.8500   -6.0830 N.4       1 TYR         0.2392
      2 CA        -16.5430  -18.4780   -5.5980 C.3       1 TYR         0.0730
      3 C         -17.4590  -18.2840   -4.4020 C.2       1 TYR         0.2287
      4 O         -18.4230  -17.5220   -4.4620 O.2       1 TYR        -0.3905
      5 CB        -16.9070  -17.4850   -6.7000 C.3       1 TYR         0.0365
      6 CG        -16.6430  -18.0010   -8.0910 C.ar      1 TYR        -0.0460
      7 CD1       -15.3540  -18.3120   -8.5050 C.ar      1 TYR        -0.0684
      8 CD2       -17.6840  -18.1880   -8.9900 C.ar      1 TYR        -0.0684
      9 CE1       -15.1100  -18.7880   -9.7760 C.ar      1 TYR        -0.0398
     10 CE2       -17.4500  -18.6630  -10.2630 C.ar      1 TYR        -0.0398
     11 CZ        -16.1620  -18.9620  -10.6510 C.ar      1 TYR         0.0805
     12 OH        -15.9270  -19.4360  -11.9200 O.3       1 TYR        -0.3376
     13 N         -17.1540  -18.9840   -3.3150 N.am      1 TYR        -0.2591
     14 CA        -17.9870  -18.9110   -2.1290 C.3       1 TYR         0.1406
     15 C         -17.8160  -17.5590   -1.4420 C.2       1 TYR         0.2060
     16 O         -16.8390  -16.8390   -1.6670 O.2       1 TYR        -0.3942
     17 CB        -17.6450  -20.0540   -1.1760 C.3       1 TYR         0.0214
     18 CG        -17.6330  -21.3980   -1.8420 C.ar      1 TYR        -0.0386
     19 CD1       -18.8110  -22.0980   -2.0330 C.ar      1 TYR        -0.0601
     20 CD2       -16.4470  -21.9540   -2.2920 C.ar      1 TYR        -0.0601
     21 CE1       -18.8060  -23.3310   -2.6540 C.ar      1 TYR        -0.0686
     22 CE2       -16.4360  -23.1860   -2.9130 C.ar      1 TYR        -0.0686
     23 CZ        -17.6180  -23.8760   -3.0930 C.ar      1 TYR        -0.0687
     24 N         -18.7950  -17.2160   -0.6090 N.am      1 TYR        -0.2614
     25 CA        -18.8100  -15.9430    0.1100 C.3       1 TYR         0.1539
     26 C         -17.4850  -15.6690    0.8160 C.2       1 TYR         0.2063
     27 O         -16.8120  -16.5910    1.2600 O.2       1 TYR        -0.3943
     28 CB        -19.9480  -15.9240    1.1340 C.3       1 TYR         0.0843
     29 OG        -21.1110  -16.5530    0.6250 O.3       1 TYR        -0.3903
     30 N         -17.0880  -14.3960    0.8460 N.am      1 TYR        -0.2612
     31 CA        -15.8410  -13.9630    1.4700 C.3       1 TYR         0.1586
     32 CB        -14.6710  -14.1740    0.5170 C.3       1 TYR         0.1184
     33 OG        -14.6780  -13.1480   -0.4710 O.3       1 TYR        -0.2714
     34 C         -15.9270  -12.5030    1.8330 C.2       1 TYR         0.2061
     35 O         -16.8380  -11.8100    1.3310 O.2       1 TYR        -0.3943
     36 P         -13.3580  -12.8510   -1.3420 P.3       1 TYR         0.2010
     37 O1P       -13.8040  -11.8060   -2.3350 O.co2     1 TYR        -0.5537
     38 O2P       -13.0200  -14.1890   -1.9520 O.co2     1 TYR        -0.5537
     39 O3P       -12.3570  -12.3590   -0.3250 O.co2     1 TYR        -0.5537
     40 N         -15.0220  -12.0110    2.6800 N.am      1 TYR        -0.2673
     41 CA        -15.0490  -10.6090    3.0770 C.3       1 TYR         0.1110
     42 C         -13.6460  -10.0780    3.3290 C.2       1 TYR         0.0624
     43 O         -12.7200  -10.8040    3.6940 O.co2     1 TYR        -0.5665
     44 CB        -15.9160  -10.4240    4.3240 C.3       1 TYR         0.0718
     45 CG        -16.9090   -9.2880    4.1790 C.2       1 TYR         0.1774
     46 OD1       -16.5360   -8.1420    3.9230 O.2       1 TYR        -0.3971
     47 ND2       -18.1880   -9.6070    4.3240 N.am      1 TYR        -0.3007
     48 OXT       -13.4140   -8.8830    3.1710 O.co2     1 TYR        -0.5665
     49 H1        -16.0227  -19.9673   -6.8759 H         1 TYR         0.2017
     50 H2        -17.5834  -20.0467   -6.3587 H         1 TYR         0.2017
     51 H3        -16.3587  -20.4846   -5.3498 H         1 TYR         0.2017
     52 H4        -15.5065  -18.2868   -5.2831 H         1 TYR         0.1120
     53 H5        -16.3162  -16.5691   -6.5514 H         1 TYR         0.0486
     54 H6        -17.9779  -17.2485   -6.6147 H         1 TYR         0.0486
     55 H7        -14.5264  -18.1783   -7.8177 H         1 TYR         0.0530
     56 H8        -18.6984  -17.9566   -8.6859 H         1 TYR         0.0530
     57 H9        -14.0982  -19.0239  -10.0854 H         1 TYR         0.0525
     58 H10       -18.2738  -18.8003  -10.9541 H         1 TYR         0.0525
     59 H11       -14.9966  -19.5927  -12.0310 H         1 TYR         0.2458
     60 H12       -16.3418  -19.5674   -3.3140 H         1 TYR         0.1886
     61 H13       -19.0389  -19.0149   -2.4334 H         1 TYR         0.0823
     62 H14       -18.3920  -20.0710   -0.3688 H         1 TYR         0.0474
     63 H15       -16.6485  -19.8668   -0.7495 H         1 TYR         0.0474
     64 H16       -19.7482  -21.6737   -1.6913 H         1 TYR         0.0557
     65 H17       -15.5166  -21.4150   -2.1547 H         1 TYR         0.0557
     66 H18       -19.7355  -23.8703   -2.7964 H         1 TYR         0.0599
     67 H19       -15.5009  -23.6114   -3.2589 H         1 TYR         0.0599
     68 H20       -17.6122  -24.8450   -3.5788 H         1 TYR         0.0559
     69 H21       -19.5514  -17.8549   -0.4689 H         1 TYR         0.1884
     70 H22       -18.9831  -15.1398   -0.6213 H         1 TYR         0.0823
     71 H23       -20.1864  -14.8799    1.3850 H         1 TYR         0.0606
     72 H24       -19.6223  -16.4540    2.0412 H         1 TYR         0.0606
     73 H25       -20.9126  -17.4569    0.4103 H         1 TYR         0.2097
     74 H26       -17.6725  -13.7050    0.4207 H         1 TYR         0.1884
     75 H27       -15.6737  -14.5536    2.3828 H         1 TYR         0.0827
     76 H28       -14.7670  -15.1550    0.0287 H         1 TYR         0.0662
     77 H29       -13.7268  -14.1355    1.0800 H         1 TYR         0.0662
     78 H30       -14.3139  -12.6134    3.0484 H         1 TYR         0.1877
     79 H31       -15.4940  -10.0283    2.2556 H         1 TYR         0.0752
     80 H32       -15.2600  -10.2115    5.1811 H         1 TYR         0.0544
     81 H33       -16.4708  -11.3556    4.5090 H         1 TYR         0.0544
     82 H34       -18.8919   -8.9017    4.2398 H         1 TYR         0.1814
     83 H35       -18.4486  -10.5529    4.5175 H         1 TYR         0.1814
@<TRIPOS>BOND
     1    1    2 1  
     2    2    3 1  
     3    2    5 1  
     4    3    4 2  
     5    3   13 am 
     6    5    6 1  
     7    6    7 ar 
     8    6    8 ar 
     9    7    9 ar 
    10    8   10 ar 
    11    9   11 ar 
    12   10   11 ar 
    13   11   12 1  
    14   13   14 1  
    15   14   15 1  
    16   14   17 1  
    17   15   16 2  
    18   15   24 am 
    19   17   18 1  
    20   18   19 ar 
    21   18   20 ar 
    22   19   21 ar 
    23   20   22 ar 
    24   21   23 ar 
    25   22   23 ar 
    26   24   25 1  
    27   25   26 1  
    28   25   28 1  
    29   26   27 2  
    30   26   30 am 
    31   28   29 1  
    32   30   31 1  
    33   31   32 1  
    34   31   34 1  
    35   32   33 1  
    36   33   36 1  
    37   34   35 2  
    38   34   40 am 
    39   36   37 ar 
    40   36   38 ar 
    41   36   39 ar 
    42   40   41 1  
    43   41   42 1  
    44   41   44 1  
    45   42   43 ar 
    46   42   48 ar 
    47   44   45 1  
    48   45   46 2  
    49   45   47 am 
    50    1   49 1  
    51    1   50 1  
    52    1   51 1  
    53    2   52 1  
    54    5   53 1  
    55    5   54 1  
    56    7   55 1  
    57    8   56 1  
    58    9   57 1  
    59   10   58 1  
    60   12   59 1  
    61   13   60 1  
    62   14   61 1  
    63   17   62 1  
    64   17   63 1  
    65   19   64 1  
    66   20   65 1  
    67   21   66 1  
    68   22   67 1  
    69   23   68 1  
    70   24   69 1  
    71   25   70 1  
    72   28   71 1  
    73   28   72 1  
    74   29   73 1  
    75   30   74 1  
    76   31   75 1  
    77   32   76 1  
    78   32   77 1  
    79   40   78 1  
    80   41   79 1  
    81   44   80 1  
    82   44   81 1  
    83   47   82 1  
    84   47   83 1  
@<TRIPOS>SUBSTRUCTURE
     1 TYR         1

