5nwk_ligand
  -I-interpret- 

 86 87  0  0  0  0  0  0  0  0999 V2000
  -16.6340  -19.8500   -6.0830 N   0  3  0  0  0
  -16.5430  -18.4780   -5.5980 C   0  0  0  0  0
  -17.4590  -18.2840   -4.4020 C   0  0  0  0  0
  -18.4230  -17.5220   -4.4620 O   0  0  0  0  0
  -16.9070  -17.4850   -6.7000 C   0  0  0  0  0
  -16.6430  -18.0010   -8.0910 C   0  0  0  0  0
  -15.3540  -18.3120   -8.5050 C   0  0  0  0  0
  -17.6840  -18.1880   -8.9900 C   0  0  0  0  0
  -15.1100  -18.7880   -9.7760 C   0  0  0  0  0
  -17.4500  -18.6630  -10.2630 C   0  0  0  0  0
  -16.1620  -18.9620  -10.6510 C   0  0  0  0  0
  -15.9270  -19.4360  -11.9200 O   0  0  0  0  0
  -17.1540  -18.9840   -3.3150 N   0  0  0  0  0
  -17.9870  -18.9110   -2.1290 C   0  0  0  0  0
  -17.8160  -17.5590   -1.4420 C   0  0  0  0  0
  -16.8390  -16.8390   -1.6670 O   0  0  0  0  0
  -17.6450  -20.0540   -1.1760 C   0  0  0  0  0
  -17.6330  -21.3980   -1.8420 C   0  0  0  0  0
  -18.8110  -22.0980   -2.0330 C   0  0  0  0  0
  -16.4470  -21.9540   -2.2920 C   0  0  0  0  0
  -18.8060  -23.3310   -2.6540 C   0  0  0  0  0
  -16.4360  -23.1860   -2.9130 C   0  0  0  0  0
  -17.6180  -23.8760   -3.0930 C   0  0  0  0  0
  -18.7950  -17.2160   -0.6090 N   0  0  0  0  0
  -18.8100  -15.9430    0.1100 C   0  0  0  0  0
  -17.4850  -15.6690    0.8160 C   0  0  0  0  0
  -16.8120  -16.5910    1.2600 O   0  0  0  0  0
  -19.9480  -15.9240    1.1340 C   0  0  0  0  0
  -21.1110  -16.5530    0.6250 O   0  0  0  0  0
  -17.0880  -14.3960    0.8460 N   0  0  0  0  0
  -15.8410  -13.9630    1.4700 C   0  0  0  0  0
  -14.6710  -14.1740    0.5170 C   0  0  0  0  0
  -14.6780  -13.1480   -0.4710 O   0  0  0  0  0
  -15.9270  -12.5030    1.8330 C   0  0  0  0  0
  -16.8380  -11.8100    1.3310 O   0  0  0  0  0
  -13.3580  -12.8510   -1.3420 P   0  0  0  0  0
  -13.8040  -11.8060   -2.3350 O   0  0  0  0  0
  -13.0200  -14.1890   -1.9520 O   0  0  0  0  0
  -12.3570  -12.3590   -0.3250 O   0  0  0  0  0
  -15.0220  -12.0110    2.6800 N   0  0  0  0  0
  -15.0490  -10.6090    3.0770 C   0  0  0  0  0
  -13.6460  -10.0780    3.3290 C   0  0  0  0  0
  -12.7200  -10.8040    3.6940 O   0  0  0  0  0
  -15.9160  -10.4240    4.3240 C   0  0  0  0  0
  -16.9090   -9.2880    4.1790 C   0  0  0  0  0
  -16.5360   -8.1420    3.9230 O   0  0  0  0  0
  -18.1880   -9.6070    4.3240 N   0  0  0  0  0
  -13.4140   -8.8830    3.1710 O   0  0  0  0  0
  -16.3868  -20.4925   -5.3304 H   0  0  0  0  0
  -17.5878  -20.0375   -6.3922 H   0  0  0  0  0
  -15.9909  -19.9764   -6.8646 H   0  0  0  0  0
  -15.5129  -18.2921   -5.2940 H   0  0  0  0  0
  -16.2883  -16.5989   -6.5580 H   0  0  0  0  0
  -17.9764  -17.2892   -6.6223 H   0  0  0  0  0
  -14.5219  -18.1776   -7.8139 H   0  0  0  0  0
  -18.7040  -17.9553   -8.6842 H   0  0  0  0  0
  -14.0926  -19.0252  -10.0871 H   0  0  0  0  0
  -18.2783  -18.8011  -10.9579 H   0  0  0  0  0
  -16.7582  -19.4981  -12.3962 H   0  0  0  0  0
  -16.3256  -19.5791   -3.3140 H   0  0  0  0  0
  -19.0316  -19.0109   -2.4240 H   0  0  0  0  0
  -18.4110  -20.0772   -0.4009 H   0  0  0  0  0
  -16.6436  -19.8701   -0.7869 H   0  0  0  0  0
  -19.7533  -21.6713   -1.6894 H   0  0  0  0  0
  -15.5115  -21.4120   -2.1539 H   0  0  0  0  0
  -19.7406  -23.8733   -2.7972 H   0  0  0  0  0
  -15.4957  -23.6137   -3.2608 H   0  0  0  0  0
  -17.6122  -24.8504   -3.5815 H   0  0  0  0  0
  -19.5666  -17.8677   -0.4661 H   0  0  0  0  0
  -18.9663  -15.1580   -0.6299 H   0  0  0  0  0
  -20.1885  -14.8864    1.3655 H   0  0  0  0  0
  -19.6230  -16.4642    2.0232 H   0  0  0  0  0
  -21.8047  -16.5252    1.2881 H   0  0  0  0  0
  -17.6842  -13.6912    0.4122 H   0  0  0  0  0
  -15.6820  -14.5554    2.3710 H   0  0  0  0  0
  -14.7646  -15.1466    0.0339 H   0  0  0  0  0
  -13.7350  -14.1375    1.0745 H   0  0  0  0  0
  -13.9993  -10.9884   -1.8714 H   0  0  0  0  0
  -12.6405  -11.5072    0.0152 H   0  0  0  0  0
  -14.2997  -12.6254    3.0558 H   0  0  0  0  0
  -15.4829  -10.0385    2.2558 H   0  0  0  0  0
  -13.0363  -11.7065    3.7777 H   0  0  0  0  0
  -15.2567  -10.1890    5.1596 H   0  0  0  0  0
  -16.4789  -11.3441    4.4811 H   0  0  0  0  0
  -18.9069   -8.8904    4.2237 H   0  0  0  0  0
  -18.4528  -10.5690    4.5359 H   0  0  0  0  0
  1  2  1  0  0  0
  2  3  1  0  0  0
  2  5  1  0  0  0
  3  4  2  0  0  0
  3 13  1  0  0  0
  5  6  1  0  0  0
  6  7  4  0  0  0
  6  8  4  0  0  0
  7  9  4  0  0  0
  8 10  4  0  0  0
  9 11  4  0  0  0
 10 11  4  0  0  0
 11 12  1  0  0  0
 13 14  1  0  0  0
 14 15  1  0  0  0
 14 17  1  0  0  0
 15 16  2  0  0  0
 15 24  1  0  0  0
 17 18  1  0  0  0
 18 19  4  0  0  0
 18 20  4  0  0  0
 19 21  4  0  0  0
 20 22  4  0  0  0
 21 23  4  0  0  0
 22 23  4  0  0  0
 24 25  1  0  0  0
 25 26  1  0  0  0
 25 28  1  0  0  0
 26 27  2  0  0  0
 26 30  1  0  0  0
 28 29  1  0  0  0
 30 31  1  0  0  0
 31 32  1  0  0  0
 31 34  1  0  0  0
 32 33  1  0  0  0
 33 36  1  0  0  0
 34 35  2  0  0  0
 34 40  1  0  0  0
 36 37  1  0  0  0
 36 38  2  0  0  0
 36 39  1  0  0  0
 40 41  1  0  0  0
 41 42  1  0  0  0
 41 44  1  0  0  0
 42 43  1  0  0  0
 42 48  2  0  0  0
 44 45  1  0  0  0
 45 46  2  0  0  0
 45 47  1  0  0  0
  1 49  1  0  0  0
  1 50  1  0  0  0
  1 51  1  0  0  0
  2 52  1  0  0  0
  5 53  1  0  0  0
  5 54  1  0  0  0
  7 55  1  0  0  0
  8 56  1  0  0  0
  9 57  1  0  0  0
 10 58  1  0  0  0
 12 59  1  0  0  0
 13 60  1  0  0  0
 14 61  1  0  0  0
 17 62  1  0  0  0
 17 63  1  0  0  0
 19 64  1  0  0  0
 20 65  1  0  0  0
 21 66  1  0  0  0
 22 67  1  0  0  0
 23 68  1  0  0  0
 24 69  1  0  0  0
 25 70  1  0  0  0
 28 71  1  0  0  0
 28 72  1  0  0  0
 29 73  1  0  0  0
 30 74  1  0  0  0
 31 75  1  0  0  0
 32 76  1  0  0  0
 32 77  1  0  0  0
 37 78  1  0  0  0
 39 79  1  0  0  0
 40 80  1  0  0  0
 41 81  1  0  0  0
 43 82  1  0  0  0
 44 83  1  0  0  0
 44 84  1  0  0  0
 47 85  1  0  0  0
 47 86  1  0  0  0
M  END
$$$$
