3ufl_ligand
  -I-interpret- 

 69 74  0  0  0  0  0  0  0  0999 V2000
   30.8330   38.7490    2.3120 C   0  0  0  0  0
   30.6730   39.1810    3.7760 C   0  0  0  0  0
   30.1720   38.0200    4.5650 N   0  3  0  0  0
   30.1630   36.8240    3.6840 C   0  0  0  0  0
   31.0160   37.2280    2.4800 C   0  0  0  0  0
   30.6680   36.3700    1.2810 C   0  0  0  0  0
   29.4880   36.2200    0.9890 O   0  0  0  0  0
   31.6700   35.8030    0.5710 N   0  0  0  0  0
   33.1090   35.9080    0.8770 C   0  0  0  0  0
   33.7710   36.7900   -0.1880 C   0  0  0  0  0
   32.8790   36.8450   -1.4350 C   0  0  0  0  0
   32.2710   35.4670   -1.7630 C   0  0  0  0  0
   31.3720   34.9710   -0.6110 C   0  0  0  0  0
   33.5450   37.5440   -2.6020 C   0  0  0  0  0
   33.1950   38.8730   -2.8840 C   0  0  0  0  0
   33.7740   39.5690   -3.9500 C   0  0  0  0  0
   34.7220   38.9270   -4.7490 C   0  0  0  0  0
   35.0820   37.6050   -4.4710 C   0  0  0  0  0
   34.5020   36.9180   -3.4070 C   0  0  0  0  0
   29.5200   39.1210    1.5790 C   0  0  0  0  0
   29.4720   40.4950    0.8990 C   0  0  0  0  0
   30.5950   40.5570   -0.1380 C   0  0  0  0  0
   31.9310   40.3460    0.5290 C   0  0  0  0  0
   32.0570   39.4610    1.7340 C   0  0  0  0  0
   32.9780   40.9790    0.0140 C   0  0  0  0  0
   34.3310   40.8290    0.6190 C   0  0  0  0  0
   34.4620   40.0510    1.6840 C   0  0  0  0  0
   33.2770   39.3470    2.2560 C   0  0  0  0  0
   31.2010   33.4810   -0.3330 C   0  0  0  0  0
   30.7800   33.0840    0.9470 C   0  0  0  0  0
   30.5970   31.7430    1.2880 C   0  0  0  0  0
   30.8380   30.7560    0.3350 C   0  0  0  0  0
   31.2550   31.1190   -0.9470 C   0  0  0  0  0
   31.4280   32.4700   -1.2760 C   0  0  0  0  0
   29.9652   40.0072    3.8429 H   0  0  0  0  0
   31.6336   39.5107    4.1718 H   0  0  0  0  0
   29.2295   38.2099    4.9057 H   0  0  0  0  0
   30.7778   37.8568    5.3692 H   0  0  0  0  0
   29.1522   36.5400    3.3914 H   0  0  0  0  0
   30.5595   35.9426    4.1880 H   0  0  0  0  0
   32.0820   37.0439    2.6135 H   0  0  0  0  0
   33.5630   34.9170    0.8735 H   0  0  0  0  0
   33.2478   36.3495    1.8639 H   0  0  0  0  0
   34.7414   36.3710   -0.4542 H   0  0  0  0  0
   33.9050   37.7970    0.2070 H   0  0  0  0  0
   32.0259   37.4825   -1.2029 H   0  0  0  0  0
   33.0814   34.7524   -1.9067 H   0  0  0  0  0
   31.6657   35.5575   -2.6649 H   0  0  0  0  0
   30.3522   35.1100   -0.9699 H   0  0  0  0  0
   32.4559   39.3739   -2.2588 H   0  0  0  0  0
   33.4884   40.6008   -4.1547 H   0  0  0  0  0
   35.1796   39.4543   -5.5861 H   0  0  0  0  0
   35.8247   37.1063   -5.0937 H   0  0  0  0  0
   34.7952   35.8886   -3.2011 H   0  0  0  0  0
   28.7448   39.1393    2.3450 H   0  0  0  0  0
   29.4054   38.3880    0.7804 H   0  0  0  0  0
   29.6032   41.2837    1.6399 H   0  0  0  0  0
   28.5066   40.6386    0.4138 H   0  0  0  0  0
   30.5855   41.5363   -0.6165 H   0  0  0  0  0
   30.4390   39.7744   -0.8805 H   0  0  0  0  0
   32.8463   41.6154   -0.8610 H   0  0  0  0  0
   35.1922   41.3464    0.1962 H   0  0  0  0  0
   35.4416   39.9246    2.1450 H   0  0  0  0  0
   33.4151   38.7159    3.1339 H   0  0  0  0  0
   30.5898   33.8493    1.6995 H   0  0  0  0  0
   30.2685   31.4705    2.2910 H   0  0  0  0  0
   30.7016   29.7048    0.5891 H   0  0  0  0  0
   31.4466   30.3490   -1.6943 H   0  0  0  0  0
   31.7448   32.7392   -2.2836 H   0  0  0  0  0
  1  2  1  0  0  0
  1  5  1  0  0  0
  1 20  1  0  0  0
  1 24  1  0  0  0
  2  3  1  0  0  0
  3  4  1  0  0  0
  4  5  1  0  0  0
  5  6  1  0  0  0
  6  7  2  0  0  0
  6  8  1  0  0  0
  8  9  1  0  0  0
  8 13  1  0  0  0
  9 10  1  0  0  0
 10 11  1  0  0  0
 11 12  1  0  0  0
 11 14  1  0  0  0
 12 13  1  0  0  0
 13 29  1  0  0  0
 14 15  4  0  0  0
 14 19  4  0  0  0
 15 16  4  0  0  0
 16 17  4  0  0  0
 17 18  4  0  0  0
 18 19  4  0  0  0
 20 21  1  0  0  0
 21 22  1  0  0  0
 22 23  1  0  0  0
 23 24  4  0  0  0
 23 25  4  0  0  0
 24 28  4  0  0  0
 25 26  4  0  0  0
 26 27  4  0  0  0
 27 28  4  0  0  0
 29 30  4  0  0  0
 29 34  4  0  0  0
 30 31  4  0  0  0
 31 32  4  0  0  0
 32 33  4  0  0  0
 33 34  4  0  0  0
  2 35  1  0  0  0
  2 36  1  0  0  0
  3 37  1  0  0  0
  3 38  1  0  0  0
  4 39  1  0  0  0
  4 40  1  0  0  0
  5 41  1  0  0  0
  9 42  1  0  0  0
  9 43  1  0  0  0
 10 44  1  0  0  0
 10 45  1  0  0  0
 11 46  1  0  0  0
 12 47  1  0  0  0
 12 48  1  0  0  0
 13 49  1  0  0  0
 15 50  1  0  0  0
 16 51  1  0  0  0
 17 52  1  0  0  0
 18 53  1  0  0  0
 19 54  1  0  0  0
 20 55  1  0  0  0
 20 56  1  0  0  0
 21 57  1  0  0  0
 21 58  1  0  0  0
 22 59  1  0  0  0
 22 60  1  0  0  0
 25 61  1  0  0  0
 26 62  1  0  0  0
 27 63  1  0  0  0
 28 64  1  0  0  0
 30 65  1  0  0  0
 31 66  1  0  0  0
 32 67  1  0  0  0
 33 68  1  0  0  0
 34 69  1  0  0  0
M  END
$$$$
