### 
### Created by X-TOOL on Mon Sep 10 21:12:50 2018
### 

@<TRIPOS>MOLECULE
1h27_ligand
  101   102     1     0     0
SMALL
GAST_HUCK


@<TRIPOS>ATOM
      1 N           7.4690  149.7980   73.1510 N.4       1 ARG         0.2379
      2 CA          8.5040  150.8660   73.2540 C.3       1 ARG         0.0651
      3 C           9.4110  150.9180   72.0200 C.2       1 ARG         0.2268
      4 O           9.9920  149.9130   71.6190 O.2       1 ARG        -0.3907
      5 CB          9.3560  150.6550   74.5060 C.3       1 ARG         0.0110
      6 CG         10.7560  151.2450   74.3960 C.3       1 ARG        -0.0125
      7 CD         11.4320  151.4930   75.7310 C.3       1 ARG         0.0629
      8 NE         11.4060  150.3140   76.5940 N.pl3     1 ARG        -0.2723
      9 CZ         12.2870  149.3240   76.5390 C.cat     1 ARG         0.2882
     10 NH1        13.2630  149.3480   75.6420 N.pl3     1 ARG        -0.2849
     11 NH2        12.1920  148.3030   77.3790 N.pl3     1 ARG        -0.2849
     12 N           9.4810  152.0870   71.3920 N.am      1 ASN        -0.2589
     13 CA         10.4670  152.3540   70.3520 C.3       1 ASN         0.1477
     14 C          11.8650  152.5520   70.9460 C.2       1 ASN         0.2063
     15 O          12.0230  153.2010   71.9770 O.2       1 ASN        -0.3942
     16 CB         10.0400  153.5960   69.5660 C.3       1 ASN         0.0773
     17 CG         10.9770  153.9200   68.4250 C.2       1 ASN         0.1780
     18 OD1        12.1340  154.2720   68.6400 O.2       1 ASN        -0.3970
     19 ND2        10.4600  153.8680   67.2040 N.am      1 ASN        -0.3007
     20 N          12.8740  151.9840   70.2900 N.am      1 LEU        -0.2636
     21 CA         14.2420  152.0040   70.8060 C.3       1 LEU         0.1312
     22 C          15.1150  153.1050   70.1940 C.2       1 LEU         0.2040
     23 O          15.1410  154.2300   70.6880 O.2       1 LEU        -0.3944
     24 CB         14.9100  150.6450   70.5850 C.3       1 LEU        -0.0101
     25 CG         14.3910  149.4770   71.4220 C.3       1 LEU        -0.0425
     26 CD1        15.2380  148.2480   71.1760 C.3       1 LEU        -0.0625
     27 CD2        14.3800  149.8310   72.8940 C.3       1 LEU        -0.0625
     28 N          15.8720  152.7600   69.1540 N.am      1 PHE        -0.2619
     29 CA         16.8920  153.6560   68.6130 C.3       1 PHE         0.1404
     30 C          16.3450  154.6470   67.5960 C.2       1 PHE         0.2058
     31 O          17.0890  155.4730   67.0700 O.2       1 PHE        -0.3942
     32 CB         18.0100  152.8480   67.9680 C.3       1 PHE         0.0214
     33 CG         18.3470  151.6020   68.7130 C.ar      1 PHE        -0.0386
     34 CD1        17.5800  150.4630   68.5590 C.ar      1 PHE        -0.0601
     35 CD2        19.4080  151.5750   69.5980 C.ar      1 PHE        -0.0601
     36 CE1        17.8770  149.3160   69.2590 C.ar      1 PHE        -0.0686
     37 CE2        19.7120  150.4260   70.2950 C.ar      1 PHE        -0.0686
     38 CZ         18.9460  149.2980   70.1270 C.ar      1 PHE        -0.0687
     39 N          15.0550  154.5470   67.2950 N.am      1 GLY        -0.2663
     40 CA         14.4070  155.4990   66.4100 C.3       1 GLY         0.1203
     41 C          13.8980  156.7020   67.1830 C.2       1 GLY         0.2027
     42 O          13.8200  156.6700   68.4140 O.2       1 GLY        -0.3945
     43 N          13.5280  157.7610   66.4690 N.am      1 PRO        -0.2558
     44 CA         13.0270  158.9800   67.1120 C.3       1 PRO         0.0972
     45 C          11.8540  158.6850   68.0510 C.2       1 PRO         0.0603
     46 O          11.9210  158.8810   69.2660 O.co2     1 PRO        -0.5666
     47 CB         12.5800  159.8470   65.9230 C.3       1 PRO        -0.0159
     48 CG         12.4290  158.8880   64.7790 C.3       1 PRO        -0.0288
     49 CD         13.5030  157.8630   64.9980 C.3       1 PRO         0.0362
     50 OXT        10.8060  158.1890   67.6400 O.co2     1 PRO        -0.5666
     51 H1          6.8984  149.8018   73.9820 H         1 ARG         0.2015
     52 H2          7.9197  148.9013   73.0570 H         1 ARG         0.2015
     53 H3          6.8890  149.9688   72.3445 H         1 ARG         0.2015
     54 H4          7.9875  151.8333   73.3406 H         1 ARG         0.1098
     55 H5          9.4473  149.5738   74.6867 H         1 ARG         0.0347
     56 H6          8.8453  151.1273   75.3581 H         1 ARG         0.0347
     57 H7         10.6854  152.2038   73.8615 H         1 ARG         0.0302
     58 H8         11.3799  150.5478   73.8175 H         1 ARG         0.0302
     59 H9         10.9131  152.3171   76.2425 H         1 ARG         0.0689
     60 H10        12.4795  151.7756   75.5499 H         1 ARG         0.0689
     61 H11        10.6521  150.2472   77.2926 H         1 ARG         0.2642
     62 H12        13.9452  148.5773   75.6025 H         1 ARG         0.2615
     63 H13        13.3391  150.1373   74.9847 H         1 ARG         0.2615
     64 H14        11.4356  148.2796   78.0777 H         1 ARG         0.2615
     65 H15        12.8746  147.5330   77.3330 H         1 ARG         0.2615
     66 H16         8.8350  152.8084   71.6414 H         1 ASN         0.1886
     67 H17        10.4990  151.4935   69.6676 H         1 ASN         0.0826
     68 H18        10.0136  154.4545   70.2532 H         1 ASN         0.0551
     69 H19         9.0340  153.4234   69.1559 H         1 ASN         0.0551
     70 H20        11.0320  154.0725   66.4097 H         1 ASN         0.1814
     71 H21         9.4983  153.6243   67.0782 H         1 ASN         0.1814
     72 H22        12.6911  151.5299   69.4180 H         1 LEU         0.1883
     73 H23        14.1837  152.1886   71.8888 H         1 LEU         0.0800
     74 H24        15.9815  150.7614   70.8048 H         1 LEU         0.0315
     75 H25        14.7798  150.3787   69.5257 H         1 LEU         0.0315
     76 H26        13.3589  149.2576   71.1114 H         1 LEU         0.0298
     77 H27        14.8572  147.4129   71.7823 H         1 LEU         0.0232
     78 H28        16.2805  148.4590   71.4563 H         1 LEU         0.0232
     79 H29        15.1921  147.9783   70.1106 H         1 LEU         0.0232
     80 H30        13.7597  150.7257   73.0513 H         1 LEU         0.0232
     81 H31        15.4076  150.0335   73.2301 H         1 LEU         0.0232
     82 H32        13.9646  148.9910   73.4701 H         1 LEU         0.0232
     83 H33        15.7388  151.8634   68.7317 H         1 PHE         0.1885
     84 H34        17.3132  154.2294   69.4519 H         1 PHE         0.0823
     85 H35        18.9104  153.4778   67.9170 H         1 PHE         0.0474
     86 H36        17.6977  152.5717   66.9501 H         1 PHE         0.0474
     87 H37        16.7354  150.4731   67.8796 H         1 PHE         0.0557
     88 H38        20.0069  152.4664   69.7453 H         1 PHE         0.0557
     89 H39        17.2701  148.4275   69.1273 H         1 PHE         0.0599
     90 H40        20.5554  150.4121   70.9758 H         1 PHE         0.0599
     91 H41        19.1828  148.3945   70.6772 H         1 PHE         0.0559
     92 H42        14.5181  153.7996   67.6865 H         1 GLY         0.1881
     93 H43        13.5589  155.0069   65.9114 H         1 GLY         0.0763
     94 H44        15.1307  155.8374   65.6539 H         1 GLY         0.0763
     95 H45        13.8274  159.4772   67.6796 H         1 PRO         0.0728
     96 H46        13.3400  160.6080   65.6919 H         1 PRO         0.0306
     97 H47        11.6219  160.3406   66.1429 H         1 PRO         0.0306
     98 H48        12.5749  159.4037   63.8184 H         1 PRO         0.0286
     99 H49        11.4347  158.4178   64.7954 H         1 PRO         0.0286
    100 H50        13.2390  156.9011   64.5343 H         1 PRO         0.0524
    101 H51        14.4708  158.2067   64.6039 H         1 PRO         0.0524
@<TRIPOS>BOND
     1    1    2 1  
     2    2    3 1  
     3    2    5 1  
     4    3    4 2  
     5    3   12 am 
     6    5    6 1  
     7    6    7 1  
     8    7    8 1  
     9    8    9 ar 
    10    9   10 ar 
    11    9   11 ar 
    12   12   13 1  
    13   13   14 1  
    14   13   16 1  
    15   14   15 2  
    16   14   20 am 
    17   16   17 1  
    18   17   18 2  
    19   17   19 am 
    20   20   21 1  
    21   21   22 1  
    22   21   24 1  
    23   22   23 2  
    24   22   28 am 
    25   24   25 1  
    26   25   26 1  
    27   25   27 1  
    28   28   29 1  
    29   29   30 1  
    30   29   32 1  
    31   30   31 2  
    32   30   39 am 
    33   32   33 1  
    34   33   34 ar 
    35   33   35 ar 
    36   34   36 ar 
    37   35   37 ar 
    38   36   38 ar 
    39   37   38 ar 
    40   39   40 1  
    41   40   41 1  
    42   41   42 2  
    43   41   43 am 
    44   43   44 1  
    45   43   49 1  
    46   44   45 1  
    47   44   47 1  
    48   45   46 ar 
    49   45   50 ar 
    50   47   48 1  
    51   48   49 1  
    52    1   51 1  
    53    1   52 1  
    54    1   53 1  
    55    2   54 1  
    56    5   55 1  
    57    5   56 1  
    58    6   57 1  
    59    6   58 1  
    60    7   59 1  
    61    7   60 1  
    62    8   61 1  
    63   10   62 1  
    64   10   63 1  
    65   11   64 1  
    66   11   65 1  
    67   12   66 1  
    68   13   67 1  
    69   16   68 1  
    70   16   69 1  
    71   19   70 1  
    72   19   71 1  
    73   20   72 1  
    74   21   73 1  
    75   24   74 1  
    76   24   75 1  
    77   25   76 1  
    78   26   77 1  
    79   26   78 1  
    80   26   79 1  
    81   27   80 1  
    82   27   81 1  
    83   27   82 1  
    84   28   83 1  
    85   29   84 1  
    86   32   85 1  
    87   32   86 1  
    88   34   87 1  
    89   35   88 1  
    90   36   89 1  
    91   37   90 1  
    92   38   91 1  
    93   39   92 1  
    94   40   93 1  
    95   40   94 1  
    96   44   95 1  
    97   47   96 1  
    98   47   97 1  
    99   48   98 1  
   100   48   99 1  
   101   49  100 1  
   102   49  101 1  
@<TRIPOS>SUBSTRUCTURE
     1 ARG         1

