1h27_ligand
  -I-interpret- 

101102  0  0  0  0  0  0  0  0999 V2000
    7.4690  149.7980   73.1510 N   0  3  0  0  0
    8.5040  150.8660   73.2540 C   0  0  0  0  0
    9.4110  150.9180   72.0200 C   0  0  0  0  0
    9.9920  149.9130   71.6190 O   0  0  0  0  0
    9.3560  150.6550   74.5060 C   0  0  0  0  0
   10.7560  151.2450   74.3960 C   0  0  0  0  0
   11.4320  151.4930   75.7310 C   0  0  0  0  0
   11.4060  150.3140   76.5940 N   0  0  0  0  0
   12.2870  149.3240   76.5390 C   0  0  0  0  0
   13.2630  149.3480   75.6420 N   0  0  0  0  0
   12.1920  148.3030   77.3790 N   0  0  0  0  0
    9.4810  152.0870   71.3920 N   0  0  0  0  0
   10.4670  152.3540   70.3520 C   0  0  0  0  0
   11.8650  152.5520   70.9460 C   0  0  0  0  0
   12.0230  153.2010   71.9770 O   0  0  0  0  0
   10.0400  153.5960   69.5660 C   0  0  0  0  0
   10.9770  153.9200   68.4250 C   0  0  0  0  0
   12.1340  154.2720   68.6400 O   0  0  0  0  0
   10.4600  153.8680   67.2040 N   0  0  0  0  0
   12.8740  151.9840   70.2900 N   0  0  0  0  0
   14.2420  152.0040   70.8060 C   0  0  0  0  0
   15.1150  153.1050   70.1940 C   0  0  0  0  0
   15.1410  154.2300   70.6880 O   0  0  0  0  0
   14.9100  150.6450   70.5850 C   0  0  0  0  0
   14.3910  149.4770   71.4220 C   0  0  0  0  0
   15.2380  148.2480   71.1760 C   0  0  0  0  0
   14.3800  149.8310   72.8940 C   0  0  0  0  0
   15.8720  152.7600   69.1540 N   0  0  0  0  0
   16.8920  153.6560   68.6130 C   0  0  0  0  0
   16.3450  154.6470   67.5960 C   0  0  0  0  0
   17.0890  155.4730   67.0700 O   0  0  0  0  0
   18.0100  152.8480   67.9680 C   0  0  0  0  0
   18.3470  151.6020   68.7130 C   0  0  0  0  0
   17.5800  150.4630   68.5590 C   0  0  0  0  0
   19.4080  151.5750   69.5980 C   0  0  0  0  0
   17.8770  149.3160   69.2590 C   0  0  0  0  0
   19.7120  150.4260   70.2950 C   0  0  0  0  0
   18.9460  149.2980   70.1270 C   0  0  0  0  0
   15.0550  154.5470   67.2950 N   0  0  0  0  0
   14.4070  155.4990   66.4100 C   0  0  0  0  0
   13.8980  156.7020   67.1830 C   0  0  0  0  0
   13.8200  156.6700   68.4140 O   0  0  0  0  0
   13.5280  157.7610   66.4690 N   0  0  0  0  0
   13.0270  158.9800   67.1120 C   0  0  0  0  0
   11.8540  158.6850   68.0510 C   0  0  0  0  0
   11.9210  158.8810   69.2660 O   0  0  0  0  0
   12.5800  159.8470   65.9230 C   0  0  0  0  0
   12.4290  158.8880   64.7790 C   0  0  0  0  0
   13.5030  157.8630   64.9980 C   0  0  0  0  0
   10.8060  158.1890   67.6400 O   0  0  0  0  0
    6.9079  149.9497   72.3128 H   0  0  0  0  0
    7.9258  148.8877   73.0956 H   0  0  0  0  0
    6.8676  149.8285   73.9743 H   0  0  0  0  0
    7.9764  151.8176   73.3185 H   0  0  0  0  0
    9.4643  149.5801   74.6508 H   0  0  0  0  0
    8.8532  151.1573   75.3324 H   0  0  0  0  0
   10.6603  152.2106   73.8994 H   0  0  0  0  0
   11.3678  150.5234   73.8546 H   0  0  0  0  0
   10.8950  152.2948   76.2379 H   0  0  0  0  0
   12.4741  151.7489   75.5397 H   0  0  0  0  0
   10.6594  150.2479   77.2859 H   0  0  0  0  0
   13.9365  148.5831   75.6005 H   0  0  0  0  0
   13.3404  150.1314   74.9934 H   0  0  0  0  0
   11.4408  148.2781   78.0686 H   0  0  0  0  0
    8.8221  152.8229   71.6464 H   0  0  0  0  0
   10.5155  151.4936   69.6846 H   0  0  0  0  0
   10.0454  154.4428   70.2523 H   0  0  0  0  0
    9.0548  153.4001   69.1427 H   0  0  0  0  0
   11.0289  154.1264   66.3978 H   0  0  0  0  0
    9.4937  153.5696   67.0716 H   0  0  0  0  0
   12.6875  151.5208   69.4006 H   0  0  0  0  0
   14.1582  152.2217   71.8707 H   0  0  0  0  0
   15.9542  150.7755   70.8690 H   0  0  0  0  0
   14.7118  150.3799   69.5465 H   0  0  0  0  0
   13.3654  149.2634   71.1211 H   0  0  0  0  0
   15.1917  147.9818   70.1200 H   0  0  0  0  0
   16.2707  148.4584   71.4541 H   0  0  0  0  0
   14.8597  147.4213   71.7773 H   0  0  0  0  0
   15.3932  150.0712   73.2162 H   0  0  0  0  0
   13.7325  150.6931   73.0542 H   0  0  0  0  0
   14.0064  148.9827   73.4676 H   0  0  0  0  0
   15.7362  151.8454   68.7233 H   0  0  0  0  0
   17.2702  154.2322   69.4575 H   0  0  0  0  0
   18.9021  153.4742   67.9552 H   0  0  0  0  0
   17.6717  152.5548   66.9742 H   0  0  0  0  0
   16.7307  150.4731   67.8758 H   0  0  0  0  0
   20.0102  152.4714   69.7461 H   0  0  0  0  0
   17.2667  148.4226   69.1266 H   0  0  0  0  0
   20.5601  150.4120   70.9796 H   0  0  0  0  0
   19.1842  148.3895   70.6803 H   0  0  0  0  0
   14.5074  153.7847   67.6943 H   0  0  0  0  0
   13.5604  155.0089   65.9291 H   0  0  0  0  0
   15.1328  155.8397   65.6716 H   0  0  0  0  0
   13.7766  159.4624   67.7393 H   0  0  0  0  0
   12.7732  159.2677   69.4801 H   0  0  0  0  0
   13.3034  160.6313   65.7001 H   0  0  0  0  0
   11.6495  160.3739   66.1342 H   0  0  0  0  0
   12.5318  159.3855   63.8146 H   0  0  0  0  0
   11.4364  158.4383   64.7532 H   0  0  0  0  0
   13.3036  156.9135   64.5011 H   0  0  0  0  0
   14.4640  158.1434   64.5667 H   0  0  0  0  0
  1  2  1  0  0  0
  2  3  1  0  0  0
  2  5  1  0  0  0
  3  4  2  0  0  0
  3 12  1  0  0  0
  5  6  1  0  0  0
  6  7  1  0  0  0
  7  8  1  0  0  0
  8  9  1  0  0  0
  9 10  1  0  0  0
  9 11  2  0  0  0
 12 13  1  0  0  0
 13 14  1  0  0  0
 13 16  1  0  0  0
 14 15  2  0  0  0
 14 20  1  0  0  0
 16 17  1  0  0  0
 17 18  2  0  0  0
 17 19  1  0  0  0
 20 21  1  0  0  0
 21 22  1  0  0  0
 21 24  1  0  0  0
 22 23  2  0  0  0
 22 28  1  0  0  0
 24 25  1  0  0  0
 25 26  1  0  0  0
 25 27  1  0  0  0
 28 29  1  0  0  0
 29 30  1  0  0  0
 29 32  1  0  0  0
 30 31  2  0  0  0
 30 39  1  0  0  0
 32 33  1  0  0  0
 33 34  4  0  0  0
 33 35  4  0  0  0
 34 36  4  0  0  0
 35 37  4  0  0  0
 36 38  4  0  0  0
 37 38  4  0  0  0
 39 40  1  0  0  0
 40 41  1  0  0  0
 41 42  2  0  0  0
 41 43  1  0  0  0
 43 44  1  0  0  0
 43 49  1  0  0  0
 44 45  1  0  0  0
 44 47  1  0  0  0
 45 46  1  0  0  0
 45 50  2  0  0  0
 47 48  1  0  0  0
 48 49  1  0  0  0
  1 51  1  0  0  0
  1 52  1  0  0  0
  1 53  1  0  0  0
  2 54  1  0  0  0
  5 55  1  0  0  0
  5 56  1  0  0  0
  6 57  1  0  0  0
  6 58  1  0  0  0
  7 59  1  0  0  0
  7 60  1  0  0  0
  8 61  1  0  0  0
 10 62  1  0  0  0
 10 63  1  0  0  0
 11 64  1  0  0  0
 12 65  1  0  0  0
 13 66  1  0  0  0
 16 67  1  0  0  0
 16 68  1  0  0  0
 19 69  1  0  0  0
 19 70  1  0  0  0
 20 71  1  0  0  0
 21 72  1  0  0  0
 24 73  1  0  0  0
 24 74  1  0  0  0
 25 75  1  0  0  0
 26 76  1  0  0  0
 26 77  1  0  0  0
 26 78  1  0  0  0
 27 79  1  0  0  0
 27 80  1  0  0  0
 27 81  1  0  0  0
 28 82  1  0  0  0
 29 83  1  0  0  0
 32 84  1  0  0  0
 32 85  1  0  0  0
 34 86  1  0  0  0
 35 87  1  0  0  0
 36 88  1  0  0  0
 37 89  1  0  0  0
 38 90  1  0  0  0
 39 91  1  0  0  0
 40 92  1  0  0  0
 40 93  1  0  0  0
 44 94  1  0  0  0
 46 95  1  0  0  0
 47 96  1  0  0  0
 47 97  1  0  0  0
 48 98  1  0  0  0
 48 99  1  0  0  0
 49100  1  0  0  0
 49101  1  0  0  0
M  END
$$$$
