3agl_ligand
  -I-interpret- 

126128  0  0  0  0  0  0  0  0999 V2000
  -18.4220    5.2210   -0.1900 N   0  0  0  0  0
  -19.5910    5.2260    0.4450 C   0  0  0  0  0
  -19.6940    5.5280    1.7340 N   0  0  0  0  0
  -18.5890    5.8530    2.4360 C   0  0  0  0  0
  -17.3510    5.8490    1.8040 C   0  0  0  0  0
  -17.2790    5.5120    0.4510 C   0  0  0  0  0
  -16.1020    5.4980   -0.1930 N   0  0  0  0  0
  -16.4400    6.1770    2.7130 N   0  0  0  0  0
  -17.0650    6.3890    3.8660 C   0  0  0  0  0
  -18.3750    6.1940    3.7040 N   0  0  0  0  0
  -16.5820    7.5410    6.9640 O   0  0  0  0  0
  -19.0490    4.6600    7.9310 O   0  0  0  0  0
  -20.9760    5.0680    5.9800 O   0  0  0  0  0
  -19.1020    7.4150    5.6860 O   0  0  0  0  0
  -17.6330    7.5010    7.6130 C   0  0  0  0  0
  -18.6520    5.3600    6.7770 C   0  0  0  0  0
  -19.6050    5.0900    5.5950 C   0  0  0  0  0
  -18.8720    6.8420    7.0060 C   0  0  0  0  0
  -19.4260    6.3390    4.7530 C   0  0  0  0  0
  -14.0520   12.7150   11.5640 C   0  0  0  0  0
  -14.7380   13.5310   12.1730 O   0  0  0  0  0
  -13.9360   12.7930   10.0380 C   0  0  0  0  0
  -15.1950   12.2730    9.3360 C   0  0  0  0  0
  -15.3670   10.7830    9.6380 C   0  0  0  0  0
  -16.7020   10.2080    9.1740 C   0  0  0  0  0
  -16.6920    8.7180    9.5380 C   0  0  0  0  0
  -17.7790    8.0170    8.8360 N   0  0  0  0  0
  -13.3680   11.7160   12.1430 N   0  0  0  0  0
  -13.3630   11.5250   13.5870 C   0  0  0  0  0
  -12.2620   10.5300   14.0170 C   0  0  0  0  0
  -14.7430   11.0530   14.0800 C   0  0  0  0  0
  -15.3050   11.6350   15.0070 O   0  0  0  0  0
  -19.7760    6.4650   17.3600 C   0  0  0  0  0
  -19.4620    5.2980   17.7220 O   0  0  0  0  0
  -18.8130    7.6420   17.5990 C   0  0  0  0  0
  -18.3510    8.2120   16.2720 C   0  0  0  0  0
  -16.8650    8.5730   16.2650 C   0  0  0  0  0
  -16.2550    8.2790   14.8910 C   0  0  0  0  0
  -16.5180    9.3810   13.8750 C   0  0  0  0  0
  -15.2310    9.9700   13.4820 N   0  0  0  0  0
  -20.9280    6.8090   16.7380 N   0  0  0  0  0
  -22.0070    5.8370   16.4130 C   0  0  0  0  0
  -23.2580    6.6220   16.0060 C   0  0  0  0  0
  -23.1280    7.1460   14.5720 C   0  0  0  0  0
  -23.4690    6.0140   13.5950 C   0  0  0  0  0
  -22.5020    6.0120   12.4970 N   0  0  0  0  0
  -22.3880    5.0030   11.6280 C   0  0  0  0  0
  -21.4910    5.1310   10.6380 N   0  0  0  0  0
  -23.1650    3.9260   11.7290 N   0  0  0  0  0
  -22.3410    4.9300   17.6000 C   0  0  0  0  0
  -22.3320    5.3900   18.7350 O   0  0  0  0  0
  -22.6230    3.6530   17.3070 N   0  0  0  0  0
  -22.9330    2.6370   18.3280 C   0  0  0  0  0
  -22.0170    1.4180   18.1680 C   0  0  0  0  0
  -20.5220    1.7670   18.0620 C   0  0  0  0  0
  -19.7280    0.4670   18.3100 C   0  0  0  0  0
  -19.6070   -0.2720   17.0280 N   0  0  0  0  0
  -19.8750   -1.5790   16.9750 C   0  0  0  0  0
  -20.2810   -2.2420   18.0560 N   0  0  0  0  0
  -19.7320   -2.2320   15.8290 N   0  0  0  0  0
  -24.3870    2.1400   18.2230 C   0  0  0  0  0
  -25.0690    2.3520   17.2220 O   0  0  0  0  0
  -24.8180    1.4570   19.2660 N   0  0  0  0  0
  -20.4940    4.9739   -0.1111 H   0  0  0  0  0
  -16.0662    5.2637   -1.1851 H   0  0  0  0  0
  -15.2430    5.7217    0.3095 H   0  0  0  0  0
  -16.5824    6.6776    4.7998 H   0  0  0  0  0
  -18.4365    4.8496    8.6455 H   0  0  0  0  0
  -21.5211    4.8968    5.2086 H   0  0  0  0  0
  -17.6237    5.0598    6.5755 H   0  0  0  0  0
  -19.3840    4.1315    5.1253 H   0  0  0  0  0
  -19.7028    7.0020    7.6933 H   0  0  0  0  0
  -20.3406    6.5471    4.1977 H   0  0  0  0  0
  -13.0943   12.1731    9.7292 H   0  0  0  0  0
  -13.7996   13.8383    9.7607 H   0  0  0  0  0
  -15.0975   12.4173    8.2600 H   0  0  0  0  0
  -16.0655   12.8204    9.6975 H   0  0  0  0  0
  -15.3218   10.6644   10.7206 H   0  0  0  0  0
  -14.5811   10.2508    9.1020 H   0  0  0  0  0
  -16.8308   10.3442    8.1002 H   0  0  0  0  0
  -17.5340   10.7199    9.6576 H   0  0  0  0  0
  -16.8347    8.6121   10.6134 H   0  0  0  0  0
  -15.7371    8.2843    9.2412 H   0  0  0  0  0
  -18.6809    7.9213    9.3027 H   0  0  0  0  0
  -12.8371   11.0728   11.5558 H   0  0  0  0  0
  -13.1431   12.4877   14.0485 H   0  0  0  0  0
  -12.4384    9.5662   13.5394 H   0  0  0  0  0
  -11.2881   10.9144   13.7138 H   0  0  0  0  0
  -12.2854   10.4099   15.1001 H   0  0  0  0  0
  -17.9468    7.2887   18.1585 H   0  0  0  0  0
  -19.3294    8.4190   18.1627 H   0  0  0  0  0
  -18.9165    9.1252   16.0868 H   0  0  0  0  0
  -18.5126    7.4512   15.5083 H   0  0  0  0  0
  -16.3498    7.9774   17.0187 H   0  0  0  0  0
  -16.7551    9.6351   16.4841 H   0  0  0  0  0
  -16.7119    7.3640   14.5139 H   0  0  0  0  0
  -15.1757    8.1954   15.0181 H   0  0  0  0  0
  -17.1587   10.1460   14.3136 H   0  0  0  0  0
  -17.0207    8.9682   13.0003 H   0  0  0  0  0
  -14.6966    9.5362   12.7293 H   0  0  0  0  0
  -21.0637    7.7860   16.4784 H   0  0  0  0  0
  -21.6614    5.1977   15.6006 H   0  0  0  0  0
  -23.3764    7.4697   16.6809 H   0  0  0  0  0
  -24.1222    5.9601   16.0616 H   0  0  0  0  0
  -22.1083    7.4887   14.3965 H   0  0  0  0  0
  -23.8129    7.9805   14.4217 H   0  0  0  0  0
  -24.4719    6.1669   13.1965 H   0  0  0  0  0
  -23.4288    5.0581   14.1172 H   0  0  0  0  0
  -21.8863    6.8181   12.3898 H   0  0  0  0  0
  -21.3925    4.3933    9.9405 H   0  0  0  0  0
  -20.9078    5.9660   10.5830 H   0  0  0  0  0
  -23.8569    3.8645   12.4759 H   0  0  0  0  0
  -22.6230    3.3700   16.3270 H   0  0  0  0  0
  -22.7808    3.1156   19.2954 H   0  0  0  0  0
  -22.2994    0.9214   17.2397 H   0  0  0  0  0
  -22.1423    0.8008   19.0576 H   0  0  0  0  0
  -20.2531    2.5258   18.7968 H   0  0  0  0  0
  -20.2928    2.1735   17.0770 H   0  0  0  0  0
  -20.2480   -0.1490   19.0437 H   0  0  0  0  0
  -18.7361    0.7074   18.6927 H   0  0  0  0  0
  -19.3177    0.2213   16.1834 H   0  0  0  0  0
  -20.4784   -3.2410   17.9974 H   0  0  0  0  0
  -20.3946   -1.7509   18.9427 H   0  0  0  0  0
  -19.4189   -1.7356   14.9948 H   0  0  0  0  0
  -25.7630    1.0730   19.2691 H   0  0  0  0  0
  -24.2063    1.3129   20.0694 H   0  0  0  0  0
  2  1  4  0  0  0
  6  1  4  0  0  0
  3  2  4  0  0  0
  4  3  4  0  0  0
  4  5  4  0  0  0
 10  4  4  0  0  0
  5  6  4  0  0  0
  8  5  4  0  0  0
  6  7  1  0  0  0
  9  8  4  0  0  0
 10  9  4  0  0  0
 19 10  1  0  0  0
 15 11  2  0  0  0
 16 12  1  0  0  0
 17 13  1  0  0  0
 18 14  1  0  0  0
 14 19  1  0  0  0
 15 18  1  0  0  0
 27 15  1  0  0  0
 16 17  1  0  0  0
 18 16  1  0  0  0
 17 19  1  0  0  0
 20 21  2  0  0  0
 20 22  1  0  0  0
 28 20  1  0  0  0
 22 23  1  0  0  0
 23 24  1  0  0  0
 24 25  1  0  0  0
 25 26  1  0  0  0
 26 27  1  0  0  0
 29 28  1  0  0  0
 29 30  1  0  0  0
 31 29  1  0  0  0
 31 32  2  0  0  0
 40 31  1  0  0  0
 33 34  2  0  0  0
 35 33  1  0  0  0
 33 41  1  0  0  0
 36 35  1  0  0  0
 37 36  1  0  0  0
 38 37  1  0  0  0
 39 38  1  0  0  0
 39 40  1  0  0  0
 41 42  1  0  0  0
 42 43  1  0  0  0
 42 50  1  0  0  0
 43 44  1  0  0  0
 44 45  1  0  0  0
 45 46  1  0  0  0
 46 47  1  0  0  0
 47 48  1  0  0  0
 47 49  2  0  0  0
 50 51  2  0  0  0
 50 52  1  0  0  0
 52 53  1  0  0  0
 53 54  1  0  0  0
 53 61  1  0  0  0
 54 55  1  0  0  0
 55 56  1  0  0  0
 56 57  1  0  0  0
 57 58  1  0  0  0
 58 59  1  0  0  0
 58 60  2  0  0  0
 61 62  2  0  0  0
 61 63  1  0  0  0
  2 64  1  0  0  0
  7 65  1  0  0  0
  7 66  1  0  0  0
  9 67  1  0  0  0
 12 68  1  0  0  0
 13 69  1  0  0  0
 16 70  1  0  0  0
 17 71  1  0  0  0
 18 72  1  0  0  0
 19 73  1  0  0  0
 22 74  1  0  0  0
 22 75  1  0  0  0
 23 76  1  0  0  0
 23 77  1  0  0  0
 24 78  1  0  0  0
 24 79  1  0  0  0
 25 80  1  0  0  0
 25 81  1  0  0  0
 26 82  1  0  0  0
 26 83  1  0  0  0
 27 84  1  0  0  0
 28 85  1  0  0  0
 29 86  1  0  0  0
 30 87  1  0  0  0
 30 88  1  0  0  0
 30 89  1  0  0  0
 35 90  1  0  0  0
 35 91  1  0  0  0
 36 92  1  0  0  0
 36 93  1  0  0  0
 37 94  1  0  0  0
 37 95  1  0  0  0
 38 96  1  0  0  0
 38 97  1  0  0  0
 39 98  1  0  0  0
 39 99  1  0  0  0
 40100  1  0  0  0
 41101  1  0  0  0
 42102  1  0  0  0
 43103  1  0  0  0
 43104  1  0  0  0
 44105  1  0  0  0
 44106  1  0  0  0
 45107  1  0  0  0
 45108  1  0  0  0
 46109  1  0  0  0
 48110  1  0  0  0
 48111  1  0  0  0
 49112  1  0  0  0
 52113  1  0  0  0
 53114  1  0  0  0
 54115  1  0  0  0
 54116  1  0  0  0
 55117  1  0  0  0
 55118  1  0  0  0
 56119  1  0  0  0
 56120  1  0  0  0
 57121  1  0  0  0
 59122  1  0  0  0
 59123  1  0  0  0
 60124  1  0  0  0
 63125  1  0  0  0
 63126  1  0  0  0
M  END
$$$$
