5v86_ligand
  -I-interpret- 

 59 61  0  0  0  0  0  0  0  0999 V2000
   12.6020   -8.8930  -13.4680 C   0  0  0  0  0
   16.1110  -14.8130  -11.1340 C   0  0  0  0  0
   14.4540   -8.4560  -12.2550 C   0  0  0  0  0
   15.4810   -9.1980  -11.4130 C   0  0  0  0  0
   16.7790  -12.2240  -10.1560 C   0  0  0  0  0
   14.8130   -9.7690  -10.2380 C   0  0  0  0  0
   13.7730  -10.6950  -10.5510 C   0  0  0  0  0
   12.7870   -9.9590  -11.4800 C   0  0  0  0  0
   17.1350  -10.8090   -9.6370 C   0  0  0  0  0
   17.1840  -12.6330  -11.4240 C   0  0  0  0  0
   16.8540  -13.9240  -11.9120 C   0  0  0  0  0
   13.4130   -9.3500  -12.6460 N   0  3  0  0  0
   15.8610  -10.2290   -9.1930 N   0  0  0  0  0
   11.8480   -7.6410  -12.9500 C   0  0  0  0  0
   16.5770  -10.4480   -6.9840 N   0  0  0  0  0
    9.9260   -6.0760  -13.0980 C   0  0  0  0  0
   10.6070   -7.2680  -13.7670 C   0  0  0  0  0
   15.6720  -14.4310   -9.8660 C   0  0  0  0  0
   16.0070  -13.1240   -9.3960 C   0  0  0  0  0
   15.5560  -10.1430   -7.9070 C   0  0  0  0  0
   14.4620   -9.7890   -7.5250 O   0  0  0  0  0
   16.4210  -10.5470   -5.5680 C   0  0  0  0  0
   15.2680  -11.1570   -5.0830 C   0  0  0  0  0
   15.1400  -11.3000   -3.7150 C   0  0  0  0  0
   13.7300  -12.0540   -3.0540 Cl  0  0  0  0  0
   16.1320  -10.8940   -2.8500 C   0  0  0  0  0
   15.8740  -11.1340   -1.1510 Cl  0  0  0  0  0
   17.3050  -10.3140   -3.3750 C   0  0  0  0  0
   17.4680  -10.1270   -4.7460 C   0  0  0  0  0
   11.8605   -9.6670  -13.6660 H   0  0  0  0  0
   13.1617   -8.5980  -14.3556 H   0  0  0  0  0
   15.8737  -15.8056  -11.5169 H   0  0  0  0  0
   14.9390   -8.0561  -13.1454 H   0  0  0  0  0
   14.0284   -7.6413  -11.6692 H   0  0  0  0  0
   16.2615   -8.5078  -11.0928 H   0  0  0  0  0
   15.9326   -9.9957  -12.0028 H   0  0  0  0  0
   14.2421   -8.9804   -9.7479 H   0  0  0  0  0
   13.2716  -11.0357   -9.6452 H   0  0  0  0  0
   14.1773  -11.5818  -11.0391 H   0  0  0  0  0
   12.3346   -9.1552  -10.8993 H   0  0  0  0  0
   12.0739  -10.6982  -11.8451 H   0  0  0  0  0
   17.6039  -10.2029  -10.4122 H   0  0  0  0  0
   17.8622  -10.8496   -8.8261 H   0  0  0  0  0
   17.7619  -11.9528  -12.0497 H   0  0  0  0  0
   17.1847  -14.2248  -12.9061 H   0  0  0  0  0
   13.8678  -10.0925  -13.1773 H   0  0  0  0  0
   12.5392   -6.8008  -13.0159 H   0  0  0  0  0
   11.5097   -7.8665  -11.9386 H   0  0  0  0  0
   17.5103  -10.6126   -7.3612 H   0  0  0  0  0
    9.6359   -6.3475  -12.0830 H   0  0  0  0  0
   10.6180   -5.2344  -13.0666 H   0  0  0  0  0
    9.0398   -5.7982  -13.6686 H   0  0  0  0  0
    9.9206   -8.1137  -13.8077 H   0  0  0  0  0
   10.8965   -7.0077  -14.7851 H   0  0  0  0  0
   15.0875  -15.1133   -9.2487 H   0  0  0  0  0
   15.6522  -12.8121   -8.4137 H   0  0  0  0  0
   14.4910  -11.5105   -5.7607 H   0  0  0  0  0
   18.0995  -10.0060   -2.6953 H   0  0  0  0  0
   18.3703   -9.6742   -5.1571 H   0  0  0  0  0
 12  1  1  0  0  0
  1 14  1  0  0  0
 11  2  4  0  0  0
  2 18  4  0  0  0
  4  3  1  0  0  0
  3 12  1  0  0  0
  6  4  1  0  0  0
  5  9  1  0  0  0
 10  5  4  0  0  0
  5 19  4  0  0  0
  6  7  1  0  0  0
 13  6  1  0  0  0
  7  8  1  0  0  0
  8 12  1  0  0  0
  9 13  1  0  0  0
 10 11  4  0  0  0
 13 20  1  0  0  0
 14 17  1  0  0  0
 20 15  1  0  0  0
 15 22  1  0  0  0
 17 16  1  0  0  0
 18 19  4  0  0  0
 20 21  2  0  0  0
 22 23  4  0  0  0
 22 29  4  0  0  0
 23 24  4  0  0  0
 24 25  1  0  0  0
 24 26  4  0  0  0
 26 27  1  0  0  0
 26 28  4  0  0  0
 28 29  4  0  0  0
  1 30  1  0  0  0
  1 31  1  0  0  0
  2 32  1  0  0  0
  3 33  1  0  0  0
  3 34  1  0  0  0
  4 35  1  0  0  0
  4 36  1  0  0  0
  6 37  1  0  0  0
  7 38  1  0  0  0
  7 39  1  0  0  0
  8 40  1  0  0  0
  8 41  1  0  0  0
  9 42  1  0  0  0
  9 43  1  0  0  0
 10 44  1  0  0  0
 11 45  1  0  0  0
 12 46  1  0  0  0
 14 47  1  0  0  0
 14 48  1  0  0  0
 15 49  1  0  0  0
 16 50  1  0  0  0
 16 51  1  0  0  0
 16 52  1  0  0  0
 17 53  1  0  0  0
 17 54  1  0  0  0
 18 55  1  0  0  0
 19 56  1  0  0  0
 23 57  1  0  0  0
 28 58  1  0  0  0
 29 59  1  0  0  0
M  END
$$$$
