1uyc_ligand
  -I-interpret- 

 48 50  0  0  0  0  0  0  0  0999 V2000
    7.7380   10.0170   23.0910 C   0  0  0  0  0
    6.7340   12.5930   23.8320 C   0  0  0  0  0
    6.3690   10.4460   22.7950 O   0  0  0  0  0
    5.8380   11.5810   23.4170 C   0  0  0  0  0
    6.2120   13.7390   24.4690 C   0  0  0  0  0
    4.8210   13.8110   24.6450 C   0  0  0  0  0
    4.1810   14.9090   25.2820 O   0  0  0  0  0
    4.8610   16.0970   25.6550 C   0  0  0  0  0
    3.9570   12.7910   24.2740 C   0  0  0  0  0
    4.4470   11.6690   23.6390 C   0  0  0  0  0
    3.4480   10.6040   23.2180 C   0  0  0  0  0
    2.1830   10.4840   24.0560 C   0  0  0  0  0
    0.9770   11.0060   23.7820 N   0  0  0  0  0
    0.1980   10.6660   24.8270 C   0  0  0  0  0
   -1.1490   10.8710   25.0860 C   0  0  0  0  0
   -2.0300   11.5510   24.1910 N   0  0  0  0  0
    0.9590    9.9560   25.7260 C   0  0  0  0  0
    0.4920    9.5090   26.8940 N   0  0  0  0  0
   -0.8270    9.7040   27.1420 C   0  0  0  0  0
   -1.6940   10.4430   26.2530 N   0  0  0  0  0
    2.1600    9.8720   25.2240 N   0  0  0  0  0
    3.3720    9.2320   25.7790 C   0  0  0  0  0
    3.4270    7.7050   25.6300 C   0  0  0  0  0
    3.9250    7.0200   24.3570 C   0  0  0  0  0
    5.3200    7.2640   23.7080 C   0  0  0  0  0
    8.4328   10.8128   22.8225 H   0  0  0  0  0
    7.8270    9.7990   24.1553 H   0  0  0  0  0
    7.9693    9.1212   22.5147 H   0  0  0  0  0
    7.8060   12.4901   23.6634 H   0  0  0  0  0
    6.8661   14.5404   24.8124 H   0  0  0  0  0
    5.6564   15.8530   26.3591 H   0  0  0  0  0
    5.2898   16.5626   24.7676 H   0  0  0  0  0
    4.1574   16.7849   26.1238 H   0  0  0  0  0
    2.8909   12.8763   24.4843 H   0  0  0  0  0
    3.9660    9.6502   23.3179 H   0  0  0  0  0
    3.1194   10.8799   22.2160 H   0  0  0  0  0
   -1.6765   11.9160   23.3066 H   0  0  0  0  0
   -3.0127   11.6717   24.4362 H   0  0  0  0  0
   -1.2525    9.2841   28.0535 H   0  0  0  0  0
    3.3776    9.4438   26.8482 H   0  0  0  0  0
    4.2207    9.6326   25.2247 H   0  0  0  0  0
    2.3792    7.4091   25.6817 H   0  0  0  0  0
    4.1588    7.4051   26.3800 H   0  0  0  0  0
    3.2425    7.4059   23.5998 H   0  0  0  0  0
    3.9864    5.9750   24.6608 H   0  0  0  0  0
    5.4156    8.3162   23.4401 H   0  0  0  0  0
    6.1018    6.9963   24.4188 H   0  0  0  0  0
    5.4152    6.6497   22.8127 H   0  0  0  0  0
  3  1  1  0  0  0
  4  2  4  0  0  0
  2  5  4  0  0  0
  3  4  1  0  0  0
  4 10  4  0  0  0
  5  6  4  0  0  0
  6  7  1  0  0  0
  6  9  4  0  0  0
  7  8  1  0  0  0
  9 10  4  0  0  0
 10 11  1  0  0  0
 11 12  1  0  0  0
 12 13  4  0  0  0
 12 21  4  0  0  0
 13 14  4  0  0  0
 14 15  4  0  0  0
 14 17  4  0  0  0
 15 16  1  0  0  0
 15 20  4  0  0  0
 17 18  4  0  0  0
 17 21  4  0  0  0
 18 19  4  0  0  0
 19 20  4  0  0  0
 21 22  1  0  0  0
 22 23  1  0  0  0
 23 24  1  0  0  0
 24 25  1  0  0  0
  1 26  1  0  0  0
  1 27  1  0  0  0
  1 28  1  0  0  0
  2 29  1  0  0  0
  5 30  1  0  0  0
  8 31  1  0  0  0
  8 32  1  0  0  0
  8 33  1  0  0  0
  9 34  1  0  0  0
 11 35  1  0  0  0
 11 36  1  0  0  0
 16 37  1  0  0  0
 16 38  1  0  0  0
 19 39  1  0  0  0
 22 40  1  0  0  0
 22 41  1  0  0  0
 23 42  1  0  0  0
 23 43  1  0  0  0
 24 44  1  0  0  0
 24 45  1  0  0  0
 25 46  1  0  0  0
 25 47  1  0  0  0
 25 48  1  0  0  0
M  END
$$$$
