6c0n_ligand
  -I-interpret- 

 71 75  0  0  0  0  0  0  0  0999 V2000
   52.7720  -27.5060   38.5340 C   0  0  0  0  0
   51.3160  -27.0830   38.7420 C   0  0  0  0  0
   50.3450  -27.8710   39.3960 C   0  0  0  0  0
   48.9970  -27.4870   39.5870 C   0  0  0  0  0
   47.9870  -28.3100   40.3210 C   0  0  0  0  0
   47.0740  -27.9190   41.2310 C   0  0  0  0  0
   46.2770  -28.8780   41.8280 C   0  0  0  0  0
   48.6530  -26.2150   39.1050 C   0  0  0  0  0
   49.5740  -25.3740   38.4380 C   0  0  0  0  0
   49.1260  -24.0150   37.9260 C   0  0  0  0  0
   50.9050  -25.8230   38.2460 C   0  0  0  0  0
   52.2690  -25.0830   36.3800 C   0  0  0  0  0
   52.3140  -26.2860   34.4460 C   0  0  0  0  0
   50.9310  -28.4430   34.1990 C   0  0  0  0  0
   51.5640  -29.4620   35.0890 C   0  0  0  0  0
   50.5840  -30.4780   35.5010 C   0  0  0  0  0
   49.0110  -32.0880   34.8670 C   0  0  0  0  0
   49.7250  -33.3140   35.3370 C   0  0  0  0  0
   50.9510  -33.6570   34.7060 C   0  0  0  0  0
   51.6660  -34.7830   35.0960 C   0  0  0  0  0
   51.2580  -35.6640   36.1180 C   0  0  0  0  0
   50.0460  -35.2790   36.7110 C   0  0  0  0  0
   49.2950  -34.1570   36.3510 C   0  0  0  0  0
   49.3070  -30.1110   33.3390 C   0  0  0  0  0
   50.2870  -29.0090   32.9560 C   0  0  0  0  0
   53.5980  -24.3980   34.5290 C   0  0  0  0  0
   54.5010  -23.3520   34.0790 C   0  0  0  0  0
   54.7200  -22.4140   35.0300 C   0  0  0  0  0
   53.1500  -24.1720   35.8520 C   0  0  0  0  0
   45.6120  -29.6930   42.3670 N   0  0  0  0  0
   51.8390  -26.1390   35.7240 N   0  0  0  0  0
   51.8560  -27.4000   33.7690 N   0  0  0  0  0
   49.9680  -31.1040   34.2530 N   0  3  0  0  0
   52.7780  -37.7720   35.2070 N   0  0  0  0  0
   53.1790  -25.4660   33.7860 N   0  0  0  0  0
   51.7900  -24.9420   37.6290 O   0  0  0  0  0
   53.3000  -36.7200   37.3880 O   0  0  0  0  0
   51.2840  -37.9950   37.2130 O   0  0  0  0  0
   52.1780  -37.0810   36.5860 S   0  0  0  0  0
   53.8480  -22.7490   36.4760 S   0  0  0  0  0
   53.2416  -27.6760   39.5029 H   0  0  0  0  0
   52.8020  -28.4247   37.9481 H   0  0  0  0  0
   53.3058  -26.7176   38.0034 H   0  0  0  0  0
   50.6551  -28.8426   39.7805 H   0  0  0  0  0
   47.9900  -29.3746   40.0871 H   0  0  0  0  0
   46.9656  -26.8662   41.4918 H   0  0  0  0  0
   47.6328  -25.8599   39.2508 H   0  0  0  0  0
   48.3185  -24.1476   37.2059 H   0  0  0  0  0
   48.7733  -23.4113   38.7622 H   0  0  0  0  0
   49.9660  -23.5148   37.4439 H   0  0  0  0  0
   50.1559  -28.0230   34.8400 H   0  0  0  0  0
   51.9464  -28.9619   35.9788 H   0  0  0  0  0
   52.3700  -29.9526   34.5432 H   0  0  0  0  0
   49.8037  -30.0144   36.1046 H   0  0  0  0  0
   51.0779  -31.2476   36.0942 H   0  0  0  0  0
   48.5283  -31.6165   35.7230 H   0  0  0  0  0
   48.2792  -32.3787   34.1133 H   0  0  0  0  0
   51.3365  -33.0275   33.9040 H   0  0  0  0  0
   52.6011  -34.9985   34.5791 H   0  0  0  0  0
   49.6599  -35.9044   37.5159 H   0  0  0  0  0
   48.3621  -33.9421   36.8722 H   0  0  0  0  0
   48.9781  -30.6240   32.4352 H   0  0  0  0  0
   48.4554  -29.6662   33.8538 H   0  0  0  0  0
   51.0586  -29.4224   32.3065 H   0  0  0  0  0
   49.7516  -28.2158   32.4342 H   0  0  0  0  0
   54.9515  -23.3258   33.0868 H   0  0  0  0  0
   55.3707  -21.5498   34.8962 H   0  0  0  0  0
   52.2208  -27.5101   32.8229 H   0  0  0  0  0
   50.6514  -31.5273   33.6252 H   0  0  0  0  0
   53.7858  -37.8627   35.0789 H   0  0  0  0  0
   52.1399  -38.1072   34.4853 H   0  0  0  0  0
  2  1  1  0  0  0
  2  3  4  0  0  0
 11  2  4  0  0  0
  3  4  4  0  0  0
  4  5  1  0  0  0
  8  4  4  0  0  0
  5  6  2  0  0  0
  6  7  1  0  0  0
  7 30  3  0  0  0
  9  8  4  0  0  0
  9 10  1  0  0  0
 11  9  4  0  0  0
 36 11  1  0  0  0
 29 12  4  0  0  0
 12 31  4  0  0  0
 12 36  1  0  0  0
 31 13  4  0  0  0
 13 32  1  0  0  0
 13 35  4  0  0  0
 14 15  1  0  0  0
 14 25  1  0  0  0
 32 14  1  0  0  0
 15 16  1  0  0  0
 16 33  1  0  0  0
 17 18  1  0  0  0
 33 17  1  0  0  0
 18 19  4  0  0  0
 18 23  4  0  0  0
 19 20  4  0  0  0
 20 21  4  0  0  0
 22 21  4  0  0  0
 21 39  1  0  0  0
 23 22  4  0  0  0
 25 24  1  0  0  0
 24 33  1  0  0  0
 26 27  4  0  0  0
 26 29  4  0  0  0
 26 35  4  0  0  0
 27 28  4  0  0  0
 28 40  4  0  0  0
 29 40  4  0  0  0
 39 34  1  0  0  0
 39 37  2  0  0  0
 39 38  2  0  0  0
  1 41  1  0  0  0
  1 42  1  0  0  0
  1 43  1  0  0  0
  3 44  1  0  0  0
  5 45  1  0  0  0
  6 46  1  0  0  0
  8 47  1  0  0  0
 10 48  1  0  0  0
 10 49  1  0  0  0
 10 50  1  0  0  0
 14 51  1  0  0  0
 15 52  1  0  0  0
 15 53  1  0  0  0
 16 54  1  0  0  0
 16 55  1  0  0  0
 17 56  1  0  0  0
 17 57  1  0  0  0
 19 58  1  0  0  0
 20 59  1  0  0  0
 22 60  1  0  0  0
 23 61  1  0  0  0
 24 62  1  0  0  0
 24 63  1  0  0  0
 25 64  1  0  0  0
 25 65  1  0  0  0
 27 66  1  0  0  0
 28 67  1  0  0  0
 32 68  1  0  0  0
 33 69  1  0  0  0
 34 70  1  0  0  0
 34 71  1  0  0  0
M  END
$$$$
