6hkm_ligand
  -I-interpret- 

 55 58  0  0  0  0  0  0  0  0999 V2000
   -0.9030  -35.9470   -8.3020 C   0  0  0  0  0
   -2.0490  -35.3050   -8.7010 C   0  0  0  0  0
   -2.1970  -34.9060  -10.0260 C   0  0  0  0  0
   -3.5610  -32.9390  -10.1070 C   0  0  0  0  0
   -0.0420  -35.8180  -10.5540 C   0  0  0  0  0
    2.4560  -38.9790   -7.9810 C   0  0  0  0  0
    1.5090  -41.0240   -9.1400 C   0  0  0  0  0
    1.9600  -42.1050  -10.0920 C   0  0  0  0  0
    2.4300  -42.6680  -12.2920 C   0  0  0  0  0
    2.8080  -44.3140  -10.7190 C   0  0  0  0  0
    3.2280  -46.0440   -9.0840 C   0  0  0  0  0
    3.3470  -48.4850   -9.4810 C   0  0  0  0  0
    2.3390  -36.2690   -8.6280 O   0  0  0  0  0
    1.3170  -36.9140   -8.7640 C   0  0  0  0  0
    0.1110  -36.2120   -9.2300 C   0  0  0  0  0
   -3.3280  -34.2870  -10.4320 O   0  0  0  0  0
   -4.8670  -32.6560  -10.4730 F   0  0  0  0  0
   -3.4150  -32.7050   -8.7390 F   0  0  0  0  0
   -2.6740  -32.1640  -10.8300 F   0  0  0  0  0
   -1.1940  -35.1730  -10.9490 C   0  0  0  0  0
    1.2740  -38.2430   -8.4770 N   0  0  0  0  0
    2.7570  -40.1780   -8.8850 C   0  0  0  0  0
    0.4310  -40.1120   -9.7170 C   0  0  0  0  0
    0.0650  -39.0830   -8.6420 C   0  0  0  0  0
    2.0250  -41.7960  -11.3830 N   0  0  0  0  0
    2.8080  -43.8950  -11.9900 N   0  0  0  0  0
    3.2260  -45.6140  -10.3930 C   0  0  0  0  0
    3.6510  -47.2960   -8.7330 O   0  0  0  0  0
    2.8060  -45.1730   -8.0510 C   0  0  0  0  0
    2.8440  -45.6610   -6.7690 O   0  0  0  0  0
    2.2650  -44.9710   -5.6500 C   0  0  0  0  0
    2.3840  -43.8860   -8.3480 C   0  0  0  0  0
    2.3750  -43.4120   -9.6860 C   0  0  0  0  0
   -0.7826  -36.2506   -7.2621 H   0  0  0  0  0
   -2.8426  -35.1079   -7.9803 H   0  0  0  0  0
    0.7474  -36.0187  -11.2783 H   0  0  0  0  0
    2.2530  -39.3376   -6.9719 H   0  0  0  0  0
    3.3164  -38.3098   -7.9810 H   0  0  0  0  0
    1.0779  -41.4834   -8.2505 H   0  0  0  0  0
    2.4522  -42.3586  -13.3369 H   0  0  0  0  0
    2.2661  -48.6179   -9.5260 H   0  0  0  0  0
    3.7449  -48.3889  -10.4912 H   0  0  0  0  0
    3.8002  -49.3468   -8.9910 H   0  0  0  0  0
   -1.3185  -34.8714  -11.9890 H   0  0  0  0  0
    3.4994  -40.8033   -8.3891 H   0  0  0  0  0
    3.1184  -39.8031   -9.8426 H   0  0  0  0  0
   -0.4465  -40.6939   -9.9988 H   0  0  0  0  0
    0.7985  -39.6103  -10.6121 H   0  0  0  0  0
   -0.8001  -38.4879   -8.9344 H   0  0  0  0  0
   -0.2198  -39.5643   -7.7064 H   0  0  0  0  0
    3.5522  -46.2900  -11.1834 H   0  0  0  0  0
    2.7383  -43.9951   -5.5421 H   0  0  0  0  0
    1.1960  -44.8411   -5.8184 H   0  0  0  0  0
    2.4229  -45.5551   -4.7433 H   0  0  0  0  0
    2.0546  -43.2292   -7.5429 H   0  0  0  0  0
  1  2  4  0  0  0
 15  1  4  0  0  0
  2  3  4  0  0  0
  3 16  1  0  0  0
 20  3  4  0  0  0
 16  4  1  0  0  0
  4 17  1  0  0  0
  4 18  1  0  0  0
  4 19  1  0  0  0
 15  5  4  0  0  0
  5 20  4  0  0  0
 21  6  1  0  0  0
  6 22  1  0  0  0
  7  8  1  0  0  0
 22  7  1  0  0  0
  7 23  1  0  0  0
  8 25  4  0  0  0
  8 33  4  0  0  0
 25  9  4  0  0  0
  9 26  4  0  0  0
 10 26  4  0  0  0
 10 27  4  0  0  0
 33 10  4  0  0  0
 27 11  4  0  0  0
 11 28  1  0  0  0
 11 29  4  0  0  0
 28 12  1  0  0  0
 14 13  2  0  0  0
 14 15  1  0  0  0
 14 21  1  0  0  0
 21 24  1  0  0  0
 23 24  1  0  0  0
 29 30  1  0  0  0
 29 32  4  0  0  0
 30 31  1  0  0  0
 32 33  4  0  0  0
  1 34  1  0  0  0
  2 35  1  0  0  0
  5 36  1  0  0  0
  6 37  1  0  0  0
  6 38  1  0  0  0
  7 39  1  0  0  0
  9 40  1  0  0  0
 12 41  1  0  0  0
 12 42  1  0  0  0
 12 43  1  0  0  0
 20 44  1  0  0  0
 22 45  1  0  0  0
 22 46  1  0  0  0
 23 47  1  0  0  0
 23 48  1  0  0  0
 24 49  1  0  0  0
 24 50  1  0  0  0
 27 51  1  0  0  0
 31 52  1  0  0  0
 31 53  1  0  0  0
 31 54  1  0  0  0
 32 55  1  0  0  0
M  END
$$$$
