### 
### Created by X-TOOL on Mon Sep 10 21:12:57 2018
### 

@<TRIPOS>MOLECULE
3emh_ligand
   95    95     1     0     0
SMALL
GAST_HUCK


@<TRIPOS>ATOM
      1 N         -11.0330  -29.4700   -7.2430 N.4       1 ALA         0.2377
      2 CA        -11.5000  -28.0760   -7.4810 C.3       1 ALA         0.0621
      3 C         -13.0230  -27.9930   -7.4510 C.2       1 ALA         0.2264
      4 O         -13.7140  -29.0100   -7.4680 O.2       1 ALA        -0.3907
      5 CB        -10.9710  -27.5660   -8.8160 C.3       1 ALA        -0.0040
      6 N         -13.5290  -26.7660   -7.4200 N.am      1 ARG        -0.2610
      7 CA        -14.9610  -26.4930   -7.3580 C.3       1 ARG         0.1312
      8 C         -15.8180  -27.2780   -8.3460 C.2       1 ARG         0.2039
      9 O         -16.9610  -27.6200   -8.0450 O.2       1 ARG        -0.3944
     10 CB        -15.1940  -24.9930   -7.5520 C.3       1 ARG        -0.0092
     11 CG        -16.6080  -24.5230   -7.2400 C.3       1 ARG        -0.0156
     12 CD        -16.7220  -23.0200   -7.4350 C.3       1 ARG         0.0627
     13 NE        -15.8370  -22.2760   -6.5400 N.pl3     1 ARG        -0.2723
     14 CZ        -16.1990  -21.7900   -5.3590 C.cat     1 ARG         0.2882
     15 NH1       -17.4390  -21.9660   -4.9200 N.pl3     1 ARG        -0.2849
     16 NH2       -15.3220  -21.1290   -4.6140 N.pl3     1 ARG        -0.2849
     17 N         -15.2690  -27.5600   -9.5240 N.am      1 ALA        -0.2640
     18 CA        -16.0020  -28.2920  -10.5500 C.3       1 ALA         0.1282
     19 C         -16.2390  -29.7590  -10.1930 C.2       1 ALA         0.2036
     20 O         -16.9740  -30.4590  -10.8910 O.2       1 ALA        -0.3944
     21 CB        -15.2660  -28.1910  -11.8820 C.3       1 ALA        -0.0244
     22 N         -15.6180  -30.2200   -9.1100 N.am      1 GLU        -0.2636
     23 CA        -15.7620  -31.6040   -8.6630 C.3       1 GLU         0.1325
     24 C         -16.4910  -31.6700   -7.3230 C.2       1 GLU         0.2040
     25 O         -16.3380  -30.7850   -6.4810 O.2       1 GLU        -0.3944
     26 CB        -14.3860  -32.2590   -8.5160 C.3       1 GLU        -0.0008
     27 CG        -13.5640  -32.2950   -9.7920 C.3       1 GLU         0.0044
     28 CD        -12.1870  -32.8910   -9.5720 C.2       1 GLU         0.0350
     29 OE1       -12.1080  -34.0430   -9.0950 O.co2     1 GLU        -0.5690
     30 OE2       -11.1850  -32.2090   -9.8760 O.co2     1 GLU        -0.5690
     31 N         -17.2750  -32.7250   -7.1260 N.am      1 VAL        -0.2635
     32 CA        -18.0230  -32.8980   -5.8840 C.3       1 VAL         0.1332
     33 C         -17.1240  -33.4000   -4.7570 C.2       1 VAL         0.2037
     34 O         -16.2800  -34.2700   -4.9680 O.2       1 VAL        -0.3944
     35 CB        -19.1830  -33.9060   -6.0650 C.3       1 VAL        -0.0063
     36 CG1       -19.9320  -34.0800   -4.7550 C.3       1 VAL        -0.0584
     37 CG2       -20.1270  -33.4270   -7.1540 C.3       1 VAL        -0.0584
     38 N         -17.3020  -32.8430   -3.5620 N.am      1 HIS        -0.2682
     39 CA        -16.5150  -33.2580   -2.4060 C.3       1 HIS         0.1004
     40 C         -17.3290  -34.2140   -1.5420 C.2       1 HIS         0.0615
     41 O         -16.8732  -35.3716   -1.3423 O.co2     1 HIS        -0.5665
     42 CB        -16.1000  -32.0490   -1.5620 C.3       1 HIS         0.0090
     43 CG        -15.4120  -32.4180   -0.2830 C.2       1 HIS        -0.0033
     44 ND1       -14.2140  -33.0980   -0.2530 N.2       1 HIS        -0.3253
     45 CD2       -15.7690  -32.2280    1.0090 C.2       1 HIS         0.0291
     46 CE1       -13.8620  -33.3110    1.0030 C.2       1 HIS         0.0907
     47 NE2       -14.7890  -32.7940    1.7890 N.pl3     1 HIS        -0.2752
     48 O43       -18.4283  -33.8563   -1.0408 O.co2     1 HIS        -0.5665
     49 H1        -10.0256  -29.4957   -7.2681 H         1 ALA         0.2015
     50 H2        -11.4025  -30.0751   -7.9595 H         1 ALA         0.2015
     51 H3        -11.3547  -29.7826   -6.3403 H         1 ALA         0.2015
     52 H4        -11.1025  -27.4358   -6.6796 H         1 ALA         0.1095
     53 H5        -11.3222  -26.5366   -8.9804 H         1 ALA         0.0310
     54 H6        -11.3378  -28.2124   -9.6269 H         1 ALA         0.0310
     55 H7         -9.8712  -27.5807   -8.8044 H         1 ALA         0.0310
     56 H8        -12.8977  -25.9907   -7.4401 H         1 ARG         0.1884
     57 H9        -15.3002  -26.7671   -6.3481 H         1 ARG         0.0800
     58 H10       -14.9742  -24.7450   -8.6009 H         1 ARG         0.0313
     59 H11       -14.4996  -24.4505   -6.8936 H         1 ARG         0.0313
     60 H12       -16.8509  -24.7725   -6.1966 H         1 ARG         0.0301
     61 H13       -17.3153  -25.0303   -7.9126 H         1 ARG         0.0301
     62 H14       -17.7607  -22.7155   -7.2389 H         1 ARG         0.0689
     63 H15       -16.4588  -22.7772   -8.4751 H         1 ARG         0.0689
     64 H16       -14.8665  -22.1182   -6.8468 H         1 ARG         0.2642
     65 H17       -17.7193  -21.5886   -4.0035 H         1 ARG         0.2615
     66 H18       -18.1211  -22.4799   -5.4958 H         1 ARG         0.2615
     67 H19       -14.3590  -20.9911   -4.9525 H         1 ARG         0.2615
     68 H20       -15.6043  -20.7538   -3.6972 H         1 ARG         0.2615
     69 H21       -14.3324  -27.2633   -9.7103 H         1 ALA         0.1883
     70 H22       -16.9862  -27.8137  -10.6621 H         1 ALA         0.0797
     71 H23       -15.8234  -28.7448  -12.6518 H         1 ALA         0.0277
     72 H24       -14.2589  -28.6210  -11.7780 H         1 ALA         0.0277
     73 H25       -15.1850  -27.1344  -12.1770 H         1 ALA         0.0277
     74 H26       -15.0345  -29.5999   -8.5856 H         1 GLU         0.1883
     75 H27       -16.3448  -32.1579   -9.4137 H         1 GLU         0.0801
     76 H28       -14.5333  -33.2939   -8.1735 H         1 GLU         0.0330
     77 H29       -13.8186  -31.6991   -7.7580 H         1 GLU         0.0330
     78 H30       -13.4490  -31.2677  -10.1680 H         1 GLU         0.0433
     79 H31       -14.0968  -32.9015  -10.5392 H         1 GLU         0.0433
     80 H32       -17.3544  -33.4159   -7.8446 H         1 VAL         0.1883
     81 H33       -18.4417  -31.9225   -5.5958 H         1 VAL         0.0802
     82 H34       -18.7638  -34.8781   -6.3639 H         1 VAL         0.0343
     83 H35       -20.7536  -34.7979   -4.8950 H         1 VAL         0.0234
     84 H36       -20.3425  -33.1107   -4.4357 H         1 VAL         0.0234
     85 H37       -19.2424  -34.4575   -3.9856 H         1 VAL         0.0234
     86 H38       -19.5701  -33.3061   -8.0949 H         1 VAL         0.0234
     87 H39       -20.5654  -32.4617   -6.8608 H         1 VAL         0.0234
     88 H40       -20.9292  -34.1663   -7.2952 H         1 VAL         0.0234
     89 H41       -17.9896  -32.1249   -3.4540 H         1 HIS         0.1877
     90 H42       -15.6100  -33.7733   -2.7602 H         1 HIS         0.0743
     91 H43       -17.0024  -31.4698   -1.3168 H         1 HIS         0.0413
     92 H44       -15.4158  -31.4272   -2.1580 H         1 HIS         0.0413
     93 H45       -16.6652  -31.7214    1.3640 H         1 HIS         0.0729
     94 H46       -12.9608  -33.8253    1.3336 H         1 HIS         0.1199
     95 H47       -14.7791  -32.8120    2.8188 H         1 HIS         0.2361
@<TRIPOS>BOND
     1    1    2 1  
     2    2    3 1  
     3    2    5 1  
     4    3    4 2  
     5    3    6 am 
     6    6    7 1  
     7    7    8 1  
     8    7   10 1  
     9    8    9 2  
    10    8   17 am 
    11   10   11 1  
    12   11   12 1  
    13   12   13 1  
    14   13   14 ar 
    15   14   15 ar 
    16   14   16 ar 
    17   17   18 1  
    18   18   19 1  
    19   18   21 1  
    20   19   20 2  
    21   19   22 am 
    22   22   23 1  
    23   23   24 1  
    24   23   26 1  
    25   24   25 2  
    26   24   31 am 
    27   26   27 1  
    28   27   28 1  
    29   28   29 ar 
    30   28   30 ar 
    31   31   32 1  
    32   32   33 1  
    33   32   35 1  
    34   33   34 2  
    35   33   38 am 
    36   35   36 1  
    37   35   37 1  
    38   38   39 1  
    39   39   40 1  
    40   39   42 1  
    41   40   41 ar 
    42   42   43 1  
    43   43   44 1  
    44   43   45 2  
    45   44   46 2  
    46   45   47 1  
    47   46   47 1  
    48   40   48 ar 
    49    1   49 1  
    50    1   50 1  
    51    1   51 1  
    52    2   52 1  
    53    5   53 1  
    54    5   54 1  
    55    5   55 1  
    56    6   56 1  
    57    7   57 1  
    58   10   58 1  
    59   10   59 1  
    60   11   60 1  
    61   11   61 1  
    62   12   62 1  
    63   12   63 1  
    64   13   64 1  
    65   15   65 1  
    66   15   66 1  
    67   16   67 1  
    68   16   68 1  
    69   17   69 1  
    70   18   70 1  
    71   21   71 1  
    72   21   72 1  
    73   21   73 1  
    74   22   74 1  
    75   23   75 1  
    76   26   76 1  
    77   26   77 1  
    78   27   78 1  
    79   27   79 1  
    80   31   80 1  
    81   32   81 1  
    82   35   82 1  
    83   36   83 1  
    84   36   84 1  
    85   36   85 1  
    86   37   86 1  
    87   37   87 1  
    88   37   88 1  
    89   38   89 1  
    90   39   90 1  
    91   42   91 1  
    92   42   92 1  
    93   45   93 1  
    94   46   94 1  
    95   47   95 1  
@<TRIPOS>SUBSTRUCTURE
     1 ALA         1

