3emh_ligand
  -I-interpret- 

 95 95  0  0  0  0  0  0  0  0999 V2000
  -11.0330  -29.4700   -7.2430 N   0  3  0  0  0
  -11.5000  -28.0760   -7.4810 C   0  0  0  0  0
  -13.0230  -27.9930   -7.4510 C   0  0  0  0  0
  -13.7140  -29.0100   -7.4680 O   0  0  0  0  0
  -10.9710  -27.5660   -8.8160 C   0  0  0  0  0
  -13.5290  -26.7660   -7.4200 N   0  0  0  0  0
  -14.9610  -26.4930   -7.3580 C   0  0  0  0  0
  -15.8180  -27.2780   -8.3460 C   0  0  0  0  0
  -16.9610  -27.6200   -8.0450 O   0  0  0  0  0
  -15.1940  -24.9930   -7.5520 C   0  0  0  0  0
  -16.6080  -24.5230   -7.2400 C   0  0  0  0  0
  -16.7220  -23.0200   -7.4350 C   0  0  0  0  0
  -15.8370  -22.2760   -6.5400 N   0  0  0  0  0
  -16.1990  -21.7900   -5.3590 C   0  0  0  0  0
  -17.4390  -21.9660   -4.9200 N   0  0  0  0  0
  -15.3220  -21.1290   -4.6140 N   0  0  0  0  0
  -15.2690  -27.5600   -9.5240 N   0  0  0  0  0
  -16.0020  -28.2920  -10.5500 C   0  0  0  0  0
  -16.2390  -29.7590  -10.1930 C   0  0  0  0  0
  -16.9740  -30.4590  -10.8910 O   0  0  0  0  0
  -15.2660  -28.1910  -11.8820 C   0  0  0  0  0
  -15.6180  -30.2200   -9.1100 N   0  0  0  0  0
  -15.7620  -31.6040   -8.6630 C   0  0  0  0  0
  -16.4910  -31.6700   -7.3230 C   0  0  0  0  0
  -16.3380  -30.7850   -6.4810 O   0  0  0  0  0
  -14.3860  -32.2590   -8.5160 C   0  0  0  0  0
  -13.5640  -32.2950   -9.7920 C   0  0  0  0  0
  -12.1870  -32.8910   -9.5720 C   0  0  0  0  0
  -12.1080  -34.0430   -9.0950 O   0  0  0  0  0
  -11.1850  -32.2090   -9.8760 O   0  0  0  0  0
  -17.2750  -32.7250   -7.1260 N   0  0  0  0  0
  -18.0230  -32.8980   -5.8840 C   0  0  0  0  0
  -17.1240  -33.4000   -4.7570 C   0  0  0  0  0
  -16.2800  -34.2700   -4.9680 O   0  0  0  0  0
  -19.1830  -33.9060   -6.0650 C   0  0  0  0  0
  -19.9320  -34.0800   -4.7550 C   0  0  0  0  0
  -20.1270  -33.4270   -7.1540 C   0  0  0  0  0
  -17.3020  -32.8430   -3.5620 N   0  0  0  0  0
  -16.5150  -33.2580   -2.4060 C   0  0  0  0  0
  -17.3290  -34.2140   -1.5420 C   0  0  0  0  0
  -16.8732  -35.3716   -1.3423 O   0  0  0  0  0
  -16.1000  -32.0490   -1.5620 C   0  0  0  0  0
  -15.4120  -32.4180   -0.2830 C   0  0  0  0  0
  -14.2140  -33.0980   -0.2530 N   0  0  0  0  0
  -15.7690  -32.2280    1.0090 C   0  0  0  0  0
  -13.8620  -33.3110    1.0030 C   0  0  0  0  0
  -14.7890  -32.7940    1.7890 N   0  0  0  0  0
  -18.4283  -33.8563   -1.0408 O   0  0  0  0  0
  -11.3932  -29.7997   -6.3475 H   0  0  0  0  0
  -11.3738  -30.0739   -7.9911 H   0  0  0  0  0
  -10.0133  -29.4878   -7.2280 H   0  0  0  0  0
  -11.1117  -27.4470   -6.6799 H   0  0  0  0  0
  -11.3780  -28.1750   -9.6232 H   0  0  0  0  0
  -11.2750  -26.5283   -8.9533 H   0  0  0  0  0
   -9.8830  -27.6312   -8.8230 H   0  0  0  0  0
  -12.8850  -25.9752   -7.4405 H   0  0  0  0  0
  -15.2835  -26.8289   -6.3725 H   0  0  0  0  0
  -15.0133  -24.7775   -8.6051 H   0  0  0  0  0
  -14.5283  -24.4766   -6.8605 H   0  0  0  0  0
  -16.8419  -24.7652   -6.2033 H   0  0  0  0  0
  -17.3047  -25.0222   -7.9134 H   0  0  0  0  0
  -17.7488  -22.7273   -7.2156 H   0  0  0  0  0
  -16.4367  -22.7894   -8.4614 H   0  0  0  0  0
  -14.8759  -22.1198   -6.8438 H   0  0  0  0  0
  -17.7162  -21.5936   -4.0118 H   0  0  0  0  0
  -18.1149  -22.4737   -5.4908 H   0  0  0  0  0
  -14.3680  -20.9937   -4.9486 H   0  0  0  0  0
  -14.3136  -27.2574   -9.7140 H   0  0  0  0  0
  -16.9855  -27.8281  -10.6257 H   0  0  0  0  0
  -15.1863  -27.1436  -12.1731 H   0  0  0  0  0
  -14.2683  -28.6173  -11.7776 H   0  0  0  0  0
  -15.8192  -28.7401  -12.6439 H   0  0  0  0  0
  -15.0228  -29.5875   -8.5751 H   0  0  0  0  0
  -16.3456  -32.1383   -9.4127 H   0  0  0  0  0
  -14.5562  -33.2935   -8.2178 H   0  0  0  0  0
  -13.8263  -31.6650   -7.7935 H   0  0  0  0  0
  -13.4374  -31.2705  -10.1420 H   0  0  0  0  0
  -14.0902  -32.9169  -10.5162 H   0  0  0  0  0
  -11.4701  -31.3604  -10.2227 H   0  0  0  0  0
  -17.3560  -33.4297   -7.8590 H   0  0  0  0  0
  -18.4228  -31.9180   -5.6232 H   0  0  0  0  0
  -18.7701  -34.8701   -6.3618 H   0  0  0  0  0
  -19.2476  -34.4540   -3.9936 H   0  0  0  0  0
  -20.3382  -33.1189   -4.4398 H   0  0  0  0  0
  -20.7458  -34.7915   -4.8950 H   0  0  0  0  0
  -20.5368  -32.4558   -6.8765 H   0  0  0  0  0
  -19.5808  -33.3375   -8.0930 H   0  0  0  0  0
  -20.9386  -34.1451   -7.2713 H   0  0  0  0  0
  -18.0033  -32.1106   -3.4518 H   0  0  0  0  0
  -15.6172  -33.7575   -2.7700 H   0  0  0  0  0
  -16.0332  -35.4665   -1.7973 H   0  0  0  0  0
  -17.0082  -31.5063   -1.2998 H   0  0  0  0  0
  -15.3970  -31.4630   -2.1540 H   0  0  0  0  0
  -16.6661  -31.7209    1.3643 H   0  0  0  0  0
  -12.9600  -33.8258    1.3339 H   0  0  0  0  0
  1  2  1  0  0  0
  2  3  1  0  0  0
  2  5  1  0  0  0
  3  4  2  0  0  0
  3  6  1  0  0  0
  6  7  1  0  0  0
  7  8  1  0  0  0
  7 10  1  0  0  0
  8  9  2  0  0  0
  8 17  1  0  0  0
 10 11  1  0  0  0
 11 12  1  0  0  0
 12 13  1  0  0  0
 13 14  1  0  0  0
 14 15  1  0  0  0
 14 16  2  0  0  0
 17 18  1  0  0  0
 18 19  1  0  0  0
 18 21  1  0  0  0
 19 20  2  0  0  0
 19 22  1  0  0  0
 22 23  1  0  0  0
 23 24  1  0  0  0
 23 26  1  0  0  0
 24 25  2  0  0  0
 24 31  1  0  0  0
 26 27  1  0  0  0
 27 28  1  0  0  0
 28 29  2  0  0  0
 28 30  1  0  0  0
 31 32  1  0  0  0
 32 33  1  0  0  0
 32 35  1  0  0  0
 33 34  2  0  0  0
 33 38  1  0  0  0
 35 36  1  0  0  0
 35 37  1  0  0  0
 38 39  1  0  0  0
 39 40  1  0  0  0
 39 42  1  0  0  0
 40 41  1  0  0  0
 42 43  1  0  0  0
 43 44  4  0  0  0
 43 45  4  0  0  0
 44 46  4  0  0  0
 45 47  4  0  0  0
 46 47  4  0  0  0
 40 48  2  0  0  0
  1 49  1  0  0  0
  1 50  1  0  0  0
  1 51  1  0  0  0
  2 52  1  0  0  0
  5 53  1  0  0  0
  5 54  1  0  0  0
  5 55  1  0  0  0
  6 56  1  0  0  0
  7 57  1  0  0  0
 10 58  1  0  0  0
 10 59  1  0  0  0
 11 60  1  0  0  0
 11 61  1  0  0  0
 12 62  1  0  0  0
 12 63  1  0  0  0
 13 64  1  0  0  0
 15 65  1  0  0  0
 15 66  1  0  0  0
 16 67  1  0  0  0
 17 68  1  0  0  0
 18 69  1  0  0  0
 21 70  1  0  0  0
 21 71  1  0  0  0
 21 72  1  0  0  0
 22 73  1  0  0  0
 23 74  1  0  0  0
 26 75  1  0  0  0
 26 76  1  0  0  0
 27 77  1  0  0  0
 27 78  1  0  0  0
 30 79  1  0  0  0
 31 80  1  0  0  0
 32 81  1  0  0  0
 35 82  1  0  0  0
 36 83  1  0  0  0
 36 84  1  0  0  0
 36 85  1  0  0  0
 37 86  1  0  0  0
 37 87  1  0  0  0
 37 88  1  0  0  0
 38 89  1  0  0  0
 39 90  1  0  0  0
 41 91  1  0  0  0
 42 92  1  0  0  0
 42 93  1  0  0  0
 45 94  1  0  0  0
 46 95  1  0  0  0
M  END
$$$$
