### 
### Created by X-TOOL on Mon Sep 10 21:12:50 2018
### 

@<TRIPOS>MOLECULE
1j19_ligand
  233   235     1     0     0
SMALL
GAST_HUCK


@<TRIPOS>ATOM
      1 N          60.4810   41.2180   13.3560 N.4       1 ARG         0.2377
      2 CA         60.2300   39.7810   13.2270 C.3       1 ARG         0.0621
      3 C          60.4270   39.0440   14.5650 C.2       1 ARG         0.2264
      4 O          61.3500   38.2240   14.7080 O.2       1 ARG        -0.3907
      5 CB         61.1340   39.1790   12.1360 C.3       1 ARG        -0.0040
      6 N          59.5430   39.3360   15.5290 N.am      1 ARG        -0.2610
      7 CA         59.5770   38.7410   16.8760 C.3       1 ARG         0.1312
      8 C          58.2290   38.1020   17.2410 C.2       1 ARG         0.2039
      9 O          57.1920   38.7620   17.1860 O.2       1 ARG        -0.3944
     10 CB         59.9130   39.8180   17.9260 C.3       1 ARG        -0.0092
     11 CG         61.2060   40.6080   17.6780 C.3       1 ARG        -0.0156
     12 CD         61.2390   41.9190   18.4770 C.3       1 ARG         0.0627
     13 NE         62.3680   42.7920   18.1320 N.pl3     1 ARG        -0.2723
     14 CZ         62.2580   44.0280   17.6370 C.cat     1 ARG         0.2882
     15 NH1        61.0660   44.5690   17.4130 N.pl3     1 ARG        -0.2849
     16 NH2        63.3510   44.7310   17.3650 N.pl3     1 ARG        -0.2849
     17 N          58.2480   36.8160   17.5960 N.am      1 ARG        -0.2637
     18 CA         57.0370   36.0900   17.9960 C.3       1 ARG         0.1311
     19 C          56.9600   36.0680   19.5270 C.2       1 ARG         0.2040
     20 O          56.7180   35.0380   20.1500 O.2       1 ARG        -0.3944
     21 CB         57.0400   34.6610   17.4310 C.3       1 ARG        -0.0092
     22 CG         58.2630   33.8140   17.7880 C.3       1 ARG        -0.0156
     23 CD         58.0360   32.3170   17.5110 C.3       1 ARG         0.0627
     24 NE         57.8730   31.9860   16.0920 N.pl3     1 ARG        -0.2723
     25 CZ         57.6910   30.7510   15.6150 C.cat     1 ARG         0.2882
     26 NH1        57.6440   29.7050   16.4360 N.pl3     1 ARG        -0.2849
     27 NH2        57.5500   30.5540   14.3060 N.pl3     1 ARG        -0.2849
     28 N          57.1630   37.2380   20.1190 N.am      1 THR        -0.2613
     29 CA         57.1500   37.4150   21.5660 C.3       1 THR         0.1565
     30 C          56.3220   38.6390   21.9630 C.2       1 THR         0.2063
     31 O          55.8510   39.3950   21.1080 O.2       1 THR        -0.3943
     32 CB         58.5840   37.6170   22.1060 C.3       1 THR         0.0924
     33 OG1        59.2560   38.5980   21.3080 O.3       1 THR        -0.3874
     34 CG2        59.3770   36.3210   22.0620 C.3       1 THR        -0.0346
     35 N          56.1580   38.8330   23.2670 N.am      1 GLY        -0.2663
     36 CA         55.3930   39.9580   23.7590 C.3       1 GLY         0.1201
     37 C          55.6150   40.0890   25.2390 C.2       1 GLY         0.2008
     38 O          55.8190   39.0960   25.9140 O.2       1 GLY        -0.3947
     39 N          55.5620   41.3080   25.7550 N.am      1 THR        -0.2616
     40 CA         55.7750   41.5150   27.1740 C.3       1 THR         0.1565
     41 C          55.0140   42.7210   27.6990 C.2       1 THR         0.2066
     42 O          54.8140   43.7020   26.9850 O.2       1 THR        -0.3943
     43 CB         57.2760   41.6850   27.4770 C.3       1 THR         0.0924
     44 OG1        57.4830   41.7740   28.8910 O.3       1 THR        -0.3874
     45 CG2        57.8200   42.9280   26.7990 C.3       1 THR        -0.0346
     46 N          54.5750   42.6250   28.9500 N.am      1 TYR        -0.2621
     47 CA         53.8460   43.7040   29.6040 C.3       1 TYR         0.1390
     48 C          54.3280   43.8770   31.0300 C.2       1 TYR         0.2055
     49 O          54.3340   42.9230   31.8150 O.2       1 TYR        -0.3942
     50 CB         52.3450   43.4230   29.6220 C.3       1 TYR         0.0163
     51 CG         51.5550   44.4050   30.4650 C.ar      1 TYR        -0.0493
     52 CD1        51.6270   45.7720   30.2170 C.ar      1 TYR        -0.0685
     53 CD2        50.7230   43.9660   31.5000 C.ar      1 TYR        -0.0685
     54 CE1        50.8920   46.6820   30.9670 C.ar      1 TYR        -0.0398
     55 CE2        49.9810   44.8690   32.2590 C.ar      1 TYR        -0.0398
     56 CZ         50.0710   46.2240   31.9820 C.ar      1 TYR         0.0805
     57 OH         49.3340   47.1380   32.6950 O.3       1 TYR        -0.3376
     58 N          54.7030   45.1110   31.3560 N.am      1 GLY        -0.2663
     59 CA         55.1690   45.4480   32.6880 C.3       1 GLY         0.1201
     60 C          54.0180   45.8570   33.5850 C.2       1 GLY         0.2008
     61 O          53.6090   47.0190   33.6010 O.2       1 GLY        -0.3947
     62 N          53.4940   44.8760   34.3160 N.am      1 VAL        -0.2637
     63 CA         52.3840   45.0580   35.2410 C.3       1 VAL         0.1332
     64 C          52.7120   46.1050   36.2990 C.2       1 VAL         0.2041
     65 O          52.0170   47.1060   36.4140 O.2       1 VAL        -0.3944
     66 CB         52.0170   43.7290   35.9220 C.3       1 VAL        -0.0063
     67 CG1        50.8600   43.9320   36.8740 C.3       1 VAL        -0.0584
     68 CG2        51.6780   42.6740   34.8770 C.3       1 VAL        -0.0584
     69 N          53.7820   45.8880   37.0530 N.am      1 LEU        -0.2637
     70 CA         54.1920   46.8400   38.0800 C.3       1 LEU         0.1312
     71 C          54.3900   48.2630   37.5260 C.2       1 LEU         0.2039
     72 O          53.8760   49.2370   38.0760 O.2       1 LEU        -0.3944
     73 CB         55.4980   46.3750   38.7150 C.3       1 LEU        -0.0101
     74 CG         56.1120   47.3370   39.7320 C.3       1 LEU        -0.0425
     75 CD1        55.3830   47.2150   41.0560 C.3       1 LEU        -0.0625
     76 CD2        57.5870   47.0390   39.9040 C.3       1 LEU        -0.0625
     77 N          55.1330   48.3590   36.4270 N.am      1 ALA        -0.2640
     78 CA         55.4480   49.6270   35.7720 C.3       1 ALA         0.1282
     79 C          54.2700   50.4400   35.2410 C.2       1 ALA         0.2036
     80 O          54.3830   51.6600   35.0880 O.2       1 ALA        -0.3944
     81 CB         56.4370   49.3840   34.6520 C.3       1 ALA        -0.0244
     82 N          53.1510   49.7780   34.9530 N.am      1 ALA        -0.2640
     83 CA         51.9710   50.4600   34.4130 C.3       1 ALA         0.1282
     84 C          51.2950   51.4730   35.3470 C.2       1 ALA         0.2037
     85 O          50.5470   52.3370   34.8780 O.2       1 ALA        -0.3944
     86 CB         50.9600   49.4480   33.8980 C.3       1 ALA        -0.0244
     87 N          51.5590   51.3650   36.6510 N.am      1 TRP        -0.2627
     88 CA         50.9980   52.2820   37.6470 C.3       1 TRP         0.1352
     89 C          51.4790   53.7260   37.4870 C.2       1 TRP         0.2052
     90 O          52.4120   54.1690   38.1780 O.2       1 TRP        -0.3942
     91 CB         51.3370   51.8230   39.0610 C.3       1 TRP         0.0042
     92 CG         50.5940   50.6310   39.5070 C.2       1 TRP        -0.0418
     93 CD1        50.1210   49.6210   38.7260 C.2       1 TRP         0.0167
     94 CD2        50.2510   50.2940   40.8620 C.ar      1 TRP        -0.0214
     95 NE1        49.5040   48.6690   39.5070 N.pl3     1 TRP        -0.2890
     96 CE2        49.5700   49.0550   40.8230 C.ar      1 TRP         0.0603
     97 CE3        50.4560   50.9200   42.1090 C.ar      1 TRP        -0.0747
     98 CZ2        49.0870   48.4200   41.9880 C.ar      1 TRP        -0.0443
     99 CZ3        49.9760   50.2900   43.2670 C.ar      1 TRP        -0.0792
    100 CH2        49.3000   49.0520   43.1940 C.ar      1 TRP        -0.0768
    101 N          50.8360   54.4520   36.5720 N.am      1 ARG        -0.2639
    102 CA         51.1500   55.8560   36.3200 C.3       1 ARG         0.1282
    103 C          50.4080   56.6990   37.3570 C.2       1 ARG         0.2036
    104 O          50.2890   57.9190   37.2130 O.2       1 ARG        -0.3944
    105 CB         50.7170   56.2550   34.9050 C.3       1 ARG        -0.0244
    106 N          49.8960   56.0230   38.3890 N.am      1 ARG        -0.2640
    107 CA         49.1580   56.6480   39.4840 C.3       1 ARG         0.1282
    108 C          50.0170   57.6990   40.1890 C.2       1 ARG         0.2031
    109 O          49.4950   58.6530   40.7750 O.2       1 ARG        -0.3944
    110 CB         48.7070   55.5820   40.4730 C.3       1 ARG        -0.0244
    111 N          51.3350   57.5080   40.1230 N.am      1 LEU        -0.2698
    112 CA         52.3020   58.4250   40.7220 C.3       1 LEU         0.0916
    113 C          52.5520   59.6360   39.8070 C.2       1 LEU         0.0598
    114 O          52.5480   59.4620   38.5640 O.co2     1 LEU        -0.5666
    115 CB         53.6170   57.6880   41.0110 C.3       1 LEU        -0.0300
    116 OXT        52.7500   60.7500   40.3440 O.co2     1 LEU        -0.5666
    117 H1         60.3426   41.6647   12.4631 H         1 ARG         0.2015
    118 H2         61.4295   41.3672   13.6629 H         1 ARG         0.2015
    119 H3         59.8437   41.6112   14.0307 H         1 ARG         0.2015
    120 H4         59.1829   39.6458   12.9182 H         1 ARG         0.1095
    121 H5         60.9357   38.1005   12.0494 H         1 ARG         0.0310
    122 H6         62.1887   39.3374   12.4051 H         1 ARG         0.0310
    123 H7         60.9235   39.6689   11.1739 H         1 ARG         0.0310
    124 H8         58.8197   39.9948   15.3222 H         1 ARG         0.1884
    125 H9         60.3555   37.9642   16.8958 H         1 ARG         0.0800
    126 H10        60.0026   39.3212   18.9033 H         1 ARG         0.0313
    127 H11        59.0790   40.5347   17.9541 H         1 ARG         0.0313
    128 H12        61.2789   40.8432   16.6059 H         1 ARG         0.0301
    129 H13        62.0642   39.9881   17.9766 H         1 ARG         0.0301
    130 H14        61.3052   41.6721   19.5469 H         1 ARG         0.0689
    131 H15        60.3048   42.4669   18.2842 H         1 ARG         0.0689
    132 H16        63.3177   42.4232   18.2832 H         1 ARG         0.2642
    133 H17        60.9970   45.5231   17.0310 H         1 ARG         0.2615
    134 H18        60.2105   44.0345   17.6213 H         1 ARG         0.2615
    135 H19        64.2813   44.3227   17.5343 H         1 ARG         0.2615
    136 H20        63.2686   45.6847   16.9847 H         1 ARG         0.2615
    137 H21        59.1209   36.3282   17.5892 H         1 ARG         0.1883
    138 H22        56.1573   36.6195   17.6015 H         1 ARG         0.0800
    139 H23        56.9840   34.7300   16.3346 H         1 ARG         0.0313
    140 H24        56.1469   34.1441   17.8120 H         1 ARG         0.0313
    141 H25        58.4855   33.9464   18.8571 H         1 ARG         0.0301
    142 H26        59.1193   34.1588   17.1898 H         1 ARG         0.0301
    143 H27        57.1278   32.0012   18.0453 H         1 ARG         0.0689
    144 H28        58.9017   31.7595   17.8979 H         1 ARG         0.0689
    145 H29        57.9008   32.7610   15.4141 H         1 ARG         0.2642
    146 H30        57.5032   28.7580   16.0561 H         1 ARG         0.2615
    147 H31        57.7484   29.8422   17.4515 H         1 ARG         0.2615
    148 H32        57.5842   31.3540   13.6582 H         1 ARG         0.2615
    149 H33        57.4068   29.6015   13.9410 H         1 ARG         0.2615
    150 H34        57.3334   38.0382   19.5440 H         1 THR         0.1884
    151 H35        56.7120   36.5170   22.0261 H         1 THR         0.0826
    152 H36        58.5277   37.9680   23.1470 H         1 THR         0.0639
    153 H37        60.1378   38.7235   21.6385 H         1 THR         0.2101
    154 H38        60.3903   36.4978   22.4519 H         1 THR         0.0257
    155 H39        59.4408   35.9652   21.0231 H         1 THR         0.0257
    156 H40        58.8739   35.5621   22.6793 H         1 THR         0.0257
    157 H41        56.5686   38.1932   23.9167 H         1 GLY         0.1881
    158 H42        54.3239   39.7929   23.5594 H         1 GLY         0.0763
    159 H43        55.7226   40.8777   23.2536 H         1 GLY         0.0763
    160 H44        55.3738   42.0907   25.1617 H         1 THR         0.1884
    161 H45        55.4112   40.6227   27.7046 H         1 THR         0.0826
    162 H46        57.8158   40.8071   27.0925 H         1 THR         0.0639
    163 H47        57.0078   42.5221   29.2330 H         1 THR         0.2101
    164 H48        58.8911   43.0312   27.0273 H         1 THR         0.0257
    165 H49        57.2798   43.8127   27.1671 H         1 THR         0.0257
    166 H50        57.6837   42.8416   25.7109 H         1 THR         0.0257
    167 H51        54.7511   41.7831   29.4600 H         1 TYR         0.1885
    168 H52        54.0269   44.6361   29.0486 H         1 TYR         0.0821
    169 H53        52.1850   42.4118   30.0242 H         1 TYR         0.0453
    170 H54        51.9696   43.4704   28.5891 H         1 TYR         0.0453
    171 H55        52.2694   46.1346   29.4227 H         1 TYR         0.0530
    172 H56        50.6542   42.9058   31.7153 H         1 TYR         0.0530
    173 H57        50.9614   47.7434   30.7582 H         1 TYR         0.0525
    174 H58        49.3398   44.5151   33.0582 H         1 TYR         0.0525
    175 H59        49.5661   47.0821   33.6145 H         1 TYR         0.2458
    176 H60        54.6624   45.8290   30.6611 H         1 GLY         0.1881
    177 H61        55.8829   46.2819   32.6179 H         1 GLY         0.0763
    178 H62        55.6703   44.5718   33.1250 H         1 GLY         0.0763
    179 H63        53.8854   43.9603   34.2247 H         1 VAL         0.1883
    180 H64        51.5131   45.4069   34.6667 H         1 VAL         0.0802
    181 H65        52.8859   43.3800   36.4992 H         1 VAL         0.0343
    182 H66        50.6078   42.9749   37.3539 H         1 VAL         0.0234
    183 H67        49.9875   44.3038   36.3168 H         1 VAL         0.0234
    184 H68        51.1429   44.6649   37.6440 H         1 VAL         0.0234
    185 H69        52.5327   42.5436   34.1970 H         1 VAL         0.0234
    186 H70        50.7978   42.9972   34.3018 H         1 VAL         0.0234
    187 H71        51.4587   41.7193   35.3775 H         1 VAL         0.0234
    188 H72        54.3182   45.0553   36.9147 H         1 LEU         0.1883
    189 H73        53.4091   46.8731   38.8520 H         1 LEU         0.0800
    190 H74        56.2307   46.2200   37.9093 H         1 LEU         0.0315
    191 H75        55.3060   45.4194   39.2249 H         1 LEU         0.0315
    192 H76        56.0012   48.3664   39.3605 H         1 LEU         0.0298
    193 H77        55.8278   47.9086   41.7847 H         1 LEU         0.0232
    194 H78        55.4715   46.1842   41.4297 H         1 LEU         0.0232
    195 H79        54.3209   47.4637   40.9141 H         1 LEU         0.0232
    196 H80        58.0957   47.1331   38.9332 H         1 LEU         0.0232
    197 H81        57.7121   46.0150   40.2858 H         1 LEU         0.0232
    198 H82        58.0245   47.7525   40.6178 H         1 LEU         0.0232
    199 H83        55.4960   47.5175   36.0269 H         1 ALA         0.1883
    200 H84        55.9421   50.2536   36.5291 H         1 ALA         0.0797
    201 H85        56.6742   50.3382   34.1589 H         1 ALA         0.0277
    202 H86        55.9978   48.6916   33.9187 H         1 ALA         0.0277
    203 H87        57.3577   48.9457   35.0645 H         1 ALA         0.0277
    204 H88        53.1147   48.7909   35.1090 H         1 ALA         0.1883
    205 H89        52.3234   51.0358   33.5445 H         1 ALA         0.0797
    206 H90        50.0829   49.9773   33.4973 H         1 ALA         0.0277
    207 H91        50.6465   48.7907   34.7224 H         1 ALA         0.0277
    208 H92        51.4190   48.8438   33.1016 H         1 ALA         0.0277
    209 H93        52.1627   50.6302   36.9601 H         1 TRP         0.1884
    210 H94        49.9045   52.2717   37.5278 H         1 TRP         0.0815
    211 H95        51.1129   52.6475   39.7537 H         1 TRP         0.0397
    212 H96        52.4120   51.5932   39.1000 H         1 TRP         0.0397
    213 H97        50.2166   49.5729   37.6423 H         1 TRP         0.0795
    214 H98        49.0634   47.8053   39.1593 H         1 TRP         0.2216
    215 H99        50.9746   51.8699   42.1716 H         1 TRP         0.0540
    216 H100       48.5676   47.4700   41.9357 H         1 TRP         0.0541
    217 H101       50.1262   50.7603   44.2320 H         1 TRP         0.0510
    218 H102       48.9410   48.5891   44.1061 H         1 TRP         0.0530
    219 H103       50.1105   54.0184   36.0375 H         1 ARG         0.1883
    220 H104       52.2336   56.0149   36.4229 H         1 ARG         0.0797
    221 H105       50.9604   57.3137   34.7319 H         1 ARG         0.0277
    222 H106       49.6325   56.1058   34.7976 H         1 ARG         0.0277
    223 H107       51.2474   55.6320   34.1698 H         1 ARG         0.0277
    224 H108       50.0253   55.0317   38.4135 H         1 ARG         0.1883
    225 H109       48.2682   57.1448   39.0699 H         1 ARG         0.0797
    226 H110       48.1519   56.0565   41.2957 H         1 ARG         0.0277
    227 H111       49.5873   55.0609   40.8773 H         1 ARG         0.0277
    228 H112       48.0558   54.8585   39.9607 H         1 ARG         0.0277
    229 H113       51.6770   56.7008   39.6419 H         1 LEU         0.1875
    230 H114       51.8904   58.7905   41.6743 H         1 LEU         0.0723
    231 H115       54.3375   58.3866   41.4614 H         1 LEU         0.0270
    232 H116       54.0292   57.2913   40.0715 H         1 LEU         0.0270
    233 H117       53.4268   56.8580   41.7073 H         1 LEU         0.0270
@<TRIPOS>BOND
     1    1    2 1  
     2    2    3 1  
     3    2    5 1  
     4    3    4 2  
     5    3    6 am 
     6    6    7 1  
     7    7    8 1  
     8    7   10 1  
     9    8    9 2  
    10    8   17 am 
    11   10   11 1  
    12   11   12 1  
    13   12   13 1  
    14   13   14 ar 
    15   14   15 ar 
    16   14   16 ar 
    17   17   18 1  
    18   18   19 1  
    19   18   21 1  
    20   19   20 2  
    21   19   28 am 
    22   21   22 1  
    23   22   23 1  
    24   23   24 1  
    25   24   25 ar 
    26   25   26 ar 
    27   25   27 ar 
    28   28   29 1  
    29   29   30 1  
    30   29   32 1  
    31   30   31 2  
    32   30   35 am 
    33   32   33 1  
    34   32   34 1  
    35   35   36 1  
    36   36   37 1  
    37   37   38 2  
    38   37   39 am 
    39   39   40 1  
    40   40   41 1  
    41   40   43 1  
    42   41   42 2  
    43   41   46 am 
    44   43   44 1  
    45   43   45 1  
    46   46   47 1  
    47   47   48 1  
    48   47   50 1  
    49   48   49 2  
    50   48   58 am 
    51   50   51 1  
    52   51   52 ar 
    53   51   53 ar 
    54   52   54 ar 
    55   53   55 ar 
    56   54   56 ar 
    57   55   56 ar 
    58   56   57 1  
    59   58   59 1  
    60   59   60 1  
    61   60   61 2  
    62   60   62 am 
    63   62   63 1  
    64   63   64 1  
    65   63   66 1  
    66   64   65 2  
    67   64   69 am 
    68   66   67 1  
    69   66   68 1  
    70   69   70 1  
    71   70   71 1  
    72   70   73 1  
    73   71   72 2  
    74   71   77 am 
    75   73   74 1  
    76   74   75 1  
    77   74   76 1  
    78   77   78 1  
    79   78   79 1  
    80   78   81 1  
    81   79   80 2  
    82   79   82 am 
    83   82   83 1  
    84   83   84 1  
    85   83   86 1  
    86   84   85 2  
    87   84   87 am 
    88   87   88 1  
    89   88   89 1  
    90   88   91 1  
    91   89   90 2  
    92   89  101 am 
    93   91   92 1  
    94   92   93 2  
    95   92   94 1  
    96   93   95 1  
    97   94   96 ar 
    98   94   97 ar 
    99   95   96 1  
   100   96   98 ar 
   101   97   99 ar 
   102   98  100 ar 
   103   99  100 ar 
   104  101  102 1  
   105  102  103 1  
   106  102  105 1  
   107  103  104 2  
   108  103  106 am 
   109  106  107 1  
   110  107  108 1  
   111  107  110 1  
   112  108  109 2  
   113  108  111 am 
   114  111  112 1  
   115  112  113 1  
   116  112  115 1  
   117  113  114 ar 
   118  113  116 ar 
   119    1  117 1  
   120    1  118 1  
   121    1  119 1  
   122    2  120 1  
   123    5  121 1  
   124    5  122 1  
   125    5  123 1  
   126    6  124 1  
   127    7  125 1  
   128   10  126 1  
   129   10  127 1  
   130   11  128 1  
   131   11  129 1  
   132   12  130 1  
   133   12  131 1  
   134   13  132 1  
   135   15  133 1  
   136   15  134 1  
   137   16  135 1  
   138   16  136 1  
   139   17  137 1  
   140   18  138 1  
   141   21  139 1  
   142   21  140 1  
   143   22  141 1  
   144   22  142 1  
   145   23  143 1  
   146   23  144 1  
   147   24  145 1  
   148   26  146 1  
   149   26  147 1  
   150   27  148 1  
   151   27  149 1  
   152   28  150 1  
   153   29  151 1  
   154   32  152 1  
   155   33  153 1  
   156   34  154 1  
   157   34  155 1  
   158   34  156 1  
   159   35  157 1  
   160   36  158 1  
   161   36  159 1  
   162   39  160 1  
   163   40  161 1  
   164   43  162 1  
   165   44  163 1  
   166   45  164 1  
   167   45  165 1  
   168   45  166 1  
   169   46  167 1  
   170   47  168 1  
   171   50  169 1  
   172   50  170 1  
   173   52  171 1  
   174   53  172 1  
   175   54  173 1  
   176   55  174 1  
   177   57  175 1  
   178   58  176 1  
   179   59  177 1  
   180   59  178 1  
   181   62  179 1  
   182   63  180 1  
   183   66  181 1  
   184   67  182 1  
   185   67  183 1  
   186   67  184 1  
   187   68  185 1  
   188   68  186 1  
   189   68  187 1  
   190   69  188 1  
   191   70  189 1  
   192   73  190 1  
   193   73  191 1  
   194   74  192 1  
   195   75  193 1  
   196   75  194 1  
   197   75  195 1  
   198   76  196 1  
   199   76  197 1  
   200   76  198 1  
   201   77  199 1  
   202   78  200 1  
   203   81  201 1  
   204   81  202 1  
   205   81  203 1  
   206   82  204 1  
   207   83  205 1  
   208   86  206 1  
   209   86  207 1  
   210   86  208 1  
   211   87  209 1  
   212   88  210 1  
   213   91  211 1  
   214   91  212 1  
   215   93  213 1  
   216   95  214 1  
   217   97  215 1  
   218   98  216 1  
   219   99  217 1  
   220  100  218 1  
   221  101  219 1  
   222  102  220 1  
   223  105  221 1  
   224  105  222 1  
   225  105  223 1  
   226  106  224 1  
   227  107  225 1  
   228  110  226 1  
   229  110  227 1  
   230  110  228 1  
   231  111  229 1  
   232  112  230 1  
   233  115  231 1  
   234  115  232 1  
   235  115  233 1  
@<TRIPOS>SUBSTRUCTURE
     1 ARG         1

