1j19_ligand
  -I-interpret- 

231233  0  0  0  0  0  0  0  0999 V2000
   60.4810   41.2180   13.3560 N   0  3  0  0  0
   60.2300   39.7810   13.2270 C   0  0  0  0  0
   60.4270   39.0440   14.5650 C   0  0  0  0  0
   61.3500   38.2240   14.7080 O   0  0  0  0  0
   61.1340   39.1790   12.1360 C   0  0  0  0  0
   59.5430   39.3360   15.5290 N   0  0  0  0  0
   59.5770   38.7410   16.8760 C   0  0  0  0  0
   58.2290   38.1020   17.2410 C   0  0  0  0  0
   57.1920   38.7620   17.1860 O   0  0  0  0  0
   59.9130   39.8180   17.9260 C   0  0  0  0  0
   61.2060   40.6080   17.6780 C   0  0  0  0  0
   61.2390   41.9190   18.4770 C   0  0  0  0  0
   62.3680   42.7920   18.1320 N   0  0  0  0  0
   62.2580   44.0280   17.6370 C   0  0  0  0  0
   61.0660   44.5690   17.4130 N   0  0  0  0  0
   63.3510   44.7310   17.3650 N   0  0  0  0  0
   58.2480   36.8160   17.5960 N   0  0  0  0  0
   57.0370   36.0900   17.9960 C   0  0  0  0  0
   56.9600   36.0680   19.5270 C   0  0  0  0  0
   56.7180   35.0380   20.1500 O   0  0  0  0  0
   57.0400   34.6610   17.4310 C   0  0  0  0  0
   58.2630   33.8140   17.7880 C   0  0  0  0  0
   58.0360   32.3170   17.5110 C   0  0  0  0  0
   57.8730   31.9860   16.0920 N   0  0  0  0  0
   57.6910   30.7510   15.6150 C   0  0  0  0  0
   57.6440   29.7050   16.4360 N   0  0  0  0  0
   57.5500   30.5540   14.3060 N   0  0  0  0  0
   57.1630   37.2380   20.1190 N   0  0  0  0  0
   57.1500   37.4150   21.5660 C   0  0  0  0  0
   56.3220   38.6390   21.9630 C   0  0  0  0  0
   55.8510   39.3950   21.1080 O   0  0  0  0  0
   58.5840   37.6170   22.1060 C   0  0  0  0  0
   59.2560   38.5980   21.3080 O   0  0  0  0  0
   59.3770   36.3210   22.0620 C   0  0  0  0  0
   56.1580   38.8330   23.2670 N   0  0  0  0  0
   55.3930   39.9580   23.7590 C   0  0  0  0  0
   55.6150   40.0890   25.2390 C   0  0  0  0  0
   55.8190   39.0960   25.9140 O   0  0  0  0  0
   55.5620   41.3080   25.7550 N   0  0  0  0  0
   55.7750   41.5150   27.1740 C   0  0  0  0  0
   55.0140   42.7210   27.6990 C   0  0  0  0  0
   54.8140   43.7020   26.9850 O   0  0  0  0  0
   57.2760   41.6850   27.4770 C   0  0  0  0  0
   57.4830   41.7740   28.8910 O   0  0  0  0  0
   57.8200   42.9280   26.7990 C   0  0  0  0  0
   54.5750   42.6250   28.9500 N   0  0  0  0  0
   53.8460   43.7040   29.6040 C   0  0  0  0  0
   54.3280   43.8770   31.0300 C   0  0  0  0  0
   54.3340   42.9230   31.8150 O   0  0  0  0  0
   52.3450   43.4230   29.6220 C   0  0  0  0  0
   51.5550   44.4050   30.4650 C   0  0  0  0  0
   51.6270   45.7720   30.2170 C   0  0  0  0  0
   50.7230   43.9660   31.5000 C   0  0  0  0  0
   50.8920   46.6820   30.9670 C   0  0  0  0  0
   49.9810   44.8690   32.2590 C   0  0  0  0  0
   50.0710   46.2240   31.9820 C   0  0  0  0  0
   49.3340   47.1380   32.6950 O   0  0  0  0  0
   54.7030   45.1110   31.3560 N   0  0  0  0  0
   55.1690   45.4480   32.6880 C   0  0  0  0  0
   54.0180   45.8570   33.5850 C   0  0  0  0  0
   53.6090   47.0190   33.6010 O   0  0  0  0  0
   53.4940   44.8760   34.3160 N   0  0  0  0  0
   52.3840   45.0580   35.2410 C   0  0  0  0  0
   52.7120   46.1050   36.2990 C   0  0  0  0  0
   52.0170   47.1060   36.4140 O   0  0  0  0  0
   52.0170   43.7290   35.9220 C   0  0  0  0  0
   50.8600   43.9320   36.8740 C   0  0  0  0  0
   51.6780   42.6740   34.8770 C   0  0  0  0  0
   53.7820   45.8880   37.0530 N   0  0  0  0  0
   54.1920   46.8400   38.0800 C   0  0  0  0  0
   54.3900   48.2630   37.5260 C   0  0  0  0  0
   53.8760   49.2370   38.0760 O   0  0  0  0  0
   55.4980   46.3750   38.7150 C   0  0  0  0  0
   56.1120   47.3370   39.7320 C   0  0  0  0  0
   55.3830   47.2150   41.0560 C   0  0  0  0  0
   57.5870   47.0390   39.9040 C   0  0  0  0  0
   55.1330   48.3590   36.4270 N   0  0  0  0  0
   55.4480   49.6270   35.7720 C   0  0  0  0  0
   54.2700   50.4400   35.2410 C   0  0  0  0  0
   54.3830   51.6600   35.0880 O   0  0  0  0  0
   56.4370   49.3840   34.6520 C   0  0  0  0  0
   53.1510   49.7780   34.9530 N   0  0  0  0  0
   51.9710   50.4600   34.4130 C   0  0  0  0  0
   51.2950   51.4730   35.3470 C   0  0  0  0  0
   50.5470   52.3370   34.8780 O   0  0  0  0  0
   50.9600   49.4480   33.8980 C   0  0  0  0  0
   51.5590   51.3650   36.6510 N   0  0  0  0  0
   50.9980   52.2820   37.6470 C   0  0  0  0  0
   51.4790   53.7260   37.4870 C   0  0  0  0  0
   52.4120   54.1690   38.1780 O   0  0  0  0  0
   51.3370   51.8230   39.0610 C   0  0  0  0  0
   50.5940   50.6310   39.5070 C   0  0  0  0  0
   50.1210   49.6210   38.7260 C   0  0  0  0  0
   50.2510   50.2940   40.8620 C   0  0  0  0  0
   49.5040   48.6690   39.5070 N   0  0  0  0  0
   49.5700   49.0550   40.8230 C   0  0  0  0  0
   50.4560   50.9200   42.1090 C   0  0  0  0  0
   49.0870   48.4200   41.9880 C   0  0  0  0  0
   49.9760   50.2900   43.2670 C   0  0  0  0  0
   49.3000   49.0520   43.1940 C   0  0  0  0  0
   50.8360   54.4520   36.5720 N   0  0  0  0  0
   51.1500   55.8560   36.3200 C   0  0  0  0  0
   50.4080   56.6990   37.3570 C   0  0  0  0  0
   50.2890   57.9190   37.2130 O   0  0  0  0  0
   50.7170   56.2550   34.9050 C   0  0  0  0  0
   49.8960   56.0230   38.3890 N   0  0  0  0  0
   49.1580   56.6480   39.4840 C   0  0  0  0  0
   50.0170   57.6990   40.1890 C   0  0  0  0  0
   49.4950   58.6530   40.7750 O   0  0  0  0  0
   48.7070   55.5820   40.4730 C   0  0  0  0  0
   51.3350   57.5080   40.1230 N   0  0  0  0  0
   52.3020   58.4250   40.7220 C   0  0  0  0  0
   52.5520   59.6360   39.8070 C   0  0  0  0  0
   52.5480   59.4620   38.5640 O   0  0  0  0  0
   53.6170   57.6880   41.0110 C   0  0  0  0  0
   52.7500   60.7500   40.3440 O   0  0  0  0  0
   59.8763   41.6038   14.0812 H   0  0  0  0  0
   61.4573   41.3700   13.6093 H   0  0  0  0  0
   60.2836   41.6776   12.4670 H   0  0  0  0  0
   59.1880   39.6497   12.9354 H   0  0  0  0  0
   62.1770   39.2703   12.4390 H   0  0  0  0  0
   60.8848   38.1267   11.9993 H   0  0  0  0  0
   60.9779   39.7152   11.1999 H   0  0  0  0  0
   58.8052   40.0080   15.3181 H   0  0  0  0  0
   60.3455   37.9681   16.8710 H   0  0  0  0  0
   60.0472   39.2951   18.8729 H   0  0  0  0  0
   59.0985   40.5418   17.8977 H   0  0  0  0  0
   61.2583   40.8531   16.6172 H   0  0  0  0  0
   62.0481   39.9932   17.9956 H   0  0  0  0  0
   61.3399   41.6565   19.5301 H   0  0  0  0  0
   60.3234   42.4640   18.2472 H   0  0  0  0  0
   63.3085   42.4268   18.2818 H   0  0  0  0  0
   60.9977   45.5144   17.0361 H   0  0  0  0  0
   60.2188   44.0392   17.6178 H   0  0  0  0  0
   64.2723   44.3272   17.5340 H   0  0  0  0  0
   59.1384   36.3184   17.5891 H   0  0  0  0  0
   56.1608   36.5970   17.5918 H   0  0  0  0  0
   57.0350   34.7566   16.3452 H   0  0  0  0  0
   56.1758   34.1552   17.8617 H   0  0  0  0  0
   58.4598   33.9353   18.8532 H   0  0  0  0  0
   59.0983   34.1493   17.1733 H   0  0  0  0  0
   57.1124   32.0332   18.0155 H   0  0  0  0  0
   58.9200   31.7868   17.8653 H   0  0  0  0  0
   57.9005   32.7535   15.4207 H   0  0  0  0  0
   57.7474   29.8409   17.4416 H   0  0  0  0  0
   57.4081   29.6108   13.9446 H   0  0  0  0  0
   57.5838   31.3463   13.6645 H   0  0  0  0  0
   57.3368   38.0542   19.5325 H   0  0  0  0  0
   56.7096   36.5141   21.9932 H   0  0  0  0  0
   58.5140   37.9474   23.1424 H   0  0  0  0  0
   60.1470   38.7248   21.6420 H   0  0  0  0  0
   58.8775   35.5699   22.6739 H   0  0  0  0  0
   59.4394   35.9695   21.0321 H   0  0  0  0  0
   60.3808   36.4974   22.4485 H   0  0  0  0  0
   56.5768   38.1805   23.9297 H   0  0  0  0  0
   54.3335   39.7985   23.5585 H   0  0  0  0  0
   55.7150   40.8700   23.2564 H   0  0  0  0  0
   55.3700   42.1063   25.1498 H   0  0  0  0  0
   55.3949   40.6289   27.6823 H   0  0  0  0  0
   57.8070   40.8156   27.0894 H   0  0  0  0  0
   58.4202   41.8797   29.0700 H   0  0  0  0  0
   57.6843   42.8412   25.7210 H   0  0  0  0  0
   57.2839   43.8038   27.1646 H   0  0  0  0  0
   58.8813   43.0291   27.0260 H   0  0  0  0  0
   54.7547   41.7662   29.4702 H   0  0  0  0  0
   54.0311   44.6161   29.0366 H   0  0  0  0  0
   52.2026   42.4324   30.0539 H   0  0  0  0  0
   51.9840   43.5071   28.5970 H   0  0  0  0  0
   52.2730   46.1366   29.4183 H   0  0  0  0  0
   50.6538   42.9000   31.7165 H   0  0  0  0  0
   50.9618   47.7493   30.7571 H   0  0  0  0  0
   49.3362   44.5131   33.0626 H   0  0  0  0  0
   48.8158   46.6800   33.3609 H   0  0  0  0  0
   54.6616   45.8433   30.6472 H   0  0  0  0  0
   55.8644   46.2839   32.6119 H   0  0  0  0  0
   55.6515   44.5711   33.1197 H   0  0  0  0  0
   53.8932   43.9420   34.2229 H   0  0  0  0  0
   51.5300   45.4075   34.6608 H   0  0  0  0  0
   52.8758   43.3784   36.4944 H   0  0  0  0  0
   51.1416   44.6584   37.6364 H   0  0  0  0  0
   49.9962   44.3005   36.3207 H   0  0  0  0  0
   50.6111   42.9830   37.3489 H   0  0  0  0  0
   50.8314   43.0141   34.2806 H   0  0  0  0  0
   52.5402   42.5159   34.2292 H   0  0  0  0  0
   51.4206   41.7397   35.3760 H   0  0  0  0  0
   54.3289   45.0387   36.9119 H   0  0  0  0  0
   53.3900   46.8779   38.8172 H   0  0  0  0  0
   56.2202   46.2765   37.9046 H   0  0  0  0  0
   55.2716   45.4552   39.2542 H   0  0  0  0  0
   56.0089   48.3597   39.3694 H   0  0  0  0  0
   54.3308   47.4616   40.9140 H   0  0  0  0  0
   55.4714   46.1932   41.4252 H   0  0  0  0  0
   55.8246   47.9027   41.7772 H   0  0  0  0  0
   57.7107   46.0156   40.2582 H   0  0  0  0  0
   58.0943   47.1573   38.9465 H   0  0  0  0  0
   58.0137   47.7304   40.6306 H   0  0  0  0  0
   55.5033   47.5006   36.0189 H   0  0  0  0  0
   55.8638   50.2442   36.5685 H   0  0  0  0  0
   57.3488   48.9496   35.0620 H   0  0  0  0  0
   56.0006   48.6978   33.9262 H   0  0  0  0  0
   56.6712   50.3302   34.1642 H   0  0  0  0  0
   53.1140   48.7712   35.1121 H   0  0  0  0  0
   52.3572   51.0651   33.5928 H   0  0  0  0  0
   51.4160   48.8500   33.1090 H   0  0  0  0  0
   50.6503   48.7973   34.7158 H   0  0  0  0  0
   50.0914   49.9737   33.5013 H   0  0  0  0  0
   52.1748   50.6155   36.9663 H   0  0  0  0  0
   49.9212   52.2623   37.4793 H   0  0  0  0  0
   51.0706   52.6373   39.7348 H   0  0  0  0  0
   52.3953   51.5622   39.0682 H   0  0  0  0  0
   50.2166   49.5729   37.6413 H   0  0  0  0  0
   50.9774   51.8751   42.1719 H   0  0  0  0  0
   48.5647   47.4647   41.9354 H   0  0  0  0  0
   50.1270   50.7629   44.2374 H   0  0  0  0  0
   48.9391   48.5865   44.1111 H   0  0  0  0  0
   50.0960   54.0097   36.0268 H   0  0  0  0  0
   52.2248   56.0194   36.3991 H   0  0  0  0  0
   51.2432   55.6369   34.1775 H   0  0  0  0  0
   49.6423   56.1067   34.7999 H   0  0  0  0  0
   50.9587   57.3041   34.7347 H   0  0  0  0  0
   50.0279   55.0119   38.4140 H   0  0  0  0  0
   48.2816   57.1494   39.0734 H   0  0  0  0  0
   48.0619   54.8657   39.9641 H   0  0  0  0  0
   49.5802   55.0664   40.8728 H   0  0  0  0  0
   48.1571   56.0533   41.2876 H   0  0  0  0  0
   51.6838   56.6847   39.6323 H   0  0  0  0  0
   51.8907   58.7938   41.6616 H   0  0  0  0  0
   52.3777   58.5369   38.3721 H   0  0  0  0  0
   53.4272   56.8658   41.7010 H   0  0  0  0  0
   54.0243   57.2954   40.0793 H   0  0  0  0  0
   54.3301   58.3812   41.4572 H   0  0  0  0  0
  1  2  1  0  0  0
  2  3  1  0  0  0
  2  5  1  0  0  0
  3  4  2  0  0  0
  3  6  1  0  0  0
  6  7  1  0  0  0
  7  8  1  0  0  0
  7 10  1  0  0  0
  8  9  2  0  0  0
  8 17  1  0  0  0
 10 11  1  0  0  0
 11 12  1  0  0  0
 12 13  1  0  0  0
 13 14  1  0  0  0
 14 15  1  0  0  0
 14 16  2  0  0  0
 17 18  1  0  0  0
 18 19  1  0  0  0
 18 21  1  0  0  0
 19 20  2  0  0  0
 19 28  1  0  0  0
 21 22  1  0  0  0
 22 23  1  0  0  0
 23 24  1  0  0  0
 24 25  1  0  0  0
 25 26  2  0  0  0
 25 27  1  0  0  0
 28 29  1  0  0  0
 29 30  1  0  0  0
 29 32  1  0  0  0
 30 31  2  0  0  0
 30 35  1  0  0  0
 32 33  1  0  0  0
 32 34  1  0  0  0
 35 36  1  0  0  0
 36 37  1  0  0  0
 37 38  2  0  0  0
 37 39  1  0  0  0
 39 40  1  0  0  0
 40 41  1  0  0  0
 40 43  1  0  0  0
 41 42  2  0  0  0
 41 46  1  0  0  0
 43 44  1  0  0  0
 43 45  1  0  0  0
 46 47  1  0  0  0
 47 48  1  0  0  0
 47 50  1  0  0  0
 48 49  2  0  0  0
 48 58  1  0  0  0
 50 51  1  0  0  0
 51 52  4  0  0  0
 51 53  4  0  0  0
 52 54  4  0  0  0
 53 55  4  0  0  0
 54 56  4  0  0  0
 55 56  4  0  0  0
 56 57  1  0  0  0
 58 59  1  0  0  0
 59 60  1  0  0  0
 60 61  2  0  0  0
 60 62  1  0  0  0
 62 63  1  0  0  0
 63 64  1  0  0  0
 63 66  1  0  0  0
 64 65  2  0  0  0
 64 69  1  0  0  0
 66 67  1  0  0  0
 66 68  1  0  0  0
 69 70  1  0  0  0
 70 71  1  0  0  0
 70 73  1  0  0  0
 71 72  2  0  0  0
 71 77  1  0  0  0
 73 74  1  0  0  0
 74 75  1  0  0  0
 74 76  1  0  0  0
 77 78  1  0  0  0
 78 79  1  0  0  0
 78 81  1  0  0  0
 79 80  2  0  0  0
 79 82  1  0  0  0
 82 83  1  0  0  0
 83 84  1  0  0  0
 83 86  1  0  0  0
 84 85  2  0  0  0
 84 87  1  0  0  0
 87 88  1  0  0  0
 88 89  1  0  0  0
 88 91  1  0  0  0
 89 90  2  0  0  0
 89101  1  0  0  0
 91 92  1  0  0  0
 92 93  4  0  0  0
 92 94  4  0  0  0
 93 95  4  0  0  0
 94 96  4  0  0  0
 94 97  4  0  0  0
 95 96  4  0  0  0
 96 98  4  0  0  0
 97 99  4  0  0  0
 98100  4  0  0  0
 99100  4  0  0  0
101102  1  0  0  0
102103  1  0  0  0
102105  1  0  0  0
103104  2  0  0  0
103106  1  0  0  0
106107  1  0  0  0
107108  1  0  0  0
107110  1  0  0  0
108109  2  0  0  0
108111  1  0  0  0
111112  1  0  0  0
112113  1  0  0  0
112115  1  0  0  0
113114  1  0  0  0
113116  2  0  0  0
  1117  1  0  0  0
  1118  1  0  0  0
  1119  1  0  0  0
  2120  1  0  0  0
  5121  1  0  0  0
  5122  1  0  0  0
  5123  1  0  0  0
  6124  1  0  0  0
  7125  1  0  0  0
 10126  1  0  0  0
 10127  1  0  0  0
 11128  1  0  0  0
 11129  1  0  0  0
 12130  1  0  0  0
 12131  1  0  0  0
 13132  1  0  0  0
 15133  1  0  0  0
 15134  1  0  0  0
 16135  1  0  0  0
 17136  1  0  0  0
 18137  1  0  0  0
 21138  1  0  0  0
 21139  1  0  0  0
 22140  1  0  0  0
 22141  1  0  0  0
 23142  1  0  0  0
 23143  1  0  0  0
 24144  1  0  0  0
 26145  1  0  0  0
 27146  1  0  0  0
 27147  1  0  0  0
 28148  1  0  0  0
 29149  1  0  0  0
 32150  1  0  0  0
 33151  1  0  0  0
 34152  1  0  0  0
 34153  1  0  0  0
 34154  1  0  0  0
 35155  1  0  0  0
 36156  1  0  0  0
 36157  1  0  0  0
 39158  1  0  0  0
 40159  1  0  0  0
 43160  1  0  0  0
 44161  1  0  0  0
 45162  1  0  0  0
 45163  1  0  0  0
 45164  1  0  0  0
 46165  1  0  0  0
 47166  1  0  0  0
 50167  1  0  0  0
 50168  1  0  0  0
 52169  1  0  0  0
 53170  1  0  0  0
 54171  1  0  0  0
 55172  1  0  0  0
 57173  1  0  0  0
 58174  1  0  0  0
 59175  1  0  0  0
 59176  1  0  0  0
 62177  1  0  0  0
 63178  1  0  0  0
 66179  1  0  0  0
 67180  1  0  0  0
 67181  1  0  0  0
 67182  1  0  0  0
 68183  1  0  0  0
 68184  1  0  0  0
 68185  1  0  0  0
 69186  1  0  0  0
 70187  1  0  0  0
 73188  1  0  0  0
 73189  1  0  0  0
 74190  1  0  0  0
 75191  1  0  0  0
 75192  1  0  0  0
 75193  1  0  0  0
 76194  1  0  0  0
 76195  1  0  0  0
 76196  1  0  0  0
 77197  1  0  0  0
 78198  1  0  0  0
 81199  1  0  0  0
 81200  1  0  0  0
 81201  1  0  0  0
 82202  1  0  0  0
 83203  1  0  0  0
 86204  1  0  0  0
 86205  1  0  0  0
 86206  1  0  0  0
 87207  1  0  0  0
 88208  1  0  0  0
 91209  1  0  0  0
 91210  1  0  0  0
 93211  1  0  0  0
 97212  1  0  0  0
 98213  1  0  0  0
 99214  1  0  0  0
100215  1  0  0  0
101216  1  0  0  0
102217  1  0  0  0
105218  1  0  0  0
105219  1  0  0  0
105220  1  0  0  0
106221  1  0  0  0
107222  1  0  0  0
110223  1  0  0  0
110224  1  0  0  0
110225  1  0  0  0
111226  1  0  0  0
112227  1  0  0  0
114228  1  0  0  0
115229  1  0  0  0
115230  1  0  0  0
115231  1  0  0  0
M  END
$$$$
