6pl2_ligand
  -I-interpret- 

 55 58  0  0  0  0  0  0  0  0999 V2000
  -18.2430  -19.7450  -13.6780 C   0  0  0  0  0
  -17.3490  -20.7520  -12.9540 C   0  0  0  0  0
  -15.8910  -20.4800  -13.3130 C   0  0  0  0  0
  -17.5160  -20.5740  -11.4450 C   0  0  0  0  0
  -17.7200  -22.1720  -13.3170 C   0  0  0  0  0
  -18.0350  -22.7020  -14.5770 C   0  0  0  0  0
  -18.3030  -24.0390  -14.4380 C   0  0  0  0  0
  -18.8540  -26.0660  -17.6200 C   0  0  0  0  0
  -19.0310  -26.7760  -22.6590 C   0  0  0  0  0
  -19.6040  -25.5220  -22.8250 C   0  0  0  0  0
  -18.6340  -25.3340  -25.0210 C   0  0  0  0  0
  -18.0600  -26.5880  -24.8650 C   0  0  0  0  0
  -18.2690  -27.3020  -23.6980 C   0  0  0  0  0
  -18.3400  -25.5370  -12.4180 C   0  0  0  0  0
  -18.7470  -27.9140  -10.9960 C   0  0  0  0  0
  -19.2070  -26.7090  -10.4870 C   0  0  0  0  0
  -19.0050  -25.5220  -11.1860 C   0  0  0  0  0
  -18.6880  -24.9650  -15.4350 N   0  0  0  0  0
  -18.3110  -24.9610  -16.7450 C   0  0  0  0  0
  -17.5340  -24.1440  -17.2170 O   0  0  0  0  0
  -18.8770  -25.6520  -19.3900 S   0  0  0  0  0
  -19.1950  -27.2130  -20.1610 C   0  0  0  0  0
  -19.4560  -28.3140  -19.4970 N   0  0  0  0  0
  -19.6480  -29.2930  -20.2830 N   0  0  0  0  0
  -19.5330  -28.9040  -21.4940 N   0  0  0  0  0
  -19.2300  -27.5390  -21.4880 N   0  0  0  0  0
  -19.4080  -24.8110  -23.9970 C   0  0  0  0  0
  -18.4380  -24.6100  -26.1610 O   0  0  0  0  0
  -18.1600  -24.3190  -13.0990 N   0  0  0  0  0
  -17.7980  -23.1390  -12.4520 N   0  0  0  0  0
  -17.8910  -26.7590  -12.9300 C   0  0  0  0  0
  -18.0960  -27.9400  -12.2240 C   0  0  0  0  0
  -18.1308  -19.8700  -14.7550 H   0  0  0  0  0
  -19.2823  -19.9162  -13.3974 H   0  0  0  0  0
  -17.9511  -18.7334  -13.3960 H   0  0  0  0  0
  -15.2485  -21.1686  -12.7643 H   0  0  0  0  0
  -15.7490  -20.6238  -14.3841 H   0  0  0  0  0
  -15.6378  -19.4540  -13.0461 H   0  0  0  0  0
  -18.5526  -20.7689  -11.1700 H   0  0  0  0  0
  -16.8627  -21.2735  -10.9234 H   0  0  0  0  0
  -17.2514  -19.5532  -11.1694 H   0  0  0  0  0
  -18.0622  -22.1429  -15.5123 H   0  0  0  0  0
  -19.8844  -26.2473  -17.3143 H   0  0  0  0  0
  -18.2016  -26.9304  -17.4959 H   0  0  0  0  0
  -20.2120  -25.0946  -22.0276 H   0  0  0  0  0
  -17.4456  -27.0098  -25.6604 H   0  0  0  0  0
  -17.8292  -28.2935  -23.5908 H   0  0  0  0  0
  -18.8952  -28.8370  -10.4355 H   0  0  0  0  0
  -19.7312  -26.6909   -9.5315 H   0  0  0  0  0
  -19.3651  -24.5795  -10.7735 H   0  0  0  0  0
  -19.3141  -25.7154  -15.1430 H   0  0  0  0  0
  -19.8673  -23.8296  -24.1155 H   0  0  0  0  0
  -18.9066  -23.7749  -26.0929 H   0  0  0  0  0
  -17.3761  -26.7860  -13.8903 H   0  0  0  0  0
  -17.7457  -28.8871  -12.6343 H   0  0  0  0  0
  2  1  1  0  0  0
  2  3  1  0  0  0
  2  4  1  0  0  0
  5  2  1  0  0  0
  6  5  4  0  0  0
  5 30  4  0  0  0
  7  6  4  0  0  0
 18  7  1  0  0  0
  7 29  4  0  0  0
  8 19  1  0  0  0
 21  8  1  0  0  0
  9 10  4  0  0  0
  9 13  4  0  0  0
 26  9  1  0  0  0
 10 27  4  0  0  0
 12 11  4  0  0  0
 27 11  4  0  0  0
 11 28  1  0  0  0
 13 12  4  0  0  0
 14 17  4  0  0  0
 29 14  1  0  0  0
 14 31  4  0  0  0
 16 15  4  0  0  0
 15 32  4  0  0  0
 17 16  4  0  0  0
 19 18  1  0  0  0
 19 20  2  0  0  0
 22 21  1  0  0  0
 22 23  4  0  0  0
 22 26  4  0  0  0
 23 24  4  0  0  0
 24 25  4  0  0  0
 25 26  4  0  0  0
 29 30  4  0  0  0
 31 32  4  0  0  0
  1 33  1  0  0  0
  1 34  1  0  0  0
  1 35  1  0  0  0
  3 36  1  0  0  0
  3 37  1  0  0  0
  3 38  1  0  0  0
  4 39  1  0  0  0
  4 40  1  0  0  0
  4 41  1  0  0  0
  6 42  1  0  0  0
  8 43  1  0  0  0
  8 44  1  0  0  0
 10 45  1  0  0  0
 12 46  1  0  0  0
 13 47  1  0  0  0
 15 48  1  0  0  0
 16 49  1  0  0  0
 17 50  1  0  0  0
 18 51  1  0  0  0
 27 52  1  0  0  0
 28 53  1  0  0  0
 31 54  1  0  0  0
 32 55  1  0  0  0
M  END
$$$$
