1f8a_ligand
  -I-interpret- 

110112  0  0  0  0  0  0  0  0999 V2000
    8.6410   14.8880   54.2820 N   0  3  0  0  0
    7.3030   14.8400   53.6190 C   0  0  0  0  0
    6.1940   14.9200   54.6420 C   0  0  0  0  0
    5.9700   13.9610   55.3560 O   0  0  0  0  0
    7.1180   13.5300   52.8140 C   0  0  0  0  0
    5.7030   13.3510   52.2480 C   0  0  0  0  0
    4.9520   12.2030   52.5210 C   0  0  0  0  0
    5.1140   14.3390   51.4510 C   0  0  0  0  0
    3.6450   12.0440   52.0170 C   0  0  0  0  0
    3.8070   14.1890   50.9430 C   0  0  0  0  0
    3.0810   13.0430   51.2310 C   0  0  0  0  0
    1.7930   12.9040   50.7540 O   0  0  0  0  0
    5.8930   16.1380   54.2700 N   0  0  0  0  0
    4.9110   16.1550   55.3420 C   0  0  0  0  0
    4.9760   17.4000   56.2480 C   0  0  0  0  0
    5.4180   17.0880   57.6030 O   0  0  0  0  0
    3.5480   15.9670   54.6670 C   0  0  0  0  0
    3.0410   16.8600   53.9990 O   0  0  0  0  0
    4.4750   17.3490   58.9060 P   0  0  0  0  0
    5.3460   17.2610   60.1200 O   0  0  0  0  0
    4.0060   18.7610   58.9480 O   0  0  0  0  0
    3.2790   16.4930   58.7490 O   0  0  0  0  0
    2.7180   14.7840   54.9620 N   0  0  0  0  0
    1.4100   14.4320   54.3830 C   0  0  0  0  0
    0.2900   15.4670   54.3780 C   0  0  0  0  0
    0.2290   16.3730   55.2130 O   0  0  0  0  0
    1.0200   13.1600   55.1480 C   0  0  0  0  0
    1.7520   13.2800   56.4460 C   0  0  0  0  0
    3.0940   13.8220   56.0100 C   0  0  0  0  0
   -0.6100   15.3120   53.4170 N   0  0  0  0  0
   -1.7440   16.2070   53.2870 C   0  0  0  0  0
   -2.9650   15.4720   53.8240 C   0  0  0  0  0
   -3.0480   14.2460   53.7400 O   0  0  0  0  0
   -1.9800   16.5790   51.8170 C   0  0  0  0  0
   -0.7220   16.6010   51.1310 O   0  0  0  0  0
   -2.6010   17.9600   51.7130 C   0  0  0  0  0
   -3.9010   16.2190   54.3940 N   0  0  0  0  0
   -5.1070   15.6130   54.9280 C   0  0  0  0  0
   -5.9820   16.6610   55.6130 C   0  0  0  0  0
   -5.2850   17.2780   56.6770 O   0  0  0  0  0
   -5.8590   14.9470   53.7880 C   0  0  0  0  0
   -5.8030   15.4050   52.6480 O   0  0  0  0  0
   -5.0170   18.8480   56.6710 P   0  0  0  0  0
   -3.9390   19.0530   57.6570 O   0  0  0  0  0
   -4.4100   19.2630   55.3770 O   0  0  0  0  0
   -6.3310   19.5260   56.7830 O   0  0  0  0  0
   -6.5710   13.8500   54.0790 N   0  0  0  0  0
   -7.3330   13.1220   53.0580 C   0  0  0  0  0
   -8.2890   13.9690   52.2170 C   0  0  0  0  0
   -8.5020   13.6780   51.0390 O   0  0  0  0  0
   -8.0430   12.0290   53.8620 C   0  0  0  0  0
   -8.0700   12.5660   55.2570 C   0  0  0  0  0
   -6.7440   13.2340   55.4050 C   0  0  0  0  0
   -8.8630   15.0110   52.8120 N   0  0  0  0  0
   -9.7770   15.8870   52.0810 C   0  0  0  0  0
   -9.7910   17.2730   52.7090 C   0  0  0  0  0
   -9.1050   17.4520   53.7380 O   0  0  0  0  0
  -11.1990   15.3100   52.0730 C   0  0  0  0  0
  -11.8200   15.4340   53.3400 O   0  0  0  0  0
  -10.4850   18.1590   52.1670 O   0  0  0  0  0
    8.7302   15.7608   54.8022 H   0  0  0  0  0
    8.7305   14.0988   54.9219 H   0  0  0  0  0
    9.3725   14.8370   53.5730 H   0  0  0  0  0
    7.2557   15.6945   52.9439 H   0  0  0  0  0
    7.3052   12.6993   53.4944 H   0  0  0  0  0
    7.8057   13.5659   51.9691 H   0  0  0  0  0
    5.3863   11.4149   53.1362 H   0  0  0  0  0
    5.6769   15.2429   51.2181 H   0  0  0  0  0
    3.0782   11.1407   52.2427 H   0  0  0  0  0
    3.3682   14.9724   50.3251 H   0  0  0  0  0
    1.5606   13.6765   50.2336 H   0  0  0  0  0
    6.2075   16.7869   53.5486 H   0  0  0  0  0
    5.1164   15.3497   56.0473 H   0  0  0  0  0
    3.9723   17.8202   56.3118 H   0  0  0  0  0
    5.6955   18.0935   55.8127 H   0  0  0  0  0
    6.0673   17.8895   60.0412 H   0  0  0  0  0
    4.7612   19.3449   59.0497 H   0  0  0  0  0
    1.5321   14.3242   53.3052 H   0  0  0  0  0
    1.2870   12.2532   54.6053 H   0  0  0  0  0
   -0.0577   13.0759   55.2876 H   0  0  0  0  0
    1.8256   12.3359   56.9858 H   0  0  0  0  0
    1.2444   13.9208   57.1670 H   0  0  0  0  0
    3.7752   13.0477   55.6571 H   0  0  0  0  0
    3.6591   14.2745   56.8249 H   0  0  0  0  0
   -0.5024   14.5451   52.7532 H   0  0  0  0  0
   -1.5575   17.1273   53.8406 H   0  0  0  0  0
   -2.6510   15.8429   51.3743 H   0  0  0  0  0
   -0.8647   16.8334   50.2106 H   0  0  0  0  0
   -3.5555   17.9683   52.2393 H   0  0  0  0  0
   -1.9308   18.6931   52.1618 H   0  0  0  0  0
   -2.7611   18.2069   50.6635 H   0  0  0  0  0
   -3.7722   17.2288   54.4577 H   0  0  0  0  0
   -4.8417   14.8679   55.6780 H   0  0  0  0  0
   -6.8705   16.1713   56.0116 H   0  0  0  0  0
   -6.2553   17.4228   54.8829 H   0  0  0  0  0
   -5.0554   19.1585   54.6740 H   0  0  0  0  0
   -6.8897   19.2619   56.0484 H   0  0  0  0  0
   -6.6741   12.7329   52.2817 H   0  0  0  0  0
   -7.5294   11.0697   53.7984 H   0  0  0  0  0
   -9.0423   11.8188   53.4808 H   0  0  0  0  0
   -8.2269   11.7844   56.0003 H   0  0  0  0  0
   -8.9014   13.2512   55.4226 H   0  0  0  0  0
   -5.9399   12.5492   55.6744 H   0  0  0  0  0
   -6.7075   13.9508   56.2254 H   0  0  0  0  0
   -8.6623   15.2018   53.7937 H   0  0  0  0  0
   -9.4248   15.9600   51.0520 H   0  0  0  0  0
   -8.6590   16.6342   53.9702 H   0  0  0  0  0
  -11.1393   14.2512   51.8212 H   0  0  0  0  0
  -11.7909   15.8636   51.3441 H   0  0  0  0  0
  -12.7050   15.0642   53.2989 H   0  0  0  0  0
  3  2  1  0  0  0
  2  5  1  0  0  0
  2  1  1  0  0  0
  5  6  1  0  0  0
  6  8  4  0  0  0
  6  7  4  0  0  0
  7  9  4  0  0  0
  9 11  4  0  0  0
 11 12  1  0  0  0
 10 11  4  0  0  0
  8 10  4  0  0  0
  3  4  2  0  0  0
 13 14  1  0  0  0
 14 17  1  0  0  0
 14 15  1  0  0  0
 15 16  1  0  0  0
 16 19  1  0  0  0
 19 22  2  0  0  0
 19 21  1  0  0  0
 19 20  1  0  0  0
 17 18  2  0  0  0
 23 24  1  0  0  0
 24 27  1  0  0  0
 24 25  1  0  0  0
 25 26  2  0  0  0
 28 27  1  0  0  0
 29 28  1  0  0  0
 23 29  1  0  0  0
 31 32  1  0  0  0
 31 34  1  0  0  0
 30 31  1  0  0  0
 34 35  1  0  0  0
 34 36  1  0  0  0
 32 33  2  0  0  0
 37 38  1  0  0  0
 38 41  1  0  0  0
 38 39  1  0  0  0
 39 40  1  0  0  0
 40 43  1  0  0  0
 43 46  1  0  0  0
 43 45  1  0  0  0
 43 44  2  0  0  0
 41 42  2  0  0  0
 47 48  1  0  0  0
 48 51  1  0  0  0
 48 49  1  0  0  0
 49 50  2  0  0  0
 52 51  1  0  0  0
 53 52  1  0  0  0
 47 53  1  0  0  0
 55 56  1  0  0  0
 55 58  1  0  0  0
 54 55  1  0  0  0
 58 59  1  0  0  0
 56 60  2  0  0  0
 56 57  1  0  0  0
 25 30  1  0  0  0
 49 54  1  0  0  0
 41 47  1  0  0  0
 32 37  1  0  0  0
 17 23  1  0  0  0
 13  3  1  0  0  0
  1 61  1  0  0  0
  1 62  1  0  0  0
  1 63  1  0  0  0
  2 64  1  0  0  0
  5 65  1  0  0  0
  5 66  1  0  0  0
  7 67  1  0  0  0
  8 68  1  0  0  0
  9 69  1  0  0  0
 10 70  1  0  0  0
 12 71  1  0  0  0
 13 72  1  0  0  0
 14 73  1  0  0  0
 15 74  1  0  0  0
 15 75  1  0  0  0
 20 76  1  0  0  0
 21 77  1  0  0  0
 24 78  1  0  0  0
 27 79  1  0  0  0
 27 80  1  0  0  0
 28 81  1  0  0  0
 28 82  1  0  0  0
 29 83  1  0  0  0
 29 84  1  0  0  0
 30 85  1  0  0  0
 31 86  1  0  0  0
 34 87  1  0  0  0
 35 88  1  0  0  0
 36 89  1  0  0  0
 36 90  1  0  0  0
 36 91  1  0  0  0
 37 92  1  0  0  0
 38 93  1  0  0  0
 39 94  1  0  0  0
 39 95  1  0  0  0
 45 96  1  0  0  0
 46 97  1  0  0  0
 48 98  1  0  0  0
 51 99  1  0  0  0
 51100  1  0  0  0
 52101  1  0  0  0
 52102  1  0  0  0
 53103  1  0  0  0
 53104  1  0  0  0
 54105  1  0  0  0
 55106  1  0  0  0
 57107  1  0  0  0
 58108  1  0  0  0
 58109  1  0  0  0
 59110  1  0  0  0
M  END
$$$$
