4w9q_ligand
  -I-interpret- 

 67 70  0  0  0  0  0  0  0  0999 V2000
   15.9990   -9.8230  -20.5860 C   0  0  0  0  0
   16.7890  -10.7150  -19.7870 O   0  0  0  0  0
   16.3760  -12.0030  -19.6820 C   0  0  0  0  0
   15.1460  -12.4310  -20.1650 C   0  0  0  0  0
   17.2320  -12.8950  -19.0570 C   0  0  0  0  0
   18.4230  -12.3890  -18.6070 O   0  0  0  0  0
   19.2740  -13.2820  -17.8800 C   0  0  0  0  0
   16.8340  -14.2260  -18.9390 C   0  0  0  0  0
   15.6000  -14.6600  -19.4190 C   0  0  0  0  0
   14.7490  -13.7550  -20.0510 C   0  0  0  0  0
   13.5160  -14.0680  -20.5650 O   0  0  0  0  0
   13.1540  -15.4440  -20.6740 C   0  0  0  0  0
   12.6440  -15.9700  -19.3410 C   0  0  0  0  0
   11.3480  -15.3840  -18.9630 N   0  0  0  0  0
   11.2850  -14.5170  -17.9440 C   0  0  0  0  0
   12.3420  -14.2320  -17.3940 O   0  0  0  0  0
   10.1600  -15.8190  -19.7320 C   0  0  0  0  0
    9.1040  -16.5370  -18.8880 C   0  0  0  0  0
    8.1080  -17.2490  -19.8110 C   0  0  0  0  0
    8.4740  -18.3540  -20.5660 C   0  0  0  0  0
    8.3130  -15.5570  -17.9940 C   0  0  0  0  0
    8.2860  -16.0300  -16.5280 C   0  0  0  0  0
    9.6050  -15.7480  -15.8360 C   0  0  0  0  0
    9.9220  -14.2670  -15.9170 C   0  0  0  0  0
   10.0590  -13.8450  -17.3800 C   0  0  0  0  0
    8.8510  -14.1710  -18.2100 N   0  0  0  0  0
    7.7440  -13.0210  -18.2020 S   0  0  0  0  0
    8.2890  -11.6940  -18.1560 O   0  0  0  0  0
    6.4210  -13.3620  -17.6970 O   0  0  0  0  0
    7.3290  -13.0580  -19.9110 C   0  0  0  0  0
    8.2540  -12.6040  -20.8430 C   0  0  0  0  0
    7.9530  -12.6160  -22.1970 C   0  0  0  0  0
    9.1040  -12.0430  -23.3360 Cl  0  0  0  0  0
    6.7250  -13.0920  -22.6350 C   0  0  0  0  0
    5.7920  -13.5510  -21.7120 C   0  0  0  0  0
    4.2730  -14.1470  -22.2820 Cl  0  0  0  0  0
    6.0970  -13.5240  -20.3490 C   0  0  0  0  0
   15.9574  -10.1946  -21.6098 H   0  0  0  0  0
   14.9902   -9.7677  -20.1769 H   0  0  0  0  0
   16.4513   -8.8313  -20.5762 H   0  0  0  0  0
   14.4800  -11.7125  -20.6428 H   0  0  0  0  0
   18.7513  -13.6379  -16.9922 H   0  0  0  0  0
   19.5351  -14.1296  -18.5137 H   0  0  0  0  0
   20.1812  -12.7560  -17.5827 H   0  0  0  0  0
   17.5024  -14.9423  -18.4611 H   0  0  0  0  0
   15.3018  -15.7017  -19.3009 H   0  0  0  0  0
   14.0326  -16.0184  -20.9678 H   0  0  0  0  0
   12.3644  -15.5438  -21.4187 H   0  0  0  0  0
   13.3706  -15.7029  -18.5737 H   0  0  0  0  0
   12.5118  -17.0480  -19.4331 H   0  0  0  0  0
   10.5040  -16.5236  -20.4891 H   0  0  0  0  0
    9.6933  -14.9233  -20.1420 H   0  0  0  0  0
    9.6286  -17.2476  -18.2493 H   0  0  0  0  0
    7.0854  -16.8772  -19.8757 H   0  0  0  0  0
    9.4928  -18.7377  -20.5121 H   0  0  0  0  0
    7.7427  -18.8384  -21.2130 H   0  0  0  0  0
    7.2605  -15.5336  -18.2765 H   0  0  0  0  0
    8.1083  -17.1053  -16.5128 H   0  0  0  0  0
    7.4962  -15.4921  -16.0036 H   0  0  0  0  0
   10.3973  -16.3133  -16.3267 H   0  0  0  0  0
    9.5333  -16.0443  -14.7895 H   0  0  0  0  0
   10.8592  -14.0704  -15.3963 H   0  0  0  0  0
    9.1150  -13.7001  -15.4528 H   0  0  0  0  0
   10.1525  -12.7596  -17.4148 H   0  0  0  0  0
    9.2235  -12.2356  -20.5077 H   0  0  0  0  0
    6.4927  -13.1059  -23.6999 H   0  0  0  0  0
    5.3616  -13.8717  -19.6235 H   0  0  0  0  0
  1  2  1  0  0  0
  2  3  1  0  0  0
  3  4  4  0  0  0
  3  5  4  0  0  0
  4 10  4  0  0  0
  5  6  1  0  0  0
  5  8  4  0  0  0
  6  7  1  0  0  0
  8  9  4  0  0  0
  9 10  4  0  0  0
 10 11  1  0  0  0
 11 12  1  0  0  0
 12 13  1  0  0  0
 13 14  1  0  0  0
 14 15  1  0  0  0
 14 17  1  0  0  0
 15 16  2  0  0  0
 15 25  1  0  0  0
 17 18  1  0  0  0
 18 19  1  0  0  0
 18 21  1  0  0  0
 19 20  2  0  0  0
 21 22  1  0  0  0
 21 26  1  0  0  0
 22 23  1  0  0  0
 23 24  1  0  0  0
 24 25  1  0  0  0
 25 26  1  0  0  0
 26 27  1  0  0  0
 27 28  2  0  0  0
 27 29  2  0  0  0
 27 30  1  0  0  0
 30 31  4  0  0  0
 30 37  4  0  0  0
 31 32  4  0  0  0
 32 33  1  0  0  0
 32 34  4  0  0  0
 34 35  4  0  0  0
 35 36  1  0  0  0
 35 37  4  0  0  0
  1 38  1  0  0  0
  1 39  1  0  0  0
  1 40  1  0  0  0
  4 41  1  0  0  0
  7 42  1  0  0  0
  7 43  1  0  0  0
  7 44  1  0  0  0
  8 45  1  0  0  0
  9 46  1  0  0  0
 12 47  1  0  0  0
 12 48  1  0  0  0
 13 49  1  0  0  0
 13 50  1  0  0  0
 17 51  1  0  0  0
 17 52  1  0  0  0
 18 53  1  0  0  0
 19 54  1  0  0  0
 20 55  1  0  0  0
 20 56  1  0  0  0
 21 57  1  0  0  0
 22 58  1  0  0  0
 22 59  1  0  0  0
 23 60  1  0  0  0
 23 61  1  0  0  0
 24 62  1  0  0  0
 24 63  1  0  0  0
 25 64  1  0  0  0
 31 65  1  0  0  0
 34 66  1  0  0  0
 37 67  1  0  0  0
M  END
$$$$
