3hx3_ligand
  -I-interpret- 

 49 49  0  0  0  0  0  0  0  0999 V2000
    5.0550    7.8800   12.2630 C   0  0  0  0  0
    5.3860    9.1320   11.4850 C   0  0  0  0  0
    6.6590    9.6150   12.1620 C   0  0  0  0  0
    7.7560    8.5460   12.1040 C   0  0  0  0  0
    7.2980    7.0920   12.0190 C   0  0  0  0  0
    6.0090    6.7310   12.0610 C   0  0  0  0  0
    5.6480    5.2870   11.9920 C   0  0  0  0  0
    4.7620    4.7110   12.8010 C   0  0  0  0  0
    4.4140    3.2710   12.7440 C   0  0  0  0  0
    3.2770    2.8240   13.3080 C   0  0  0  0  0
    2.9840    1.3960   13.2360 C   0  0  0  0  0
    1.8980    0.8250   13.7650 C   0  0  0  0  0
    0.8320    1.5810   14.4480 C   0  0  0  0  0
    1.1340    2.4390   15.4270 C   0  0  0  0  0
    0.0760    3.1750   16.1140 C   0  0  0  0  0
    0.3870    4.0610   16.8960 O   0  0  0  0  0
    3.8590    7.7860   13.2050 C   0  0  0  0  0
    4.1540    7.4260   11.1140 C   0  0  0  0  0
    8.3410    6.0290   11.8460 C   0  0  0  0  0
    5.3220    2.2700   12.0840 C   0  0  0  0  0
   -0.6010    1.3440   14.0750 C   0  0  0  0  0
    4.5852    9.8711   11.5055 H   0  0  0  0  0
    5.5131    8.9499   10.4179 H   0  0  0  0  0
    6.4375    9.8305   13.2073 H   0  0  0  0  0
    7.0130   10.5059   11.6433 H   0  0  0  0  0
    8.3066    8.6316   13.0408 H   0  0  0  0  0
    8.3124    8.7382   11.1866 H   0  0  0  0  0
    6.1359    4.6690   11.2382 H   0  0  0  0  0
    4.2650    5.3320   13.5463 H   0  0  0  0  0
    2.5924    3.5107   13.8058 H   0  0  0  0  0
    3.6966    0.7544   12.7176 H   0  0  0  0  0
    1.7945   -0.2573   13.6876 H   0  0  0  0  0
    2.1746    2.5902   15.7141 H   0  0  0  0  0
   -0.9724    2.9382   15.9324 H   0  0  0  0  0
    3.0742    8.4603   12.8621 H   0  0  0  0  0
    3.4832    6.7628   13.2121 H   0  0  0  0  0
    4.1679    8.0680   14.2116 H   0  0  0  0  0
    3.7470    6.4406   11.3407 H   0  0  0  0  0
    3.3379    8.1380   10.9908 H   0  0  0  0  0
    4.7371    7.3769   10.1944 H   0  0  0  0  0
    8.2791    5.3229   12.6741 H   0  0  0  0  0
    8.1707    5.5043   10.9059 H   0  0  0  0  0
    9.3288    6.4897   11.8327 H   0  0  0  0  0
    5.6434    1.5326   12.8195 H   0  0  0  0  0
    4.7850    1.7706   11.2776 H   0  0  0  0  0
    6.1934    2.7840   11.6782 H   0  0  0  0  0
   -1.1414    0.9591   14.9399 H   0  0  0  0  0
   -1.0511    2.2827   13.7520 H   0  0  0  0  0
   -0.6485    0.6185   13.2629 H   0  0  0  0  0
  1  2  1  0  0  0
  1  6  1  0  0  0
  1 17  1  0  0  0
  1 18  1  0  0  0
  2  3  1  0  0  0
  3  4  1  0  0  0
  4  5  1  0  0  0
  5  6  2  0  0  0
  5 19  1  0  0  0
  6  7  1  0  0  0
  7  8  2  0  0  0
  8  9  1  0  0  0
  9 10  2  0  0  0
  9 20  1  0  0  0
 10 11  1  0  0  0
 11 12  2  0  0  0
 12 13  1  0  0  0
 13 14  2  0  0  0
 13 21  1  0  0  0
 14 15  1  0  0  0
 15 16  2  0  0  0
  2 22  1  0  0  0
  2 23  1  0  0  0
  3 24  1  0  0  0
  3 25  1  0  0  0
  4 26  1  0  0  0
  4 27  1  0  0  0
  7 28  1  0  0  0
  8 29  1  0  0  0
 10 30  1  0  0  0
 11 31  1  0  0  0
 12 32  1  0  0  0
 14 33  1  0  0  0
 15 34  1  0  0  0
 17 35  1  0  0  0
 17 36  1  0  0  0
 17 37  1  0  0  0
 18 38  1  0  0  0
 18 39  1  0  0  0
 18 40  1  0  0  0
 19 41  1  0  0  0
 19 42  1  0  0  0
 19 43  1  0  0  0
 20 44  1  0  0  0
 20 45  1  0  0  0
 20 46  1  0  0  0
 21 47  1  0  0  0
 21 48  1  0  0  0
 21 49  1  0  0  0
M  END
$$$$
