6qz8_ligand
  -I-interpret- 

 53 56  0  0  0  0  0  0  0  0999 V2000
    5.8860    2.9130   -6.8560 C   0  0  0  0  0
    4.1930    1.3790   -6.4330 C   0  0  0  0  0
    7.1090    3.7920   -6.5420 C   0  0  0  0  0
    2.8210   -0.8600   -2.5480 C   0  0  0  0  0
    2.3850    0.3920   -1.8680 C   0  0  0  0  0
    0.6540    1.7370   -1.0080 C   0  0  0  0  0
    5.8800    2.0260   -4.5560 C   0  0  0  0  0
    6.3720    3.0520   -2.4250 C   0  0  0  0  0
    2.0980    0.3030   -7.7600 C   0  0  0  0  0
    3.9340    1.7200   -7.7450 C   0  0  0  0  0
    1.0450    0.5630   -1.6160 C   0  0  0  0  0
    3.3410    1.3290   -1.4830 C   0  0  0  0  0
    7.1670    0.7880   -2.9180 C   0  0  0  0  0
    6.5860    0.8780   -4.1790 C   0  0  0  0  0
    5.0500    4.3910   -4.0180 C   0  0  0  0  0
    5.7810    3.1100   -3.6630 C   0  0  0  0  0
    6.2670    4.3580   -1.2880 Cl  0  0  0  0  0
    7.0560    1.8850   -2.0540 C   0  0  0  0  0
    7.6170    1.8400   -0.8230 O   0  0  0  0  0
    5.2950    2.0810   -5.9140 C   0  0  0  0  0
    7.8020    4.1210   -7.8360 C   0  0  0  0  0
    5.1260    2.8710   -8.3600 S   0  0  0  0  0
    2.9070    1.1820   -8.3990 N   0  0  0  0  0
    2.3250   -0.0760   -6.4650 N   0  0  0  0  0
    3.3370    0.4770   -5.8120 C   0  0  0  0  0
    3.5520    0.1840   -4.5210 O   0  0  0  0  0
    2.6710   -0.8540   -4.0130 C   0  0  0  0  0
    3.0050   -2.2430   -4.6260 C   0  0  0  0  0
    2.1360   -3.1160   -4.6140 O   0  0  0  0  0
    4.1100   -2.4250   -5.1360 O   0  0  0  0  0
    1.5830    2.6620   -0.5830 C   0  0  0  0  0
    2.9210    2.4950   -0.8650 C   0  0  0  0  0
    7.7906    3.2595   -5.8787 H   0  0  0  0  0
    6.7917    4.7088   -6.0452 H   0  0  0  0  0
    2.1876   -1.6621   -2.1691 H   0  0  0  0  0
    3.8844   -0.9783   -2.3400 H   0  0  0  0  0
   -0.4074    1.9369   -0.8610 H   0  0  0  0  0
    1.2428   -0.1137   -8.2921 H   0  0  0  0  0
    0.3174   -0.2020   -1.8870 H   0  0  0  0  0
    4.4003    1.1478   -1.6648 H   0  0  0  0  0
    7.6956   -0.1141   -2.6099 H   0  0  0  0  0
    6.6815    0.0478   -4.8788 H   0  0  0  0  0
    5.5159    4.8429   -4.8937 H   0  0  0  0  0
    4.0066    4.1638   -4.2366 H   0  0  0  0  0
    5.1041    5.0835   -3.1780 H   0  0  0  0  0
    8.0495    0.9918   -0.7005 H   0  0  0  0  0
    8.1199    3.1982   -8.3212 H   0  0  0  0  0
    7.1139    4.6579   -8.4889 H   0  0  0  0  0
    8.6726    4.7444   -7.6322 H   0  0  0  0  0
    1.6380   -0.6489   -4.2938 H   0  0  0  0  0
    1.3523   -2.7798   -4.1730 H   0  0  0  0  0
    1.2557    3.5347   -0.0179 H   0  0  0  0  0
    3.6405    3.2713   -0.6048 H   0  0  0  0  0
  1  3  1  0  0  0
 20  1  4  0  0  0
  1 22  4  0  0  0
  2 10  4  0  0  0
  2 20  4  0  0  0
 25  2  4  0  0  0
  3 21  1  0  0  0
  4  5  1  0  0  0
 27  4  1  0  0  0
  5 11  4  0  0  0
  5 12  4  0  0  0
 11  6  4  0  0  0
  6 31  4  0  0  0
  7 14  4  0  0  0
  7 16  4  0  0  0
 20  7  1  0  0  0
 16  8  4  0  0  0
  8 17  1  0  0  0
  8 18  4  0  0  0
  9 23  4  0  0  0
 24  9  4  0  0  0
 10 22  4  0  0  0
 10 23  4  0  0  0
 12 32  4  0  0  0
 14 13  4  0  0  0
 13 18  4  0  0  0
 16 15  1  0  0  0
 18 19  1  0  0  0
 25 24  4  0  0  0
 26 25  1  0  0  0
 26 27  1  0  0  0
 27 28  1  0  0  0
 28 29  1  0  0  0
 28 30  2  0  0  0
 31 32  4  0  0  0
  3 33  1  0  0  0
  3 34  1  0  0  0
  4 35  1  0  0  0
  4 36  1  0  0  0
  6 37  1  0  0  0
  9 38  1  0  0  0
 11 39  1  0  0  0
 12 40  1  0  0  0
 13 41  1  0  0  0
 14 42  1  0  0  0
 15 43  1  0  0  0
 15 44  1  0  0  0
 15 45  1  0  0  0
 19 46  1  0  0  0
 21 47  1  0  0  0
 21 48  1  0  0  0
 21 49  1  0  0  0
 27 50  1  0  0  0
 29 51  1  0  0  0
 31 52  1  0  0  0
 32 53  1  0  0  0
M  END
$$$$
