4kbk_ligand
  -I-interpret- 

 45 48  0  0  0  0  0  0  0  0999 V2000
   21.9270   21.9230  -51.4410 N   0  0  0  0  0
   21.5980   24.8690  -47.1080 C   0  0  0  0  0
   20.8480   25.3820  -46.0840 N   0  0  0  0  0
   25.1540   25.3630  -46.0740 C   0  0  0  0  0
   23.8040   25.0460  -46.0300 C   0  0  0  0  0
   24.9430   25.8310  -48.4640 C   0  0  0  0  0
   22.7110   22.0100  -50.3460 C   0  0  0  0  0
   25.7090   25.7540  -47.2950 C   0  0  0  0  0
   17.4060   22.7890  -53.9690 C   0  0  0  0  0
   19.8860   22.4450  -52.6390 C   0  0  0  0  0
   18.6420   23.6270  -54.3480 C   0  0  0  0  0
   18.4440   25.4500  -45.5210 C   0  0  0  0  0
   19.5630   25.0210  -46.3650 N   0  0  0  0  0
   19.4600   24.2920  -47.5440 C   0  0  0  0  0
   20.7630   24.1670  -48.0320 C   0  0  0  0  0
   23.0250   25.1270  -47.1830 C   0  0  0  0  0
   23.5960   25.5110  -48.3960 C   0  0  0  0  0
   27.0000   26.0600  -47.3490 F   0  0  0  0  0
   21.1610   23.4280  -49.2000 C   0  0  0  0  0
   22.3730   22.7430  -49.2060 C   0  0  0  0  0
   20.7470   22.5980  -51.4080 C   0  0  0  0  0
   20.3280   23.3640  -50.3200 C   0  0  0  0  0
   18.5820   21.7060  -52.2670 C   0  0  0  0  0
   17.7840   21.5570  -53.4130 O   0  0  0  0  0
   19.4940   23.7810  -53.1470 N   0  3  0  0  0
   25.7683   25.3082  -45.1753 H   0  0  0  0  0
   23.3506   24.7323  -45.0897 H   0  0  0  0  0
   25.3959   26.1360  -49.4074 H   0  0  0  0  0
   23.6623   21.4779  -50.3515 H   0  0  0  0  0
   16.8215   22.6013  -54.8697 H   0  0  0  0  0
   16.8224   23.3407  -53.2320 H   0  0  0  0  0
   20.4526   21.8936  -53.3893 H   0  0  0  0  0
   18.3297   24.6066  -54.7098 H   0  0  0  0  0
   19.2015   23.1269  -55.1385 H   0  0  0  0  0
   18.5912   25.0769  -44.5075 H   0  0  0  0  0
   18.3987   26.5390  -45.5057 H   0  0  0  0  0
   17.5129   25.0520  -45.9244 H   0  0  0  0  0
   18.5492   23.8985  -47.9953 H   0  0  0  0  0
   22.9805   25.5597  -49.2943 H   0  0  0  0  0
   23.0400   22.7777  -48.3446 H   0  0  0  0  0
   19.3777   23.8975  -50.3429 H   0  0  0  0  0
   18.0386   22.2830  -51.5188 H   0  0  0  0  0
   18.8244   20.7230  -51.8632 H   0  0  0  0  0
   20.3316   24.3091  -53.3918 H   0  0  0  0  0
   18.9736   24.2784  -52.4244 H   0  0  0  0  0
  7  1  4  0  0  0
  1 21  4  0  0  0
  2  3  4  0  0  0
 15  2  4  0  0  0
  2 16  1  0  0  0
 13  3  4  0  0  0
  5  4  4  0  0  0
  4  8  4  0  0  0
 16  5  4  0  0  0
  6  8  4  0  0  0
 17  6  4  0  0  0
 20  7  4  0  0  0
  8 18  1  0  0  0
 11  9  1  0  0  0
  9 24  1  0  0  0
 21 10  1  0  0  0
 10 23  1  0  0  0
 10 25  1  0  0  0
 25 11  1  0  0  0
 13 12  1  0  0  0
 14 13  4  0  0  0
 15 14  4  0  0  0
 19 15  1  0  0  0
 16 17  4  0  0  0
 19 20  4  0  0  0
 19 22  4  0  0  0
 21 22  4  0  0  0
 23 24  1  0  0  0
  4 26  1  0  0  0
  5 27  1  0  0  0
  6 28  1  0  0  0
  7 29  1  0  0  0
  9 30  1  0  0  0
  9 31  1  0  0  0
 10 32  1  0  0  0
 11 33  1  0  0  0
 11 34  1  0  0  0
 12 35  1  0  0  0
 12 36  1  0  0  0
 12 37  1  0  0  0
 14 38  1  0  0  0
 17 39  1  0  0  0
 20 40  1  0  0  0
 22 41  1  0  0  0
 23 42  1  0  0  0
 23 43  1  0  0  0
 25 44  1  0  0  0
 25 45  1  0  0  0
M  END
$$$$
