1ywr_ligand
  -I-interpret- 

 65 69  0  0  0  0  0  0  0  0999 V2000
    5.4490   -0.5080   18.6240 C   0  0  0  0  0
    4.5650   -0.8100   16.0060 C   0  0  0  0  0
    4.1820   -1.0730   18.3820 C   0  0  0  0  0
    6.2850   -0.0910   17.5860 C   0  0  0  0  0
    5.8100   -0.2570   16.2890 C   0  0  0  0  0
    3.7370   -1.2240   17.0600 C   0  0  0  0  0
    3.3810   -1.4790   19.5430 C   0  0  0  0  0
    6.5990    0.1370   15.2950 F   0  0  0  0  0
    2.1750   -2.9890   20.8490 N   0  0  0  0  0
    1.4800   -4.1590   21.3750 C   0  0  0  0  0
    1.5760   -1.6340   22.7780 C   0  0  0  0  0
    2.9080   -0.8680   20.6510 C   0  0  0  0  0
    3.0750    0.5310   21.0580 C   0  0  0  0  0
    3.0970   -3.8030   18.8770 O   0  0  0  0  0
    2.8950   -2.9020   19.6670 C   0  0  0  0  0
    2.1780   -1.7310   21.4660 N   0  0  0  0  0
   -0.5900   -5.5720   21.2130 C   0  0  0  0  0
    1.5360   -6.6780   21.4960 C   0  0  0  0  0
    2.3150   -5.4200   21.1320 C   0  0  0  0  0
    0.0810   -4.2770   20.7600 C   0  0  0  0  0
    0.2420   -6.7070   20.8160 N   0  3  0  0  0
    3.2280    0.8200   22.3590 N   0  0  0  0  0
    3.2290    2.8090   20.5140 C   0  0  0  0  0
    3.5370    2.4650   23.9890 N   0  0  0  0  0
    3.0690    1.5140   20.0850 C   0  0  0  0  0
    3.3780    2.1050   22.6890 C   0  0  0  0  0
    3.3840    3.1140   21.8130 N   0  0  0  0  0
    3.4450    1.5650   25.0990 C   0  0  0  0  0
    2.1050    0.8860   25.2920 C   0  0  0  0  0
    3.7960    2.3060   26.4050 C   0  0  0  0  0
   -0.3270   -0.4290   25.6950 C   0  0  0  0  0
    2.0630   -0.3090   26.0290 C   0  0  0  0  0
    0.9180    1.4030   24.7670 C   0  0  0  0  0
   -0.2990    0.7500   24.9650 C   0  0  0  0  0
    0.8460   -0.9520   26.2220 C   0  0  0  0  0
    5.7877   -0.3926   19.6536 H   0  0  0  0  0
    4.2355   -0.9207   14.9729 H   0  0  0  0  0
    7.2646    0.3445   17.7830 H   0  0  0  0  0
    2.7586   -1.6582   16.8542 H   0  0  0  0  0
    1.3528   -4.0441   22.4514 H   0  0  0  0  0
    0.5275   -1.9258   22.7177 H   0  0  0  0  0
    2.0999   -2.2968   23.4667 H   0  0  0  0  0
    1.6486   -0.6065   23.1346 H   0  0  0  0  0
   -1.5724   -5.6576   20.7485 H   0  0  0  0  0
   -0.7067   -5.5646   22.2967 H   0  0  0  0  0
    1.3659   -6.6851   22.5726 H   0  0  0  0  0
    2.1136   -7.5491   21.1867 H   0  0  0  0  0
    3.2071   -5.3713   21.7564 H   0  0  0  0  0
    2.5743   -5.4661   20.0743 H   0  0  0  0  0
    0.1694   -4.2833   19.6736 H   0  0  0  0  0
   -0.5233   -3.4304   21.0857 H   0  0  0  0  0
    0.4019   -6.6571   19.8099 H   0  0  0  0  0
   -0.2403   -7.5689   21.0708 H   0  0  0  0  0
    3.2302    3.6133   19.7783 H   0  0  0  0  0
    3.7359    3.4453   24.1886 H   0  0  0  0  0
    2.9434    1.2728   19.0295 H   0  0  0  0  0
    4.1553    0.7734   24.8603 H   0  0  0  0  0
    4.8124    2.6942   26.3391 H   0  0  0  0  0
    3.0992    3.1313   26.5515 H   0  0  0  0  0
    3.7236    1.6144   27.2444 H   0  0  0  0  0
   -1.2728   -0.9465   25.8554 H   0  0  0  0  0
    2.9781   -0.7290   26.4465 H   0  0  0  0  0
    0.9430    2.3301   24.1943 H   0  0  0  0  0
   -1.2187    1.1624   24.5501 H   0  0  0  0  0
    0.8122   -1.8789   26.7945 H   0  0  0  0  0
  3  1  4  0  0  0
  1  4  4  0  0  0
  2  5  4  0  0  0
  6  2  4  0  0  0
  3  6  4  0  0  0
  7  3  1  0  0  0
  4  5  4  0  0  0
  5  8  1  0  0  0
 12  7  2  0  0  0
  7 15  1  0  0  0
  9 10  1  0  0  0
  9 15  1  0  0  0
 16  9  1  0  0  0
 10 19  1  0  0  0
 10 20  1  0  0  0
 16 11  1  0  0  0
 13 12  1  0  0  0
 12 16  1  0  0  0
 22 13  4  0  0  0
 13 25  4  0  0  0
 15 14  2  0  0  0
 20 17  1  0  0  0
 17 21  1  0  0  0
 19 18  1  0  0  0
 18 21  1  0  0  0
 26 22  4  0  0  0
 23 25  4  0  0  0
 27 23  4  0  0  0
 24 26  1  0  0  0
 28 24  1  0  0  0
 26 27  4  0  0  0
 29 28  1  0  0  0
 28 30  1  0  0  0
 32 29  4  0  0  0
 29 33  4  0  0  0
 31 34  4  0  0  0
 35 31  4  0  0  0
 32 35  4  0  0  0
 33 34  4  0  0  0
  1 36  1  0  0  0
  2 37  1  0  0  0
  4 38  1  0  0  0
  6 39  1  0  0  0
 10 40  1  0  0  0
 11 41  1  0  0  0
 11 42  1  0  0  0
 11 43  1  0  0  0
 17 44  1  0  0  0
 17 45  1  0  0  0
 18 46  1  0  0  0
 18 47  1  0  0  0
 19 48  1  0  0  0
 19 49  1  0  0  0
 20 50  1  0  0  0
 20 51  1  0  0  0
 21 52  1  0  0  0
 21 53  1  0  0  0
 23 54  1  0  0  0
 24 55  1  0  0  0
 25 56  1  0  0  0
 28 57  1  0  0  0
 30 58  1  0  0  0
 30 59  1  0  0  0
 30 60  1  0  0  0
 31 61  1  0  0  0
 32 62  1  0  0  0
 33 63  1  0  0  0
 34 64  1  0  0  0
 35 65  1  0  0  0
M  END
$$$$
