1e02_ligand
  -I-interpret- 

 34 33  0  0  0  0  0  0  0  0999 V2000
   -0.3830   26.7480   10.7750 C   0  0  0  0  0
    0.6160   25.5470   10.8870 C   0  0  0  0  0
    1.9160   25.9320   11.4160 C   0  0  0  0  0
    2.0120   27.3970   11.6870 C   0  0  0  0  0
    3.1190   27.8660   12.8070 C   0  0  0  0  0
    2.6120   28.1040   14.2600 C   0  0  0  0  0
    1.1560   27.7040   14.4190 C   0  0  0  0  0
    0.3270   28.9690   14.8550 C   0  0  0  0  0
   -1.0620   28.9080   14.1810 C   0  0  0  0  0
   -1.6010   27.3960   14.2820 C   0  0  0  0  0
   -2.9520   27.2540   13.7050 C   0  0  0  0  0
   -2.9100   26.2050   13.2270 O   0  0  0  0  0
   -0.5429   27.1793   11.7632 H   0  0  0  0  0
    0.0335   27.5046   10.1100 H   0  0  0  0  0
   -1.3324   26.3930   10.3741 H   0  0  0  0  0
    0.7712   25.1511    9.8834 H   0  0  0  0  0
    0.1824   24.8187   11.5724 H   0  0  0  0  0
    2.6706   25.6775   10.6718 H   0  0  0  0  0
    2.0649   25.4052   12.3586 H   0  0  0  0  0
    1.0402   27.6949   12.0807 H   0  0  0  0  0
    2.3195   27.8576   10.7482 H   0  0  0  0  0
    3.4935   28.8306   12.4644 H   0  0  0  0  0
    3.8337   27.0459   12.8755 H   0  0  0  0  0
    2.7030   29.1664   14.4859 H   0  0  0  0  0
    3.2114   27.4953   14.9370 H   0  0  0  0  0
    1.0675   26.9254   15.1766 H   0  0  0  0  0
    0.7733   27.3195   13.4736 H   0  0  0  0  0
    0.8476   29.8763   14.5485 H   0  0  0  0  0
    0.2122   28.9807   15.9389 H   0  0  0  0  0
   -0.9862   29.2107   13.1366 H   0  0  0  0  0
   -1.7524   29.5870   14.6815 H   0  0  0  0  0
   -1.6483   27.1195   15.3353 H   0  0  0  0  0
   -0.9212   26.7527   13.7233 H   0  0  0  0  0
   -3.7806   27.9619   13.7254 H   0  0  0  0  0
  1  2  1  0  0  0
  2  3  1  0  0  0
  3  4  1  0  0  0
  4  5  1  0  0  0
  5  6  1  0  0  0
  6  7  1  0  0  0
  7  8  1  0  0  0
  8  9  1  0  0  0
  9 10  1  0  0  0
 10 11  1  0  0  0
 11 12  2  0  0  0
  1 13  1  0  0  0
  1 14  1  0  0  0
  1 15  1  0  0  0
  2 16  1  0  0  0
  2 17  1  0  0  0
  3 18  1  0  0  0
  3 19  1  0  0  0
  4 20  1  0  0  0
  4 21  1  0  0  0
  5 22  1  0  0  0
  5 23  1  0  0  0
  6 24  1  0  0  0
  6 25  1  0  0  0
  7 26  1  0  0  0
  7 27  1  0  0  0
  8 28  1  0  0  0
  8 29  1  0  0  0
  9 30  1  0  0  0
  9 31  1  0  0  0
 10 32  1  0  0  0
 10 33  1  0  0  0
 11 34  1  0  0  0
M  END
$$$$
