### 
### Created by X-TOOL on Mon Sep 10 21:12:50 2018
### 

@<TRIPOS>MOLECULE
1maw_ligand
   43    45     1     0     0
SMALL
GAST_HUCK


@<TRIPOS>ATOM
      1 PG         33.0600   -6.4860   51.7170 P.3       1 ATP         0.1879
      2 O1G        33.5700   -6.2970   50.3050 O.co2     1 ATP        -0.6091
      3 O2G        31.5580   -6.5400   51.8110 O.co2     1 ATP        -0.6091
      4 O3G        33.6930   -7.6950   52.3250 O.co2     1 ATP        -0.6091
      5 PB         34.5260   -5.0680   53.9480 P.3       1 ATP         0.3553
      6 O1B        34.5290   -3.8140   54.6480 O.co2     1 ATP        -0.5652
      7 O2B        35.2590   -6.2320   54.4430 O.co2     1 ATP        -0.5652
      8 O3B        33.5230   -5.2290   52.6880 O.3       1 ATP        -0.1546
      9 PA         35.8300   -3.5530   51.7140 P.3       1 ATP         0.3266
     10 O1A        35.9180   -4.1990   50.4090 O.co2     1 ATP        -0.5692
     11 O2A        35.6370   -2.1020   51.9010 O.co2     1 ATP        -0.5692
     12 O3A        35.8010   -4.5060   52.9600 O.3       1 ATP        -0.1171
     13 O5         37.2890   -3.6120   51.5040 O.3       1 ATP        -0.2441
     14 C5         38.5200   -3.4550   51.7370 C.3       1 ATP         0.1131
     15 C4         39.6130   -2.5430   52.0910 C.3       1 ATP         0.1189
     16 O4         39.1900   -2.1990   53.4570 O.3       1 ATP        -0.3364
     17 C3         40.6670   -3.6020   52.0640 C.3       1 ATP         0.1149
     18 O3         41.5870   -3.5460   50.9440 O.3       1 ATP        -0.3864
     19 C2         41.2850   -3.4640   53.4990 C.3       1 ATP         0.1385
     20 O2         42.5030   -2.7400   53.4480 O.3       1 ATP        -0.3836
     21 C1         40.1890   -2.7390   54.3820 C.3       1 ATP         0.2010
     22 N9         39.4560   -3.6560   55.3400 N.pl3     1 ATP        -0.1919
     23 C8         38.0970   -4.0010   55.3870 C.2       1 ATP         0.1123
     24 N7         37.7910   -4.8040   56.3610 N.2       1 ATP        -0.2958
     25 C5         39.0200   -5.0050   56.9990 C.ar      1 ATP         0.1045
     26 C6         39.4090   -5.7640   58.1550 C.ar      1 ATP         0.1298
     27 N6         38.5370   -6.4930   58.8490 N.pl3     1 ATP        -0.3152
     28 N1         40.7590   -5.7470   58.5540 N.ar      1 ATP        -0.2698
     29 C2         41.6550   -5.0280   57.8450 C.ar      1 ATP         0.0533
     30 N3         41.4150   -4.2890   56.7490 N.ar      1 ATP        -0.2714
     31 C4         40.0250   -4.3090   56.3810 C.ar      1 ATP         0.1613
     32 H1         38.9287   -3.8626   50.8006 H         1 ATP         0.0648
     33 H2         38.6413   -4.1943   52.5425 H         1 ATP         0.0648
     34 H3         39.8020   -1.6759   51.4411 H         1 ATP         0.0651
     35 H4         40.1750   -4.5833   51.9933 H         1 ATP         0.0648
     36 H5         42.0452   -2.7138   50.9533 H         1 ATP         0.2100
     37 H6         41.4880   -4.4619   53.9148 H         1 ATP         0.0676
     38 H7         43.1193   -3.1983   52.8889 H         1 ATP         0.2101
     39 H8         40.6651   -1.9286   54.9535 H         1 ATP         0.0996
     40 H9         37.3649   -3.6292   54.6716 H         1 ATP         0.1349
     41 H10        38.8512   -7.0250   59.6731 H         1 ATP         0.1820
     42 H11        37.5484   -6.5248   58.5616 H         1 ATP         0.1820
     43 H12        42.6795   -5.0492   58.1985 H         1 ATP         0.0996
@<TRIPOS>BOND
     1    1    2 ar 
     2    1    3 ar 
     3    1    4 ar 
     4    8    1 1  
     5    5    6 ar 
     6    5    7 ar 
     7    5    8 1  
     8   12    5 1  
     9    9   10 ar 
    10    9   11 ar 
    11    9   12 1  
    12    9   13 1  
    13   13   14 1  
    14   14   15 1  
    15   15   16 1  
    16   15   17 1  
    17   16   21 1  
    18   17   18 1  
    19   17   19 1  
    20   19   20 1  
    21   19   21 1  
    22   21   22 1  
    23   22   23 1  
    24   22   31 1  
    25   23   24 2  
    26   24   25 1  
    27   25   26 ar 
    28   25   31 ar 
    29   26   27 1  
    30   26   28 ar 
    31   28   29 ar 
    32   29   30 ar 
    33   30   31 ar 
    34   14   32 1  
    35   14   33 1  
    36   15   34 1  
    37   17   35 1  
    38   18   36 1  
    39   19   37 1  
    40   20   38 1  
    41   21   39 1  
    42   23   40 1  
    43   27   41 1  
    44   27   42 1  
    45   29   43 1  
@<TRIPOS>SUBSTRUCTURE
     1 ATP         1

