1maw_ligand
  -I-interpret- 

 47 49  0  0  0  0  0  0  0  0999 V2000
   33.0600   -6.4860   51.7170 P   0  0  0  0  0
   33.5700   -6.2970   50.3050 O   0  0  0  0  0
   31.5580   -6.5400   51.8110 O   0  0  0  0  0
   33.6930   -7.6950   52.3250 O   0  0  0  0  0
   34.5260   -5.0680   53.9480 P   0  0  0  0  0
   34.5290   -3.8140   54.6480 O   0  0  0  0  0
   35.2590   -6.2320   54.4430 O   0  0  0  0  0
   33.5230   -5.2290   52.6880 O   0  0  0  0  0
   35.8300   -3.5530   51.7140 P   0  0  0  0  0
   35.9180   -4.1990   50.4090 O   0  0  0  0  0
   35.6370   -2.1020   51.9010 O   0  0  0  0  0
   35.8010   -4.5060   52.9600 O   0  0  0  0  0
   37.2890   -3.6120   51.5040 O   0  0  0  0  0
   38.5200   -3.4550   51.7370 C   0  0  0  0  0
   39.6130   -2.5430   52.0910 C   0  0  0  0  0
   39.1900   -2.1990   53.4570 O   0  0  0  0  0
   40.6670   -3.6020   52.0640 C   0  0  0  0  0
   41.5870   -3.5460   50.9440 O   0  0  0  0  0
   41.2850   -3.4640   53.4990 C   0  0  0  0  0
   42.5030   -2.7400   53.4480 O   0  0  0  0  0
   40.1890   -2.7390   54.3820 C   0  0  0  0  0
   39.4560   -3.6560   55.3400 N   0  0  0  0  0
   38.0970   -4.0010   55.3870 C   0  0  0  0  0
   37.7910   -4.8040   56.3610 N   0  0  0  0  0
   39.0200   -5.0050   56.9990 C   0  0  0  0  0
   39.4090   -5.7640   58.1550 C   0  0  0  0  0
   38.5370   -6.4930   58.8490 N   0  0  0  0  0
   40.7590   -5.7470   58.5540 N   0  0  0  0  0
   41.6550   -5.0280   57.8450 C   0  0  0  0  0
   41.4150   -4.2890   56.7490 N   0  0  0  0  0
   40.0250   -4.3090   56.3810 C   0  0  0  0  0
   33.1602   -5.5192   49.9194 H   0  0  0  0  0
   31.1850   -5.7505   51.4122 H   0  0  0  0  0
   35.1335   -6.9681   53.8396 H   0  0  0  0  0
   35.6089   -1.9024   52.8396 H   0  0  0  0  0
   38.8129   -3.5326   50.6900 H   0  0  0  0  0
   38.4776   -3.9196   52.7221 H   0  0  0  0  0
   39.8822   -1.6415   51.5407 H   0  0  0  0  0
   40.2801   -4.6026   51.8714 H   0  0  0  0  0
   42.2215   -4.2628   51.0164 H   0  0  0  0  0
   41.5350   -4.4328   53.9315 H   0  0  0  0  0
   42.8668   -2.6651   54.3333 H   0  0  0  0  0
   40.7009   -1.9883   54.9841 H   0  0  0  0  0
   37.3642   -3.6289   54.6710 H   0  0  0  0  0
   37.5580   -6.5245   58.5644 H   0  0  0  0  0
   38.8481   -7.0198   59.6651 H   0  0  0  0  0
   42.6852   -5.0494   58.2004 H   0  0  0  0  0
  1  2  1  0  0  0
  1  3  1  0  0  0
  1  4  2  0  0  0
  8  1  1  0  0  0
  5  6  2  0  0  0
  5  7  1  0  0  0
  5  8  1  0  0  0
 12  5  1  0  0  0
  9 10  2  0  0  0
  9 11  1  0  0  0
  9 12  1  0  0  0
  9 13  1  0  0  0
 13 14  1  0  0  0
 14 15  1  0  0  0
 15 16  1  0  0  0
 15 17  1  0  0  0
 16 21  1  0  0  0
 17 18  1  0  0  0
 17 19  1  0  0  0
 19 20  1  0  0  0
 19 21  1  0  0  0
 21 22  1  0  0  0
 22 23  4  0  0  0
 22 31  4  0  0  0
 23 24  4  0  0  0
 24 25  4  0  0  0
 25 26  4  0  0  0
 25 31  4  0  0  0
 26 27  1  0  0  0
 26 28  4  0  0  0
 28 29  4  0  0  0
 29 30  4  0  0  0
 30 31  4  0  0  0
  2 32  1  0  0  0
  3 33  1  0  0  0
  7 34  1  0  0  0
 11 35  1  0  0  0
 14 36  1  0  0  0
 14 37  1  0  0  0
 15 38  1  0  0  0
 17 39  1  0  0  0
 18 40  1  0  0  0
 19 41  1  0  0  0
 20 42  1  0  0  0
 21 43  1  0  0  0
 23 44  1  0  0  0
 27 45  1  0  0  0
 27 46  1  0  0  0
 29 47  1  0  0  0
M  END
$$$$
