3rz5_ligand
  -I-interpret- 

 36 36  0  0  0  0  0  0  0  0999 V2000
   15.0430    0.9770   16.8780 S   0  0  0  0  0
   18.5540    5.7500   13.5970 N   0  0  0  0  0
   16.4660    6.6910   13.5840 O   0  0  0  0  0
   16.6720    4.5790   14.6460 C   0  0  0  0  0
   17.0120    2.4570   15.7980 C   0  0  0  0  0
   17.5260    3.5630   15.0850 C   0  0  0  0  0
   15.6270    2.3040   16.0670 C   0  0  0  0  0
   15.2980    4.4290   14.8710 C   0  0  0  0  0
   14.7700    3.3550   15.5940 C   0  0  0  0  0
   17.2340    5.7470   13.8940 C   0  0  0  0  0
   19.2410    6.8540   12.8650 C   0  0  0  0  0
   13.5900    1.0140   16.7640 O   0  0  0  0  0
   19.6380    7.8610   13.9610 C   0  0  0  0  0
   15.5900    1.0310   18.2070 O   0  0  0  0  0
   19.9940    9.1990   13.3810 C   0  0  0  0  0
   15.6350   -0.3410   16.2120 N   0  0  0  0  0
   19.9990   10.2340   14.4950 C   0  0  0  0  0
   19.3390   11.4780   13.9350 C   0  0  0  0  0
   19.1132    4.9493   13.8912 H   0  0  0  0  0
   17.7040    1.6939   16.1543 H   0  0  0  0  0
   18.5940    3.6245   14.8761 H   0  0  0  0  0
   14.6152    5.1768   14.4678 H   0  0  0  0  0
   13.7004    3.3151   15.8001 H   0  0  0  0  0
   18.5959    7.3059   12.1115 H   0  0  0  0  0
   20.1070    6.4960   12.3083 H   0  0  0  0  0
   20.5095    7.4712   14.4869 H   0  0  0  0  0
   18.7889    7.9918   14.6318 H   0  0  0  0  0
   19.2625    9.4779   12.6225 H   0  0  0  0  0
   20.9804    9.1497   12.9198 H   0  0  0  0  0
   15.0080   -1.0211   15.7822 H   0  0  0  0  0
   16.6416   -0.5059   16.2148 H   0  0  0  0  0
   21.0164   10.4476   14.8227 H   0  0  0  0  0
   19.4599    9.8676   15.3686 H   0  0  0  0  0
   19.9052   11.8316   13.0733 H   0  0  0  0  0
   18.3200   11.2408   13.6293 H   0  0  0  0  0
   19.3188   12.2532   14.7010 H   0  0  0  0  0
  7  1  1  0  0  0
  1 12  2  0  0  0
  1 14  2  0  0  0
  1 16  1  0  0  0
 10  2  1  0  0  0
  2 11  1  0  0  0
 10  3  2  0  0  0
  6  4  4  0  0  0
  4  8  4  0  0  0
  4 10  1  0  0  0
  5  6  4  0  0  0
  5  7  4  0  0  0
  7  9  4  0  0  0
  8  9  4  0  0  0
 11 13  1  0  0  0
 13 15  1  0  0  0
 15 17  1  0  0  0
 17 18  1  0  0  0
  2 19  1  0  0  0
  5 20  1  0  0  0
  6 21  1  0  0  0
  8 22  1  0  0  0
  9 23  1  0  0  0
 11 24  1  0  0  0
 11 25  1  0  0  0
 13 26  1  0  0  0
 13 27  1  0  0  0
 15 28  1  0  0  0
 15 29  1  0  0  0
 16 30  1  0  0  0
 16 31  1  0  0  0
 17 32  1  0  0  0
 17 33  1  0  0  0
 18 34  1  0  0  0
 18 35  1  0  0  0
 18 36  1  0  0  0
M  END
$$$$
