4mk0_ligand
  -I-interpret- 

 47 50  0  0  0  0  0  0  0  0999 V2000
  -15.2100   24.6680   15.8390 F   0  0  0  0  0
  -15.7710   25.8030   16.2890 C   0  0  0  0  0
  -15.4430   26.2640   17.5560 C   0  0  0  0  0
  -16.0180   27.4390   18.0350 C   0  0  0  0  0
  -16.6760   26.5150   15.5060 C   0  0  0  0  0
  -17.2510   27.6950   15.9840 C   0  0  0  0  0
  -16.9240   28.1670   17.2590 C   0  0  0  0  0
  -17.5300   29.4280   17.7810 C   0  0  0  0  0
  -16.4480   30.5000   17.9580 C   0  0  0  0  0
  -16.9720   31.7870   18.5900 C   0  0  0  0  0
  -17.7920   31.5000   19.7450 N   0  3  0  0  0
  -18.8290   30.4850   19.6580 C   0  0  0  0  0
  -18.2760   29.1810   19.0920 C   0  0  0  0  0
  -19.4100   28.1790   18.9190 C   0  0  0  0  0
  -20.0710   28.3000   17.6490 O   0  0  0  0  0
  -21.2760   27.6710   17.4370 C   0  0  0  0  0
  -21.6490   26.5630   18.2070 C   0  0  0  0  0
  -22.1370   28.1510   16.4450 C   0  0  0  0  0
  -23.3710   27.5340   16.2120 C   0  0  0  0  0
  -23.7170   26.4450   16.9940 C   0  0  0  0  0
  -24.8840   25.5200   17.1010 C   0  0  0  0  0
  -25.9420   25.5680   16.3780 O   0  0  0  0  0
  -22.8760   25.9660   17.9700 C   0  0  0  0  0
  -23.4100   24.8180   18.6910 C   0  0  0  0  0
  -24.7170   24.6000   18.0570 N   0  0  0  0  0
  -14.7378   25.7086   18.1744 H   0  0  0  0  0
  -15.7570   27.7963   19.0311 H   0  0  0  0  0
  -16.9376   26.1490   14.5132 H   0  0  0  0  0
  -17.9552   28.2483   15.3626 H   0  0  0  0  0
  -18.2578   29.7864   17.0530 H   0  0  0  0  0
  -16.0667   30.7503   16.9680 H   0  0  0  0  0
  -15.6860   30.0928   18.6226 H   0  0  0  0  0
  -17.5772   32.3168   17.8543 H   0  0  0  0  0
  -16.1226   32.3926   18.9059 H   0  0  0  0  0
  -18.2963   32.3682   19.9247 H   0  0  0  0  0
  -17.1388   31.1414   20.4415 H   0  0  0  0  0
  -19.6158   30.8464   18.9958 H   0  0  0  0  0
  -19.2150   30.2943   20.6594 H   0  0  0  0  0
  -17.5535   28.7624   19.7926 H   0  0  0  0  0
  -20.1471   28.3712   19.6986 H   0  0  0  0  0
  -18.9830   27.1779   18.9790 H   0  0  0  0  0
  -20.9849   26.1766   18.9801 H   0  0  0  0  0
  -21.8439   29.0142   15.8475 H   0  0  0  0  0
  -24.0422   27.9009   15.4355 H   0  0  0  0  0
  -23.4879   24.9950   19.7637 H   0  0  0  0  0
  -22.7617   23.9440   18.6281 H   0  0  0  0  0
  -25.3848   23.8698   18.3043 H   0  0  0  0  0
  1  2  1  0  0  0
  2  3  4  0  0  0
  2  5  4  0  0  0
  3  4  4  0  0  0
  4  7  4  0  0  0
  5  6  4  0  0  0
  6  7  4  0  0  0
  7  8  1  0  0  0
  8  9  1  0  0  0
  8 13  1  0  0  0
  9 10  1  0  0  0
 10 11  1  0  0  0
 11 12  1  0  0  0
 12 13  1  0  0  0
 13 14  1  0  0  0
 14 15  1  0  0  0
 15 16  1  0  0  0
 16 17  4  0  0  0
 16 18  4  0  0  0
 17 23  4  0  0  0
 18 19  4  0  0  0
 19 20  4  0  0  0
 20 21  1  0  0  0
 20 23  4  0  0  0
 21 22  2  0  0  0
 21 25  1  0  0  0
 23 24  1  0  0  0
 24 25  1  0  0  0
  3 26  1  0  0  0
  4 27  1  0  0  0
  5 28  1  0  0  0
  6 29  1  0  0  0
  8 30  1  0  0  0
  9 31  1  0  0  0
  9 32  1  0  0  0
 10 33  1  0  0  0
 10 34  1  0  0  0
 11 35  1  0  0  0
 11 36  1  0  0  0
 12 37  1  0  0  0
 12 38  1  0  0  0
 13 39  1  0  0  0
 14 40  1  0  0  0
 14 41  1  0  0  0
 17 42  1  0  0  0
 18 43  1  0  0  0
 19 44  1  0  0  0
 24 45  1  0  0  0
 24 46  1  0  0  0
 25 47  1  0  0  0
M  END
$$$$
