2cmf_ligand
  -I-interpret- 

 71 76  0  0  0  0  0  0  0  0999 V2000
    2.6810   61.3490   70.9040 C   0  0  0  0  0
    2.3550   62.6420   70.3940 C   0  0  0  0  0
    3.3490   63.3290   69.4540 C   0  0  0  0  0
    4.4740   62.4170   68.8940 C   0  0  0  0  0
    5.1080   61.5750   70.0400 C   0  0  0  0  0
    4.0090   60.6260   70.5830 C   0  0  0  0  0
    1.7750   60.7160   71.7460 N   0  0  0  0  0
    0.5370   61.2540   72.1410 C   0  0  0  0  0
    0.1790   62.5740   71.6560 C   0  0  0  0  0
    1.1290   63.2700   70.7990 C   0  0  0  0  0
    0.7260   64.5200   70.5170 N   0  0  0  0  0
   -1.1180   63.0830   72.0800 C   0  0  0  0  0
   -1.9500   62.3430   72.9190 C   0  0  0  0  0
   -1.5580   61.0380   73.4010 C   0  0  0  0  0
   -0.3220   60.4970   73.0080 C   0  0  0  0  0
    1.4380   69.1680   67.4270 C   0  0  0  0  0
    1.1400   67.6800   67.4510 C   0  0  0  0  0
    1.3180   67.1910   68.8680 C   0  0  0  0  0
    0.1030   66.5030   69.3850 C   0  0  0  0  0
    0.2530   65.0040   69.2530 C   0  0  0  0  0
    5.1810   69.2610   64.0180 C   0  0  0  0  0
    3.8250   69.1890   64.4150 C   0  0  0  0  0
    2.8140   68.7040   63.4030 C   0  0  0  0  0
    3.3870   67.9880   62.1990 C   0  0  0  0  0
    4.4890   68.8380   61.6000 C   0  0  0  0  0
    5.6450   68.9320   62.6300 C   0  0  0  0  0
    6.1300   69.6630   64.9300 N   0  0  0  0  0
    5.8830   69.9980   66.2490 C   0  0  0  0  0
    4.5120   69.9460   66.7380 C   0  0  0  0  0
    3.4360   69.5740   65.7400 C   0  0  0  0  0
    2.1020   69.6260   66.1850 N   0  0  0  0  0
    4.3660   70.3060   68.1340 C   0  0  0  0  0
    5.4600   70.6940   68.9400 C   0  0  0  0  0
    6.7980   70.7530   68.4120 C   0  0  0  0  0
    7.0090   70.3990   67.0750 C   0  0  0  0  0
    3.8406   64.1085   70.0361 H   0  0  0  0  0
    2.7754   63.6789   68.5957 H   0  0  0  0  0
    5.2454   63.0404   68.4419 H   0  0  0  0  0
    4.0485   61.7428   68.1507 H   0  0  0  0  0
    5.4757   62.2261   70.8331 H   0  0  0  0  0
    5.9569   61.0017   69.6674 H   0  0  0  0  0
    3.8024   59.8851   69.8107 H   0  0  0  0  0
    4.3793   60.1898   71.5108 H   0  0  0  0  0
    0.7600   65.1947   71.2812 H   0  0  0  0  0
   -1.4452   64.0635   71.7340 H   0  0  0  0  0
   -2.9137   62.7562   73.2169 H   0  0  0  0  0
   -2.2164   60.4774   74.0646 H   0  0  0  0  0
   -0.0177   59.5107   73.3584 H   0  0  0  0  0
    2.1170   69.3764   68.2538 H   0  0  0  0  0
    0.4843   69.6912   67.4971 H   0  0  0  0  0
    1.8175   67.1496   66.7818 H   0  0  0  0  0
    0.1200   67.4949   67.1142 H   0  0  0  0  0
    1.5127   68.0558   69.5023 H   0  0  0  0  0
    2.1413   66.4768   68.8784 H   0  0  0  0  0
   -0.7625   66.8265   68.8067 H   0  0  0  0  0
   -0.0291   66.7563   70.4369 H   0  0  0  0  0
   -0.6992   64.5414   68.9935 H   0  0  0  0  0
    0.9538   64.7541   68.4564 H   0  0  0  0  0
    2.3058   69.5904   63.0235 H   0  0  0  0  0
    2.1800   67.9832   63.9194 H   0  0  0  0  0
    2.6031   67.8266   61.4591 H   0  0  0  0  0
    3.7908   67.0222   62.5027 H   0  0  0  0  0
    4.1104   69.8341   61.3706 H   0  0  0  0  0
    4.8480   68.3874   60.6747 H   0  0  0  0  0
    6.1308   67.9570   62.6685 H   0  0  0  0  0
    6.3087   69.7340   62.3067 H   0  0  0  0  0
    1.4662   70.0666   65.5202 H   0  0  0  0  0
    3.3721   70.2763   68.5805 H   0  0  0  0  0
    5.2870   70.9543   69.9842 H   0  0  0  0  0
    7.6304   71.0673   69.0416 H   0  0  0  0  0
    8.0144   70.4239   66.6546 H   0  0  0  0  0
  2  1  4  0  0  0
  1  6  1  0  0  0
  1  7  4  0  0  0
  2  3  1  0  0  0
 10  2  4  0  0  0
  3  4  1  0  0  0
  4  5  1  0  0  0
  6  5  1  0  0  0
  8  7  4  0  0  0
  9  8  4  0  0  0
  8 15  4  0  0  0
 10  9  4  0  0  0
  9 12  4  0  0  0
 11 10  1  0  0  0
 20 11  1  0  0  0
 12 13  4  0  0  0
 13 14  4  0  0  0
 15 14  4  0  0  0
 16 17  1  0  0  0
 31 16  1  0  0  0
 17 18  1  0  0  0
 18 19  1  0  0  0
 19 20  1  0  0  0
 22 21  4  0  0  0
 21 26  1  0  0  0
 21 27  4  0  0  0
 22 23  1  0  0  0
 30 22  4  0  0  0
 23 24  1  0  0  0
 24 25  1  0  0  0
 26 25  1  0  0  0
 28 27  4  0  0  0
 29 28  4  0  0  0
 28 35  4  0  0  0
 30 29  4  0  0  0
 29 32  4  0  0  0
 30 31  1  0  0  0
 32 33  4  0  0  0
 33 34  4  0  0  0
 34 35  4  0  0  0
  3 36  1  0  0  0
  3 37  1  0  0  0
  4 38  1  0  0  0
  4 39  1  0  0  0
  5 40  1  0  0  0
  5 41  1  0  0  0
  6 42  1  0  0  0
  6 43  1  0  0  0
 11 44  1  0  0  0
 12 45  1  0  0  0
 13 46  1  0  0  0
 14 47  1  0  0  0
 15 48  1  0  0  0
 16 49  1  0  0  0
 16 50  1  0  0  0
 17 51  1  0  0  0
 17 52  1  0  0  0
 18 53  1  0  0  0
 18 54  1  0  0  0
 19 55  1  0  0  0
 19 56  1  0  0  0
 20 57  1  0  0  0
 20 58  1  0  0  0
 23 59  1  0  0  0
 23 60  1  0  0  0
 24 61  1  0  0  0
 24 62  1  0  0  0
 25 63  1  0  0  0
 25 64  1  0  0  0
 26 65  1  0  0  0
 26 66  1  0  0  0
 31 67  1  0  0  0
 32 68  1  0  0  0
 33 69  1  0  0  0
 34 70  1  0  0  0
 35 71  1  0  0  0
M  END
$$$$
