3pcf_ligand
  -I-interpret- 

 16 16  0  0  0  0  0  0  0  0999 V2000
   14.8930   12.3540   40.6670 C   0  0  0  0  0
   15.4850   11.3370   39.8780 C   0  0  0  0  0
   15.0210   10.0430   39.9610 C   0  0  0  0  0
   15.6060    9.0630   39.2210 F   0  0  0  0  0
   13.8990    9.7510   40.7520 C   0  0  0  0  0
   13.4700    8.4410   40.7650 O   0  0  0  0  0
   13.3060   10.7350   41.5220 C   0  0  0  0  0
   13.7930   12.0510   41.4670 C   0  0  0  0  0
   15.4750   13.7500   40.5900 C   0  0  0  0  0
   16.4050   14.0100   39.8250 O   0  0  0  0  0
   14.9870   14.6510   41.2430 O   0  0  0  0  0
   16.3078   11.5788   39.2052 H   0  0  0  0  0
   12.7021    8.3626   41.3357 H   0  0  0  0  0
   12.4638   10.4900   42.1691 H   0  0  0  0  0
   13.3106   12.8355   42.0501 H   0  0  0  0  0
   16.6860   13.2070   39.3801 H   0  0  0  0  0
  1  9  1  0  0  0
  1  8  4  0  0  0
  1  2  4  0  0  0
  2  3  4  0  0  0
  3  5  4  0  0  0
  3  4  1  0  0  0
  5  7  4  0  0  0
  5  6  1  0  0  0
  7  8  4  0  0  0
  9 11  2  0  0  0
  9 10  1  0  0  0
  2 12  1  0  0  0
  6 13  1  0  0  0
  7 14  1  0  0  0
  8 15  1  0  0  0
 10 16  1  0  0  0
M  END
$$$$
