### 
### Created by X-TOOL on Mon Sep 10 21:12:59 2018
### 

@<TRIPOS>MOLECULE
3bhb_ligand
  172   172     1     0     0
SMALL
GAST_HUCK


@<TRIPOS>ATOM
      1 N           0.9580   -1.4250   35.3010 N.4       1 LYS         0.2379
      2 CA          0.8610   -2.7270   36.0230 C.3       1 LYS         0.0650
      3 C           0.1270   -3.7370   35.1500 C.2       1 LYS         0.2267
      4 O          -0.8600   -3.3980   34.4940 O.2       1 LYS        -0.3907
      5 CB          0.1390   -2.5560   37.3720 C.3       1 LYS         0.0080
      6 CG          0.1000   -3.8250   38.2390 C.3       1 LYS        -0.0410
      7 CD          0.0200   -3.5590   39.7470 C.3       1 LYS        -0.0123
      8 CE         -1.3770   -3.1640   40.2240 C.3       1 LYS        -0.0354
      9 NZ         -2.4620   -4.1440   39.9600 N.4       1 LYS         0.2185
     10 N           0.6340   -4.9700   35.1390 N.am      1 MET        -0.2610
     11 CA          0.0410   -6.0600   34.3650 C.3       1 MET         0.1318
     12 C          -1.2780   -6.5430   34.9540 C.2       1 MET         0.2040
     13 O          -1.5640   -6.3350   36.1410 O.2       1 MET        -0.3944
     14 CB          0.9830   -7.2600   34.2910 C.3       1 MET        -0.0034
     15 CG          2.2290   -7.0820   33.4530 C.3       1 MET        -0.0024
     16 SD          3.0800   -8.6450   33.1940 S.3       1 MET        -0.1639
     17 CE          3.6100   -8.9290   34.7520 C.3       1 MET        -0.0181
     18 N          -2.0640   -7.2010   34.1000 N.am      1 ASP        -0.2622
     19 CA         -3.3580   -7.7820   34.4570 C.3       1 ASP         0.1423
     20 C          -3.0960   -8.9140   35.4350 C.2       1 ASP         0.2057
     21 O          -2.2440   -9.7690   35.1850 O.2       1 ASP        -0.3943
     22 CB         -4.0440   -8.3340   33.1940 C.3       1 ASP         0.0406
     23 CG         -5.5570   -8.5280   33.3530 C.2       1 ASP         0.0393
     24 OD1        -6.0750   -8.6000   34.4940 O.co2     1 ASP        -0.5688
     25 OD2        -6.2390   -8.5860   32.3050 O.co2     1 ASP        -0.5688
     26 N          -3.8150   -8.8860   36.5540 N.am      1 SEP        -0.2612
     27 CA         -3.6750   -9.9080   37.5810 C.3       1 SEP         0.1586
     28 CB         -3.9320   -9.3010   38.9620 C.3       1 SEP         0.1184
     29 OG         -2.7430   -8.6310   39.3610 O.3       1 SEP        -0.2714
     30 C          -4.4800  -11.1880   37.3080 C.2       1 SEP         0.2067
     31 O          -4.3670  -12.1710   38.0460 O.2       1 SEP        -0.3943
     32 P          -2.9680   -7.6220   40.5990 P.3       1 SEP         0.2010
     33 O1P        -4.0380   -6.4880   40.1960 O.co2     1 SEP        -0.5537
     34 O2P        -1.5630   -6.9230   40.9650 O.co2     1 SEP        -0.5537
     35 O3P        -3.5080   -8.4400   41.8750 O.co2     1 SEP        -0.5537
     36 N          -5.2350  -11.1820   36.2040 N.am      1 PHE        -0.2619
     37 CA         -6.0160  -12.3440   35.7640 C.3       1 PHE         0.1404
     38 C          -5.0790  -13.1640   34.8640 C.2       1 PHE         0.2060
     39 O          -4.7150  -12.7380   33.7630 O.2       1 PHE        -0.3942
     40 CB         -7.2880  -11.9250   35.0090 C.3       1 PHE         0.0214
     41 CG         -8.1830  -13.0850   34.6360 C.ar      1 PHE        -0.0386
     42 CD1        -8.8640  -13.8150   35.6300 C.ar      1 PHE        -0.0601
     43 CD2        -8.2980  -13.4930   33.2960 C.ar      1 PHE        -0.0601
     44 CE1        -9.6490  -14.9500   35.2950 C.ar      1 PHE        -0.0686
     45 CE2        -9.0780  -14.6240   32.9360 C.ar      1 PHE        -0.0686
     46 CZ         -9.7550  -15.3570   33.9390 C.ar      1 PHE        -0.0687
     47 N          -4.6900  -14.3340   35.3630 N.am      1 LEU        -0.2636
     48 CA         -3.7480  -15.2220   34.6850 C.3       1 LEU         0.1312
     49 C          -4.3230  -16.5230   34.1340 C.2       1 LEU         0.2040
     50 O          -3.6250  -17.2400   33.4190 O.2       1 LEU        -0.3944
     51 CB         -2.6100  -15.5750   35.6620 C.3       1 LEU        -0.0101
     52 CG         -1.9770  -14.4660   36.5140 C.3       1 LEU        -0.0425
     53 CD1        -1.0860  -15.0510   37.6000 C.3       1 LEU        -0.0625
     54 CD2        -1.2210  -13.4960   35.6250 C.3       1 LEU        -0.0625
     55 N          -5.5810  -16.8210   34.4550 N.am      1 ASP        -0.2622
     56 CA         -6.2210  -18.0720   34.0320 C.3       1 ASP         0.1423
     57 C          -6.7930  -18.0760   32.6040 C.2       1 ASP         0.2056
     58 O          -8.0090  -18.1820   32.3980 O.2       1 ASP        -0.3943
     59 CB         -7.2770  -18.4960   35.0720 C.3       1 ASP         0.0406
     60 CG         -6.6980  -18.6240   36.4810 C.2       1 ASP         0.0393
     61 OD1        -5.5890  -19.1890   36.6410 O.co2     1 ASP        -0.5688
     62 OD2        -7.3490  -18.1440   37.4320 O.co2     1 ASP        -0.5688
     63 N          -5.8810  -17.9900   31.6300 N.am      1 MET        -0.2636
     64 CA         -6.1940  -17.9610   30.1940 C.3       1 MET         0.1317
     65 C          -5.2490  -18.8440   29.3850 C.2       1 MET         0.2039
     66 O          -4.0890  -18.4880   29.1780 O.2       1 MET        -0.3944
     67 CB         -6.0400  -16.5470   29.6410 C.3       1 MET        -0.0034
     68 CG         -7.2190  -15.6540   29.7750 C.3       1 MET        -0.0024
     69 SD         -6.8090  -14.0290   29.1370 S.3       1 MET        -0.1639
     70 CE         -5.9140  -13.4190   30.5560 C.3       1 MET        -0.0181
     71 N          -5.7570  -19.9720   28.8990 N.am      1 GLN        -0.2636
     72 CA         -4.9650  -20.8900   28.0820 C.3       1 GLN         0.1330
     73 C          -5.6630  -21.0590   26.7390 C.2       1 GLN         0.2035
     74 O          -6.8900  -21.1300   26.6860 O.2       1 GLN        -0.3944
     75 CB         -4.8220  -22.2520   28.7660 C.3       1 GLN         0.0045
     76 CG         -3.8830  -22.2750   29.9740 C.3       1 GLN         0.0412
     77 CD         -3.8670  -23.6250   30.6720 C.2       1 GLN         0.1737
     78 OE1        -3.5870  -24.6510   30.0540 O.2       1 GLN        -0.3973
     79 NE2        -4.1630  -23.6280   31.9670 N.am      1 GLN        -0.3009
     80 N          -4.8830  -21.1080   25.6600 N.am      1 LEU        -0.2695
     81 CA         -5.4310  -21.2760   24.3130 C.3       1 LEU         0.0946
     82 C          -6.0390  -22.6660   24.0500 C.2       1 LEU         0.0601
     83 O          -6.8900  -22.7560   23.1400 O.co2     1 LEU        -0.5666
     84 CB         -4.3790  -20.9450   23.2430 C.3       1 LEU        -0.0156
     85 CG         -3.8030  -19.5220   23.1600 C.3       1 LEU        -0.0431
     86 CD1        -2.6820  -19.5000   22.1470 C.3       1 LEU        -0.0625
     87 CD2        -4.8360  -18.4840   22.8030 C.3       1 LEU        -0.0625
     88 OXT        -5.6980  -23.6360   24.7750 O.co2     1 LEU        -0.5666
     89 H1          1.4436   -0.7562   35.8781 H         1 LYS         0.2015
     90 H2          0.0316   -1.0835   35.0979 H         1 LYS         0.2015
     91 H3          1.4644   -1.5555   34.4393 H         1 LYS         0.2015
     92 H4          1.8778   -3.0992   36.2166 H         1 LYS         0.1098
     93 H5         -0.8969   -2.2455   37.1705 H         1 LYS         0.0346
     94 H6          0.6542   -1.7674   37.9401 H         1 LYS         0.0346
     95 H7          1.0126   -4.4059   38.0400 H         1 LYS         0.0270
     96 H8         -0.7812   -4.4148   37.9464 H         1 LYS         0.0270
     97 H9          0.7155   -2.7434   39.9939 H         1 LYS         0.0317
     98 H10         0.3235   -4.4731   40.2782 H         1 LYS         0.0317
     99 H11        -1.6477   -2.2214   39.7257 H         1 LYS         0.0813
    100 H12        -1.3274   -3.0031   41.3110 H         1 LYS         0.0813
    101 H13        -3.3341   -3.7832   40.3141 H         1 LYS         0.1994
    102 H14        -2.2473   -5.0150   40.4198 H         1 LYS         0.1994
    103 H15        -2.5408   -4.2987   38.9671 H         1 LYS         0.1994
    104 H16         1.4527   -5.1571   35.6819 H         1 MET         0.1884
    105 H17        -0.1444   -5.6897   33.3459 H         1 MET         0.0800
    106 H18         0.4166   -8.1057   33.8740 H         1 MET         0.0320
    107 H19         1.3002   -7.5010   35.3163 H         1 MET         0.0320
    108 H20         2.9086   -6.3862   33.9668 H         1 MET         0.0378
    109 H21         1.9456   -6.6635   32.4760 H         1 MET         0.0378
    110 H22         4.1692   -9.8758   34.7822 H         1 MET         0.0340
    111 H23         2.7445   -8.9927   35.4279 H         1 MET         0.0340
    112 H24         4.2654   -8.1057   35.0722 H         1 MET         0.0340
    113 H25        -1.7486   -7.3034   33.1566 H         1 ASP         0.1884
    114 H26        -3.9993   -7.0199   34.9237 H         1 ASP         0.0819
    115 H27        -3.5924   -9.3068   32.9497 H         1 ASP         0.0478
    116 H28        -3.8686   -7.6302   32.3670 H         1 ASP         0.0478
    117 H29        -4.4693   -8.1427   36.6933 H         1 SEP         0.1884
    118 H30        -2.6189  -10.2152   37.5689 H         1 SEP         0.0827
    119 H31        -4.1753  -10.0958   39.6825 H         1 SEP         0.0662
    120 H32        -4.7664   -8.5862   38.9090 H         1 SEP         0.0662
    121 H33        -5.2689  -10.3479   35.6534 H         1 PHE         0.1885
    122 H34        -6.3096  -12.9437   36.6382 H         1 PHE         0.0823
    123 H35        -6.9892  -11.4062   34.0862 H         1 PHE         0.0474
    124 H36        -7.8602  -11.2364   35.6480 H         1 PHE         0.0474
    125 H37        -8.7876  -13.5057   36.6661 H         1 PHE         0.0557
    126 H38        -7.7821  -12.9344   32.5234 H         1 PHE         0.0557
    127 H39       -10.1651  -15.5033   36.0713 H         1 PHE         0.0599
    128 H40        -9.1543  -14.9243   31.8972 H         1 PHE         0.0599
    129 H41       -10.3504  -16.2232   33.6740 H         1 PHE         0.0559
    130 H42        -5.0608  -14.6204   36.2465 H         1 LEU         0.1883
    131 H43        -3.3273  -14.6638   33.8357 H         1 LEU         0.0800
    132 H44        -1.8013  -16.0208   35.0643 H         1 LEU         0.0315
    133 H45        -3.0080  -16.3269   36.3593 H         1 LEU         0.0315
    134 H46        -2.7875  -13.9108   37.0088 H         1 LEU         0.0298
    135 H47        -0.6472  -14.2352   38.1931 H         1 LEU         0.0232
    136 H48        -0.2816  -15.6408   37.1362 H         1 LEU         0.0232
    137 H49        -1.6851  -15.6999   38.2558 H         1 LEU         0.0232
    138 H50        -1.8998  -13.0979   34.8564 H         1 LEU         0.0232
    139 H51        -0.3842  -14.0195   35.1396 H         1 LEU         0.0232
    140 H52        -0.8312  -12.6675   36.2346 H         1 LEU         0.0232
    141 H53        -6.1070  -16.1703   35.0027 H         1 ASP         0.1884
    142 H54        -5.4331  -18.8395   34.0424 H         1 ASP         0.0819
    143 H55        -7.6946  -19.4688   34.7733 H         1 ASP         0.0478
    144 H56        -8.0781  -17.7424   35.0877 H         1 ASP         0.0478
    145 H57        -4.9185  -17.9420   31.8971 H         1 MET         0.1883
    146 H58        -7.2291  -18.3053   30.0524 H         1 MET         0.0800
    147 H59        -5.8032  -16.6303   28.5700 H         1 MET         0.0320
    148 H60        -5.1987  -16.0717   30.1667 H         1 MET         0.0320
    149 H61        -7.4990  -15.5721   30.8356 H         1 MET         0.0378
    150 H62        -8.0620  -16.0706   29.2042 H         1 MET         0.0378
    151 H63        -5.5650  -12.3950   30.3569 H         1 MET         0.0340
    152 H64        -5.0489  -14.0697   30.7514 H         1 MET         0.0340
    153 H65        -6.5766  -13.4163   31.4340 H         1 MET         0.0340
    154 H66        -6.7101  -20.1997   29.0983 H         1 GLN         0.1883
    155 H67        -3.9637  -20.4628   27.9242 H         1 GLN         0.0801
    156 H68        -4.4399  -22.9680   28.0235 H         1 GLN         0.0337
    157 H69        -5.8193  -22.5706   29.1033 H         1 GLN         0.0337
    158 H70        -4.2132  -21.5102   30.6924 H         1 GLN         0.0504
    159 H71        -2.8635  -22.0419   29.6330 H         1 GLN         0.0504
    160 H72        -4.1677  -24.4883   32.4768 H         1 GLN         0.1814
    161 H73        -4.3811  -22.7700   32.4320 H         1 GLN         0.1814
    162 H74        -3.8928  -21.0275   25.7738 H         1 LEU         0.1875
    163 H75        -6.2473  -20.5459   24.2104 H         1 LEU         0.0726
    164 H76        -4.8370  -21.1618   22.2667 H         1 LEU         0.0308
    165 H77        -3.5298  -21.6243   23.4087 H         1 LEU         0.0308
    166 H78        -3.3914  -19.2633   24.1468 H         1 LEU         0.0297
    167 H79        -2.2655  -18.4839   22.0830 H         1 LEU         0.0232
    168 H80        -3.0713  -19.7993   21.1627 H         1 LEU         0.0232
    169 H81        -1.8931  -20.2007   22.4578 H         1 LEU         0.0232
    170 H82        -5.6486  -18.5055   23.5441 H         1 LEU         0.0232
    171 H83        -5.2442  -18.7010   21.8049 H         1 LEU         0.0232
    172 H84        -4.3691  -17.4880   22.7996 H         1 LEU         0.0232
@<TRIPOS>BOND
     1    1    2 1  
     2    2    3 1  
     3    2    5 1  
     4    3    4 2  
     5    3   10 am 
     6    5    6 1  
     7    6    7 1  
     8    7    8 1  
     9    8    9 1  
    10   10   11 1  
    11   11   12 1  
    12   11   14 1  
    13   12   13 2  
    14   12   18 am 
    15   14   15 1  
    16   15   16 1  
    17   16   17 1  
    18   18   19 1  
    19   19   20 1  
    20   19   22 1  
    21   20   21 2  
    22   20   26 am 
    23   22   23 1  
    24   23   24 ar 
    25   23   25 ar 
    26   26   27 1  
    27   27   28 1  
    28   27   30 1  
    29   28   29 1  
    30   29   32 1  
    31   30   31 2  
    32   30   36 am 
    33   32   33 ar 
    34   32   34 ar 
    35   32   35 ar 
    36   36   37 1  
    37   37   38 1  
    38   37   40 1  
    39   38   39 2  
    40   38   47 am 
    41   40   41 1  
    42   41   42 ar 
    43   41   43 ar 
    44   42   44 ar 
    45   43   45 ar 
    46   44   46 ar 
    47   45   46 ar 
    48   47   48 1  
    49   48   49 1  
    50   48   51 1  
    51   49   50 2  
    52   49   55 am 
    53   51   52 1  
    54   52   53 1  
    55   52   54 1  
    56   55   56 1  
    57   56   57 1  
    58   56   59 1  
    59   57   58 2  
    60   57   63 am 
    61   59   60 1  
    62   60   61 ar 
    63   60   62 ar 
    64   63   64 1  
    65   64   65 1  
    66   64   67 1  
    67   65   66 2  
    68   65   71 am 
    69   67   68 1  
    70   68   69 1  
    71   69   70 1  
    72   71   72 1  
    73   72   73 1  
    74   72   75 1  
    75   73   74 2  
    76   73   80 am 
    77   75   76 1  
    78   76   77 1  
    79   77   78 2  
    80   77   79 am 
    81   80   81 1  
    82   81   82 1  
    83   81   84 1  
    84   82   83 ar 
    85   82   88 ar 
    86   84   85 1  
    87   85   86 1  
    88   85   87 1  
    89    1   89 1  
    90    1   90 1  
    91    1   91 1  
    92    2   92 1  
    93    5   93 1  
    94    5   94 1  
    95    6   95 1  
    96    6   96 1  
    97    7   97 1  
    98    7   98 1  
    99    8   99 1  
   100    8  100 1  
   101    9  101 1  
   102    9  102 1  
   103    9  103 1  
   104   10  104 1  
   105   11  105 1  
   106   14  106 1  
   107   14  107 1  
   108   15  108 1  
   109   15  109 1  
   110   17  110 1  
   111   17  111 1  
   112   17  112 1  
   113   18  113 1  
   114   19  114 1  
   115   22  115 1  
   116   22  116 1  
   117   26  117 1  
   118   27  118 1  
   119   28  119 1  
   120   28  120 1  
   121   36  121 1  
   122   37  122 1  
   123   40  123 1  
   124   40  124 1  
   125   42  125 1  
   126   43  126 1  
   127   44  127 1  
   128   45  128 1  
   129   46  129 1  
   130   47  130 1  
   131   48  131 1  
   132   51  132 1  
   133   51  133 1  
   134   52  134 1  
   135   53  135 1  
   136   53  136 1  
   137   53  137 1  
   138   54  138 1  
   139   54  139 1  
   140   54  140 1  
   141   55  141 1  
   142   56  142 1  
   143   59  143 1  
   144   59  144 1  
   145   63  145 1  
   146   64  146 1  
   147   67  147 1  
   148   67  148 1  
   149   68  149 1  
   150   68  150 1  
   151   70  151 1  
   152   70  152 1  
   153   70  153 1  
   154   71  154 1  
   155   72  155 1  
   156   75  156 1  
   157   75  157 1  
   158   76  158 1  
   159   76  159 1  
   160   79  160 1  
   161   79  161 1  
   162   80  162 1  
   163   81  163 1  
   164   84  164 1  
   165   84  165 1  
   166   85  166 1  
   167   86  167 1  
   168   86  168 1  
   169   86  169 1  
   170   87  170 1  
   171   87  171 1  
   172   87  172 1  
@<TRIPOS>SUBSTRUCTURE
     1 LYS         1

