3bhb_ligand
  -I-interpret- 

177177  0  0  0  0  0  0  0  0999 V2000
    0.9580   -1.4250   35.3010 N   0  3  0  0  0
    0.8610   -2.7270   36.0230 C   0  0  0  0  0
    0.1270   -3.7370   35.1500 C   0  0  0  0  0
   -0.8600   -3.3980   34.4940 O   0  0  0  0  0
    0.1390   -2.5560   37.3720 C   0  0  0  0  0
    0.1000   -3.8250   38.2390 C   0  0  0  0  0
    0.0200   -3.5590   39.7470 C   0  0  0  0  0
   -1.3770   -3.1640   40.2240 C   0  0  0  0  0
   -2.4620   -4.1440   39.9600 N   0  3  0  0  0
    0.6340   -4.9700   35.1390 N   0  0  0  0  0
    0.0410   -6.0600   34.3650 C   0  0  0  0  0
   -1.2780   -6.5430   34.9540 C   0  0  0  0  0
   -1.5640   -6.3350   36.1410 O   0  0  0  0  0
    0.9830   -7.2600   34.2910 C   0  0  0  0  0
    2.2290   -7.0820   33.4530 C   0  0  0  0  0
    3.0800   -8.6450   33.1940 S   0  0  0  0  0
    3.6100   -8.9290   34.7520 C   0  0  0  0  0
   -2.0640   -7.2010   34.1000 N   0  0  0  0  0
   -3.3580   -7.7820   34.4570 C   0  0  0  0  0
   -3.0960   -8.9140   35.4350 C   0  0  0  0  0
   -2.2440   -9.7690   35.1850 O   0  0  0  0  0
   -4.0440   -8.3340   33.1940 C   0  0  0  0  0
   -5.5570   -8.5280   33.3530 C   0  0  0  0  0
   -6.0750   -8.6000   34.4940 O   0  0  0  0  0
   -6.2390   -8.5860   32.3050 O   0  0  0  0  0
   -3.8150   -8.8860   36.5540 N   0  0  0  0  0
   -3.6750   -9.9080   37.5810 C   0  0  0  0  0
   -3.9320   -9.3010   38.9620 C   0  0  0  0  0
   -2.7430   -8.6310   39.3610 O   0  0  0  0  0
   -4.4800  -11.1880   37.3080 C   0  0  0  0  0
   -4.3670  -12.1710   38.0460 O   0  0  0  0  0
   -2.9680   -7.6220   40.5990 P   0  0  0  0  0
   -4.0380   -6.4880   40.1960 O   0  0  0  0  0
   -1.5630   -6.9230   40.9650 O   0  0  0  0  0
   -3.5080   -8.4400   41.8750 O   0  0  0  0  0
   -5.2350  -11.1820   36.2040 N   0  0  0  0  0
   -6.0160  -12.3440   35.7640 C   0  0  0  0  0
   -5.0790  -13.1640   34.8640 C   0  0  0  0  0
   -4.7150  -12.7380   33.7630 O   0  0  0  0  0
   -7.2880  -11.9250   35.0090 C   0  0  0  0  0
   -8.1830  -13.0850   34.6360 C   0  0  0  0  0
   -8.8640  -13.8150   35.6300 C   0  0  0  0  0
   -8.2980  -13.4930   33.2960 C   0  0  0  0  0
   -9.6490  -14.9500   35.2950 C   0  0  0  0  0
   -9.0780  -14.6240   32.9360 C   0  0  0  0  0
   -9.7550  -15.3570   33.9390 C   0  0  0  0  0
   -4.6900  -14.3340   35.3630 N   0  0  0  0  0
   -3.7480  -15.2220   34.6850 C   0  0  0  0  0
   -4.3230  -16.5230   34.1340 C   0  0  0  0  0
   -3.6250  -17.2400   33.4190 O   0  0  0  0  0
   -2.6100  -15.5750   35.6620 C   0  0  0  0  0
   -1.9770  -14.4660   36.5140 C   0  0  0  0  0
   -1.0860  -15.0510   37.6000 C   0  0  0  0  0
   -1.2210  -13.4960   35.6250 C   0  0  0  0  0
   -5.5810  -16.8210   34.4550 N   0  0  0  0  0
   -6.2210  -18.0720   34.0320 C   0  0  0  0  0
   -6.7930  -18.0760   32.6040 C   0  0  0  0  0
   -8.0090  -18.1820   32.3980 O   0  0  0  0  0
   -7.2770  -18.4960   35.0720 C   0  0  0  0  0
   -6.6980  -18.6240   36.4810 C   0  0  0  0  0
   -5.5890  -19.1890   36.6410 O   0  0  0  0  0
   -7.3490  -18.1440   37.4320 O   0  0  0  0  0
   -5.8810  -17.9900   31.6300 N   0  0  0  0  0
   -6.1940  -17.9610   30.1940 C   0  0  0  0  0
   -5.2490  -18.8440   29.3850 C   0  0  0  0  0
   -4.0890  -18.4880   29.1780 O   0  0  0  0  0
   -6.0400  -16.5470   29.6410 C   0  0  0  0  0
   -7.2190  -15.6540   29.7750 C   0  0  0  0  0
   -6.8090  -14.0290   29.1370 S   0  0  0  0  0
   -5.9140  -13.4190   30.5560 C   0  0  0  0  0
   -5.7570  -19.9720   28.8990 N   0  0  0  0  0
   -4.9650  -20.8900   28.0820 C   0  0  0  0  0
   -5.6630  -21.0590   26.7390 C   0  0  0  0  0
   -6.8900  -21.1300   26.6860 O   0  0  0  0  0
   -4.8220  -22.2520   28.7660 C   0  0  0  0  0
   -3.8830  -22.2750   29.9740 C   0  0  0  0  0
   -3.8670  -23.6250   30.6720 C   0  0  0  0  0
   -3.5870  -24.6510   30.0540 O   0  0  0  0  0
   -4.1630  -23.6280   31.9670 N   0  0  0  0  0
   -4.8830  -21.1080   25.6600 N   0  0  0  0  0
   -5.4310  -21.2760   24.3130 C   0  0  0  0  0
   -6.0390  -22.6660   24.0500 C   0  0  0  0  0
   -6.8900  -22.7560   23.1400 O   0  0  0  0  0
   -4.3790  -20.9450   23.2430 C   0  0  0  0  0
   -3.8030  -19.5220   23.1600 C   0  0  0  0  0
   -2.6820  -19.5000   22.1470 C   0  0  0  0  0
   -4.8360  -18.4840   22.8030 C   0  0  0  0  0
   -5.6980  -23.6360   24.7750 O   0  0  0  0  0
    1.4392   -1.5652   34.4126 H   0  0  0  0  0
    0.0203   -1.0630   35.1277 H   0  0  0  0  0
    1.4806   -0.7597   35.8708 H   0  0  0  0  0
    1.8675   -3.0915   36.2284 H   0  0  0  0  0
   -0.8943   -2.2896   37.1495 H   0  0  0  0  0
    0.6887   -1.8016   37.9349 H   0  0  0  0  0
    1.0295   -4.3649   38.0581 H   0  0  0  0  0
   -0.8002   -4.3739   37.9626 H   0  0  0  0  0
    0.6888   -2.7273   39.9685 H   0  0  0  0  0
    0.2908   -4.4834   40.2572 H   0  0  0  0  0
   -1.6422   -2.2609   39.6742 H   0  0  0  0  0
   -1.3122   -3.0663   41.3077 H   0  0  0  0  0
   -3.3439   -3.7779   40.3187 H   0  0  0  0  0
   -2.5408   -4.2997   38.9550 H   0  0  0  0  0
   -2.2436   -5.0248   40.4257 H   0  0  0  0  0
    1.4691   -5.1608   35.6927 H   0  0  0  0  0
   -0.1381   -5.6504   33.3709 H   0  0  0  0  0
    0.4147   -8.0640   33.8233 H   0  0  0  0  0
    1.3254   -7.4407   35.3099 H   0  0  0  0  0
    2.9034   -6.4051   33.9774 H   0  0  0  0  0
    1.9370   -6.6833   32.4815 H   0  0  0  0  0
    4.2593   -8.1125   35.0680 H   0  0  0  0  0
    2.7515   -8.9919   35.4207 H   0  0  0  0  0
    4.1639   -9.8673   34.7806 H   0  0  0  0  0
   -1.7423   -7.3054   33.1377 H   0  0  0  0  0
   -4.0085   -7.0304   34.9042 H   0  0  0  0  0
   -3.6089   -9.3116   32.9862 H   0  0  0  0  0
   -3.8894   -7.6093   32.3946 H   0  0  0  0  0
   -5.3875   -8.5359   35.1609 H   0  0  0  0  0
   -4.4824   -8.1279   36.6961 H   0  0  0  0  0
   -2.6424  -10.2562   37.5558 H   0  0  0  0  0
   -4.1901  -10.0801   39.6793 H   0  0  0  0  0
   -4.7684   -8.6032   38.9225 H   0  0  0  0  0
   -3.7147   -6.0007   39.4347 H   0  0  0  0  0
   -1.2415   -6.4352   40.2032 H   0  0  0  0  0
   -5.2695  -10.3312   35.6424 H   0  0  0  0  0
   -6.3617  -12.9269   36.6177 H   0  0  0  0  0
   -6.9738  -11.4446   34.0824 H   0  0  0  0  0
   -7.8588  -11.2720   35.6692 H   0  0  0  0  0
   -8.7872  -13.5040   36.6719 H   0  0  0  0  0
   -7.7793  -12.9314   32.5191 H   0  0  0  0  0
  -10.1679  -15.5063   36.0756 H   0  0  0  0  0
   -9.1547  -14.9260   31.8915 H   0  0  0  0  0
  -10.3537  -16.2280   33.6726 H   0  0  0  0  0
   -5.0682  -14.6261   36.2641 H   0  0  0  0  0
   -3.4130  -14.6605   33.8129 H   0  0  0  0  0
   -1.8000  -15.9332   35.0266 H   0  0  0  0  0
   -3.0644  -16.2540   36.3835 H   0  0  0  0  0
   -2.7698  -13.9137   37.0185 H   0  0  0  0  0
   -1.6808  -15.6937   38.2490 H   0  0  0  0  0
   -0.2895  -15.6351   37.1391 H   0  0  0  0  0
   -0.6518  -14.2417   38.1870 H   0  0  0  0  0
   -0.4358  -14.0311   35.0909 H   0  0  0  0  0
   -1.9102  -13.0493   34.9084 H   0  0  0  0  0
   -0.7759  -12.7134   36.2394 H   0  0  0  0  0
   -6.1175  -16.1573   35.0136 H   0  0  0  0  0
   -5.4219  -18.8120   33.9875 H   0  0  0  0  0
   -7.6631  -19.4722   34.7785 H   0  0  0  0  0
   -8.0504  -17.7283   35.0961 H   0  0  0  0  0
   -5.2567  -19.4858   35.7907 H   0  0  0  0  0
   -4.8993  -17.9411   31.9025 H   0  0  0  0  0
   -7.2186  -18.3211   30.1016 H   0  0  0  0  0
   -5.8641  -16.6578   28.5710 H   0  0  0  0  0
   -5.2406  -16.0817   30.2177 H   0  0  0  0  0
   -7.4976  -15.5734   30.8257 H   0  0  0  0  0
   -8.0550  -16.0669   29.2104 H   0  0  0  0  0
   -6.5716  -13.4168   31.4253 H   0  0  0  0  0
   -5.0572  -14.0646   30.7486 H   0  0  0  0  0
   -5.5687  -12.4044   30.3575 H   0  0  0  0  0
   -6.7292  -20.2043   29.1023 H   0  0  0  0  0
   -3.9648  -20.4787   27.9454 H   0  0  0  0  0
   -4.3994  -22.9322   28.0265 H   0  0  0  0  0
   -5.8117  -22.5252   29.1320 H   0  0  0  0  0
   -4.2352  -21.5309   30.6884 H   0  0  0  0  0
   -2.8734  -22.0673   29.6195 H   0  0  0  0  0
   -4.1638  -24.5049   32.4879 H   0  0  0  0  0
   -4.3895  -22.7534   32.4404 H   0  0  0  0  0
   -3.8730  -21.0259   25.7761 H   0  0  0  0  0
   -6.2550  -20.5656   24.2472 H   0  0  0  0  0
   -4.8955  -21.0895   22.2941 H   0  0  0  0  0
   -3.5247  -21.5746   23.4918 H   0  0  0  0  0
   -3.4331  -19.2634   24.1522 H   0  0  0  0  0
   -1.9010  -20.1947   22.4561 H   0  0  0  0  0
   -3.0690  -19.7968   21.1722 H   0  0  0  0  0
   -2.2702  -18.4927   22.0845 H   0  0  0  0  0
   -5.2681  -18.7225   21.8311 H   0  0  0  0  0
   -5.6207  -18.4790   23.5595 H   0  0  0  0  0
   -4.3636  -17.5026   22.7611 H   0  0  0  0  0
   -5.0347  -23.3454   25.4053 H   0  0  0  0  0
  1  2  1  0  0  0
  2  3  1  0  0  0
  2  5  1  0  0  0
  3  4  2  0  0  0
  3 10  1  0  0  0
  5  6  1  0  0  0
  6  7  1  0  0  0
  7  8  1  0  0  0
  8  9  1  0  0  0
 10 11  1  0  0  0
 11 12  1  0  0  0
 11 14  1  0  0  0
 12 13  2  0  0  0
 12 18  1  0  0  0
 14 15  1  0  0  0
 15 16  1  0  0  0
 16 17  1  0  0  0
 18 19  1  0  0  0
 19 20  1  0  0  0
 19 22  1  0  0  0
 20 21  2  0  0  0
 20 26  1  0  0  0
 22 23  1  0  0  0
 23 24  1  0  0  0
 23 25  2  0  0  0
 26 27  1  0  0  0
 27 28  1  0  0  0
 27 30  1  0  0  0
 28 29  1  0  0  0
 29 32  1  0  0  0
 30 31  2  0  0  0
 30 36  1  0  0  0
 32 33  1  0  0  0
 32 34  1  0  0  0
 32 35  2  0  0  0
 36 37  1  0  0  0
 37 38  1  0  0  0
 37 40  1  0  0  0
 38 39  2  0  0  0
 38 47  1  0  0  0
 40 41  1  0  0  0
 41 42  4  0  0  0
 41 43  4  0  0  0
 42 44  4  0  0  0
 43 45  4  0  0  0
 44 46  4  0  0  0
 45 46  4  0  0  0
 47 48  1  0  0  0
 48 49  1  0  0  0
 48 51  1  0  0  0
 49 50  2  0  0  0
 49 55  1  0  0  0
 51 52  1  0  0  0
 52 53  1  0  0  0
 52 54  1  0  0  0
 55 56  1  0  0  0
 56 57  1  0  0  0
 56 59  1  0  0  0
 57 58  2  0  0  0
 57 63  1  0  0  0
 59 60  1  0  0  0
 60 61  1  0  0  0
 60 62  2  0  0  0
 63 64  1  0  0  0
 64 65  1  0  0  0
 64 67  1  0  0  0
 65 66  2  0  0  0
 65 71  1  0  0  0
 67 68  1  0  0  0
 68 69  1  0  0  0
 69 70  1  0  0  0
 71 72  1  0  0  0
 72 73  1  0  0  0
 72 75  1  0  0  0
 73 74  2  0  0  0
 73 80  1  0  0  0
 75 76  1  0  0  0
 76 77  1  0  0  0
 77 78  2  0  0  0
 77 79  1  0  0  0
 80 81  1  0  0  0
 81 82  1  0  0  0
 81 84  1  0  0  0
 82 83  2  0  0  0
 82 88  1  0  0  0
 84 85  1  0  0  0
 85 86  1  0  0  0
 85 87  1  0  0  0
  1 89  1  0  0  0
  1 90  1  0  0  0
  1 91  1  0  0  0
  2 92  1  0  0  0
  5 93  1  0  0  0
  5 94  1  0  0  0
  6 95  1  0  0  0
  6 96  1  0  0  0
  7 97  1  0  0  0
  7 98  1  0  0  0
  8 99  1  0  0  0
  8100  1  0  0  0
  9101  1  0  0  0
  9102  1  0  0  0
  9103  1  0  0  0
 10104  1  0  0  0
 11105  1  0  0  0
 14106  1  0  0  0
 14107  1  0  0  0
 15108  1  0  0  0
 15109  1  0  0  0
 17110  1  0  0  0
 17111  1  0  0  0
 17112  1  0  0  0
 18113  1  0  0  0
 19114  1  0  0  0
 22115  1  0  0  0
 22116  1  0  0  0
 24117  1  0  0  0
 26118  1  0  0  0
 27119  1  0  0  0
 28120  1  0  0  0
 28121  1  0  0  0
 33122  1  0  0  0
 34123  1  0  0  0
 36124  1  0  0  0
 37125  1  0  0  0
 40126  1  0  0  0
 40127  1  0  0  0
 42128  1  0  0  0
 43129  1  0  0  0
 44130  1  0  0  0
 45131  1  0  0  0
 46132  1  0  0  0
 47133  1  0  0  0
 48134  1  0  0  0
 51135  1  0  0  0
 51136  1  0  0  0
 52137  1  0  0  0
 53138  1  0  0  0
 53139  1  0  0  0
 53140  1  0  0  0
 54141  1  0  0  0
 54142  1  0  0  0
 54143  1  0  0  0
 55144  1  0  0  0
 56145  1  0  0  0
 59146  1  0  0  0
 59147  1  0  0  0
 61148  1  0  0  0
 63149  1  0  0  0
 64150  1  0  0  0
 67151  1  0  0  0
 67152  1  0  0  0
 68153  1  0  0  0
 68154  1  0  0  0
 70155  1  0  0  0
 70156  1  0  0  0
 70157  1  0  0  0
 71158  1  0  0  0
 72159  1  0  0  0
 75160  1  0  0  0
 75161  1  0  0  0
 76162  1  0  0  0
 76163  1  0  0  0
 79164  1  0  0  0
 79165  1  0  0  0
 80166  1  0  0  0
 81167  1  0  0  0
 84168  1  0  0  0
 84169  1  0  0  0
 85170  1  0  0  0
 86171  1  0  0  0
 86172  1  0  0  0
 86173  1  0  0  0
 87174  1  0  0  0
 87175  1  0  0  0
 87176  1  0  0  0
 88177  1  0  0  0
M  END
$$$$
