4qsu_ligand
  -I-interpret- 

 15 15  0  0  0  0  0  0  0  0999 V2000
   26.9440   45.8230  -10.8790 N   0  0  0  0  0
   27.1450   44.8740  -11.8150 C   0  0  0  0  0
   28.2230   44.7540  -12.4420 O   0  0  0  0  0
   26.2140   43.9550  -12.1000 N   0  0  0  0  0
   25.0170   43.9480  -11.4890 C   0  0  0  0  0
   24.2220   43.0670  -11.8770 O   0  0  0  0  0
   24.7380   44.9880  -10.4570 C   0  0  0  0  0
   23.4320   45.0580   -9.6950 C   0  0  0  0  0
   25.7650   45.9180  -10.2040 C   0  0  0  0  0
   26.4186   43.2413  -12.7994 H   0  0  0  0  0
   23.6781   44.8044  -10.2807 H   0  0  0  0  0
   23.6282   44.9432   -8.6290 H   0  0  0  0  0
   22.9581   46.0226   -9.8767 H   0  0  0  0  0
   22.7726   44.2584  -10.0326 H   0  0  0  0  0
   25.6167   46.7108   -9.4707 H   0  0  0  0  0
  1  2  1  0  0  0
  1  9  2  0  0  0
  2  3  2  0  0  0
  2  4  1  0  0  0
  4  5  1  0  0  0
  5  6  2  0  0  0
  5  7  1  0  0  0
  7  8  1  0  0  0
  7  9  1  0  0  0
  4 10  1  0  0  0
  7 11  1  0  0  0
  8 12  1  0  0  0
  8 13  1  0  0  0
  8 14  1  0  0  0
  9 15  1  0  0  0
M  END
$$$$
