4nvp_ligand
  -I-interpret- 

 35 38  0  0  0  0  0  0  0  0999 V2000
    3.7850   23.2470   15.3670 O   0  0  0  0  0
    4.2520   21.8200   15.4660 P   0  0  0  0  0
    5.0180   21.3400   16.6610 O   0  0  0  0  0
    3.0030   20.8260   15.1970 O   0  0  0  0  0
    3.4550   19.4980   15.1010 C   0  0  0  0  0
    4.4210   19.3640   13.9480 C   0  0  0  0  0
    5.6810   20.1920   14.0080 C   0  0  0  0  0
    5.2200   21.5280   14.1900 O   0  0  0  0  0
    2.4360   18.4390   14.7600 C   0  0  0  0  0
    1.4790   18.9480   13.8160 O   0  0  0  0  0
    3.3230   17.3880   14.1300 C   0  0  0  0  0
    4.6270   17.9590   14.0030 O   0  0  0  0  0
    3.4120   16.1800   14.9550 N   0  0  0  0  0
    2.8140   15.0460   14.6490 C   0  0  0  0  0
    3.1590   14.0930   15.7000 C   0  0  0  0  0
    3.9900   14.7140   16.5500 C   0  0  0  0  0
    4.1360   15.9890   16.0850 C   0  0  0  0  0
    2.0330   14.6630   13.6320 N   0  0  0  0  0
    1.5070   13.4200   13.5920 C   0  0  0  0  0
    1.7650   12.4710   14.5130 N   0  0  0  0  0
    2.5560   12.7310   15.5810 C   0  0  0  0  0
    2.8250   11.7690   16.5200 N   0  0  0  0  0
    3.3148   23.3720   14.5394 H   0  0  0  0  0
    3.8444   19.3304   16.1052 H   0  0  0  0  0
    4.0400   19.7572   13.0055 H   0  0  0  0  0
    6.2832   20.0864   13.1056 H   0  0  0  0  0
    6.3416   19.8738   14.8145 H   0  0  0  0  0
    1.8438   18.0800   15.6018 H   0  0  0  0  0
    0.9317   19.6112   14.2429 H   0  0  0  0  0
    2.9047   17.0959   13.1668 H   0  0  0  0  0
    4.4566   14.2853   17.4369 H   0  0  0  0  0
    4.7529   16.7523   16.5593 H   0  0  0  0  0
    0.8368   13.1706   12.7694 H   0  0  0  0  0
    3.4400   11.9810   17.3057 H   0  0  0  0  0
    2.4102   10.8412   16.4330 H   0  0  0  0  0
  1  2  1  0  0  0
  2  3  2  0  0  0
  2  4  1  0  0  0
  2  8  1  0  0  0
  4  5  1  0  0  0
  5  6  1  0  0  0
  5  9  1  0  0  0
  6  7  1  0  0  0
  6 12  1  0  0  0
  7  8  1  0  0  0
  9 10  1  0  0  0
  9 11  1  0  0  0
 11 12  1  0  0  0
 11 13  1  0  0  0
 13 14  4  0  0  0
 13 17  4  0  0  0
 14 15  4  0  0  0
 14 18  4  0  0  0
 15 16  4  0  0  0
 15 21  4  0  0  0
 16 17  4  0  0  0
 18 19  4  0  0  0
 19 20  4  0  0  0
 20 21  4  0  0  0
 21 22  1  0  0  0
  1 23  1  0  0  0
  5 24  1  0  0  0
  6 25  1  0  0  0
  7 26  1  0  0  0
  7 27  1  0  0  0
  9 28  1  0  0  0
 10 29  1  0  0  0
 11 30  1  0  0  0
 16 31  1  0  0  0
 17 32  1  0  0  0
 19 33  1  0  0  0
 22 34  1  0  0  0
 22 35  1  0  0  0
M  END
$$$$
