4ngs_ligand
  -I-interpret- 

 71 71  0  0  0  0  0  0  0  0999 V2000
  -24.1750  -18.4860  -36.0780 O   0  0  0  0  0
  -24.8100  -17.4890  -36.4230 C   0  0  0  0  0
  -25.8130  -17.5360  -37.3480 N   0  0  0  0  0
  -26.2890  -18.7620  -37.9830 C   0  0  0  0  0
  -27.8090  -18.9050  -37.8870 C   0  0  0  0  0
  -28.3000  -19.3610  -36.5170 C   0  0  0  0  0
  -29.8420  -19.2570  -36.5150 C   0  0  0  0  0
  -30.6940  -19.9410  -35.4000 C   0  0  0  0  0
  -32.0680  -19.6790  -35.7570 N   0  0  0  0  0
  -32.7970  -20.4700  -36.5570 C   0  0  0  0  0
  -32.3170  -21.4820  -37.0460 O   0  0  0  0  0
  -34.0680  -20.1460  -36.8200 N   0  0  0  0  0
  -34.6540  -20.6790  -38.0450 C   0  0  0  0  0
  -33.6880  -20.4610  -39.1980 C   0  0  0  0  0
  -33.8460  -21.3030  -40.2110 O   0  0  0  0  0
  -32.8000  -19.6120  -39.2540 O   0  0  0  0  0
  -35.9850  -19.9690  -38.4110 C   0  0  0  0  0
  -35.7310  -18.4430  -38.5370 C   0  0  0  0  0
  -36.8730  -17.7170  -39.1980 C   0  0  0  0  0
  -37.7140  -18.2470  -39.9580 O   0  0  0  0  0
  -36.9810  -16.4230  -39.0040 O   0  0  0  0  0
  -30.5100  -19.3580  -34.0160 C   0  0  0  0  0
  -30.0100  -20.0140  -33.0820 O   0  0  0  0  0
  -31.0630  -18.2070  -33.7730 O   0  0  0  0  0
  -24.5120  -16.2790  -35.9120 N   0  0  0  0  0
  -23.7890  -15.9890  -34.7880 C   0  0  0  0  0
  -23.9490  -14.7260  -34.1940 C   0  0  0  0  0
  -23.2420  -14.3800  -33.0450 C   0  0  0  0  0
  -22.3410  -15.2980  -32.5040 C   0  0  0  0  0
  -22.1540  -16.5600  -33.0980 C   0  0  0  0  0
  -22.8750  -16.9100  -34.2380 C   0  0  0  0  0
  -24.8390  -13.8220  -34.7070 O   0  0  0  0  0
  -24.4770  -12.8550  -35.6900 C   0  0  0  0  0
  -25.7420  -12.1900  -36.2300 C   0  0  0  0  0
  -25.4880  -11.4450  -37.4480 N   0  0  0  0  0
  -25.0110  -11.9350  -38.6110 C   0  0  0  0  0
  -25.4040  -12.9770  -39.2030 O   0  0  0  0  0
  -23.9270  -11.0390  -39.1600 C   0  0  0  0  0
  -26.2589  -16.6577  -37.6128 H   0  0  0  0  0
  -25.8341  -19.6097  -37.4706 H   0  0  0  0  0
  -26.0161  -18.7274  -39.0377 H   0  0  0  0  0
  -28.1100  -19.6641  -38.6090 H   0  0  0  0  0
  -28.2402  -17.9219  -38.0758 H   0  0  0  0  0
  -27.8756  -18.7340  -35.7329 H   0  0  0  0  0
  -27.9878  -20.3872  -36.3234 H   0  0  0  0  0
  -30.1422  -19.7702  -37.4286 H   0  0  0  0  0
  -30.0344  -18.1928  -36.3786 H   0  0  0  0  0
  -30.3975  -20.9888  -35.3512 H   0  0  0  0  0
  -32.5106  -18.8419  -35.3779 H   0  0  0  0  0
  -34.6054  -19.5506  -36.1898 H   0  0  0  0  0
  -34.8510  -21.7376  -37.8756 H   0  0  0  0  0
  -34.5732  -21.8997  -40.0192 H   0  0  0  0  0
  -36.7246  -20.1538  -37.6319 H   0  0  0  0  0
  -36.3584  -20.3573  -39.3586 H   0  0  0  0  0
  -34.8428  -18.3010  -39.1526 H   0  0  0  0  0
  -35.6143  -18.0388  -37.5315 H   0  0  0  0  0
  -36.2873  -16.1309  -38.4082 H   0  0  0  0  0
  -31.3968  -17.8343  -34.5923 H   0  0  0  0  0
  -24.8714  -15.4767  -36.4293 H   0  0  0  0  0
  -23.3902  -13.4074  -32.5757 H   0  0  0  0  0
  -21.7752  -15.0344  -31.6105 H   0  0  0  0  0
  -21.4439  -17.2650  -32.6656 H   0  0  0  0  0
  -22.7334  -17.8870  -34.7000 H   0  0  0  0  0
  -23.9441  -13.3441  -36.5055 H   0  0  0  0  0
  -23.8305  -12.1010  -35.2408 H   0  0  0  0  0
  -26.1093  -11.4941  -35.4757 H   0  0  0  0  0
  -26.4682  -12.9714  -36.4541 H   0  0  0  0  0
  -25.6913  -10.4458  -37.4228 H   0  0  0  0  0
  -23.0048  -11.6102  -39.2671 H   0  0  0  0  0
  -24.2330  -10.6549  -40.1331 H   0  0  0  0  0
  -23.7632  -10.2073  -38.4748 H   0  0  0  0  0
  1  2  2  0  0  0
  2  3  1  0  0  0
  2 25  1  0  0  0
  3  4  1  0  0  0
  4  5  1  0  0  0
  5  6  1  0  0  0
  6  7  1  0  0  0
  7  8  1  0  0  0
  8  9  1  0  0  0
  8 22  1  0  0  0
  9 10  1  0  0  0
 10 11  2  0  0  0
 10 12  1  0  0  0
 12 13  1  0  0  0
 13 14  1  0  0  0
 13 17  1  0  0  0
 14 15  1  0  0  0
 14 16  2  0  0  0
 17 18  1  0  0  0
 18 19  1  0  0  0
 19 20  2  0  0  0
 19 21  1  0  0  0
 22 23  2  0  0  0
 22 24  1  0  0  0
 25 26  1  0  0  0
 26 27  4  0  0  0
 26 31  4  0  0  0
 27 28  4  0  0  0
 27 32  1  0  0  0
 28 29  4  0  0  0
 29 30  4  0  0  0
 30 31  4  0  0  0
 32 33  1  0  0  0
 33 34  1  0  0  0
 34 35  1  0  0  0
 35 36  1  0  0  0
 36 37  2  0  0  0
 36 38  1  0  0  0
  3 39  1  0  0  0
  4 40  1  0  0  0
  4 41  1  0  0  0
  5 42  1  0  0  0
  5 43  1  0  0  0
  6 44  1  0  0  0
  6 45  1  0  0  0
  7 46  1  0  0  0
  7 47  1  0  0  0
  8 48  1  0  0  0
  9 49  1  0  0  0
 12 50  1  0  0  0
 13 51  1  0  0  0
 15 52  1  0  0  0
 17 53  1  0  0  0
 17 54  1  0  0  0
 18 55  1  0  0  0
 18 56  1  0  0  0
 21 57  1  0  0  0
 24 58  1  0  0  0
 25 59  1  0  0  0
 28 60  1  0  0  0
 29 61  1  0  0  0
 30 62  1  0  0  0
 31 63  1  0  0  0
 33 64  1  0  0  0
 33 65  1  0  0  0
 34 66  1  0  0  0
 34 67  1  0  0  0
 35 68  1  0  0  0
 38 69  1  0  0  0
 38 70  1  0  0  0
 38 71  1  0  0  0
M  END
$$$$
