3zxe_ligand
  -I-interpret- 

 61 63  0  0  0  0  0  0  0  0999 V2000
   -7.8170   23.8950  -32.6870 O   0  0  0  0  0
   -6.9850   23.1560  -33.2010 C   0  0  0  0  0
   -7.4620   21.8590  -33.8000 C   0  0  0  0  0
   -8.6970   21.3100  -33.4280 C   0  0  0  0  0
   -9.1310   20.1100  -33.9980 C   0  0  0  0  0
   -8.3340   19.4610  -34.9430 C   0  0  0  0  0
   -8.7880   18.1620  -35.5730 C   0  0  0  0  0
   -7.1080   20.0080  -35.3160 C   0  0  0  0  0
   -6.6740   21.2030  -34.7460 C   0  0  0  0  0
   -5.6870   23.4870  -33.2510 N   0  0  0  0  0
   -5.2170   24.7510  -32.6800 C   0  0  0  0  0
   -4.0970   24.4490  -31.6800 C   0  0  0  0  0
   -3.0540   23.6370  -32.2430 O   0  0  0  0  0
   -3.4850   25.7760  -31.2610 C   0  0  0  0  0
   -2.4080   25.5820  -30.2110 C   0  0  0  0  0
   -2.1080   26.8740  -29.6950 O   0  0  0  0  0
   -2.9300   26.4050  -32.4260 O   0  0  0  0  0
   -3.9740   26.8550  -33.2920 C   0  0  0  0  0
   -3.2920   27.8930  -34.5580 S   0  0  0  0  0
   -2.4130   26.9410  -35.7580 C   0  0  0  0  0
   -4.7530   25.6490  -33.8360 C   0  0  0  0  0
   -5.9120   26.1230  -34.5170 O   0  0  0  0  0
   -6.1530   25.9770  -36.1050 P   0  0  0  0  0
   -7.6460   25.7870  -36.2980 O   0  0  0  0  0
   -5.1700   25.0110  -36.7230 O   0  0  0  0  0
   -5.8440   27.4680  -36.6560 O   0  0  0  0  0
   -5.5420   27.7090  -38.0340 C   0  0  0  0  0
   -6.7780   28.1220  -38.8060 C   0  0  0  0  0
   -7.7010   29.0200  -38.2580 C   0  0  0  0  0
   -8.8320   29.3890  -38.9910 C   0  0  0  0  0
   -9.0390   28.8630  -40.2710 C   0  0  0  0  0
   -6.9860   27.5990  -40.0860 C   0  0  0  0  0
   -8.1160   27.9690  -40.8210 C   0  0  0  0  0
   -9.3198   21.8198  -32.6930 H   0  0  0  0  0
  -10.0897   19.6817  -33.7054 H   0  0  0  0  0
   -8.9280   17.4117  -34.7948 H   0  0  0  0  0
   -9.7298   18.3236  -36.0973 H   0  0  0  0  0
   -8.0320   17.8184  -36.2790 H   0  0  0  0  0
   -6.4877   19.5004  -36.0547 H   0  0  0  0  0
   -5.7142   21.6273  -35.0406 H   0  0  0  0  0
   -5.0204   22.8525  -33.6909 H   0  0  0  0  0
   -6.0041   25.2763  -32.1390 H   0  0  0  0  0
   -4.5290   23.8998  -30.8434 H   0  0  0  0  0
   -2.3800   23.4776  -31.5782 H   0  0  0  0  0
   -4.2595   26.4038  -30.8205 H   0  0  0  0  0
   -1.5209   25.1192  -30.6433 H   0  0  0  0  0
   -2.7508   24.9159  -29.4192 H   0  0  0  0  0
   -1.4267   26.7986  -29.0229 H   0  0  0  0  0
   -4.6932   27.4646  -32.7450 H   0  0  0  0  0
   -1.5987   26.4057  -35.2697 H   0  0  0  0  0
   -3.0928   26.2262  -36.2217 H   0  0  0  0  0
   -2.0069   27.6056  -36.5206 H   0  0  0  0  0
   -4.1064   25.0818  -34.5055 H   0  0  0  0  0
   -8.1182   26.4864  -35.8404 H   0  0  0  0  0
   -5.1531   26.7885  -38.4695 H   0  0  0  0  0
   -4.8114   28.5158  -38.0925 H   0  0  0  0  0
   -7.5380   29.4307  -37.2616 H   0  0  0  0  0
   -9.5532   30.0868  -38.5655 H   0  0  0  0  0
   -9.9224   29.1512  -40.8407 H   0  0  0  0  0
   -6.2652   26.9010  -40.5118 H   0  0  0  0  0
   -8.2767   27.5619  -41.8193 H   0  0  0  0  0
  1  2  2  0  0  0
  2  3  1  0  0  0
  2 10  1  0  0  0
  3  4  4  0  0  0
  3  9  4  0  0  0
  4  5  4  0  0  0
  5  6  4  0  0  0
  6  7  1  0  0  0
  6  8  4  0  0  0
  8  9  4  0  0  0
 10 11  1  0  0  0
 11 12  1  0  0  0
 11 21  1  0  0  0
 12 13  1  0  0  0
 12 14  1  0  0  0
 14 15  1  0  0  0
 14 17  1  0  0  0
 15 16  1  0  0  0
 17 18  1  0  0  0
 18 19  1  0  0  0
 18 21  1  0  0  0
 19 20  1  0  0  0
 21 22  1  0  0  0
 22 23  1  0  0  0
 23 24  1  0  0  0
 23 25  2  0  0  0
 23 26  1  0  0  0
 26 27  1  0  0  0
 27 28  1  0  0  0
 28 29  4  0  0  0
 28 32  4  0  0  0
 29 30  4  0  0  0
 30 31  4  0  0  0
 31 33  4  0  0  0
 32 33  4  0  0  0
  4 34  1  0  0  0
  5 35  1  0  0  0
  7 36  1  0  0  0
  7 37  1  0  0  0
  7 38  1  0  0  0
  8 39  1  0  0  0
  9 40  1  0  0  0
 10 41  1  0  0  0
 11 42  1  0  0  0
 12 43  1  0  0  0
 13 44  1  0  0  0
 14 45  1  0  0  0
 15 46  1  0  0  0
 15 47  1  0  0  0
 16 48  1  0  0  0
 18 49  1  0  0  0
 20 50  1  0  0  0
 20 51  1  0  0  0
 20 52  1  0  0  0
 21 53  1  0  0  0
 24 54  1  0  0  0
 27 55  1  0  0  0
 27 56  1  0  0  0
 29 57  1  0  0  0
 30 58  1  0  0  0
 31 59  1  0  0  0
 32 60  1  0  0  0
 33 61  1  0  0  0
M  END
$$$$
