### 
### Created by X-TOOL on Mon Sep 10 21:13:07 2018
### 

@<TRIPOS>MOLECULE
3zxe_ligand
   60    62     1     0     0
SMALL
GAST_HUCK


@<TRIPOS>ATOM
      1 O1B        -7.8170   23.8950  -32.6870 O.2       1 PGZ        -0.3878
      2 C1B        -6.9850   23.1560  -33.2010 C.2       1 PGZ         0.2003
      3 C5B        -7.4620   21.8590  -33.8000 C.ar      1 PGZ         0.0427
      4 C6B        -8.6970   21.3100  -33.4280 C.ar      1 PGZ        -0.0485
      5 C7B        -9.1310   20.1100  -33.9980 C.ar      1 PGZ        -0.0547
      6 C2B        -8.3340   19.4610  -34.9430 C.ar      1 PGZ        -0.0414
      7 C8B        -8.7880   18.1620  -35.5730 C.3       1 PGZ        -0.0289
      8 C3B        -7.1080   20.0080  -35.3160 C.ar      1 PGZ        -0.0547
      9 C4B        -6.6740   21.2030  -34.7460 C.ar      1 PGZ        -0.0485
     10 N1B        -5.6870   23.4870  -33.2510 N.am      1 PGZ        -0.2785
     11 C3A        -5.2170   24.7510  -32.6800 C.3       1 PGZ         0.1041
     12 C4A        -4.0970   24.4490  -31.6800 C.3       1 PGZ         0.1091
     13 O4A        -3.0540   23.6370  -32.2430 O.3       1 PGZ        -0.3868
     14 C2D        -3.4850   25.7760  -31.2610 C.3       1 PGZ         0.1112
     15 C6A        -2.4080   25.5820  -30.2110 C.3       1 PGZ         0.0730
     16 O6A        -2.1080   26.8740  -29.6950 O.3       1 PGZ        -0.3924
     17 O5A        -2.9300   26.4050  -32.4260 O.3       1 PGZ        -0.3549
     18 C1A        -3.9740   26.8550  -33.2920 C.3       1 PGZ         0.1379
     19 S1D        -3.2920   27.8930  -34.5580 S.3       1 PGZ        -0.1301
     20 C1D        -2.4130   26.9410  -35.7580 C.3       1 PGZ        -0.0156
     21 C2A        -4.7530   25.6490  -33.8360 C.3       1 PGZ         0.1548
     22 O4P        -5.9120   26.1230  -34.5170 O.3       1 PGZ        -0.2448
     23 P          -6.1530   25.9770  -36.1050 P.3       1 PGZ         0.2579
     24 O3P        -7.6460   25.7870  -36.2980 O.co2     1 PGZ        -0.6176
     25 O2P        -5.1700   25.0110  -36.7230 O.co2     1 PGZ        -0.6176
     26 O1P        -5.8440   27.4680  -36.6560 O.3       1 PGZ        -0.2411
     27 C1C        -5.5420   27.7090  -38.0340 C.3       1 PGZ         0.1177
     28 C5C        -6.7780   28.1220  -38.8060 C.ar      1 PGZ        -0.0121
     29 C6C        -7.7010   29.0200  -38.2580 C.ar      1 PGZ        -0.0578
     30 C7C        -8.8320   29.3890  -38.9910 C.ar      1 PGZ        -0.0685
     31 C2C        -9.0390   28.8630  -40.2710 C.ar      1 PGZ        -0.0687
     32 C4C        -6.9860   27.5990  -40.0860 C.ar      1 PGZ        -0.0578
     33 C3C        -8.1160   27.9690  -40.8210 C.ar      1 PGZ        -0.0685
     34 H          -9.3198   21.8198  -32.6930 H         1 PGZ         0.0652
     35 H         -10.0897   19.6817  -33.7054 H         1 PGZ         0.0570
     36 H          -8.9280   17.4117  -34.7948 H         1 PGZ         0.0401
     37 H          -9.7298   18.3236  -36.0973 H         1 PGZ         0.0401
     38 H          -8.0320   17.8184  -36.2790 H         1 PGZ         0.0401
     39 H          -6.4877   19.5004  -36.0547 H         1 PGZ         0.0570
     40 H          -5.7142   21.6273  -35.0406 H         1 PGZ         0.0652
     41 H          -5.0204   22.8525  -33.6909 H         1 PGZ         0.1848
     42 H          -6.0041   25.2763  -32.1390 H         1 PGZ         0.0613
     43 H          -4.5290   23.8998  -30.8434 H         1 PGZ         0.0644
     44 H          -3.4232   22.7997  -32.5331 H         1 PGZ         0.2100
     45 H          -4.2595   26.4038  -30.8205 H         1 PGZ         0.0646
     46 H          -1.5209   25.1192  -30.6433 H         1 PGZ         0.0584
     47 H          -2.7508   24.9159  -29.4192 H         1 PGZ         0.0584
     48 H          -1.7958   27.4371  -30.4070 H         1 PGZ         0.2095
     49 H          -4.6932   27.4646  -32.7450 H         1 PGZ         0.0744
     50 H          -1.5987   26.4057  -35.2697 H         1 PGZ         0.0341
     51 H          -3.0928   26.2262  -36.2217 H         1 PGZ         0.0341
     52 H          -2.0069   27.6056  -36.5206 H         1 PGZ         0.0341
     53 H          -4.1064   25.0818  -34.5055 H         1 PGZ         0.0716
     54 H          -5.1531   26.7885  -38.4695 H         1 PGZ         0.0785
     55 H          -4.8114   28.5158  -38.0925 H         1 PGZ         0.0785
     56 H          -7.5380   29.4307  -37.2616 H         1 PGZ         0.0557
     57 H          -9.5532   30.0868  -38.5655 H         1 PGZ         0.0599
     58 H          -9.9224   29.1512  -40.8407 H         1 PGZ         0.0559
     59 H          -6.2652   26.9010  -40.5118 H         1 PGZ         0.0557
     60 H          -8.2767   27.5619  -41.8193 H         1 PGZ         0.0599
@<TRIPOS>BOND
     1    1    2 2  
     2    2    3 1  
     3    2   10 am 
     4    3    4 ar 
     5    3    9 ar 
     6    4    5 ar 
     7    5    6 ar 
     8    6    7 1  
     9    6    8 ar 
    10    8    9 ar 
    11   10   11 1  
    12   11   12 1  
    13   11   21 1  
    14   12   13 1  
    15   12   14 1  
    16   14   15 1  
    17   14   17 1  
    18   15   16 1  
    19   17   18 1  
    20   18   19 1  
    21   18   21 1  
    22   19   20 1  
    23   21   22 1  
    24   22   23 1  
    25   23   24 ar 
    26   23   25 ar 
    27   23   26 1  
    28   26   27 1  
    29   27   28 1  
    30   28   29 ar 
    31   28   32 ar 
    32   29   30 ar 
    33   30   31 ar 
    34   31   33 ar 
    35   32   33 ar 
    36    4   34 1  
    37    5   35 1  
    38    7   36 1  
    39    7   37 1  
    40    7   38 1  
    41    8   39 1  
    42    9   40 1  
    43   10   41 1  
    44   11   42 1  
    45   12   43 1  
    46   13   44 1  
    47   14   45 1  
    48   15   46 1  
    49   15   47 1  
    50   16   48 1  
    51   18   49 1  
    52   20   50 1  
    53   20   51 1  
    54   20   52 1  
    55   21   53 1  
    56   27   54 1  
    57   27   55 1  
    58   29   56 1  
    59   30   57 1  
    60   31   58 1  
    61   32   59 1  
    62   33   60 1  
@<TRIPOS>SUBSTRUCTURE
     1 PGZ         1

