6t1o_ligand
  -I-interpret- 

 47 50  0  0  0  0  0  0  0  0999 V2000
   -4.5420   14.3350   17.1050 N   0  0  0  0  0
    2.6610   15.9010   14.3520 C   0  0  0  0  0
   -6.6660   12.9260   19.3240 N   0  3  0  0  0
    2.0390   14.0740   12.9270 C   0  0  0  0  0
    3.2910   14.1060   12.3350 C   0  0  0  0  0
    0.3220   15.0020   14.5150 C   0  0  0  0  0
   -0.6640   14.8680   13.7940 O   0  0  0  0  0
    1.7020   14.9790   13.9340 C   0  0  0  0  0
    3.9160   15.9330   13.7700 C   0  0  0  0  0
    4.2200   15.0440   12.7540 C   0  0  0  0  0
    6.0970   15.1470   11.8140 I   0  0  0  0  0
    0.2510   15.2380   15.8570 N   0  0  0  0  0
   -0.8920   15.1930   16.7150 C   0  0  0  0  0
   -2.1670   14.7910   16.2950 C   0  0  0  0  0
   -3.2030   14.7330   17.2340 C   0  0  0  0  0
   -5.0610   14.4820   18.3130 C   0  0  0  0  0
   -4.1660   14.9410   19.2190 N   0  0  0  0  0
   -2.9590   15.1020   18.5540 C   0  0  0  0  0
   -1.7100   15.5190   18.9770 C   0  0  0  0  0
   -0.6760   15.5660   18.0520 C   0  0  0  0  0
   -6.4900   14.2230   18.6660 C   0  0  0  0  0
   -6.3090   13.0070   20.7510 C   0  0  0  0  0
   -6.4460   11.6590   21.4480 C   0  0  0  0  0
   -7.8410   11.1010   21.2870 C   0  0  0  0  0
   -8.2560   11.1040   19.8260 C   0  0  0  0  0
   -8.0600   12.4730   19.2080 C   0  0  0  0  0
    2.4189   16.6057   15.1476 H   0  0  0  0  0
   -6.0488   12.2597   18.8597 H   0  0  0  0  0
    1.3085   13.3330   12.6023 H   0  0  0  0  0
    3.5432   13.3983   11.5453 H   0  0  0  0  0
    4.6601   16.6535   14.1095 H   0  0  0  0  0
    1.1327   15.4792   16.3095 H   0  0  0  0  0
   -2.3490   14.5276   15.2531 H   0  0  0  0  0
   -1.5411   15.8048   20.0152 H   0  0  0  0  0
    0.3141   15.8959   18.3665 H   0  0  0  0  0
   -6.8177   15.0019   19.3545 H   0  0  0  0  0
   -7.0735   14.2202   17.7454 H   0  0  0  0  0
   -6.9863   13.7117   21.2334 H   0  0  0  0  0
   -5.2696   13.3265   20.8258 H   0  0  0  0  0
   -6.2456   11.7945   22.5108 H   0  0  0  0  0
   -5.7381   10.9617   20.9999 H   0  0  0  0  0
   -8.5361   11.7224   21.8517 H   0  0  0  0  0
   -7.8544   10.0750   21.6547 H   0  0  0  0  0
   -9.3115   10.8396   19.7621 H   0  0  0  0  0
   -7.6394   10.3854   19.2861 H   0  0  0  0  0
   -8.3151   12.4125   18.1500 H   0  0  0  0  0
   -8.6973   13.1828   19.7353 H   0  0  0  0  0
  1 15  4  0  0  0
 16  1  4  0  0  0
  8  2  4  0  0  0
  2  9  4  0  0  0
 21  3  1  0  0  0
  3 22  1  0  0  0
  3 26  1  0  0  0
  4  5  4  0  0  0
  8  4  4  0  0  0
  5 10  4  0  0  0
  6  7  2  0  0  0
  6  8  1  0  0  0
 12  6  1  0  0  0
  9 10  4  0  0  0
 10 11  1  0  0  0
 13 12  1  0  0  0
 14 13  4  0  0  0
 13 20  4  0  0  0
 15 14  4  0  0  0
 15 18  4  0  0  0
 16 17  4  0  0  0
 16 21  1  0  0  0
 17 18  4  0  0  0
 18 19  4  0  0  0
 19 20  4  0  0  0
 22 23  1  0  0  0
 23 24  1  0  0  0
 24 25  1  0  0  0
 25 26  1  0  0  0
  2 27  1  0  0  0
  3 28  1  0  0  0
  4 29  1  0  0  0
  5 30  1  0  0  0
  9 31  1  0  0  0
 12 32  1  0  0  0
 14 33  1  0  0  0
 19 34  1  0  0  0
 20 35  1  0  0  0
 21 36  1  0  0  0
 21 37  1  0  0  0
 22 38  1  0  0  0
 22 39  1  0  0  0
 23 40  1  0  0  0
 23 41  1  0  0  0
 24 42  1  0  0  0
 24 43  1  0  0  0
 25 44  1  0  0  0
 25 45  1  0  0  0
 26 46  1  0  0  0
 26 47  1  0  0  0
M  END
$$$$
