5ajp_ligand
  -I-interpret- 

190192  0  0  0  0  0  0  0  0999 V2000
    7.6790    1.7430   -5.8580 N   0  3  0  0  0
    8.0640    3.1790   -5.7590 C   0  0  0  0  0
    6.8250    4.0110   -5.4540 C   0  0  0  0  0
    5.9830    4.2240   -6.3360 O   0  0  0  0  0
    8.6970    3.6750   -7.0770 C   0  0  0  0  0
    9.6970    2.7420   -7.5150 O   0  0  0  0  0
    9.3420    5.0320   -6.9010 C   0  0  0  0  0
    6.7230    4.5140   -4.2260 N   0  0  0  0  0
    5.4910    5.1920   -3.8140 C   0  0  0  0  0
    5.6580    6.7120   -3.9080 C   0  0  0  0  0
    6.7450    7.2610   -3.7100 O   0  0  0  0  0
    5.0440    4.7880   -2.3920 C   0  0  0  0  0
    5.9470    5.3120   -1.4440 O   0  0  0  0  0
    5.0570    3.2780   -2.2220 C   0  0  0  0  0
    4.5670    7.4090   -4.2280 N   0  0  0  0  0
    4.6680    8.8560   -4.3490 C   0  0  0  0  0
    4.8450    9.5700   -3.0240 C   0  0  0  0  0
    4.8360    8.9720   -1.9520 O   0  0  0  0  0
    3.3260    9.2580   -4.9250 C   0  0  0  0  0
    2.5530    8.0400   -5.1830 C   0  0  0  0  0
    3.2120    6.9000   -4.5020 C   0  0  0  0  0
    4.9150   10.8890   -3.0800 N   0  0  0  0  0
    5.1030   11.6750   -1.8390 C   0  0  0  0  0
    3.9870   11.3770   -0.8540 C   0  0  0  0  0
    2.8220   11.3610   -1.1970 O   0  0  0  0  0
    5.1400   13.1790   -2.1330 C   0  0  0  0  0
    6.2610   13.5050   -2.9520 O   0  0  0  0  0
    4.3390   11.0820    0.3780 N   0  0  0  0  0
    3.3090   10.6690    1.3310 C   0  0  0  0  0
    2.6020   11.8460    2.0060 C   0  0  0  0  0
    3.2040   12.8880    2.2160 O   0  0  0  0  0
    4.1180    9.8870    2.3610 C   0  0  0  0  0
    5.4550   10.5120    2.3310 C   0  0  0  0  0
    5.6910   10.9920    0.9370 C   0  0  0  0  0
    1.3220   11.6760    2.3390 N   0  0  0  0  0
    0.6030   12.6530    3.1820 C   0  0  0  0  0
    1.3630   12.8700    4.4890 C   0  0  0  0  0
    1.9360   11.9380    5.0240 O   0  0  0  0  0
   -0.8230   12.1810    3.5360 C   0  0  0  0  0
   -1.5030   13.1450    4.5040 C   0  0  0  0  0
   -1.6720   12.0940    2.3210 C   0  0  0  0  0
    1.4180   14.0990    4.9970 N   0  0  0  0  0
    2.2170   14.4060    6.2010 C   0  0  0  0  0
    1.6370   13.8950    7.4870 C   0  0  0  0  0
    0.7120   14.5110    8.0570 O   0  0  0  0  0
    2.2880   15.9290    6.2380 C   0  0  0  0  0
    1.6250   16.4090    5.0080 C   0  0  0  0  0
    0.9570   15.3080    4.3020 C   0  0  0  0  0
    2.1960   12.7810    7.9410 N   0  0  0  0  0
    1.8190   12.1690    9.2220 C   0  0  0  0  0
    3.0580   11.5760    9.8510 C   0  0  0  0  0
    4.1090   11.5160    9.2260 O   0  0  0  0  0
    0.7790   11.0510    9.0310 C   0  0  0  0  0
    1.3480    9.9820    8.2610 O   0  0  0  0  0
   -0.4510   11.5760    8.3280 C   0  0  0  0  0
    2.9110   11.1060   11.0820 N   0  0  0  0  0
    4.0000   10.4530   11.7790 C   0  0  0  0  0
    3.3650    9.5160   12.8250 C   0  0  0  0  0
    2.1350    9.3370   12.8810 O   0  0  0  0  0
    4.9990   11.4900   12.3940 C   0  0  0  0  0
    6.1770   10.8270   12.9330 O   0  0  0  0  0
    4.3400   12.2940   13.5000 C   0  0  0  0  0
    4.2030    8.9230   13.6460 N   0  0  0  0  0
    3.7160    8.0280   14.6740 C   0  0  0  0  0
    2.6950    8.7470   15.5350 C   0  0  0  0  0
    2.8470    9.9480   15.8200 O   0  0  0  0  0
    4.8590    7.6220   15.5760 C   0  0  0  0  0
    4.4350    6.7440   16.6190 O   0  0  0  0  0
    1.7010    8.0050   16.0050 N   0  0  0  0  0
    0.7270    8.5650   16.9250 C   0  0  0  0  0
    1.0930    8.3670   18.3860 C   0  0  0  0  0
    0.2870    8.6620   19.2610 O   0  0  0  0  0
   -0.6620    7.9960   16.6410 C   0  0  0  0  0
   -0.6010    6.5790   16.7450 O   0  0  0  0  0
   -1.1120    8.4090   15.2080 C   0  0  0  0  0
    2.2890    7.8860   18.6660 N   0  0  0  0  0
    2.7650    7.8450   20.0350 C   0  0  0  0  0
    4.1320    8.4930   20.1360 C   0  0  0  0  0
    4.7850    8.7740   19.1350 O   0  0  0  0  0
    2.8360    6.4040   20.5820 C   0  0  0  0  0
    3.8240    5.6760   19.8400 O   0  0  0  0  0
    1.5080    5.7390   20.4290 C   0  0  0  0  0
    4.5510    8.7340   21.3740 N   0  0  0  0  0
    5.8800    9.2860   21.6660 C   0  0  0  0  0
    6.8600    8.2680   22.1600 C   0  0  0  0  0
    6.4800    7.4040   22.9440 O   0  0  0  0  0
    5.7670   10.3940   22.7230 C   0  0  0  0  0
    5.1120   11.4830   22.1310 O   0  0  0  0  0
    8.1150    8.3670   21.7030 N   0  0  0  0  0
    9.1860    7.4610   22.1690 C   0  0  0  0  0
    9.4250    7.6240   23.6580 C   0  0  0  0  0
    9.2230    8.7300   24.1740 O   0  0  0  0  0
   10.4700    7.7280   21.4060 C   0  0  0  0  0
    9.7590    6.5120   24.5400 N   0  0  0  0  0
    7.2644    1.4418   -4.9761 H   0  0  0  0  0
    7.0015    1.6250   -6.6113 H   0  0  0  0  0
    8.5084    1.1826   -6.0541 H   0  0  0  0  0
    8.7981    3.2858   -4.9604 H   0  0  0  0  0
    7.9023    3.7574   -7.8185 H   0  0  0  0  0
    9.2974    1.8767   -7.6298 H   0  0  0  0  0
   10.1349    4.9621   -6.1564 H   0  0  0  0  0
    9.7626    5.3590   -7.8519 H   0  0  0  0  0
    8.5916    5.7492   -6.5683 H   0  0  0  0  0
    7.5014    4.4277   -3.5725 H   0  0  0  0  0
    4.7067    4.8738   -4.5008 H   0  0  0  0  0
    4.0358    5.1754   -2.2452 H   0  0  0  0  0
    5.6657    5.0587   -0.5618 H   0  0  0  0  0
    4.3759    2.8266   -2.9434 H   0  0  0  0  0
    6.0667    2.9034   -2.3900 H   0  0  0  0  0
    4.7377    3.0247   -1.2111 H   0  0  0  0  0
    5.5385    9.1234   -4.9481 H   0  0  0  0  0
    3.4681    9.8141   -5.8516 H   0  0  0  0  0
    2.7931    9.8971   -4.2210 H   0  0  0  0  0
    2.5080    7.8524   -6.2558 H   0  0  0  0  0
    1.5385    8.1599   -4.8028 H   0  0  0  0  0
    2.6882    6.5908   -3.5975 H   0  0  0  0  0
    3.2178    5.9943   -5.1085 H   0  0  0  0  0
    4.8395   11.3657   -3.9786 H   0  0  0  0  0
    6.0595   11.3850   -1.4042 H   0  0  0  0  0
    5.2228   13.7204   -1.1906 H   0  0  0  0  0
    4.2267   13.4579   -2.6585 H   0  0  0  0  0
    6.2661   14.4494   -3.1243 H   0  0  0  0  0
    2.5075   10.1097    0.8485 H   0  0  0  0  0
    4.1585    8.8231    2.1272 H   0  0  0  0  0
    3.6683    9.9306    3.3530 H   0  0  0  0  0
    6.2202    9.7925    2.6224 H   0  0  0  0  0
    5.5048   11.3426    3.0351 H   0  0  0  0  0
    6.2225   11.9431    0.9050 H   0  0  0  0  0
    6.3372   10.3244    0.3670 H   0  0  0  0  0
    0.8266   10.8501    2.0030 H   0  0  0  0  0
    0.5356   13.5762    2.6065 H   0  0  0  0  0
   -0.7187   11.1992    3.9977 H   0  0  0  0  0
   -0.9199   13.2068    5.4228 H   0  0  0  0  0
   -1.5679   14.1321    4.0462 H   0  0  0  0  0
   -2.5053   12.7822    4.7320 H   0  0  0  0  0
   -1.7346   13.0759    1.8520 H   0  0  0  0  0
   -1.2316   11.3833    1.6217 H   0  0  0  0  0
   -2.6709   11.7591    2.6005 H   0  0  0  0  0
    3.1854   13.9110    6.1281 H   0  0  0  0  0
    3.3220   16.2708    6.2832 H   0  0  0  0  0
    1.7938   16.3216    7.1267 H   0  0  0  0  0
    2.3805   16.8376    4.3495 H   0  0  0  0  0
    0.8761   17.1517    5.2830 H   0  0  0  0  0
   -0.1284   15.4052    4.3236 H   0  0  0  0  0
    1.2045   15.2909    3.2406 H   0  0  0  0  0
    2.9172   12.3309    7.3774 H   0  0  0  0  0
    1.3799   12.9383    9.8571 H   0  0  0  0  0
    0.4895   10.6821   10.0150 H   0  0  0  0  0
    0.6940    9.2887    8.1460 H   0  0  0  0  0
   -0.8963   12.3726    8.9240 H   0  0  0  0  0
   -0.1701   11.9660    7.3497 H   0  0  0  0  0
   -1.1708   10.7668    8.2050 H   0  0  0  0  0
    2.0099   11.2066   11.5492 H   0  0  0  0  0
    4.6109    9.8661   11.0932 H   0  0  0  0  0
    5.2986   12.1607   11.5887 H   0  0  0  0  0
    6.7714   11.4839   13.3029 H   0  0  0  0  0
    3.4831   12.8324   13.0950 H   0  0  0  0  0
    4.0071   11.6195   14.2889 H   0  0  0  0  0
    5.0582   13.0055   13.9076 H   0  0  0  0  0
    5.2045    9.0950   13.5579 H   0  0  0  0  0
    3.2720    7.1562   14.1934 H   0  0  0  0  0
    5.2663    8.5229   16.0348 H   0  0  0  0  0
    5.5996    7.0986   14.9713 H   0  0  0  0  0
    5.1887    6.5117   17.1663 H   0  0  0  0  0
    1.6199    7.0299   15.7169 H   0  0  0  0  0
    0.7240    9.6413   16.7526 H   0  0  0  0  0
   -1.3830    8.3860   17.3594 H   0  0  0  0  0
   -1.4689    6.2087   16.5685 H   0  0  0  0  0
   -1.1437    9.4963   15.1377 H   0  0  0  0  0
   -0.4030    8.0170   14.4788 H   0  0  0  0  0
   -2.1031    8.0017   15.0083 H   0  0  0  0  0
    2.8839    7.5400   17.9132 H   0  0  0  0  0
    2.0477    8.3989   20.6407 H   0  0  0  0  0
    3.1033    6.4247   21.6385 H   0  0  0  0  0
    3.8753    4.7773   20.1737 H   0  0  0  0  0
    0.7563    6.2995   20.9847 H   0  0  0  0  0
    1.2362    5.7116   19.3738 H   0  0  0  0  0
    1.5654    4.7221   20.8172 H   0  0  0  0  0
    3.9247    8.5274   22.1521 H   0  0  0  0  0
    6.2547    9.6727   20.7183 H   0  0  0  0  0
    6.7572   10.6898   23.0696 H   0  0  0  0  0
    5.2059   10.0380   23.5870 H   0  0  0  0  0
    5.0282   12.1920   22.7728 H   0  0  0  0  0
    8.3377    9.0866   21.0152 H   0  0  0  0  0
    8.8666    6.4358   21.9820 H   0  0  0  0  0
   10.3002    7.5620   20.3422 H   0  0  0  0  0
   10.7800    8.7602   21.5690 H   0  0  0  0  0
   11.2489    7.0530   21.7606 H   0  0  0  0  0
    9.8196    6.6604   25.5473 H   0  0  0  0  0
    9.9321    5.5857   24.1497 H   0  0  0  0  0
  1  2  1  0  0  0
  2  3  1  0  0  0
  2  5  1  0  0  0
  3  4  2  0  0  0
  3  8  1  0  0  0
  5  6  1  0  0  0
  5  7  1  0  0  0
  8  9  1  0  0  0
  9 10  1  0  0  0
  9 12  1  0  0  0
 10 11  2  0  0  0
 10 15  1  0  0  0
 12 13  1  0  0  0
 12 14  1  0  0  0
 15 16  1  0  0  0
 15 21  1  0  0  0
 16 17  1  0  0  0
 16 19  1  0  0  0
 17 18  2  0  0  0
 17 22  1  0  0  0
 19 20  1  0  0  0
 20 21  1  0  0  0
 22 23  1  0  0  0
 23 24  1  0  0  0
 23 26  1  0  0  0
 24 25  2  0  0  0
 24 28  1  0  0  0
 26 27  1  0  0  0
 28 29  1  0  0  0
 28 34  1  0  0  0
 29 30  1  0  0  0
 29 32  1  0  0  0
 30 31  2  0  0  0
 30 35  1  0  0  0
 32 33  1  0  0  0
 33 34  1  0  0  0
 35 36  1  0  0  0
 36 37  1  0  0  0
 36 39  1  0  0  0
 37 38  2  0  0  0
 37 42  1  0  0  0
 39 40  1  0  0  0
 39 41  1  0  0  0
 42 43  1  0  0  0
 42 48  1  0  0  0
 43 44  1  0  0  0
 43 46  1  0  0  0
 44 45  2  0  0  0
 44 49  1  0  0  0
 46 47  1  0  0  0
 47 48  1  0  0  0
 49 50  1  0  0  0
 50 51  1  0  0  0
 50 53  1  0  0  0
 51 52  2  0  0  0
 51 56  1  0  0  0
 53 54  1  0  0  0
 53 55  1  0  0  0
 56 57  1  0  0  0
 57 58  1  0  0  0
 57 60  1  0  0  0
 58 59  2  0  0  0
 58 63  1  0  0  0
 60 61  1  0  0  0
 60 62  1  0  0  0
 63 64  1  0  0  0
 64 65  1  0  0  0
 64 67  1  0  0  0
 65 66  2  0  0  0
 65 69  1  0  0  0
 67 68  1  0  0  0
 69 70  1  0  0  0
 70 71  1  0  0  0
 70 73  1  0  0  0
 71 72  2  0  0  0
 71 76  1  0  0  0
 73 74  1  0  0  0
 73 75  1  0  0  0
 76 77  1  0  0  0
 77 78  1  0  0  0
 77 80  1  0  0  0
 78 79  2  0  0  0
 78 83  1  0  0  0
 80 81  1  0  0  0
 80 82  1  0  0  0
 83 84  1  0  0  0
 84 85  1  0  0  0
 84 87  1  0  0  0
 85 86  2  0  0  0
 85 89  1  0  0  0
 87 88  1  0  0  0
 89 90  1  0  0  0
 90 91  1  0  0  0
 90 93  1  0  0  0
 91 92  2  0  0  0
 91 94  1  0  0  0
  1 95  1  0  0  0
  1 96  1  0  0  0
  1 97  1  0  0  0
  2 98  1  0  0  0
  5 99  1  0  0  0
  6100  1  0  0  0
  7101  1  0  0  0
  7102  1  0  0  0
  7103  1  0  0  0
  8104  1  0  0  0
  9105  1  0  0  0
 12106  1  0  0  0
 13107  1  0  0  0
 14108  1  0  0  0
 14109  1  0  0  0
 14110  1  0  0  0
 16111  1  0  0  0
 19112  1  0  0  0
 19113  1  0  0  0
 20114  1  0  0  0
 20115  1  0  0  0
 21116  1  0  0  0
 21117  1  0  0  0
 22118  1  0  0  0
 23119  1  0  0  0
 26120  1  0  0  0
 26121  1  0  0  0
 27122  1  0  0  0
 29123  1  0  0  0
 32124  1  0  0  0
 32125  1  0  0  0
 33126  1  0  0  0
 33127  1  0  0  0
 34128  1  0  0  0
 34129  1  0  0  0
 35130  1  0  0  0
 36131  1  0  0  0
 39132  1  0  0  0
 40133  1  0  0  0
 40134  1  0  0  0
 40135  1  0  0  0
 41136  1  0  0  0
 41137  1  0  0  0
 41138  1  0  0  0
 43139  1  0  0  0
 46140  1  0  0  0
 46141  1  0  0  0
 47142  1  0  0  0
 47143  1  0  0  0
 48144  1  0  0  0
 48145  1  0  0  0
 49146  1  0  0  0
 50147  1  0  0  0
 53148  1  0  0  0
 54149  1  0  0  0
 55150  1  0  0  0
 55151  1  0  0  0
 55152  1  0  0  0
 56153  1  0  0  0
 57154  1  0  0  0
 60155  1  0  0  0
 61156  1  0  0  0
 62157  1  0  0  0
 62158  1  0  0  0
 62159  1  0  0  0
 63160  1  0  0  0
 64161  1  0  0  0
 67162  1  0  0  0
 67163  1  0  0  0
 68164  1  0  0  0
 69165  1  0  0  0
 70166  1  0  0  0
 73167  1  0  0  0
 74168  1  0  0  0
 75169  1  0  0  0
 75170  1  0  0  0
 75171  1  0  0  0
 76172  1  0  0  0
 77173  1  0  0  0
 80174  1  0  0  0
 81175  1  0  0  0
 82176  1  0  0  0
 82177  1  0  0  0
 82178  1  0  0  0
 83179  1  0  0  0
 84180  1  0  0  0
 87181  1  0  0  0
 87182  1  0  0  0
 88183  1  0  0  0
 89184  1  0  0  0
 90185  1  0  0  0
 93186  1  0  0  0
 93187  1  0  0  0
 93188  1  0  0  0
 94189  1  0  0  0
 94190  1  0  0  0
M  END
$$$$
