### 
### Created by X-TOOL on Mon Sep 10 21:13:21 2018
### 

@<TRIPOS>MOLECULE
5ajp_ligand
  190   192     1     0     0
SMALL
GAST_HUCK


@<TRIPOS>ATOM
      1 N           7.6790    1.7430   -5.8580 N.4       1 THR         0.2398
      2 CA          8.0640    3.1790   -5.7590 C.3       1 THR         0.0910
      3 C           6.8250    4.0110   -5.4540 C.2       1 THR         0.2293
      4 O           5.9830    4.2240   -6.3360 O.2       1 THR        -0.3906
      5 CB          8.6970    3.6750   -7.0770 C.3       1 THR         0.1120
      6 OG1         9.6970    2.7420   -7.5150 O.3       1 THR        -0.3840
      7 CG2         9.3420    5.0320   -6.9010 C.3       1 THR        -0.0314
      8 N           6.7230    4.5140   -4.2260 N.am      1 THR        -0.2585
      9 CA          5.4910    5.1920   -3.8140 C.3       1 THR         0.1568
     10 C           5.6580    6.7120   -3.9080 C.2       1 THR         0.2090
     11 O           6.7450    7.2610   -3.7100 O.2       1 THR        -0.3941
     12 CB          5.0440    4.7880   -2.3920 C.3       1 THR         0.0924
     13 OG1         5.9470    5.3120   -1.4440 O.3       1 THR        -0.3874
     14 CG2         5.0570    3.2780   -2.2220 C.3       1 THR        -0.0346
     15 N           4.5670    7.4090   -4.2280 N.am      1 PRO        -0.2498
     16 CA          4.6680    8.8560   -4.3490 C.3       1 PRO         0.1338
     17 C           4.8450    9.5700   -3.0240 C.2       1 PRO         0.2042
     18 O           4.8360    8.9720   -1.9520 O.2       1 PRO        -0.3944
     19 CB          3.3260    9.2580   -4.9250 C.3       1 PRO        -0.0104
     20 CG          2.5530    8.0400   -5.1830 C.3       1 PRO        -0.0281
     21 CD          3.2120    6.9000   -4.5020 C.3       1 PRO         0.0369
     22 N           4.9150   10.8890   -3.0800 N.am      1 SER        -0.2616
     23 CA          5.1030   11.6750   -1.8390 C.3       1 SER         0.1541
     24 C           3.9870   11.3770   -0.8540 C.2       1 SER         0.2087
     25 O           2.8220   11.3610   -1.1970 O.2       1 SER        -0.3941
     26 CB          5.1400   13.1790   -2.1330 C.3       1 SER         0.0843
     27 OG          6.2610   13.5050   -2.9520 O.3       1 SER        -0.3903
     28 N           4.3390   11.0820    0.3780 N.am      1 PRO        -0.2498
     29 CA          3.3090   10.6690    1.3310 C.3       1 PRO         0.1338
     30 C           2.6020   11.8460    2.0060 C.2       1 PRO         0.2041
     31 O           3.2040   12.8880    2.2160 O.2       1 PRO        -0.3944
     32 CB          4.1180    9.8870    2.3610 C.3       1 PRO        -0.0104
     33 CG          5.4550   10.5120    2.3310 C.3       1 PRO        -0.0281
     34 CD          5.6910   10.9920    0.9370 C.3       1 PRO         0.0369
     35 N           1.3220   11.6760    2.3390 N.am      1 VAL        -0.2635
     36 CA          0.6030   12.6530    3.1820 C.3       1 VAL         0.1334
     37 C           1.3630   12.8700    4.4890 C.2       1 VAL         0.2066
     38 O           1.9360   11.9380    5.0240 O.2       1 VAL        -0.3942
     39 CB         -0.8230   12.1810    3.5360 C.3       1 VAL        -0.0062
     40 CG1        -1.5030   13.1450    4.5040 C.3       1 VAL        -0.0584
     41 CG2        -1.6720   12.0940    2.3210 C.3       1 VAL        -0.0584
     42 N           1.4180   14.0990    4.9970 N.am      1 PRO        -0.2498
     43 CA          2.2170   14.4060    6.2010 C.3       1 PRO         0.1338
     44 C           1.6370   13.8950    7.4870 C.2       1 PRO         0.2042
     45 O           0.7120   14.5110    8.0570 O.2       1 PRO        -0.3944
     46 CB          2.2880   15.9290    6.2380 C.3       1 PRO        -0.0104
     47 CG          1.6250   16.4090    5.0080 C.3       1 PRO        -0.0281
     48 CD          0.9570   15.3080    4.3020 C.3       1 PRO         0.0369
     49 N           2.1960   12.7810    7.9410 N.am      1 THR        -0.2613
     50 CA          1.8190   12.1690    9.2220 C.3       1 THR         0.1565
     51 C           3.0580   11.5760    9.8510 C.2       1 THR         0.2065
     52 O           4.1090   11.5160    9.2260 O.2       1 THR        -0.3943
     53 CB          0.7790   11.0510    9.0310 C.3       1 THR         0.0924
     54 OG1         1.3480    9.9820    8.2610 O.3       1 THR        -0.3874
     55 CG2        -0.4510   11.5760    8.3280 C.3       1 THR        -0.0346
     56 N           2.9110   11.1060   11.0820 N.am      1 THR        -0.2613
     57 CA          4.0000   10.4530   11.7790 C.3       1 THR         0.1565
     58 C           3.3650    9.5160   12.8250 C.2       1 THR         0.2065
     59 O           2.1350    9.3370   12.8810 O.2       1 THR        -0.3943
     60 CB          4.9990   11.4900   12.3940 C.3       1 THR         0.0924
     61 OG1         6.1770   10.8270   12.9330 O.3       1 THR        -0.3874
     62 CG2         4.3400   12.2940   13.5000 C.3       1 THR        -0.0346
     63 N           4.2030    8.9230   13.6460 N.am      1 SER        -0.2615
     64 CA          3.7160    8.0280   14.6740 C.3       1 SER         0.1539
     65 C           2.6950    8.7470   15.5350 C.2       1 SER         0.2063
     66 O           2.8470    9.9480   15.8200 O.2       1 SER        -0.3943
     67 CB          4.8590    7.6220   15.5760 C.3       1 SER         0.0843
     68 OG          4.4350    6.7440   16.6190 O.3       1 SER        -0.3903
     69 N           1.7010    8.0050   16.0050 N.am      1 THR        -0.2613
     70 CA          0.7270    8.5650   16.9250 C.3       1 THR         0.1565
     71 C           1.0930    8.3670   18.3860 C.2       1 THR         0.2065
     72 O           0.2870    8.6620   19.2610 O.2       1 THR        -0.3943
     73 CB         -0.6620    7.9960   16.6410 C.3       1 THR         0.0924
     74 OG1        -0.6010    6.5790   16.7450 O.3       1 THR        -0.3874
     75 CG2        -1.1120    8.4090   15.2080 C.3       1 THR        -0.0346
     76 N           2.2890    7.8860   18.6660 N.am      1 THR        -0.2613
     77 CA          2.7650    7.8450   20.0350 C.3       1 THR         0.1565
     78 C           4.1320    8.4930   20.1360 C.2       1 THR         0.2065
     79 O           4.7850    8.7740   19.1350 O.2       1 THR        -0.3943
     80 CB          2.8360    6.4040   20.5820 C.3       1 THR         0.0924
     81 OG1         3.8240    5.6760   19.8400 O.3       1 THR        -0.3874
     82 CG2         1.5080    5.7390   20.4290 C.3       1 THR        -0.0346
     83 N           4.5510    8.7340   21.3740 N.am      1 SER        -0.2615
     84 CA          5.8800    9.2860   21.6660 C.3       1 SER         0.1539
     85 C           6.8600    8.2680   22.1600 C.2       1 SER         0.2062
     86 O           6.4800    7.4040   22.9440 O.2       1 SER        -0.3943
     87 CB          5.7670   10.3940   22.7230 C.3       1 SER         0.0843
     88 OG          5.1120   11.4830   22.1310 O.3       1 SER        -0.3903
     89 N           8.1150    8.3670   21.7030 N.am      1 ALA        -0.2639
     90 CA          9.1860    7.4610   22.1690 C.3       1 ALA         0.1279
     91 C           9.4250    7.6240   23.6580 C.2       1 ALA         0.1989
     92 O           9.2230    8.7300   24.1740 O.2       1 ALA        -0.3947
     93 CB         10.4700    7.7280   21.4060 C.3       1 ALA        -0.0244
     94 N           9.7590    6.5120   24.5400 N.am      1 ALA        -0.2990
     95 H1          7.2692    1.4442   -4.9869 H         1 THR         0.2016
     96 H2          8.4979    1.1881   -6.0518 H         1 THR         0.2016
     97 H3          7.0094    1.6252   -6.6022 H         1 THR         0.2016
     98 H4          8.7933    3.2988   -4.9443 H         1 THR         0.1125
     99 H5          7.9099    3.7498   -7.8417 H         1 THR         0.0674
    100 H6         10.0835    3.0512   -8.3259 H         1 THR         0.2102
    101 H7          9.7821    5.3554   -7.8558 H         1 THR         0.0258
    102 H8         10.1308    4.9668   -6.1371 H         1 THR         0.0258
    103 H9          8.5821    5.7606   -6.5822 H         1 THR         0.0258
    104 H10         7.4861    4.4293   -3.5853 H         1 THR         0.1885
    105 H11         4.6956    4.8923   -4.5122 H         1 THR         0.0826
    106 H12         4.0317    5.1759   -2.2057 H         1 THR         0.0639
    107 H13         6.8161    4.9670   -1.6117 H         1 THR         0.2101
    108 H14         4.7349    3.0211   -1.2021 H         1 THR         0.0257
    109 H15         6.0755    2.8987   -2.3913 H         1 THR         0.0257
    110 H16         4.3699    2.8212   -2.9495 H         1 THR         0.0257
    111 H17         5.4937    9.1262   -5.0236 H         1 PRO         0.0802
    112 H18         3.4748    9.8102   -5.8647 H         1 PRO         0.0313
    113 H19         2.7885    9.8946   -4.2068 H         1 PRO         0.0313
    114 H20         2.5132    7.8503   -6.2658 H         1 PRO         0.0287
    115 H21         1.5312    8.1618   -4.7942 H         1 PRO         0.0287
    116 H22         2.6906    6.6437   -3.5680 H         1 PRO         0.0524
    117 H23         3.2474    6.0166   -5.1565 H         1 PRO         0.0524
    118 H24         4.8409   11.3563   -3.9610 H         1 SER         0.1884
    119 H25         6.0619   11.3837   -1.3854 H         1 SER         0.0823
    120 H26         5.2134   13.7307   -1.1842 H         1 SER         0.0606
    121 H27         4.2156   13.4678   -2.6546 H         1 SER         0.0606
    122 H28         7.0616   13.2595   -2.5034 H         1 SER         0.2097
    123 H29         2.5596   10.0303    0.8407 H         1 PRO         0.0802
    124 H30         4.1790    8.8246    2.0827 H         1 PRO         0.0313
    125 H31         3.6680    9.9790    3.3605 H         1 PRO         0.0313
    126 H32         6.2216    9.7740    2.6095 H         1 PRO         0.0287
    127 H33         5.4900   11.3593    3.0316 H         1 PRO         0.0287
    128 H34         6.1837   11.9755    0.9370 H         1 PRO         0.0524
    129 H35         6.3042   10.2747    0.3718 H         1 PRO         0.0524
    130 H36         0.8363   10.8663    2.0096 H         1 VAL         0.1883
    131 H37         0.5378   13.6052    2.6351 H         1 VAL         0.0803
    132 H38        -0.7557   11.1874    4.0031 H         1 VAL         0.0343
    133 H39        -2.5147   12.7800    4.7349 H         1 VAL         0.0234
    134 H40        -1.5691   14.1416    4.0431 H         1 VAL         0.0234
    135 H41        -0.9155   13.2083    5.4318 H         1 VAL         0.0234
    136 H42        -1.2096   11.4046    1.5992 H         1 VAL         0.0234
    137 H43        -1.7658   13.0915    1.8670 H         1 VAL         0.0234
    138 H44        -2.6696   11.7213    2.5966 H         1 VAL         0.0234
    139 H45         3.2247   13.9806    6.0849 H         1 PRO         0.0802
    140 H46         3.3367   16.2603    6.2586 H         1 PRO         0.0313
    141 H47         1.7647   16.3125    7.1263 H         1 PRO         0.0313
    142 H48         2.3798   16.8556    4.3441 H         1 PRO         0.0287
    143 H49         0.8770   17.1694    5.2767 H         1 PRO         0.0287
    144 H50        -0.1363   15.4057    4.3735 H         1 PRO         0.0524
    145 H51         1.2548   15.2864    3.2433 H         1 PRO         0.0524
    146 H52         2.9031   12.3397    7.3885 H         1 THR         0.1884
    147 H53         1.3999   12.9422    9.8827 H         1 THR         0.0826
    148 H54         0.4870   10.6662   10.0193 H         1 THR         0.0639
    149 H55         1.6139   10.3123    7.4109 H         1 THR         0.2101
    150 H56        -1.1782   10.7602    8.2032 H         1 THR         0.0257
    151 H57        -0.1689   11.9699    7.3405 H         1 THR         0.0257
    152 H58        -0.9014   12.3800    8.9285 H         1 THR         0.0257
    153 H59         2.0276   11.2046   11.5400 H         1 THR         0.1884
    154 H60         4.5626    9.8395   11.0599 H         1 THR         0.0826
    155 H61         5.3152   12.1790   11.5970 H         1 THR         0.0639
    156 H62         6.6189   10.3543   12.2376 H         1 THR         0.2101
    157 H63         5.0638   13.0125   13.9122 H         1 THR         0.0257
    158 H64         4.0036   11.6144   14.2969 H         1 THR         0.0257
    159 H65         3.4750   12.8379   13.0925 H         1 THR         0.0257
    160 H66         5.1849    9.0916   13.5596 H         1 SER         0.1884
    161 H67         3.2636    7.1393   14.2098 H         1 SER         0.0823
    162 H68         5.2924    8.5263   16.0281 H         1 SER         0.0606
    163 H69         5.6235    7.1116   14.9718 H         1 SER         0.0606
    164 H70         4.0645    5.9567   16.2376 H         1 SER         0.2097
    165 H71         1.6215    7.0490   15.7225 H         1 THR         0.1884
    166 H72         0.6910    9.6490   16.7419 H         1 THR         0.0826
    167 H73        -1.3802    8.3885   17.3759 H         1 THR         0.0639
    168 H74        -1.4599    6.2125   16.5703 H         1 THR         0.2101
    169 H75        -2.1122    7.9985   15.0052 H         1 THR         0.0257
    170 H76        -0.3973    8.0140   14.4711 H         1 THR         0.0257
    171 H77        -1.1444    9.5061   15.1358 H         1 THR         0.0257
    172 H78         2.8722    7.5468   17.9279 H         1 THR         0.1884
    173 H79         2.0602    8.4149   20.6583 H         1 THR         0.0826
    174 H80         3.1143    6.4264   21.6460 H         1 THR         0.0639
    175 H81         3.8747    4.7867   20.1702 H         1 THR         0.2101
    176 H82         1.5647    4.7126   20.8205 H         1 THR         0.0257
    177 H83         1.2325    5.7107   19.3644 H         1 THR         0.0257
    178 H84         0.7484    6.3037   20.9894 H         1 THR         0.0257
    179 H85         3.9369    8.5314   22.1368 H         1 SER         0.1884
    180 H86         6.2759    9.7197   20.7358 H         1 SER         0.0823
    181 H87         6.7704   10.6969   23.0570 H         1 SER         0.0606
    182 H88         5.1874   10.0318   23.5849 H         1 SER         0.0606
    183 H89         5.0290   12.1846   22.7661 H         1 SER         0.2097
    184 H90         8.3333    9.0725   21.0287 H         1 ALA         0.1883
    185 H91         8.8725    6.4242   21.9773 H         1 ALA         0.0797
    186 H92        11.2569    7.0473   21.7630 H         1 ALA         0.0277
    187 H93        10.7840    8.7694   21.5697 H         1 ALA         0.0277
    188 H94        10.3000    7.5607   20.3322 H         1 ALA         0.0277
    189 H95         9.9067    6.6746   25.5156 H         1 ALA         0.1815
    190 H96         9.8404    5.5868   24.1693 H         1 ALA         0.1815
@<TRIPOS>BOND
     1    1    2 1  
     2    2    3 1  
     3    2    5 1  
     4    3    4 2  
     5    3    8 am 
     6    5    6 1  
     7    5    7 1  
     8    8    9 1  
     9    9   10 1  
    10    9   12 1  
    11   10   11 2  
    12   10   15 am 
    13   12   13 1  
    14   12   14 1  
    15   15   16 1  
    16   15   21 1  
    17   16   17 1  
    18   16   19 1  
    19   17   18 2  
    20   17   22 am 
    21   19   20 1  
    22   20   21 1  
    23   22   23 1  
    24   23   24 1  
    25   23   26 1  
    26   24   25 2  
    27   24   28 am 
    28   26   27 1  
    29   28   29 1  
    30   28   34 1  
    31   29   30 1  
    32   29   32 1  
    33   30   31 2  
    34   30   35 am 
    35   32   33 1  
    36   33   34 1  
    37   35   36 1  
    38   36   37 1  
    39   36   39 1  
    40   37   38 2  
    41   37   42 am 
    42   39   40 1  
    43   39   41 1  
    44   42   43 1  
    45   42   48 1  
    46   43   44 1  
    47   43   46 1  
    48   44   45 2  
    49   44   49 am 
    50   46   47 1  
    51   47   48 1  
    52   49   50 1  
    53   50   51 1  
    54   50   53 1  
    55   51   52 2  
    56   51   56 am 
    57   53   54 1  
    58   53   55 1  
    59   56   57 1  
    60   57   58 1  
    61   57   60 1  
    62   58   59 2  
    63   58   63 am 
    64   60   61 1  
    65   60   62 1  
    66   63   64 1  
    67   64   65 1  
    68   64   67 1  
    69   65   66 2  
    70   65   69 am 
    71   67   68 1  
    72   69   70 1  
    73   70   71 1  
    74   70   73 1  
    75   71   72 2  
    76   71   76 am 
    77   73   74 1  
    78   73   75 1  
    79   76   77 1  
    80   77   78 1  
    81   77   80 1  
    82   78   79 2  
    83   78   83 am 
    84   80   81 1  
    85   80   82 1  
    86   83   84 1  
    87   84   85 1  
    88   84   87 1  
    89   85   86 2  
    90   85   89 am 
    91   87   88 1  
    92   89   90 1  
    93   90   91 1  
    94   90   93 1  
    95   91   92 2  
    96   91   94 am 
    97    1   95 1  
    98    1   96 1  
    99    1   97 1  
   100    2   98 1  
   101    5   99 1  
   102    6  100 1  
   103    7  101 1  
   104    7  102 1  
   105    7  103 1  
   106    8  104 1  
   107    9  105 1  
   108   12  106 1  
   109   13  107 1  
   110   14  108 1  
   111   14  109 1  
   112   14  110 1  
   113   16  111 1  
   114   19  112 1  
   115   19  113 1  
   116   20  114 1  
   117   20  115 1  
   118   21  116 1  
   119   21  117 1  
   120   22  118 1  
   121   23  119 1  
   122   26  120 1  
   123   26  121 1  
   124   27  122 1  
   125   29  123 1  
   126   32  124 1  
   127   32  125 1  
   128   33  126 1  
   129   33  127 1  
   130   34  128 1  
   131   34  129 1  
   132   35  130 1  
   133   36  131 1  
   134   39  132 1  
   135   40  133 1  
   136   40  134 1  
   137   40  135 1  
   138   41  136 1  
   139   41  137 1  
   140   41  138 1  
   141   43  139 1  
   142   46  140 1  
   143   46  141 1  
   144   47  142 1  
   145   47  143 1  
   146   48  144 1  
   147   48  145 1  
   148   49  146 1  
   149   50  147 1  
   150   53  148 1  
   151   54  149 1  
   152   55  150 1  
   153   55  151 1  
   154   55  152 1  
   155   56  153 1  
   156   57  154 1  
   157   60  155 1  
   158   61  156 1  
   159   62  157 1  
   160   62  158 1  
   161   62  159 1  
   162   63  160 1  
   163   64  161 1  
   164   67  162 1  
   165   67  163 1  
   166   68  164 1  
   167   69  165 1  
   168   70  166 1  
   169   73  167 1  
   170   74  168 1  
   171   75  169 1  
   172   75  170 1  
   173   75  171 1  
   174   76  172 1  
   175   77  173 1  
   176   80  174 1  
   177   81  175 1  
   178   82  176 1  
   179   82  177 1  
   180   82  178 1  
   181   83  179 1  
   182   84  180 1  
   183   87  181 1  
   184   87  182 1  
   185   88  183 1  
   186   89  184 1  
   187   90  185 1  
   188   93  186 1  
   189   93  187 1  
   190   93  188 1  
   191   94  189 1  
   192   94  190 1  
@<TRIPOS>SUBSTRUCTURE
     1 THR         1

