3d62_ligand
  -I-interpret- 

 28 28  0  0  0  0  0  0  0  0999 V2000
   63.1580   41.9080   42.4120 O   0  0  0  0  0
   64.2710   41.4650   42.3670 C   0  0  0  0  0
   64.3870   40.0400   41.7410 C   0  0  0  0  0
   65.4370   42.1920   42.9420 C   0  0  0  0  0
   66.4040   42.3210   41.6980 N   0  0  0  0  0
   66.0210   42.7590   40.4410 C   0  0  0  0  0
   64.8420   43.1540   40.1450 O   0  0  0  0  0
   67.0640   42.7750   39.3730 O   0  0  0  0  0
   68.2960   43.5270   39.7830 C   0  0  0  0  0
   69.4740   42.9510   39.0340 C   0  0  0  0  0
   69.9220   43.5670   37.8660 C   0  0  0  0  0
   71.0110   43.0320   37.1780 C   0  0  0  0  0
   71.6440   41.8860   37.6600 C   0  0  0  0  0
   71.1950   41.2650   38.8230 C   0  0  0  0  0
   70.1070   41.8000   39.5120 C   0  0  0  0  0
   63.7935   39.3379   42.3266 H   0  0  0  0  0
   64.0172   40.0637   40.7159 H   0  0  0  0  0
   65.4310   39.7267   41.7449 H   0  0  0  0  0
   65.8917   41.6723   43.7854 H   0  0  0  0  0
   65.1688   43.1547   43.3771 H   0  0  0  0  0
   67.3818   42.0627   41.8308 H   0  0  0  0  0
   68.4527   43.4308   40.8574 H   0  0  0  0  0
   68.1840   44.5853   39.5471 H   0  0  0  0  0
   69.4239   44.4618   37.4927 H   0  0  0  0  0
   71.3671   43.5088   36.2648 H   0  0  0  0  0
   72.4972   41.4731   37.1218 H   0  0  0  0  0
   71.6906   40.3671   39.1921 H   0  0  0  0  0
   69.7501   41.3205   40.4235 H   0  0  0  0  0
  1  2  2  0  0  0
  2  3  1  0  0  0
  2  4  1  0  0  0
  4  5  1  0  0  0
  5  6  1  0  0  0
  6  7  2  0  0  0
  6  8  1  0  0  0
  8  9  1  0  0  0
  9 10  1  0  0  0
 10 11  4  0  0  0
 10 15  4  0  0  0
 11 12  4  0  0  0
 12 13  4  0  0  0
 13 14  4  0  0  0
 14 15  4  0  0  0
  3 16  1  0  0  0
  3 17  1  0  0  0
  3 18  1  0  0  0
  4 19  1  0  0  0
  4 20  1  0  0  0
  5 21  1  0  0  0
  9 22  1  0  0  0
  9 23  1  0  0  0
 11 24  1  0  0  0
 12 25  1  0  0  0
 13 26  1  0  0  0
 14 27  1  0  0  0
 15 28  1  0  0  0
M  END
$$$$
