1hef_ligand
  -I-interpret- 

102103  0  0  0  0  0  0  0  0999 V2000
  -13.6420   13.6160   34.9830 N   0  3  0  0  0
  -12.2960   13.8890   34.5570 C   0  0  0  0  0
  -12.2520   14.5870   33.1620 C   0  0  0  0  0
  -13.2750   14.4360   32.4770 O   0  0  0  0  0
  -11.3990   12.6720   34.5400 C   0  0  0  0  0
  -11.1350   15.2080   32.9240 N   0  0  0  0  0
  -10.3340   16.0110   32.1250 C   0  0  0  0  0
  -10.0430   15.3530   30.7410 C   0  0  0  0  0
   -9.3330   14.3720   30.6820 O   0  0  0  0  0
   -9.0600   16.4730   32.8210 C   0  0  0  0  0
  -10.5900   16.0090   29.7450 N   0  0  0  0  0
  -10.8310   16.1070   28.3570 C   0  0  0  0  0
  -12.3720   15.9770   28.1020 C   0  0  0  0  0
  -12.9550   14.6590   28.6170 C   0  0  0  0  0
  -12.2870   13.4330   28.3470 C   0  0  0  0  0
  -14.1280   14.6950   29.3820 C   0  0  0  0  0
  -12.8240   12.2320   28.8470 C   0  0  0  0  0
  -14.6620   13.4730   29.8700 C   0  0  0  0  0
  -14.0220   12.2730   29.5870 C   0  0  0  0  0
  -10.4180   17.4730   27.7490 C   0  0  0  0  0
  -11.2920   18.4600   28.2800 O   0  0  0  0  0
   -8.9690   17.7830   28.0620 C   0  0  0  0  0
   -7.9460   18.0530   26.9910 C   0  0  0  0  0
   -7.7610   17.0710   25.8550 C   0  0  0  0  0
   -7.1550   16.0070   26.0380 O   0  0  0  0  0
   -6.5570   18.0280   27.7500 C   0  0  0  0  0
   -5.4470   18.1850   26.8670 C   0  0  0  0  0
   -5.3220   19.3400   26.0520 C   0  0  0  0  0
   -4.4870   17.1600   26.7730 C   0  0  0  0  0
   -4.2260   19.4600   25.1770 C   0  0  0  0  0
   -3.3940   17.2830   25.8920 C   0  0  0  0  0
   -3.2590   18.4530   25.1030 C   0  0  0  0  0
   -8.2070   17.3680   24.6220 N   0  0  0  0  0
   -7.9530   16.4320   23.5160 C   0  0  0  0  0
   -7.1290   17.2710   22.4950 C   0  0  0  0  0
   -7.5590   18.3710   22.1260 O   0  0  0  0  0
   -9.1200   15.7860   22.8240 C   0  0  0  0  0
   -8.8110   14.3880   22.2450 C   0  0  0  0  0
  -10.4520   15.7510   23.5360 C   0  0  0  0  0
   -6.0500   16.6410   22.1220 N   0  0  0  0  0
   -4.9650   16.8370   21.2520 C   0  0  0  0  0
   -3.9780   17.8990   21.7610 C   0  0  0  0  0
   -4.1100   18.1740   22.9550 O   0  0  0  0  0
   -5.3750   17.2340   19.8230 C   0  0  0  0  0
   -5.6010   18.7340   19.7330 C   0  0  0  0  0
   -4.3190   16.6550   18.8580 C   0  0  0  0  0
   -3.5390   19.4440   19.9810 C   0  0  0  0  0
   -3.0530   18.5280   20.9390 O   0  0  0  0  0
  -13.6228   13.1614   35.8959 H   0  0  0  0  0
  -14.1608   14.4918   35.0488 H   0  0  0  0  0
  -14.0938   13.0019   34.3054 H   0  0  0  0  0
  -11.9051   14.5693   35.3136 H   0  0  0  0  0
  -11.7453   11.9777   33.7745 H   0  0  0  0  0
  -10.3768   12.9787   34.3185 H   0  0  0  0  0
  -11.4305   12.1853   35.5148 H   0  0  0  0  0
  -10.5529   14.9992   33.7352 H   0  0  0  0  0
  -10.9119   16.9157   31.9363 H   0  0  0  0  0
   -8.4051   15.6169   32.9831 H   0  0  0  0  0
   -8.5520   17.2074   32.1960 H   0  0  0  0  0
   -9.3146   16.9241   33.7801 H   0  0  0  0  0
  -11.0516   16.8161   30.1645 H   0  0  0  0  0
  -10.2392   15.3180   27.8930 H   0  0  0  0  0
  -12.5342   16.0131   27.0247 H   0  0  0  0  0
  -12.8662   16.7892   28.6351 H   0  0  0  0  0
  -11.3691   13.4235   27.7592 H   0  0  0  0  0
  -14.6212   15.6426   29.5985 H   0  0  0  0  0
  -12.3198   11.2831   28.6642 H   0  0  0  0  0
  -15.5742   13.4766   30.4667 H   0  0  0  0  0
  -14.4573   11.3405   29.9462 H   0  0  0  0  0
  -10.5025   17.4523   26.6625 H   0  0  0  0  0
  -11.0593   19.3190   27.9200 H   0  0  0  0  0
   -8.6103   16.8639   28.5254 H   0  0  0  0  0
   -9.0255   18.7297   28.5993 H   0  0  0  0  0
   -8.2935   18.9692   26.5135 H   0  0  0  0  0
   -6.4605   17.0600   28.2417 H   0  0  0  0  0
   -6.5449   18.8589   28.4554 H   0  0  0  0  0
   -6.0710   20.1303   26.1033 H   0  0  0  0  0
   -4.5897   16.2646   27.3861 H   0  0  0  0  0
   -4.1302   20.3470   24.5508 H   0  0  0  0  0
   -2.6569   16.4834   25.8177 H   0  0  0  0  0
   -2.4020   18.5674   24.4392 H   0  0  0  0  0
   -8.7173   18.2352   24.4548 H   0  0  0  0  0
   -7.4604   15.5584   23.9430 H   0  0  0  0  0
   -9.2575   16.5072   22.0183 H   0  0  0  0  0
   -8.0067   14.4687   21.5138 H   0  0  0  0  0
   -8.5050   13.7216   23.0515 H   0  0  0  0  0
   -9.7039   13.9905   21.7625 H   0  0  0  0  0
  -10.3471   15.2053   24.4737 H   0  0  0  0  0
  -10.7794   16.7701   23.7419 H   0  0  0  0  0
  -11.1872   15.2525   22.9043 H   0  0  0  0  0
   -5.9709   15.7445   22.6020 H   0  0  0  0  0
   -4.4856   15.8585   21.2254 H   0  0  0  0  0
   -6.3357   16.8101   19.5306 H   0  0  0  0  0
   -6.3937   19.0228   20.4232 H   0  0  0  0  0
   -4.6806   19.2553   19.9962 H   0  0  0  0  0
   -5.8902   18.9961   18.7153 H   0  0  0  0  0
   -3.3403   17.0681   19.1021 H   0  0  0  0  0
   -4.2924   15.5700   18.9591 H   0  0  0  0  0
   -4.5811   16.9194   17.8335 H   0  0  0  0  0
   -4.2214   18.9311   19.3033 H   0  0  0  0  0
   -4.0670   20.2518   20.4877 H   0  0  0  0  0
   -2.7025   19.8538   19.4149 H   0  0  0  0  0
  2  1  1  0  0  0
  2  5  1  0  0  0
  3  2  1  0  0  0
  3  4  2  0  0  0
  7  6  1  0  0  0
  7 10  1  0  0  0
  8  7  1  0  0  0
  8  9  2  0  0  0
  6  3  1  0  0  0
 12 11  1  0  0  0
 12 13  1  0  0  0
 13 14  1  0  0  0
 14 15  4  0  0  0
 14 16  4  0  0  0
 16 18  4  0  0  0
 18 19  4  0  0  0
 17 19  4  0  0  0
 15 17  4  0  0  0
 11  8  1  0  0  0
 23 26  1  0  0  0
 24 23  1  0  0  0
 24 25  2  0  0  0
 26 27  1  0  0  0
 27 28  4  0  0  0
 27 29  4  0  0  0
 29 31  4  0  0  0
 31 32  4  0  0  0
 30 32  4  0  0  0
 28 30  4  0  0  0
 34 33  1  0  0  0
 34 37  1  0  0  0
 35 34  1  0  0  0
 35 36  2  0  0  0
 37 39  1  0  0  0
 37 38  1  0  0  0
 33 24  1  0  0  0
 41 40  1  0  0  0
 41 44  1  0  0  0
 42 41  1  0  0  0
 42 43  2  0  0  0
 44 46  1  0  0  0
 44 45  1  0  0  0
 40 35  1  0  0  0
 48 47  1  0  0  0
 20 12  1  0  0  0
 20 21  1  0  0  0
 22 20  1  0  0  0
 23 22  1  0  0  0
 42 48  1  0  0  0
  1 49  1  0  0  0
  1 50  1  0  0  0
  1 51  1  0  0  0
  2 52  1  0  0  0
  5 53  1  0  0  0
  5 54  1  0  0  0
  5 55  1  0  0  0
  6 56  1  0  0  0
  7 57  1  0  0  0
 10 58  1  0  0  0
 10 59  1  0  0  0
 10 60  1  0  0  0
 11 61  1  0  0  0
 12 62  1  0  0  0
 13 63  1  0  0  0
 13 64  1  0  0  0
 15 65  1  0  0  0
 16 66  1  0  0  0
 17 67  1  0  0  0
 18 68  1  0  0  0
 19 69  1  0  0  0
 20 70  1  0  0  0
 21 71  1  0  0  0
 22 72  1  0  0  0
 22 73  1  0  0  0
 23 74  1  0  0  0
 26 75  1  0  0  0
 26 76  1  0  0  0
 28 77  1  0  0  0
 29 78  1  0  0  0
 30 79  1  0  0  0
 31 80  1  0  0  0
 32 81  1  0  0  0
 33 82  1  0  0  0
 34 83  1  0  0  0
 37 84  1  0  0  0
 38 85  1  0  0  0
 38 86  1  0  0  0
 38 87  1  0  0  0
 39 88  1  0  0  0
 39 89  1  0  0  0
 39 90  1  0  0  0
 40 91  1  0  0  0
 41 92  1  0  0  0
 44 93  1  0  0  0
 45 94  1  0  0  0
 45 95  1  0  0  0
 45 96  1  0  0  0
 46 97  1  0  0  0
 46 98  1  0  0  0
 46 99  1  0  0  0
 47100  1  0  0  0
 47101  1  0  0  0
 47102  1  0  0  0
M  END
$$$$
