3upv_ligand
  -I-interpret- 

109109  0  0  0  0  0  0  0  0999 V2000
    6.4180  -25.9090   18.6640 N   0  3  0  0  0
    5.5610  -25.0240   19.3880 C   0  0  0  0  0
    5.2400  -23.8580   18.4580 C   0  0  0  0  0
    5.7680  -23.7550   17.3610 O   0  0  0  0  0
    6.4200  -24.6330   20.5900 C   0  0  0  0  0
    7.1630  -25.9200   20.8760 C   0  0  0  0  0
    7.4960  -26.4390   19.4960 C   0  0  0  0  0
    4.3460  -22.9990   18.8970 N   0  0  0  0  0
    3.7630  -22.0050   18.0180 C   0  0  0  0  0
    4.7580  -21.0720   17.3800 C   0  0  0  0  0
    4.5830  -20.7260   16.2180 O   0  0  0  0  0
    2.6750  -21.2360   18.8210 C   0  0  0  0  0
    1.6360  -22.1710   19.1100 O   0  0  0  0  0
    2.1840  -19.9070   18.1540 C   0  0  0  0  0
    5.8480  -20.7700   18.0820 N   0  0  0  0  0
    6.7950  -19.7850   17.5900 C   0  0  0  0  0
    7.5850  -20.3760   16.3650 C   0  0  0  0  0
    8.1150  -19.6100   15.5730 O   0  0  0  0  0
    7.8080  -19.2890   18.6640 C   0  0  0  0  0
    7.1480  -18.6120   19.7590 C   0  0  0  0  0
    8.6770  -20.4330   19.1850 C   0  0  0  0  0
    7.5120  -21.7070   16.1780 N   0  0  0  0  0
    8.1500  -22.4590   15.0850 C   0  0  0  0  0
    7.2010  -22.8220   13.9250 C   0  0  0  0  0
    7.6020  -23.4860   12.9490 O   0  0  0  0  0
    8.7730  -23.7870   15.6370 C   0  0  0  0  0
    9.5370  -23.6180   16.9160 C   0  0  0  0  0
   10.8450  -22.7920   16.7570 C   0  0  0  0  0
   11.5080  -22.5830   17.8020 O   0  0  0  0  0
   11.2290  -22.3480   15.6200 O   0  0  0  0  0
    5.9480  -22.4190   14.0420 N   0  0  0  0  0
    4.9010  -22.8070   13.1470 C   0  0  0  0  0
    4.3530  -21.6320   12.3680 C   0  0  0  0  0
    4.2860  -20.5400   12.9070 O   0  0  0  0  0
    3.7750  -23.4580   13.9310 C   0  0  0  0  0
    4.2240  -24.6500   14.7170 C   0  0  0  0  0
    4.2330  -25.9050   13.9130 C   0  0  0  0  0
    4.3590  -26.9890   14.5510 O   0  0  0  0  0
    4.1350  -25.8230   12.6580 O   0  0  0  0  0
    4.0970  -21.8340   11.0720 N   0  0  0  0  0
    3.3820  -20.8510   10.2540 C   0  0  0  0  0
    2.2310  -21.5770    9.5500 C   0  0  0  0  0
    2.2420  -22.8150    9.4480 O   0  0  0  0  0
    4.2450  -20.1540    9.1980 C   0  0  0  0  0
    5.2060  -19.0940    9.8650 C   0  0  0  0  0
    5.0290  -21.1820    8.3470 C   0  0  0  0  0
    1.2400  -20.8060    9.1040 N   0  0  0  0  0
    0.0470  -21.3770    8.4500 C   0  0  0  0  0
    0.0610  -21.1920    6.9240 C   0  0  0  0  0
    0.5210  -20.1520    6.4100 O   0  0  0  0  0
   -1.1820  -20.7150    9.0510 C   0  0  0  0  0
   -1.4810  -21.2310   10.4540 C   0  0  0  0  0
   -2.2530  -22.2020   10.6030 O   0  0  0  0  0
   -0.8970  -20.7050   11.4150 O   0  0  0  0  0
   -0.3570  -22.1170    6.1670 O   0  0  0  0  0
    6.8384  -25.3854   17.8962 H   0  0  0  0  0
    5.8568  -26.6943   18.3342 H   0  0  0  0  0
    4.6041  -25.4271   19.7196 H   0  0  0  0  0
    5.8380  -24.2724   21.4381 H   0  0  0  0  0
    7.0795  -23.7878   20.3932 H   0  0  0  0  0
    6.5727  -26.6260   21.4601 H   0  0  0  0  0
    8.0484  -25.7667   21.4930 H   0  0  0  0  0
    8.4816  -26.1208   19.1561 H   0  0  0  0  0
    7.5547  -27.5269   19.4613 H   0  0  0  0  0
    4.0575  -23.0330   19.8747 H   0  0  0  0  0
    3.3210  -22.5254   17.1683 H   0  0  0  0  0
    3.1042  -20.8586   19.7491 H   0  0  0  0  0
    0.9418  -21.7326   19.6074 H   0  0  0  0  0
    3.0281  -19.2275   18.0366 H   0  0  0  0  0
    1.7560  -20.1291   17.1765 H   0  0  0  0  0
    1.4273  -19.4426   18.7863 H   0  0  0  0  0
    6.0196  -21.2347   18.9736 H   0  0  0  0  0
    6.2045  -18.9174   17.2956 H   0  0  0  0  0
    8.4575  -18.5656   18.1711 H   0  0  0  0  0
    6.6060  -17.7473   19.3761 H   0  0  0  0  0
    6.4492  -19.2968   20.2395 H   0  0  0  0  0
    7.8932  -18.2837   20.4835 H   0  0  0  0  0
    8.0408  -21.1947   19.6357 H   0  0  0  0  0
    9.2366  -20.8685   18.3572 H   0  0  0  0  0
    9.3713  -20.0489   19.9324 H   0  0  0  0  0
    6.9662  -22.2420   16.8535 H   0  0  0  0  0
    8.9118  -21.7901   14.6845 H   0  0  0  0  0
    9.4754  -24.1504   14.8869 H   0  0  0  0  0
    7.9485  -24.4700   15.8412 H   0  0  0  0  0
    9.8191  -24.6126   17.2615 H   0  0  0  0  0
    8.8935  -23.0795   17.6118 H   0  0  0  0  0
   10.5963  -22.6074   14.9462 H   0  0  0  0  0
    5.7136  -21.7956   14.8146 H   0  0  0  0  0
    5.3251  -23.5128   12.4328 H   0  0  0  0  0
    3.0238  -23.7947   13.2165 H   0  0  0  0  0
    3.3910  -22.7205   14.6358 H   0  0  0  0  0
    3.5245  -24.7878   15.5415 H   0  0  0  0  0
    5.2439  -24.4624   15.0528 H   0  0  0  0  0
    4.4142  -26.8013   15.4908 H   0  0  0  0  0
    4.4100  -22.7021   10.6375 H   0  0  0  0  0
    3.0398  -20.0650   10.9272 H   0  0  0  0  0
    3.5812  -19.6154    8.5217 H   0  0  0  0  0
    4.6113  -18.3422   10.3840 H   0  0  0  0  0
    5.8606  -19.5964   10.5771 H   0  0  0  0  0
    5.8072  -18.6140    9.0928 H   0  0  0  0  0
    5.6793  -21.7685    8.9961 H   0  0  0  0  0
    4.3264  -21.8438    7.8407 H   0  0  0  0  0
    5.6315  -20.6551    7.6071 H   0  0  0  0  0
    1.3079  -19.7946    9.2177 H   0  0  0  0  0
    0.0367  -22.4527    8.6257 H   0  0  0  0  0
   -2.0372  -20.9431    8.4148 H   0  0  0  0  0
   -0.9945  -19.6432    9.1151 H   0  0  0  0  0
   -2.6039  -22.4644    9.7488 H   0  0  0  0  0
   -0.6783  -22.8463    6.7022 H   0  0  0  0  0
  1  2  1  0  0  0
  1  7  1  0  0  0
  2  3  1  0  0  0
  2  5  1  0  0  0
  3  4  2  0  0  0
  3  8  1  0  0  0
  5  6  1  0  0  0
  6  7  1  0  0  0
  8  9  1  0  0  0
  9 10  1  0  0  0
  9 12  1  0  0  0
 10 11  2  0  0  0
 10 15  1  0  0  0
 12 13  1  0  0  0
 12 14  1  0  0  0
 15 16  1  0  0  0
 16 17  1  0  0  0
 16 19  1  0  0  0
 17 18  2  0  0  0
 17 22  1  0  0  0
 19 20  1  0  0  0
 19 21  1  0  0  0
 22 23  1  0  0  0
 23 24  1  0  0  0
 23 26  1  0  0  0
 24 25  2  0  0  0
 24 31  1  0  0  0
 26 27  1  0  0  0
 27 28  1  0  0  0
 28 29  2  0  0  0
 28 30  1  0  0  0
 31 32  1  0  0  0
 32 33  1  0  0  0
 32 35  1  0  0  0
 33 34  2  0  0  0
 33 40  1  0  0  0
 35 36  1  0  0  0
 36 37  1  0  0  0
 37 38  1  0  0  0
 37 39  2  0  0  0
 40 41  1  0  0  0
 41 42  1  0  0  0
 41 44  1  0  0  0
 42 43  2  0  0  0
 42 47  1  0  0  0
 44 45  1  0  0  0
 44 46  1  0  0  0
 47 48  1  0  0  0
 48 49  1  0  0  0
 48 51  1  0  0  0
 49 50  2  0  0  0
 49 55  1  0  0  0
 51 52  1  0  0  0
 52 53  1  0  0  0
 52 54  2  0  0  0
  1 56  1  0  0  0
  1 57  1  0  0  0
  2 58  1  0  0  0
  5 59  1  0  0  0
  5 60  1  0  0  0
  6 61  1  0  0  0
  6 62  1  0  0  0
  7 63  1  0  0  0
  7 64  1  0  0  0
  8 65  1  0  0  0
  9 66  1  0  0  0
 12 67  1  0  0  0
 13 68  1  0  0  0
 14 69  1  0  0  0
 14 70  1  0  0  0
 14 71  1  0  0  0
 15 72  1  0  0  0
 16 73  1  0  0  0
 19 74  1  0  0  0
 20 75  1  0  0  0
 20 76  1  0  0  0
 20 77  1  0  0  0
 21 78  1  0  0  0
 21 79  1  0  0  0
 21 80  1  0  0  0
 22 81  1  0  0  0
 23 82  1  0  0  0
 26 83  1  0  0  0
 26 84  1  0  0  0
 27 85  1  0  0  0
 27 86  1  0  0  0
 30 87  1  0  0  0
 31 88  1  0  0  0
 32 89  1  0  0  0
 35 90  1  0  0  0
 35 91  1  0  0  0
 36 92  1  0  0  0
 36 93  1  0  0  0
 38 94  1  0  0  0
 40 95  1  0  0  0
 41 96  1  0  0  0
 44 97  1  0  0  0
 45 98  1  0  0  0
 45 99  1  0  0  0
 45100  1  0  0  0
 46101  1  0  0  0
 46102  1  0  0  0
 46103  1  0  0  0
 47104  1  0  0  0
 48105  1  0  0  0
 51106  1  0  0  0
 51107  1  0  0  0
 53108  1  0  0  0
 55109  1  0  0  0
M  END
$$$$
