5owl_ligand
  -I-interpret- 

 27 28  0  0  0  0  0  0  0  0999 V2000
   -5.2050  -46.1440    4.8890 C   0  0  0  0  0
   -5.0960  -46.2670    6.2550 C   0  0  0  0  0
   -5.7760  -45.3340    7.0940 C   0  0  0  0  0
   -6.5380  -44.3110    6.5380 C   0  0  0  0  0
   -6.6440  -44.1910    5.1490 C   0  0  0  0  0
   -4.4730  -47.1430    4.3240 N   0  0  0  0  0
   -3.8740  -47.9100    7.7510 C   0  0  0  0  0
   -2.8250  -47.4340    9.9950 C   0  0  0  0  0
   -5.9840  -45.0980    4.3200 C   0  0  0  0  0
   -2.9110  -47.0150    8.5280 C   0  0  0  0  0
   -3.9370  -47.8540    5.2990 C   0  0  0  0  0
   -3.3300  -46.3880   10.8670 N   0  3  0  0  0
   -4.2870  -47.3520    6.4720 N   0  0  0  0  0
   -5.6760  -45.4390    9.0300 Br  0  0  0  0  0
   -7.4510  -43.0540    7.7110 Br  0  0  0  0  0
   -7.7140  -42.7580    4.3890 Br  0  0  0  0  0
   -6.1190  -44.9500    2.3860 Br  0  0  0  0  0
   -4.7705  -48.0301    8.3593 H   0  0  0  0  0
   -3.3555  -48.8466    7.5461 H   0  0  0  0  0
   -1.7806  -47.6220   10.2438 H   0  0  0  0  0
   -3.4291  -48.3299   10.1382 H   0  0  0  0  0
   -3.2762  -45.9891    8.4810 H   0  0  0  0  0
   -1.9198  -47.1032    8.0832 H   0  0  0  0  0
   -3.2995  -48.7268    5.1581 H   0  0  0  0  0
   -3.2610  -46.6935   11.8377 H   0  0  0  0  0
   -2.7769  -45.5411   10.7357 H   0  0  0  0  0
   -4.3055  -46.1975   10.6378 H   0  0  0  0  0
  2  1  4  0  0  0
  1  6  4  0  0  0
  1  9  4  0  0  0
  2  3  4  0  0  0
 13  2  4  0  0  0
  3  4  4  0  0  0
  3 14  1  0  0  0
  4  5  4  0  0  0
  4 15  1  0  0  0
  9  5  4  0  0  0
  5 16  1  0  0  0
  6 11  4  0  0  0
  7 10  1  0  0  0
  7 13  1  0  0  0
 10  8  1  0  0  0
  8 12  1  0  0  0
  9 17  1  0  0  0
 11 13  4  0  0  0
  7 18  1  0  0  0
  7 19  1  0  0  0
  8 20  1  0  0  0
  8 21  1  0  0  0
 10 22  1  0  0  0
 10 23  1  0  0  0
 11 24  1  0  0  0
 12 25  1  0  0  0
 12 26  1  0  0  0
 12 27  1  0  0  0
M  END
$$$$
