2fjp_ligand
  -I-interpret- 

 57 60  0  0  0  0  0  0  0  0999 V2000
   47.5750   52.1530   33.8220 C   0  0  0  0  0
   46.4920   52.6560   32.9590 C   0  0  0  0  0
   45.1990   52.4720   33.3700 C   0  0  0  0  0
   44.8740   51.8040   34.6720 C   0  0  0  0  0
   45.8940   51.3480   35.4530 C   0  0  0  0  0
   47.2840   51.5540   35.0120 N   0  0  0  0  0
   48.3290   51.2050   35.5900 N   0  0  0  0  0
   49.3290   51.6060   34.7910 C   0  0  0  0  0
   48.9020   52.2150   33.6670 N   0  0  0  0  0
   43.4820   51.6330   35.1370 C   0  0  0  0  0
   42.5980   52.7380   35.0280 C   0  0  0  0  0
   41.2820   52.6580   35.4820 C   0  0  0  0  0
   40.7780   51.4710   36.0630 C   0  0  0  0  0
   41.6620   50.3360   36.1660 C   0  0  0  0  0
   43.0040   50.4110   35.7080 C   0  0  0  0  0
   39.3180   51.4860   36.5720 C   0  0  0  0  0
   38.3460   50.9900   35.4420 C   0  0  0  0  0
   36.8970   51.0300   36.0240 C   0  0  0  0  0
   36.1220   49.9680   35.7960 N   0  0  0  0  0
   39.2940   50.4530   37.7980 C   0  0  0  0  0
   38.4220   51.8230   34.2480 N   0  3  0  0  0
   36.5100   51.9960   36.6630 O   0  0  0  0  0
   38.6650   49.3860   37.8000 O   0  0  0  0  0
   39.9030   50.9550   38.9830 N   0  0  0  0  0
   39.8980   50.0390   40.1500 C   0  0  0  0  0
   40.5090   52.2830   39.1860 C   0  0  0  0  0
   36.5690   48.5480   35.4690 C   0  0  0  0  0
   35.3620   47.6860   35.5160 C   0  0  0  0  0
   34.1870   48.6370   35.5250 C   0  0  0  0  0
   34.6860   50.0130   35.9680 C   0  0  0  0  0
   35.3670   47.0210   36.7240 F   0  0  0  0  0
   46.7141   53.1609   32.0189 H   0  0  0  0  0
   44.3850   52.8202   32.7341 H   0  0  0  0  0
   45.6834   50.8371   36.3925 H   0  0  0  0  0
   50.3822   51.4544   35.0272 H   0  0  0  0  0
   42.9543   53.6662   34.5812 H   0  0  0  0  0
   40.6297   53.5262   35.3874 H   0  0  0  0  0
   41.2945   49.4070   36.6018 H   0  0  0  0  0
   43.6632   49.5468   35.7905 H   0  0  0  0  0
   38.9978   52.4860   36.8647 H   0  0  0  0  0
   38.6296   49.9817   35.1405 H   0  0  0  0  0
   37.7767   51.4653   33.5437 H   0  0  0  0  0
   38.1689   52.7817   34.4871 H   0  0  0  0  0
   39.3734   51.8027   33.8808 H   0  0  0  0  0
   38.8690   49.7961   40.4152 H   0  0  0  0  0
   40.4343   49.1249   39.8951 H   0  0  0  0  0
   40.3870   50.5253   40.9941 H   0  0  0  0  0
   41.3296   52.4180   38.4814 H   0  0  0  0  0
   39.7561   53.0536   39.0208 H   0  0  0  0  0
   40.8880   52.3560   40.2054 H   0  0  0  0  0
   37.3137   48.2051   36.1873 H   0  0  0  0  0
   37.0306   48.5086   34.4823 H   0  0  0  0  0
   35.3234   46.9777   34.6884 H   0  0  0  0  0
   33.4209   48.2781   36.2123 H   0  0  0  0  0
   33.7502   48.7009   34.5284 H   0  0  0  0  0
   34.2351   50.8129   35.3807 H   0  0  0  0  0
   34.4108   50.2277   37.0006 H   0  0  0  0  0
  1  2  4  0  0  0
  1  6  4  0  0  0
  1  9  4  0  0  0
  2  3  4  0  0  0
  3  4  4  0  0  0
  4  5  4  0  0  0
  4 10  1  0  0  0
  5  6  4  0  0  0
  6  7  4  0  0  0
  7  8  4  0  0  0
  8  9  4  0  0  0
 10 11  4  0  0  0
 10 15  4  0  0  0
 11 12  4  0  0  0
 12 13  4  0  0  0
 13 14  4  0  0  0
 13 16  1  0  0  0
 14 15  4  0  0  0
 16 17  1  0  0  0
 16 20  1  0  0  0
 17 18  1  0  0  0
 17 21  1  0  0  0
 18 19  1  0  0  0
 18 22  2  0  0  0
 19 27  1  0  0  0
 19 30  1  0  0  0
 20 23  2  0  0  0
 20 24  1  0  0  0
 24 25  1  0  0  0
 24 26  1  0  0  0
 27 28  1  0  0  0
 28 29  1  0  0  0
 28 31  1  0  0  0
 29 30  1  0  0  0
  2 32  1  0  0  0
  3 33  1  0  0  0
  5 34  1  0  0  0
  8 35  1  0  0  0
 11 36  1  0  0  0
 12 37  1  0  0  0
 14 38  1  0  0  0
 15 39  1  0  0  0
 16 40  1  0  0  0
 17 41  1  0  0  0
 21 42  1  0  0  0
 21 43  1  0  0  0
 21 44  1  0  0  0
 25 45  1  0  0  0
 25 46  1  0  0  0
 25 47  1  0  0  0
 26 48  1  0  0  0
 26 49  1  0  0  0
 26 50  1  0  0  0
 27 51  1  0  0  0
 27 52  1  0  0  0
 28 53  1  0  0  0
 29 54  1  0  0  0
 29 55  1  0  0  0
 30 56  1  0  0  0
 30 57  1  0  0  0
M  END
$$$$
