5fpk_ligand
  -I-interpret- 

 63 63  0  0  0  0  0  0  0  0999 V2000
   28.6420    0.2650   39.6040 C   0  0  0  0  0
   28.4940    1.4090   39.1640 O   0  0  0  0  0
   29.7970   -0.6770   39.3450 C   0  0  0  0  0
   27.7370   -0.2570   40.3970 N   0  0  0  0  0
   26.5400    0.4550   40.7580 C   0  0  0  0  0
   26.7100    0.9240   42.1930 C   0  0  0  0  0
   27.6360    0.5060   42.8880 O   0  0  0  0  0
   25.3860   -0.5100   40.5750 C   0  0  0  0  0
   25.0540   -0.7630   39.1270 C   0  0  0  0  0
   25.8200   -1.6080   38.3180 C   0  0  0  0  0
   23.9750   -0.1390   38.5640 C   0  0  0  0  0
   25.4800   -1.7950   36.9600 C   0  0  0  0  0
   23.6590   -0.3180   37.2420 C   0  0  0  0  0
   24.4170   -1.1520   36.4430 C   0  0  0  0  0
   25.8650    1.8360   42.6420 N   0  0  0  0  0
   25.9600    2.2820   44.0220 C   0  0  0  0  0
   24.5750    2.3830   44.6270 C   0  0  0  0  0
   23.6490    2.9000   43.9940 O   0  0  0  0  0
   26.6420    3.6490   44.1080 C   0  0  0  0  0
   24.4630    1.9190   45.8750 N   0  0  0  0  0
   23.2020    2.0160   46.5890 C   0  0  0  0  0
   22.7330    3.4590   46.6550 C   0  0  0  0  0
   23.5200    4.3840   46.8790 O   0  0  0  0  0
   23.3090    1.4290   48.0030 C   0  0  0  0  0
   22.0220    1.5120   48.6290 O   0  0  0  0  0
   24.3230    2.1770   48.8620 C   0  0  0  0  0
   21.4310    3.6360   46.5040 N   0  0  0  0  0
   20.8050    4.9310   46.6180 C   0  0  0  0  0
   20.5560    5.2850   48.0880 C   0  0  0  0  0
   20.1600    6.4050   48.4010 O   0  0  0  0  0
   19.5110    4.9210   45.8120 C   0  0  0  0  0
   20.7940    4.3330   48.9880 N   0  0  0  0  0
   29.8694   -0.8756   38.2757 H   0  0  0  0  0
   30.7226   -0.2196   39.6944 H   0  0  0  0  0
   29.6282   -1.6122   39.8789 H   0  0  0  0  0
   27.8862   -1.1951   40.7686 H   0  0  0  0  0
   26.3450    1.3352   40.1453 H   0  0  0  0  0
   24.5069   -0.0693   41.0451 H   0  0  0  0  0
   25.6752   -1.4618   41.0206 H   0  0  0  0  0
   26.6833   -2.1247   38.7373 H   0  0  0  0  0
   23.3543    0.5133   39.1783 H   0  0  0  0  0
   26.0765   -2.4577   36.3330 H   0  0  0  0  0
   22.8010    0.2030   36.8171 H   0  0  0  0  0
   24.1541   -1.2891   35.3941 H   0  0  0  0  0
   25.1517    2.2238   42.0246 H   0  0  0  0  0
   26.5554    1.5537   44.5727 H   0  0  0  0  0
   27.6469    3.5791   43.6916 H   0  0  0  0  0
   26.0629    4.3788   43.5422 H   0  0  0  0  0
   26.7004    3.9595   45.1512 H   0  0  0  0  0
   25.2702    1.4929   46.3303 H   0  0  0  0  0
   22.4670    1.4309   46.0362 H   0  0  0  0  0
   23.6448    0.3957   47.9157 H   0  0  0  0  0
   22.0746    1.1477   49.5156 H   0  0  0  0  0
   25.3062    2.1185   48.3951 H   0  0  0  0  0
   24.0227    3.2211   48.9500 H   0  0  0  0  0
   24.3623    1.7242   49.8527 H   0  0  0  0  0
   20.8467    2.8255   46.2990 H   0  0  0  0  0
   21.4648    5.7000   46.2163 H   0  0  0  0  0
   19.7370    4.7090   44.7670 H   0  0  0  0  0
   18.8459    4.1518   46.2045 H   0  0  0  0  0
   19.0281    5.8951   45.8903 H   0  0  0  0  0
   20.6481    4.5209   49.9799 H   0  0  0  0  0
   21.1222    3.4158   48.6856 H   0  0  0  0  0
  1  2  2  0  0  0
  1  3  1  0  0  0
  1  4  1  0  0  0
  4  5  1  0  0  0
  5  6  1  0  0  0
  5  8  1  0  0  0
  6  7  2  0  0  0
  6 15  1  0  0  0
  8  9  1  0  0  0
  9 10  4  0  0  0
  9 11  4  0  0  0
 10 12  4  0  0  0
 11 13  4  0  0  0
 12 14  4  0  0  0
 13 14  4  0  0  0
 15 16  1  0  0  0
 16 17  1  0  0  0
 16 19  1  0  0  0
 17 18  2  0  0  0
 17 20  1  0  0  0
 20 21  1  0  0  0
 21 22  1  0  0  0
 21 24  1  0  0  0
 22 23  2  0  0  0
 22 27  1  0  0  0
 24 25  1  0  0  0
 24 26  1  0  0  0
 27 28  1  0  0  0
 28 29  1  0  0  0
 28 31  1  0  0  0
 29 30  2  0  0  0
 29 32  1  0  0  0
  3 33  1  0  0  0
  3 34  1  0  0  0
  3 35  1  0  0  0
  4 36  1  0  0  0
  5 37  1  0  0  0
  8 38  1  0  0  0
  8 39  1  0  0  0
 10 40  1  0  0  0
 11 41  1  0  0  0
 12 42  1  0  0  0
 13 43  1  0  0  0
 14 44  1  0  0  0
 15 45  1  0  0  0
 16 46  1  0  0  0
 19 47  1  0  0  0
 19 48  1  0  0  0
 19 49  1  0  0  0
 20 50  1  0  0  0
 21 51  1  0  0  0
 24 52  1  0  0  0
 25 53  1  0  0  0
 26 54  1  0  0  0
 26 55  1  0  0  0
 26 56  1  0  0  0
 27 57  1  0  0  0
 28 58  1  0  0  0
 31 59  1  0  0  0
 31 60  1  0  0  0
 31 61  1  0  0  0
 32 62  1  0  0  0
 32 63  1  0  0  0
M  END
$$$$
