6prg_ligand
  -I-interpret- 

 87 90  0  0  0  0  0  0  0  0999 V2000
   -0.1450   17.9880   -1.1650 C   0  0  0  0  0
    1.0540   17.7960   -0.2320 C   0  0  0  0  0
    2.2010   17.0840   -0.9490 C   0  0  0  0  0
    1.7220   15.7870   -1.5960 C   0  0  0  0  0
    0.4730   16.0190   -2.4530 C   0  0  0  0  0
   -0.1040   14.6970   -2.9460 C   0  0  0  0  0
    0.1920   18.9270   -2.1960 O   0  0  0  0  0
    1.5010   19.0670    0.2530 O   0  0  0  0  0
    3.2550   16.7960   -0.0230 O   0  0  0  0  0
    2.7730   15.2540   -2.4100 O   0  0  0  0  0
   -0.5420   16.7260   -1.7250 O   0  0  0  0  0
    0.6970   14.2240   -4.0340 O   0  0  0  0  0
   -1.1410   20.8810   -1.5330 C   0  0  0  0  0
   -0.8330   19.8420   -2.6130 C   0  0  0  0  0
   -0.3660   20.5210   -3.8970 C   0  0  0  0  0
   -1.0690   19.7710   -5.0100 C   0  0  0  0  0
   -2.3520   19.3060   -4.3470 C   0  0  0  0  0
   -2.8910   18.0180   -4.9570 C   0  0  0  0  0
    0.0670   21.3230   -0.9000 O   0  0  0  0  0
   -2.0390   19.1420   -2.9580 O   0  0  0  0  0
    1.0570   20.4590   -4.0440 O   0  0  0  0  0
   -1.3510   20.6220   -6.1230 O   0  0  0  0  0
   -2.1370   16.8890   -4.5030 O   0  0  0  0  0
    0.5680   12.7940   -4.1430 C   0  0  0  0  0
    1.8810   12.1860   -4.6370 C   0  0  0  0  0
    2.1330   12.5710   -6.0960 C   0  0  0  0  0
    0.9240   12.2460   -6.9760 C   0  0  0  0  0
   -0.3610   12.8140   -6.3630 C   0  0  0  0  0
   -1.6090   12.4260   -7.1540 C   0  0  0  0  0
    2.9700   12.6260   -3.8180 O   0  0  0  0  0
    3.2990   11.8990   -6.5850 O   0  0  0  0  0
    0.8110   10.8280   -7.1460 O   0  0  0  0  0
   -0.5060   12.3880   -5.0000 O   0  0  0  0  0
   -2.5650   13.4840   -7.0250 O   0  0  0  0  0
   -3.8770   12.9550   -6.7430 C   0  0  0  0  0
   -4.9260   14.0050   -7.1030 C   0  0  0  0  0
   -4.8440   15.1780   -6.1250 C   0  0  0  0  0
   -4.9640   14.6990   -4.6760 C   0  0  0  0  0
   -3.9590   13.5730   -4.3980 C   0  0  0  0  0
   -4.1160   12.9840   -2.9970 C   0  0  0  0  0
   -4.7190   14.4680   -8.4410 O   0  0  0  0  0
   -5.8540   16.1500   -6.4230 O   0  0  0  0  0
   -6.3040   14.2580   -4.4200 O   0  0  0  0  0
   -4.0660   12.5290   -5.3840 O   0  0  0  0  0
   -5.2590   12.1210   -2.9470 O   0  0  0  0  0
   -0.9872   18.3847   -0.5981 H   0  0  0  0  0
    0.7371   17.1757    0.6064 H   0  0  0  0  0
    2.5723   17.7457   -1.7315 H   0  0  0  0  0
    1.4612   15.0818   -0.8068 H   0  0  0  0  0
    0.7836   16.6227   -3.3057 H   0  0  0  0  0
   -1.1317   14.8427   -3.2788 H   0  0  0  0  0
   -0.0988   13.9662   -2.1373 H   0  0  0  0  0
    0.7771   19.5095    0.7021 H   0  0  0  0  0
    3.5549   17.6127    0.3828 H   0  0  0  0  0
    3.5532   15.1102   -1.8695 H   0  0  0  0  0
   -1.7886   20.4288   -0.7819 H   0  0  0  0  0
   -1.6313   21.7374   -1.9960 H   0  0  0  0  0
   -0.6078   21.5838   -3.9017 H   0  0  0  0  0
   -0.4684   18.9577   -5.4175 H   0  0  0  0  0
   -3.1469   20.0371   -4.4945 H   0  0  0  0  0
   -2.8112   18.0817   -6.0422 H   0  0  0  0  0
   -3.9305   17.8925   -4.6539 H   0  0  0  0  0
   -0.1454   21.9733   -0.2265 H   0  0  0  0  0
    1.3125   20.8949   -4.8603 H   0  0  0  0  0
   -1.7950   20.1156   -6.8071 H   0  0  0  0  0
   -2.4916   16.0891   -4.8979 H   0  0  0  0  0
    0.3333   12.4255   -3.1444 H   0  0  0  0  0
    1.8056   11.1007   -4.5705 H   0  0  0  0  0
    2.2951   13.6480   -6.1388 H   0  0  0  0  0
    1.0689   12.7096   -7.9518 H   0  0  0  0  0
   -0.2672   13.8993   -6.4006 H   0  0  0  0  0
   -2.0244   11.4954   -6.7672 H   0  0  0  0  0
   -1.3563   12.2743   -8.2034 H   0  0  0  0  0
    2.8024   12.3798   -2.9054 H   0  0  0  0  0
    4.0485   12.1118   -6.0241 H   0  0  0  0  0
    1.6221   10.4873   -7.5302 H   0  0  0  0  0
   -3.9849   12.0578   -7.3525 H   0  0  0  0  0
   -5.9161   13.5542   -7.0360 H   0  0  0  0  0
   -3.8669   15.6469   -6.2408 H   0  0  0  0  0
   -4.7346   15.5288   -4.0075 H   0  0  0  0  0
   -2.9676   14.0220   -4.4589 H   0  0  0  0  0
   -4.2508   13.7958   -2.2822 H   0  0  0  0  0
   -3.2238   12.4084   -2.7504 H   0  0  0  0  0
   -4.7722   13.7255   -9.0472 H   0  0  0  0  0
   -5.7614   16.4369   -7.3344 H   0  0  0  0  0
   -6.9157   14.9757   -4.5997 H   0  0  0  0  0
   -5.3461   11.7581   -2.0625 H   0  0  0  0  0
 12 24  1  0  0  0
 34 35  1  0  0  0
  2  1  1  0  0  0
  1  7  1  0  0  0
  1 11  1  0  0  0
  2  3  1  0  0  0
  2  8  1  0  0  0
  3  4  1  0  0  0
  3  9  1  0  0  0
  4  5  1  0  0  0
  4 10  1  0  0  0
  5  6  1  0  0  0
 11  5  1  0  0  0
  6 12  1  0  0  0
  7 14  1  0  0  0
 14 13  1  0  0  0
 13 19  1  0  0  0
 14 15  1  0  0  0
 14 20  1  0  0  0
 15 16  1  0  0  0
 15 21  1  0  0  0
 16 17  1  0  0  0
 16 22  1  0  0  0
 17 18  1  0  0  0
 17 20  1  0  0  0
 18 23  1  0  0  0
 33 28  1  0  0  0
 33 24  1  0  0  0
 28 27  1  0  0  0
 27 26  1  0  0  0
 26 25  1  0  0  0
 25 24  1  0  0  0
 27 32  1  0  0  0
 26 31  1  0  0  0
 25 30  1  0  0  0
 28 29  1  0  0  0
 29 34  1  0  0  0
 44 39  1  0  0  0
 44 35  1  0  0  0
 39 38  1  0  0  0
 38 37  1  0  0  0
 37 36  1  0  0  0
 36 35  1  0  0  0
 38 43  1  0  0  0
 37 42  1  0  0  0
 36 41  1  0  0  0
 39 40  1  0  0  0
 40 45  1  0  0  0
  1 46  1  0  0  0
  2 47  1  0  0  0
  3 48  1  0  0  0
  4 49  1  0  0  0
  5 50  1  0  0  0
  6 51  1  0  0  0
  6 52  1  0  0  0
  8 53  1  0  0  0
  9 54  1  0  0  0
 10 55  1  0  0  0
 13 56  1  0  0  0
 13 57  1  0  0  0
 15 58  1  0  0  0
 16 59  1  0  0  0
 17 60  1  0  0  0
 18 61  1  0  0  0
 18 62  1  0  0  0
 19 63  1  0  0  0
 21 64  1  0  0  0
 22 65  1  0  0  0
 23 66  1  0  0  0
 24 67  1  0  0  0
 25 68  1  0  0  0
 26 69  1  0  0  0
 27 70  1  0  0  0
 28 71  1  0  0  0
 29 72  1  0  0  0
 29 73  1  0  0  0
 30 74  1  0  0  0
 31 75  1  0  0  0
 32 76  1  0  0  0
 35 77  1  0  0  0
 36 78  1  0  0  0
 37 79  1  0  0  0
 38 80  1  0  0  0
 39 81  1  0  0  0
 40 82  1  0  0  0
 40 83  1  0  0  0
 41 84  1  0  0  0
 42 85  1  0  0  0
 43 86  1  0  0  0
 45 87  1  0  0  0
M  END
$$$$
