3oj8_ligand
  -I-interpret- 

 52 56  0  0  0  0  0  0  0  0999 V2000
   39.8600  -39.6760    6.2200 C   0  0  0  0  0
   38.8620  -38.5690    6.5670 C   0  0  0  0  0
   39.2370  -37.9220    7.7770 O   0  0  0  0  0
   37.3650  -39.0080    6.7810 C   0  0  0  0  0
   45.3940  -47.1990    9.5190 C   0  0  0  0  0
   33.4400  -42.6120   10.1630 C   0  0  0  0  0
   45.2090  -45.8180    9.8370 C   0  0  0  0  0
   45.1410  -47.7480    8.2350 C   0  0  0  0  0
   34.8310  -42.8420   10.0220 C   0  0  0  0  0
   32.8350  -41.5410    9.4540 C   0  0  0  0  0
   44.7160  -44.9850    8.7840 C   0  0  0  0  0
   44.6610  -46.8980    7.2240 C   0  0  0  0  0
   35.6220  -42.0080    9.1610 C   0  0  0  0  0
   41.8560  -44.0010    7.4960 C   0  0  0  0  0
   40.8020  -43.0470    7.7010 C   0  0  0  0  0
   35.1990  -39.2060    6.7100 C   0  0  0  0  0
   43.1540  -42.4130    6.1140 C   0  0  0  0  0
   42.3000  -40.1100    5.6350 C   0  0  0  0  0
   41.3070  -39.0850    6.2000 C   0  0  0  0  0
   39.8510  -40.7490    7.2830 C   0  0  0  0  0
   33.6120  -40.7500    8.6440 N   0  0  0  0  0
   36.2950  -38.5830    6.1880 N   0  0  0  0  0
   44.0110  -44.6530    6.5270 O   0  0  0  0  0
   36.9930  -39.8930    7.7190 O   0  0  0  0  0
   44.4640  -45.5060    7.4870 C   0  0  0  0  0
   42.9960  -43.6970    6.6890 C   0  0  0  0  0
   40.9510  -41.7680    7.0970 C   0  0  0  0  0
   42.1200  -41.4600    6.2940 C   0  0  0  0  0
   34.9670  -40.9230    8.4870 C   0  0  0  0  0
   35.6460  -40.0450    7.6700 C   0  0  0  0  0
   39.5776  -40.0887    5.2515 H   0  0  0  0  0
   38.9026  -37.9323    5.6832 H   0  0  0  0  0
   40.1483  -37.6271    7.7118 H   0  0  0  0  0
   45.7484  -47.8663   10.3047 H   0  0  0  0  0
   32.8397  -43.2516   10.8100 H   0  0  0  0  0
   45.4314  -45.4213   10.8276 H   0  0  0  0  0
   45.3151  -48.8057    8.0373 H   0  0  0  0  0
   35.3036  -43.6569   10.5704 H   0  0  0  0  0
   31.7665  -41.3490    9.5515 H   0  0  0  0  0
   44.5300  -43.9292    8.9809 H   0  0  0  0  0
   44.4381  -47.3010    6.2361 H   0  0  0  0  0
   36.6873  -42.1933    9.0235 H   0  0  0  0  0
   41.7848  -44.9811    7.9675 H   0  0  0  0  0
   39.9226  -43.2935    8.2960 H   0  0  0  0  0
   34.1619  -39.0556    6.4101 H   0  0  0  0  0
   44.0500  -42.1629    5.5460 H   0  0  0  0  0
   43.3134  -39.7586    5.8290 H   0  0  0  0  0
   42.1214  -40.2167    4.5650 H   0  0  0  0  0
   41.6002  -38.8331    7.2191 H   0  0  0  0  0
   41.3176  -38.1969    5.5681 H   0  0  0  0  0
   38.8971  -41.2727    7.2201 H   0  0  0  0  0
   40.0048  -40.2645    8.2472 H   0  0  0  0  0
  2  1  1  0  0  0
  1 19  1  0  0  0
  1 20  1  0  0  0
  2  3  1  0  0  0
  4  2  1  0  0  0
  4 22  4  0  0  0
 24  4  4  0  0  0
  7  5  4  0  0  0
  8  5  4  0  0  0
  9  6  4  0  0  0
 10  6  4  0  0  0
 11  7  4  0  0  0
 12  8  4  0  0  0
 13  9  4  0  0  0
 21 10  4  0  0  0
 25 11  4  0  0  0
 25 12  4  0  0  0
 29 13  4  0  0  0
 15 14  4  0  0  0
 14 26  4  0  0  0
 27 15  4  0  0  0
 16 22  4  0  0  0
 30 16  4  0  0  0
 17 26  4  0  0  0
 28 17  4  0  0  0
 19 18  1  0  0  0
 18 28  1  0  0  0
 20 27  1  0  0  0
 29 21  4  0  0  0
 23 25  1  0  0  0
 26 23  1  0  0  0
 30 24  4  0  0  0
 27 28  4  0  0  0
 29 30  1  0  0  0
  1 31  1  0  0  0
  2 32  1  0  0  0
  3 33  1  0  0  0
  5 34  1  0  0  0
  6 35  1  0  0  0
  7 36  1  0  0  0
  8 37  1  0  0  0
  9 38  1  0  0  0
 10 39  1  0  0  0
 11 40  1  0  0  0
 12 41  1  0  0  0
 13 42  1  0  0  0
 14 43  1  0  0  0
 15 44  1  0  0  0
 16 45  1  0  0  0
 17 46  1  0  0  0
 18 47  1  0  0  0
 18 48  1  0  0  0
 19 49  1  0  0  0
 19 50  1  0  0  0
 20 51  1  0  0  0
 20 52  1  0  0  0
M  END
$$$$
