4an0_ligand
  -I-interpret- 

 50 52  0  0  0  0  0  0  0  0999 V2000
   42.9310   38.1090   86.8570 C   0  0  0  0  0
   44.3610   38.3830   86.3900 C   0  0  0  0  0
   45.3990   38.2620   87.4900 C   0  0  0  0  0
   45.4920   36.8800   88.1150 C   0  0  0  0  0
   45.7350   35.7390   87.3410 C   0  0  0  0  0
   45.3720   36.7460   89.5040 C   0  0  0  0  0
   45.8610   34.4840   87.9490 C   0  0  0  0  0
   45.4750   35.4900   90.1060 C   0  0  0  0  0
   45.7220   34.3580   89.3290 C   0  0  0  0  0
   42.0190   37.7570   85.6860 C   0  0  0  0  0
   42.4480   37.7940   84.5460 O   0  0  0  0  0
   40.7490   37.4070   85.9830 N   0  0  0  0  0
   39.8150   37.0390   84.9270 C   0  0  0  0  0
   39.5100   38.1620   83.9550 C   0  0  0  0  0
   39.6000   39.3320   84.2960 O   0  0  0  0  0
   38.5330   36.6200   85.6330 C   0  0  0  0  0
   38.8860   36.5000   87.0910 C   0  0  0  0  0
   40.1550   37.3130   87.3230 C   0  0  0  0  0
   37.3420   38.8350   81.9800 C   0  0  0  0  0
   36.2260   38.6500   82.3030 N   0  0  0  0  0
   38.7780   38.7510   81.6930 C   0  0  0  0  0
   38.9580   37.9000   80.4410 C   0  0  0  0  0
   38.5730   36.4940   80.8440 C   0  0  0  0  0
   38.9910   36.3850   82.2940 C   0  0  0  0  0
   39.1380   37.7810   82.7290 N   0  0  0  0  0
   42.5458   39.0088   87.3366 H   0  0  0  0  0
   42.9485   37.2654   87.5470 H   0  0  0  0  0
   44.3924   39.4097   86.0253 H   0  0  0  0  0
   44.6032   37.6386   85.6316 H   0  0  0  0  0
   45.1084   38.9525   88.2817 H   0  0  0  0  0
   46.3686   38.4758   87.0402 H   0  0  0  0  0
   45.8267   35.8282   86.2585 H   0  0  0  0  0
   45.1970   37.6283   90.1196 H   0  0  0  0  0
   46.0684   33.6036   87.3408 H   0  0  0  0  0
   45.3621   35.3940   91.1859 H   0  0  0  0  0
   45.8059   33.3787   89.8002 H   0  0  0  0  0
   40.2586   36.2472   84.3233 H   0  0  0  0  0
   38.1539   35.6772   85.2386 H   0  0  0  0  0
   37.7385   37.3497   85.4769 H   0  0  0  0  0
   39.0473   35.4560   87.3597 H   0  0  0  0  0
   38.0732   36.8759   87.7124 H   0  0  0  0  0
   39.9518   38.2905   87.7604 H   0  0  0  0  0
   40.8245   36.8469   88.0459 H   0  0  0  0  0
   39.2864   39.7128   81.6252 H   0  0  0  0  0
   39.9840   37.9422   80.0754 H   0  0  0  0  0
   38.3382   38.2626   79.6210 H   0  0  0  0  0
   39.0606   35.7436   80.2217 H   0  0  0  0  0
   37.5068   36.3096   80.7121 H   0  0  0  0  0
   39.9124   35.8155   82.4161 H   0  0  0  0  0
   38.2618   35.8405   82.8938 H   0  0  0  0  0
  1  2  1  0  0  0
 10  1  1  0  0  0
  2  3  1  0  0  0
  3  4  1  0  0  0
  4  5  4  0  0  0
  4  6  4  0  0  0
  5  7  4  0  0  0
  6  8  4  0  0  0
  7  9  4  0  0  0
  8  9  4  0  0  0
 10 11  2  0  0  0
 12 10  1  0  0  0
 13 12  1  0  0  0
 12 18  1  0  0  0
 14 13  1  0  0  0
 13 16  1  0  0  0
 14 15  2  0  0  0
 25 14  1  0  0  0
 16 17  1  0  0  0
 17 18  1  0  0  0
 19 20  3  0  0  0
 21 19  1  0  0  0
 21 22  1  0  0  0
 21 25  1  0  0  0
 22 23  1  0  0  0
 23 24  1  0  0  0
 24 25  1  0  0  0
  1 26  1  0  0  0
  1 27  1  0  0  0
  2 28  1  0  0  0
  2 29  1  0  0  0
  3 30  1  0  0  0
  3 31  1  0  0  0
  5 32  1  0  0  0
  6 33  1  0  0  0
  7 34  1  0  0  0
  8 35  1  0  0  0
  9 36  1  0  0  0
 13 37  1  0  0  0
 16 38  1  0  0  0
 16 39  1  0  0  0
 17 40  1  0  0  0
 17 41  1  0  0  0
 18 42  1  0  0  0
 18 43  1  0  0  0
 21 44  1  0  0  0
 22 45  1  0  0  0
 22 46  1  0  0  0
 23 47  1  0  0  0
 23 48  1  0  0  0
 24 49  1  0  0  0
 24 50  1  0  0  0
M  END
$$$$
