### 
### Created by X-TOOL on Mon Sep 10 21:13:23 2018
### 

@<TRIPOS>MOLECULE
4yoz_ligand
  152   153     1     0     0
SMALL
GAST_HUCK


@<TRIPOS>ATOM
      1 N          -6.7930   37.9550   35.3040 N.4       1 ASP         0.2391
      2 CA         -5.8890   37.3930   36.3010 C.3       1 ASP         0.0764
      3 C          -4.8020   36.5430   35.6540 C.2       1 ASP         0.2284
      4 O          -3.6150   36.7280   35.9250 O.2       1 ASP        -0.3906
      5 CB         -6.6670   36.5600   37.3200 C.3       1 ASP         0.0607
      6 CG         -7.6080   37.3990   38.1620 C.2       1 ASP         0.0425
      7 OD1        -7.2400   37.7360   39.3080 O.co2     1 ASP        -0.5686
      8 OD2        -8.7150   37.7240   37.6810 O.co2     1 ASP        -0.5686
      9 N          -5.2100   35.6130   34.7970 N.am      1 LEU        -0.2609
     10 CA         -4.2570   34.7550   34.1020 C.3       1 LEU         0.1313
     11 C          -3.6910   35.4400   32.8630 C.2       1 LEU         0.2040
     12 O          -2.8630   34.8710   32.1540 O.2       1 LEU        -0.3944
     13 CB         -4.9030   33.4240   33.7170 C.3       1 LEU        -0.0101
     14 CG         -4.7120   32.2840   34.7180 C.3       1 LEU        -0.0425
     15 CD1        -5.2740   30.9760   34.1740 C.3       1 LEU        -0.0625
     16 CD2        -3.2390   32.1420   35.0650 C.3       1 LEU        -0.0625
     17 N          -4.1450   36.6610   32.6070 N.am      1 TYR        -0.2621
     18 CA         -3.6680   37.4280   31.4660 C.3       1 TYR         0.1390
     19 C          -2.2920   38.0270   31.7470 C.2       1 TYR         0.2058
     20 O          -1.9260   38.2550   32.9000 O.2       1 TYR        -0.3942
     21 CB         -4.6710   38.5280   31.1080 C.3       1 TYR         0.0163
     22 CG         -6.0090   37.9990   30.6350 C.ar      1 TYR        -0.0493
     23 CD1        -6.1170   37.2980   29.4380 C.ar      1 TYR        -0.0685
     24 CD2        -7.1670   38.2050   31.3790 C.ar      1 TYR        -0.0685
     25 CE1        -7.3360   36.8130   28.9980 C.ar      1 TYR        -0.0398
     26 CE2        -8.3910   37.7230   30.9460 C.ar      1 TYR        -0.0398
     27 CZ         -8.4680   37.0290   29.7550 C.ar      1 TYR         0.0805
     28 OH         -9.6820   36.5480   29.3160 O.3       1 TYR        -0.3376
     29 N          -1.5270   38.2670   30.6870 N.am      1 CYS        -0.2628
     30 CA         -0.1790   38.8070   30.8260 C.3       1 CYS         0.1396
     31 C          -0.1440   40.2970   30.4920 C.2       1 CYS         0.2048
     32 O          -0.4490   40.7060   29.3730 O.2       1 CYS        -0.3944
     33 CB          0.8010   38.0460   29.9380 C.3       1 CYS         0.0311
     34 SG          2.4890   38.6650   30.0390 S.3       1 CYS        -0.1735
     35 N           0.2300   41.1010   31.4770 N.am      1 TYR        -0.2621
     36 CA          0.1760   42.5500   31.3470 C.3       1 TYR         0.1390
     37 C           1.5180   43.1450   30.9410 C.2       1 TYR         0.2057
     38 O           1.6790   44.3620   30.8910 O.2       1 TYR        -0.3942
     39 CB         -0.3290   43.1530   32.6540 C.3       1 TYR         0.0163
     40 CG         -1.7290   42.6800   32.9600 C.ar      1 TYR        -0.0493
     41 CD1        -2.8370   43.3820   32.4960 C.ar      1 TYR        -0.0685
     42 CD2        -1.9470   41.5010   33.6630 C.ar      1 TYR        -0.0685
     43 CE1        -4.1250   42.9390   32.7530 C.ar      1 TYR        -0.0398
     44 CE2        -3.2280   41.0490   33.9220 C.ar      1 TYR        -0.0398
     45 CZ         -4.3140   41.7720   33.4670 C.ar      1 TYR         0.0805
     46 OH         -5.5890   41.3230   33.7280 O.3       1 TYR        -0.3376
     47 N           2.4820   42.2730   30.6670 N.am      1 GLU        -0.2635
     48 CA          3.7840   42.6940   30.1690 C.3       1 GLU         0.1325
     49 C           3.7020   43.1180   28.7050 C.2       1 GLU         0.2040
     50 O           2.7700   42.7460   27.9950 O.2       1 GLU        -0.3944
     51 CB          4.8020   41.5630   30.3300 C.3       1 GLU        -0.0008
     52 CG          4.7720   40.9020   31.6940 C.3       1 GLU         0.0044
     53 CD          5.6130   39.6400   31.7540 C.2       1 GLU         0.0350
     54 OE1         6.7430   39.6530   31.2220 O.co2     1 GLU        -0.5690
     55 OE2         5.1430   38.6360   32.3300 O.co2     1 GLU        -0.5690
     56 N           4.6810   43.9090   28.2700 N.am      1 GLN        -0.2636
     57 CA          4.8380   44.2980   26.8680 C.3       1 GLN         0.1330
     58 C           6.3050   44.0700   26.4450 C.2       1 GLN         0.2040
     59 O           7.1010   43.5580   27.2330 O.2       1 GLN        -0.3944
     60 CB          4.4140   45.7580   26.6690 C.3       1 GLN         0.0045
     61 CG          3.5450   46.3080   27.8080 C.3       1 GLN         0.0412
     62 CD          3.4240   47.8200   27.7960 C.2       1 GLN         0.1737
     63 OE1         3.7800   48.4720   26.8160 O.2       1 GLN        -0.3973
     64 NE2         2.9430   48.3880   28.8990 N.am      1 GLN        -0.3009
     65 N           6.6660   44.4510   25.2200 N.am      1 LEU        -0.2637
     66 CA          8.0140   44.1800   24.6990 C.3       1 LEU         0.1312
     67 C           8.6510   45.4560   24.0820 C.2       1 LEU         0.2035
     68 O           7.9430   46.4480   23.9030 O.2       1 LEU        -0.3944
     69 CB          7.9550   42.9920   23.7100 C.3       1 LEU        -0.0101
     70 CG          7.4740   42.8990   22.2600 C.3       1 LEU        -0.0425
     71 CD1         8.4000   43.5670   21.2740 C.3       1 LEU        -0.0625
     72 CD2         7.3980   41.4270   21.9440 C.3       1 LEU        -0.0625
     73 N           9.9610   45.4870   23.7840 N.am      1 ASN        -0.2674
     74 CA         10.9110   44.3600   23.8080 C.3       1 ASN         0.1110
     75 C          11.2260   43.7940   25.1870 C.2       1 ASN         0.0624
     76 O          11.4420   44.5330   26.1450 O.co2     1 ASN        -0.5665
     77 CB         12.2240   44.7710   23.1290 C.3       1 ASN         0.0718
     78 CG         12.0050   45.3680   21.7510 C.2       1 ASN         0.1774
     79 OD1        10.8710   45.5010   21.3030 O.2       1 ASN        -0.3971
     80 ND2        13.0930   45.6930   21.0550 N.am      1 ASN        -0.3007
     81 OXT        11.2730   42.5820   25.3830 O.co2     1 ASN        -0.5665
     82 H1         -7.4976   38.5098   35.7642 H         1 ASP         0.2016
     83 H2         -7.2352   37.2077   34.7921 H         1 ASP         0.2016
     84 H3         -6.2711   38.5360   34.6667 H         1 ASP         0.2016
     85 H4         -5.4040   38.2260   36.8310 H         1 ASP         0.1117
     86 H5         -5.9497   36.0589   37.9866 H         1 ASP         0.0512
     87 H6         -7.2563   35.8039   36.7806 H         1 ASP         0.0512
     88 H7         -6.1886   35.4993   34.6254 H         1 LEU         0.1885
     89 H8         -3.4235   34.5472   34.7890 H         1 LEU         0.0800
     90 H9         -4.4747   33.1054   32.7552 H         1 LEU         0.0315
     91 H10        -5.9834   33.5935   33.5991 H         1 LEU         0.0315
     92 H11        -5.2612   32.5356   35.6373 H         1 LEU         0.0298
     93 H12        -5.1227   30.1761   34.9138 H         1 LEU         0.0232
     94 H13        -4.7553   30.7144   33.2399 H         1 LEU         0.0232
     95 H14        -6.3496   31.0933   33.9757 H         1 LEU         0.0232
     96 H15        -2.8602   33.0985   35.4543 H         1 LEU         0.0232
     97 H16        -2.6748   31.8642   34.1625 H         1 LEU         0.0232
     98 H17        -3.1160   31.3606   35.8293 H         1 LEU         0.0232
     99 H18        -4.8313   37.0634   33.2129 H         1 TYR         0.1885
    100 H19        -3.5782   36.7478   30.6062 H         1 TYR         0.0821
    101 H20        -4.2385   39.1455   30.3070 H         1 TYR         0.0453
    102 H21        -4.8386   39.1494   32.0001 H         1 TYR         0.0453
    103 H22        -5.2296   37.1286   28.8389 H         1 TYR         0.0530
    104 H23        -7.1099   38.7519   32.3132 H         1 TYR         0.0530
    105 H24        -7.4006   36.2666   28.0640 H         1 TYR         0.0525
    106 H25        -9.2832   37.8896   31.5387 H         1 TYR         0.0525
    107 H26        -9.5624   36.0982   28.4877 H         1 TYR         0.2458
    108 H27        -1.8837   38.0729   29.7731 H         1 CYS         0.1884
    109 H28         0.1337   38.6815   31.8731 H         1 CYS         0.0808
    110 H29         0.4618   38.1278   28.8948 H         1 CYS         0.0422
    111 H30         0.7987   36.9890   30.2426 H         1 CYS         0.0422
    112 H31         3.0819   38.1214   29.4315 H         1 CYS         0.1019
    113 H32         0.5583   40.7014   32.3329 H         1 TYR         0.1885
    114 H33        -0.5477   42.7932   30.5551 H         1 TYR         0.0821
    115 H34        -0.3302   44.2496   32.5679 H         1 TYR         0.0453
    116 H35         0.3404   42.8502   33.4727 H         1 TYR         0.0453
    117 H36        -2.6905   44.2909   31.9237 H         1 TYR         0.0530
    118 H37        -1.0981   40.9257   34.0144 H         1 TYR         0.0530
    119 H38        -4.9781   43.5046   32.3960 H         1 TYR         0.0525
    120 H39        -3.3794   40.1317   34.4794 H         1 TYR         0.0525
    121 H40        -6.2192   41.9261   33.3515 H         1 TYR         0.2458
    122 H41         2.3083   41.2982   30.8069 H         1 GLU         0.1883
    123 H42         4.1206   43.5566   30.7628 H         1 GLU         0.0801
    124 H43         5.8083   41.9764   30.1671 H         1 GLU         0.0330
    125 H44         4.5926   40.7970   29.5688 H         1 GLU         0.0330
    126 H45         3.7308   40.6424   31.9361 H         1 GLU         0.0433
    127 H46         5.1548   41.6152   32.4388 H         1 GLU         0.0433
    128 H47         5.3426   44.2548   28.9353 H         1 GLN         0.1883
    129 H48         4.1903   43.6615   26.2473 H         1 GLN         0.0801
    130 H49         3.8435   45.8294   25.7313 H         1 GLN         0.0337
    131 H50         5.3209   46.3761   26.5944 H         1 GLN         0.0337
    132 H51         3.9903   46.0013   28.7659 H         1 GLN         0.0504
    133 H52         2.5372   45.8767   27.7174 H         1 GLN         0.0504
    134 H53         2.8418   49.3817   28.9463 H         1 GLN         0.1814
    135 H54         2.6827   47.8211   29.6806 H         1 GLN         0.1814
    136 H55         6.0059   44.9316   24.6427 H         1 LEU         0.1883
    137 H56         8.6486   43.8765   25.5447 H         1 LEU         0.0800
    138 H57         7.3414   42.2458   24.2360 H         1 LEU         0.0315
    139 H58         8.9966   42.6418   23.6615 H         1 LEU         0.0315
    140 H59         6.4781   43.3585   22.1763 H         1 LEU         0.0298
    141 H60         7.9922   43.4605   20.2579 H         1 LEU         0.0232
    142 H61         9.3913   43.0928   21.3227 H         1 LEU         0.0232
    143 H62         8.4916   44.6347   21.5223 H         1 LEU         0.0232
    144 H63         6.7241   40.9328   22.6593 H         1 LEU         0.0232
    145 H64         8.4018   40.9835   22.0194 H         1 LEU         0.0232
    146 H65         7.0126   41.2906   20.9228 H         1 LEU         0.0232
    147 H66        10.3337   46.3753   23.5155 H         1 ASN         0.1877
    148 H67        10.4587   43.5475   23.2203 H         1 ASN         0.0752
    149 H68        12.8633   43.8814   23.0302 H         1 ASN         0.0544
    150 H69        12.7288   45.5171   23.7602 H         1 ASN         0.0544
    151 H70        13.0022   46.0898   20.1416 H         1 ASN         0.1814
    152 H71        14.0007   45.5402   21.4458 H         1 ASN         0.1814
@<TRIPOS>BOND
     1    1    2 1  
     2    2    3 1  
     3    2    5 1  
     4    3    4 2  
     5    3    9 am 
     6    5    6 1  
     7    6    7 ar 
     8    6    8 ar 
     9    9   10 1  
    10   10   11 1  
    11   10   13 1  
    12   11   12 2  
    13   11   17 am 
    14   13   14 1  
    15   14   15 1  
    16   14   16 1  
    17   17   18 1  
    18   18   19 1  
    19   18   21 1  
    20   19   20 2  
    21   19   29 am 
    22   21   22 1  
    23   22   23 ar 
    24   22   24 ar 
    25   23   25 ar 
    26   24   26 ar 
    27   25   27 ar 
    28   26   27 ar 
    29   27   28 1  
    30   29   30 1  
    31   30   31 1  
    32   30   33 1  
    33   31   32 2  
    34   31   35 am 
    35   33   34 1  
    36   35   36 1  
    37   36   37 1  
    38   36   39 1  
    39   37   38 2  
    40   37   47 am 
    41   39   40 1  
    42   40   41 ar 
    43   40   42 ar 
    44   41   43 ar 
    45   42   44 ar 
    46   43   45 ar 
    47   44   45 ar 
    48   45   46 1  
    49   47   48 1  
    50   48   49 1  
    51   48   51 1  
    52   49   50 2  
    53   49   56 am 
    54   51   52 1  
    55   52   53 1  
    56   53   54 ar 
    57   53   55 ar 
    58   56   57 1  
    59   57   58 1  
    60   57   60 1  
    61   58   59 2  
    62   58   65 am 
    63   60   61 1  
    64   61   62 1  
    65   62   63 2  
    66   62   64 am 
    67   65   66 1  
    68   66   67 1  
    69   66   69 1  
    70   67   68 2  
    71   67   73 am 
    72   69   70 1  
    73   70   71 1  
    74   70   72 1  
    75   73   74 1  
    76   74   75 1  
    77   74   77 1  
    78   75   76 ar 
    79   75   81 ar 
    80   77   78 1  
    81   78   79 2  
    82   78   80 am 
    83    1   82 1  
    84    1   83 1  
    85    1   84 1  
    86    2   85 1  
    87    5   86 1  
    88    5   87 1  
    89    9   88 1  
    90   10   89 1  
    91   13   90 1  
    92   13   91 1  
    93   14   92 1  
    94   15   93 1  
    95   15   94 1  
    96   15   95 1  
    97   16   96 1  
    98   16   97 1  
    99   16   98 1  
   100   17   99 1  
   101   18  100 1  
   102   21  101 1  
   103   21  102 1  
   104   23  103 1  
   105   24  104 1  
   106   25  105 1  
   107   26  106 1  
   108   28  107 1  
   109   29  108 1  
   110   30  109 1  
   111   33  110 1  
   112   33  111 1  
   113   34  112 1  
   114   35  113 1  
   115   36  114 1  
   116   39  115 1  
   117   39  116 1  
   118   41  117 1  
   119   42  118 1  
   120   43  119 1  
   121   44  120 1  
   122   46  121 1  
   123   47  122 1  
   124   48  123 1  
   125   51  124 1  
   126   51  125 1  
   127   52  126 1  
   128   52  127 1  
   129   56  128 1  
   130   57  129 1  
   131   60  130 1  
   132   60  131 1  
   133   61  132 1  
   134   61  133 1  
   135   64  134 1  
   136   64  135 1  
   137   65  136 1  
   138   66  137 1  
   139   69  138 1  
   140   69  139 1  
   141   70  140 1  
   142   71  141 1  
   143   71  142 1  
   144   71  143 1  
   145   72  144 1  
   146   72  145 1  
   147   72  146 1  
   148   73  147 1  
   149   74  148 1  
   150   77  149 1  
   151   77  150 1  
   152   80  151 1  
   153   80  152 1  
@<TRIPOS>SUBSTRUCTURE
     1 ASP         1

