5hdz_ligand
  -I-interpret- 

 47 50  0  0  0  0  0  0  0  0999 V2000
   13.8940    9.5080   21.9390 F   0  0  0  0  0
   15.1810    9.8610   21.7660 C   0  0  0  0  0
   16.0380    9.2200   20.8190 C   0  0  0  0  0
   15.4780    8.3040   19.7720 C   0  0  0  0  0
   17.3660    9.4360   20.7820 N   0  0  0  0  0
   15.7670   10.7830   22.6060 C   0  0  0  0  0
   14.6830   11.6670   23.6690 S   0  0  0  0  0
   15.7420   12.9700   24.3140 C   0  0  0  0  0
   17.0850   11.0010   22.5850 N   0  0  0  0  0
   17.8410   10.3150   21.6860 C   0  0  0  0  0
   19.1980   10.5610   21.6870 N   0  0  0  0  0
   19.6910   11.6260   22.5580 C   0  0  0  0  0
   21.1180   11.8690   22.0680 C   0  0  0  0  0
   21.8830   13.6220   23.4880 O   0  0  0  0  0
   22.5050   11.5190   24.0870 N   0  0  0  0  0
   22.8200    9.3500   24.8880 N   0  0  0  0  0
   21.8990    9.6500   22.7870 N   0  0  0  0  0
   20.2700    9.9680   20.8830 C   0  0  0  0  0
   21.5820   10.4680   21.6060 C   0  0  0  0  0
   22.8140   10.6260   20.7730 C   0  0  0  0  0
   22.9740   11.2780   19.5340 C   0  0  0  0  0
   24.3010   11.2790   19.0680 C   0  0  0  0  0
   25.1880   10.6370   19.9440 C   0  0  0  0  0
   24.3530   10.0280   21.3270 S   0  0  0  0  0
   26.5930   10.5280   19.8420 C   0  0  0  0  0
   27.7310   10.4250   19.8240 N   0  0  0  0  0
   21.8800   12.4260   23.2560 C   0  0  0  0  0
   23.2930   12.0690   25.1960 C   0  0  0  0  0
   22.3790   10.1330   23.9350 C   0  0  0  0  0
   14.9641    7.4731   20.2553 H   0  0  0  0  0
   14.7741    8.8548   19.1481 H   0  0  0  0  0
   16.2902    7.9207   19.1543 H   0  0  0  0  0
   16.5831   12.5236   24.8444 H   0  0  0  0  0
   16.1126   13.5774   23.4882 H   0  0  0  0  0
   15.1698   13.5958   24.9988 H   0  0  0  0  0
   19.6563   11.3490   23.6116 H   0  0  0  0  0
   19.0756   12.5240   22.5035 H   0  0  0  0  0
   21.2516   12.5777   21.2507 H   0  0  0  0  0
   23.2463    9.7527   25.7226 H   0  0  0  0  0
   21.7411    8.6443   22.7242 H   0  0  0  0  0
   20.2261   10.2687   19.8362 H   0  0  0  0  0
   20.2058    8.8811   20.8327 H   0  0  0  0  0
   22.1490   11.7372   18.9894 H   0  0  0  0  0
   24.6077   11.7313   18.1249 H   0  0  0  0  0
   22.8658   11.7382   26.1427 H   0  0  0  0  0
   24.3220   11.7182   25.1179 H   0  0  0  0  0
   23.2744   13.1578   25.1483 H   0  0  0  0  0
  1  2  1  0  0  0
  2  3  4  0  0  0
  2  6  4  0  0  0
  3  4  1  0  0  0
  3  5  4  0  0  0
  5 10  4  0  0  0
  6  7  1  0  0  0
  6  9  4  0  0  0
  7  8  1  0  0  0
  9 10  4  0  0  0
 10 11  1  0  0  0
 11 12  1  0  0  0
 11 18  1  0  0  0
 12 13  1  0  0  0
 13 19  1  0  0  0
 13 27  1  0  0  0
 27 14  2  0  0  0
 27 15  1  0  0  0
 15 28  1  0  0  0
 15 29  4  0  0  0
 29 16  2  0  0  0
 19 17  1  0  0  0
 17 29  1  0  0  0
 18 19  1  0  0  0
 19 20  1  0  0  0
 20 21  4  0  0  0
 20 24  4  0  0  0
 21 22  4  0  0  0
 22 23  4  0  0  0
 23 24  4  0  0  0
 23 25  1  0  0  0
 25 26  3  0  0  0
  4 30  1  0  0  0
  4 31  1  0  0  0
  4 32  1  0  0  0
  8 33  1  0  0  0
  8 34  1  0  0  0
  8 35  1  0  0  0
 12 36  1  0  0  0
 12 37  1  0  0  0
 13 38  1  0  0  0
 16 39  1  0  0  0
 17 40  1  0  0  0
 18 41  1  0  0  0
 18 42  1  0  0  0
 21 43  1  0  0  0
 22 44  1  0  0  0
 28 45  1  0  0  0
 28 46  1  0  0  0
 28 47  1  0  0  0
M  END
$$$$
