6dl2_ligand
  -I-interpret- 

 39 42  0  0  0  0  0  0  0  0999 V2000
   12.1290    3.8950   -0.9380 C   0  0  0  0  0
   12.9990    5.2640    0.5180 C   0  0  0  0  0
   10.5870    5.5610    0.1600 C   0  0  0  0  0
    8.2450    6.4650    0.0390 C   0  0  0  0  0
    6.8880    6.8520   -0.4640 C   0  0  0  0  0
    6.6440    3.8520    3.9120 C   0  0  0  0  0
    7.0320    3.9350    5.2350 C   0  0  0  0  0
    7.7410    5.0380    5.6720 C   0  0  0  0  0
    8.0340    6.0710    4.7950 C   0  0  0  0  0
   10.1260    6.0900    1.3860 C   0  0  0  0  0
   13.0420    6.1800    1.7030 C   0  0  0  0  0
   10.8750    6.1690    2.6800 C   0  0  0  0  0
    9.3720    5.7270   -1.0630 S   0  0  0  0  0
    8.7770    6.5900    1.2890 C   0  0  0  0  0
   12.2010    5.6660    2.7260 O   0  0  0  0  0
   13.9670    4.5160    0.0640 N   0  0  0  0  0
   13.4090    3.6410   -0.8530 N   0  0  0  0  0
   11.8170    4.9320   -0.0990 N   0  0  0  0  0
   11.1630    3.1600   -1.7960 C   0  0  0  0  0
    8.0190    7.0980    2.4870 C   0  0  0  0  0
    7.6510    6.0000    3.4600 C   0  0  0  0  0
    6.9580    4.8740    3.0280 C   0  0  0  0  0
    6.9943    7.5744   -1.2733 H   0  0  0  0  0
    6.3719    5.9653   -0.8322 H   0  0  0  0  0
    6.3139    7.2969    0.3488 H   0  0  0  0  0
    6.0897    2.9813    3.5616 H   0  0  0  0  0
    6.7803    3.1347    5.9309 H   0  0  0  0  0
    8.0708    5.0959    6.7093 H   0  0  0  0  0
    8.5705    6.9485    5.1559 H   0  0  0  0  0
   12.6956    7.1712    1.4102 H   0  0  0  0  0
   14.0650    6.2496    2.0729 H   0  0  0  0  0
   10.3101    5.5476    3.3749 H   0  0  0  0  0
   10.9666    7.2343    2.8919 H   0  0  0  0  0
   11.4650    3.2490   -2.8395 H   0  0  0  0  0
   11.1504    2.1087   -1.5084 H   0  0  0  0  0
   10.1677    3.5853   -1.6670 H   0  0  0  0  0
    7.0937    7.5490    2.1286 H   0  0  0  0  0
    8.6609    7.8059    3.0113 H   0  0  0  0  0
    6.6583    4.7937    1.9831 H   0  0  0  0  0
  1 17  4  0  0  0
 18  1  4  0  0  0
  1 19  1  0  0  0
 11  2  1  0  0  0
  2 16  4  0  0  0
 18  2  4  0  0  0
 10  3  4  0  0  0
  3 13  4  0  0  0
  3 18  1  0  0  0
  4  5  1  0  0  0
  4 13  4  0  0  0
 14  4  4  0  0  0
  7  6  4  0  0  0
  6 22  4  0  0  0
  8  7  4  0  0  0
  9  8  4  0  0  0
 21  9  4  0  0  0
 10 12  1  0  0  0
 14 10  4  0  0  0
 15 11  1  0  0  0
 12 15  1  0  0  0
 20 14  1  0  0  0
 16 17  4  0  0  0
 20 21  1  0  0  0
 21 22  4  0  0  0
  5 23  1  0  0  0
  5 24  1  0  0  0
  5 25  1  0  0  0
  6 26  1  0  0  0
  7 27  1  0  0  0
  8 28  1  0  0  0
  9 29  1  0  0  0
 11 30  1  0  0  0
 11 31  1  0  0  0
 12 32  1  0  0  0
 12 33  1  0  0  0
 19 34  1  0  0  0
 19 35  1  0  0  0
 19 36  1  0  0  0
 20 37  1  0  0  0
 20 38  1  0  0  0
 22 39  1  0  0  0
M  END
$$$$
