1pxh_ligand
  -I-interpret- 

 83 84  0  0  0  0  0  0  0  0999 V2000
   14.7290   14.8620   14.5110 P   0  0  0  0  0
   14.6030   13.8680   13.3440 O   0  0  0  0  0
   16.1540   14.9230   15.0570 O   0  0  0  0  0
   13.7560   14.4630   15.6400 O   0  0  0  0  0
   14.3590   16.4800   13.8470 C   0  0  0  0  0
   14.4480   17.4640   14.8380 F   0  0  0  0  0
   15.3080   16.7110   12.8630 F   0  0  0  0  0
   12.9450   16.6840   13.2170 C   0  0  0  0  0
   12.7730   16.4770   11.6300 C   0  0  0  0  0
   11.4820   16.6870   11.0430 C   0  0  0  0  0
   10.3020   17.1000   11.9380 C   0  0  0  0  0
   10.4040   17.2960   13.3880 C   0  0  0  0  0
   11.7040   17.1010   14.0970 C   0  0  0  0  0
    9.1800   17.2910   11.2320 C   0  0  0  0  0
    8.4950   18.6790   11.1340 C   0  0  0  0  0
    7.2630   18.7410   10.3730 N   0  0  0  0  0
    9.3060   19.8910   10.5740 C   0  0  0  0  0
    9.6890   19.6750    9.2540 N   0  0  0  0  0
   10.3630   20.0960   11.4240 O   0  0  0  0  0
   11.1620   19.6760    8.7400 C   0  0  0  0  0
   10.9940   19.1390    7.1910 C   0  0  0  0  0
   12.2210   18.1990    6.8070 C   0  0  0  0  0
   11.8130   17.2350    5.6170 C   0  0  0  0  0
   13.0250   16.2960    5.2160 C   0  0  0  0  0
    3.8570   19.2820   10.4170 N   0  0  0  0  0
    5.1550   19.4810    9.7890 C   0  0  0  0  0
    5.4240   19.6840    8.2880 C   0  0  0  0  0
    4.3620   19.6930    7.2320 C   0  0  0  0  0
    3.9630   20.7930    6.7620 O   0  0  0  0  0
    3.9340   18.5560    6.8650 O   0  0  0  0  0
    6.2700   19.5190   10.8030 C   0  0  0  0  0
    6.1980   20.2130   11.7720 O   0  0  0  0  0
    3.2370   18.1200   10.5230 C   0  0  0  0  0
    3.7690   17.0630   10.7370 O   0  0  0  0  0
   -4.3070   16.9490    8.9060 P   0  0  0  0  0
   -4.4830   18.5710    9.0470 O   0  0  0  0  0
   -5.4620   16.4340    8.0020 O   0  0  0  0  0
   -4.4710   16.3000   10.4620 O   0  0  0  0  0
   -2.7980   16.4550    8.0600 C   0  0  0  0  0
   -2.7060   15.0530    7.9660 F   0  0  0  0  0
   -2.5480   16.9190    6.7430 F   0  0  0  0  0
   -0.9780   18.4390    8.8460 C   0  0  0  0  0
   -1.5460   16.9630    8.9640 C   0  0  0  0  0
   -0.8360   15.9610   10.0320 C   0  0  0  0  0
    0.3340   16.4360   10.8790 C   0  0  0  0  0
    1.8890   18.3700   11.4330 C   0  0  0  0  0
    0.1930   18.9030    9.6980 C   0  0  0  0  0
    0.8400   17.9130   10.7000 C   0  0  0  0  0
   13.6960   13.8585   13.0297 H   0  0  0  0  0
   12.8620   14.4260   15.2922 H   0  0  0  0  0
   13.6221   16.1827   11.0132 H   0  0  0  0  0
   11.3381   16.5549    9.9706 H   0  0  0  0  0
    9.5201   17.5876   13.9552 H   0  0  0  0  0
   11.7913   17.2406   15.1745 H   0  0  0  0  0
    8.4434   16.6785   11.7520 H   0  0  0  0  0
    9.4849   17.0834   10.2063 H   0  0  0  0  0
    8.3497   18.7791   12.2096 H   0  0  0  0  0
    7.1571   18.1952    9.5178 H   0  0  0  0  0
    8.9512   19.5031    8.5710 H   0  0  0  0  0
   11.8259   19.0536    9.3400 H   0  0  0  0  0
   11.6383   20.6542    8.8054 H   0  0  0  0  0
   10.9705   19.9936    6.5148 H   0  0  0  0  0
   10.0667   18.5726    7.1055 H   0  0  0  0  0
   12.4995   17.6004    7.6743 H   0  0  0  0  0
   13.0628   18.8173    6.4953 H   0  0  0  0  0
   11.5348   17.8393    4.7536 H   0  0  0  0  0
   10.9770   16.6135    5.9378 H   0  0  0  0  0
   13.8689   16.9092    4.8999 H   0  0  0  0  0
   13.3150   15.6921    6.0758 H   0  0  0  0  0
   12.7218   15.6432    4.3975 H   0  0  0  0  0
    3.3905   20.1020   10.8048 H   0  0  0  0  0
    4.9672   19.3120    8.7287 H   0  0  0  0  0
    6.0076   18.8003    8.0300 H   0  0  0  0  0
    5.8039   20.7050    8.2511 H   0  0  0  0  0
    4.3845   17.8698    7.3628 H   0  0  0  0  0
   -3.7820   18.9208    9.6018 H   0  0  0  0  0
   -3.7565   16.6197   11.0178 H   0  0  0  0  0
   -1.4353   19.1335    8.1413 H   0  0  0  0  0
   -1.2025   14.9403   10.1411 H   0  0  0  0  0
    0.8113   15.7667   11.5947 H   0  0  0  0  0
    1.7686   19.4269   11.6709 H   0  0  0  0  0
    1.9579   17.8453   12.3859 H   0  0  0  0  0
    0.5731   19.9203    9.6051 H   0  0  0  0  0
  1  2  1  0  0  0
  1  3  2  0  0  0
  1  4  1  0  0  0
  5  1  1  0  0  0
  5  6  1  0  0  0
  5  7  1  0  0  0
  8  5  1  0  0  0
  9  8  4  0  0  0
 13  8  4  0  0  0
 10  9  4  0  0  0
 11 10  4  0  0  0
 11 12  4  0  0  0
 14 11  1  0  0  0
 12 13  4  0  0  0
 15 14  1  0  0  0
 16 15  1  0  0  0
 15 17  1  0  0  0
 31 16  1  0  0  0
 17 18  1  0  0  0
 17 19  2  0  0  0
 18 20  1  0  0  0
 20 21  1  0  0  0
 21 22  1  0  0  0
 22 23  1  0  0  0
 23 24  1  0  0  0
 25 26  1  0  0  0
 26 27  1  0  0  0
 26 31  1  0  0  0
 27 28  1  0  0  0
 28 29  2  0  0  0
 28 30  1  0  0  0
 31 32  2  0  0  0
 33 25  1  0  0  0
 33 34  2  0  0  0
 46 33  1  0  0  0
 35 36  1  0  0  0
 35 37  2  0  0  0
 35 38  1  0  0  0
 39 35  1  0  0  0
 39 40  1  0  0  0
 39 41  1  0  0  0
 43 39  1  0  0  0
 44 43  4  0  0  0
 45 44  4  0  0  0
 48 46  1  0  0  0
 48 45  4  0  0  0
 48 47  4  0  0  0
 47 42  4  0  0  0
 43 42  4  0  0  0
  2 49  1  0  0  0
  4 50  1  0  0  0
  9 51  1  0  0  0
 10 52  1  0  0  0
 12 53  1  0  0  0
 13 54  1  0  0  0
 14 55  1  0  0  0
 14 56  1  0  0  0
 15 57  1  0  0  0
 16 58  1  0  0  0
 18 59  1  0  0  0
 20 60  1  0  0  0
 20 61  1  0  0  0
 21 62  1  0  0  0
 21 63  1  0  0  0
 22 64  1  0  0  0
 22 65  1  0  0  0
 23 66  1  0  0  0
 23 67  1  0  0  0
 24 68  1  0  0  0
 24 69  1  0  0  0
 24 70  1  0  0  0
 25 71  1  0  0  0
 26 72  1  0  0  0
 27 73  1  0  0  0
 27 74  1  0  0  0
 30 75  1  0  0  0
 36 76  1  0  0  0
 38 77  1  0  0  0
 42 78  1  0  0  0
 44 79  1  0  0  0
 45 80  1  0  0  0
 46 81  1  0  0  0
 46 82  1  0  0  0
 47 83  1  0  0  0
M  END
$$$$
