### 
### Created by X-TOOL on Mon Sep 10 21:12:50 2018
### 

@<TRIPOS>MOLECULE
1pxh_ligand
   78    79     1     0     0
SMALL
GAST_HUCK


@<TRIPOS>ATOM
      1 P1         14.7290   14.8620   14.5110 P.3       1 SNA         0.0966
      2 O2         14.6030   13.8680   13.3440 O.co2     1 SNA        -0.5668
      3 O3         16.1540   14.9230   15.0570 O.co2     1 SNA        -0.5668
      4 O4         13.7560   14.4630   15.6400 O.co2     1 SNA        -0.5668
      5 C5         14.3590   16.4800   13.8470 C.3       1 SNA         0.2931
      6 F6         14.4480   17.4640   14.8380 F         1 SNA        -0.2419
      7 F7         15.3080   16.7110   12.8630 F         1 SNA        -0.2419
      8 C8         12.9450   16.6840   13.2170 C.ar      1 SNA         0.0219
      9 C9         12.7730   16.4770   11.6300 C.ar      1 SNA        -0.0385
     10 C10        11.4820   16.6870   11.0430 C.ar      1 SNA        -0.0280
     11 C11        10.3020   17.1000   11.9380 C.ar      1 SNA        -0.0068
     12 C12        10.4040   17.2960   13.3880 C.ar      1 SNA        -0.0280
     13 C13        11.7040   17.1010   14.0970 C.ar      1 SNA        -0.0385
     14 C14         9.1800   17.2910   11.2320 C.3       1 SNA         0.0367
     15 C15         8.4950   18.6790   11.1340 C.3       1 SNA         0.1450
     16 N16         7.2630   18.7410   10.3730 N.am      1 SNA        -0.2611
     17 C17         9.3060   19.8910   10.5740 C.2       1 SNA         0.2046
     18 N18         9.6890   19.6750    9.2540 N.am      1 SNA        -0.2849
     19 O19        10.3630   20.0960   11.4240 O.2       1 SNA        -0.3943
     20 C20        11.1620   19.6760    8.7400 C.3       1 SNA         0.0310
     21 C21        10.9940   19.1390    7.1910 C.3       1 SNA        -0.0328
     22 C22        12.2210   18.1990    6.8070 C.3       1 SNA        -0.0515
     23 C23        11.8130   17.2350    5.6170 C.3       1 SNA        -0.0558
     24 C24        13.0250   16.2960    5.2160 C.3       1 SNA        -0.0653
     25 N25         3.8570   19.2820   10.4170 N.am      1 SNA        -0.2617
     26 C26         5.1550   19.4810    9.7890 C.3       1 SNA         0.1424
     27 C27         5.4240   19.6840    8.2880 C.3       1 SNA         0.0406
     28 C28         4.3620   19.6930    7.2320 C.2       1 SNA         0.0393
     29 O29         3.9630   20.7930    6.7620 O.co2     1 SNA        -0.5688
     30 O30         3.9340   18.5560    6.8650 O.co2     1 SNA        -0.5688
     31 C31         6.2700   19.5190   10.8030 C.2       1 SNA         0.2058
     32 O32         6.1980   20.2130   11.7720 O.2       1 SNA        -0.3943
     33 C33         3.2370   18.1200   10.5230 C.2       1 SNA         0.1957
     34 O34         3.7690   17.0630   10.7370 O.2       1 SNA        -0.3923
     35 P35        -4.3070   16.9490    8.9060 P.3       1 SNA         0.0967
     36 O36        -4.4830   18.5710    9.0470 O.co2     1 SNA        -0.5668
     37 O37        -5.4620   16.4340    8.0020 O.co2     1 SNA        -0.5668
     38 O38        -4.4710   16.3000   10.4620 O.co2     1 SNA        -0.5668
     39 C39        -2.7980   16.4550    8.0600 C.3       1 SNA         0.2933
     40 F40        -2.7060   15.0530    7.9660 F         1 SNA        -0.2417
     41 F41        -2.5480   16.9190    6.7430 F         1 SNA        -0.2417
     42 C42        -0.9780   18.4390    8.8460 C.ar      1 SNA        -0.0382
     43 C43        -1.5460   16.9630    8.9640 C.ar      1 SNA         0.0221
     44 C44        -0.8360   15.9610   10.0320 C.ar      1 SNA        -0.0382
     45 C45         0.3340   16.4360   10.8790 C.ar      1 SNA        -0.0260
     46 C46         1.8890   18.3700   11.4330 C.3       1 SNA         0.0854
     47 C47         0.1930   18.9030    9.6980 C.ar      1 SNA        -0.0260
     48 C48         0.8400   17.9130   10.7000 C.ar      1 SNA         0.0072
     49 H1         13.6175   16.1843   11.0166 H         1 SNA         0.0835
     50 H2         11.3389   16.5556    9.9765 H         1 SNA         0.0652
     51 H3          9.5249   17.5860   13.9521 H         1 SNA         0.0652
     52 H4         11.7909   17.2398   15.1686 H         1 SNA         0.0835
     53 H5          8.4298   16.6071   11.6557 H         1 SNA         0.0547
     54 H6          9.4107   16.9884   10.1999 H         1 SNA         0.0547
     55 H7          8.2439   18.9250   12.1763 H         1 SNA         0.0833
     56 H8          7.1592   18.2059    9.5346 H         1 SNA         0.1886
     57 H9          8.9657   19.5064    8.5843 H         1 SNA         0.1851
     58 H10        11.7909   18.9946    9.3318 H         1 SNA         0.0520
     59 H11        11.5924   20.6880    8.7662 H         1 SNA         0.0520
     60 H12        10.9665   20.0003    6.5073 H         1 SNA         0.0285
     61 H13        10.0568   18.5700    7.1018 H         1 SNA         0.0285
     62 H14        12.5065   17.5968    7.6821 H         1 SNA         0.0266
     63 H15        13.0732   18.8211    6.4961 H         1 SNA         0.0266
     64 H16        11.5215   17.8401    4.7459 H         1 SNA         0.0263
     65 H17        10.9627   16.6123    5.9320 H         1 SNA         0.0263
     66 H18        12.7202   15.6366    4.3900 H         1 SNA         0.0230
     67 H19        13.3186   15.6859    6.0829 H         1 SNA         0.0230
     68 H20        13.8774   16.9137    4.8967 H         1 SNA         0.0230
     69 H21         3.3997   20.0859   10.7972 H         1 SNA         0.1886
     70 H22         5.2718   18.3968    9.6446 H         1 SNA         0.0819
     71 H23         6.1205   18.8826    8.0008 H         1 SNA         0.0478
     72 H24         5.9308   20.6569    8.2067 H         1 SNA         0.0478
     73 H25        -1.4328   19.1297    8.1452 H         1 SNA         0.0836
     74 H26        -1.2005   14.9459   10.1405 H         1 SNA         0.0836
     75 H27         0.8087   15.7704   11.5908 H         1 SNA         0.0656
     76 H28         1.7665   19.4425   11.6445 H         1 SNA         0.0732
     77 H29         1.9613   17.8153   12.3802 H         1 SNA         0.0732
     78 H30         0.5710   19.9147    9.6057 H         1 SNA         0.0656
@<TRIPOS>BOND
     1    1    2 ar 
     2    1    3 ar 
     3    1    4 ar 
     4    5    1 1  
     5    5    6 1  
     6    5    7 1  
     7    8    5 1  
     8    9    8 ar 
     9   13    8 ar 
    10   10    9 ar 
    11   11   10 ar 
    12   11   12 ar 
    13   14   11 1  
    14   12   13 ar 
    15   15   14 1  
    16   16   15 1  
    17   15   17 1  
    18   31   16 am 
    19   17   18 am 
    20   17   19 2  
    21   18   20 1  
    22   20   21 1  
    23   21   22 1  
    24   22   23 1  
    25   23   24 1  
    26   25   26 1  
    27   26   27 1  
    28   26   31 1  
    29   27   28 1  
    30   28   29 ar 
    31   28   30 ar 
    32   31   32 2  
    33   33   25 am 
    34   33   34 2  
    35   46   33 1  
    36   35   36 ar 
    37   35   37 ar 
    38   35   38 ar 
    39   39   35 1  
    40   39   40 1  
    41   39   41 1  
    42   43   39 1  
    43   44   43 ar 
    44   45   44 ar 
    45   48   46 1  
    46   48   45 ar 
    47   48   47 ar 
    48   47   42 ar 
    49   43   42 ar 
    50    9   49 1  
    51   10   50 1  
    52   12   51 1  
    53   13   52 1  
    54   14   53 1  
    55   14   54 1  
    56   15   55 1  
    57   16   56 1  
    58   18   57 1  
    59   20   58 1  
    60   20   59 1  
    61   21   60 1  
    62   21   61 1  
    63   22   62 1  
    64   22   63 1  
    65   23   64 1  
    66   23   65 1  
    67   24   66 1  
    68   24   67 1  
    69   24   68 1  
    70   25   69 1  
    71   26   70 1  
    72   27   71 1  
    73   27   72 1  
    74   42   73 1  
    75   44   74 1  
    76   45   75 1  
    77   46   76 1  
    78   46   77 1  
    79   47   78 1  
@<TRIPOS>SUBSTRUCTURE
     1 SNA         1

