3a4o_ligand
  -I-interpret- 

 62 69  0  0  0  0  0  0  0  0999 V2000
   -2.6710  -25.1710  -19.4540 O   0  0  0  0  0
   -2.2480  -24.4910  -18.2460 C   0  0  0  0  0
   -3.2940  -24.4990  -17.1250 C   0  0  0  0  0
   -4.6190  -25.0330  -17.5980 C   0  0  0  0  0
   -4.7620  -24.2120  -18.8620 C   0  0  0  0  0
   -3.9320  -24.7970  -19.9590 C   0  0  0  0  0
   -4.5820  -26.0670  -20.3920 C   0  0  0  0  0
   -3.9640  -23.8180  -21.0600 N   0  0  0  0  0
   -3.2060  -22.6700  -20.7170 C   0  0  0  0  0
   -2.2570  -22.3750  -19.6330 C   0  0  0  0  0
   -1.5850  -21.1330  -19.6040 C   0  0  0  0  0
   -1.7730  -20.1360  -20.6210 C   0  0  0  0  0
   -2.6640  -20.3830  -21.6720 C   0  0  0  0  0
   -3.3370  -21.6400  -21.6830 C   0  0  0  0  0
   -4.3290  -22.0700  -22.5990 C   0  0  0  0  0
   -4.5880  -23.3930  -22.1720 C   0  0  0  0  0
   -5.5710  -24.1080  -22.8530 C   0  0  0  0  0
   -6.2150  -23.5300  -23.9760 C   0  0  0  0  0
   -5.8880  -22.2350  -24.4210 C   0  0  0  0  0
   -4.9320  -21.4780  -23.7200 C   0  0  0  0  0
   -2.6440  -19.1050  -22.5290 C   0  0  0  0  0
   -1.7120  -18.2250  -21.8080 N   0  0  0  0  0
   -1.1620  -18.8810  -20.7420 C   0  0  0  0  0
   -0.2480  -18.4520  -20.0640 O   0  0  0  0  0
   -0.7600  -21.1220  -18.4460 C   0  0  0  0  0
   -0.9750  -22.3960  -17.8770 C   0  0  0  0  0
   -0.2870  -22.7930  -16.6990 C   0  0  0  0  0
    0.6090  -21.8820  -16.0940 C   0  0  0  0  0
    0.8000  -20.6000  -16.6440 C   0  0  0  0  0
    0.1220  -20.2140  -17.8350 C   0  0  0  0  0
   -1.8480  -23.1130  -18.5810 N   0  0  0  0  0
   -5.0340  -23.0190  -18.8880 O   0  0  0  0  0
   -6.3250  -22.3730  -18.8250 C   0  0  0  0  0
   -5.6280  -24.7260  -16.5980 N   0  3  0  0  0
   -6.1030  -26.0050  -16.0730 C   0  0  0  0  0
   -1.3995  -25.0475  -17.8478 H   0  0  0  0  0
   -3.4400  -23.4733  -16.7863 H   0  0  0  0  0
   -2.9319  -25.1436  -16.3241 H   0  0  0  0  0
   -4.7080  -26.1072  -17.7603 H   0  0  0  0  0
   -5.8287  -24.3147  -19.0611 H   0  0  0  0  0
   -5.6176  -25.8680  -20.6677 H   0  0  0  0  0
   -4.0476  -26.4727  -21.2510 H   0  0  0  0  0
   -4.5544  -26.7855  -19.5728 H   0  0  0  0  0
   -5.8445  -25.1102  -22.5229 H   0  0  0  0  0
   -6.9787  -24.0997  -24.5055 H   0  0  0  0  0
   -6.3734  -21.8209  -25.3047 H   0  0  0  0  0
   -4.6689  -20.4684  -24.0357 H   0  0  0  0  0
   -3.6335  -18.6625  -22.6436 H   0  0  0  0  0
   -2.3311  -19.2945  -23.5558 H   0  0  0  0  0
   -1.5049  -17.2604  -22.0670 H   0  0  0  0  0
   -0.4471  -23.7820  -16.2695 H   0  0  0  0  0
    1.1550  -22.1737  -15.1968 H   0  0  0  0  0
    1.4730  -19.8967  -16.1536 H   0  0  0  0  0
    0.2849  -19.2268  -18.2675 H   0  0  0  0  0
   -6.9366  -22.7036  -19.6645 H   0  0  0  0  0
   -6.8170  -22.6376  -17.8890 H   0  0  0  0  0
   -6.1919  -21.2923  -18.8741 H   0  0  0  0  0
   -6.3957  -24.1941  -17.0080 H   0  0  0  0  0
   -5.2370  -24.1501  -15.8525 H   0  0  0  0  0
   -6.5284  -26.5943  -16.8853 H   0  0  0  0  0
   -5.2680  -26.5464  -15.6283 H   0  0  0  0  0
   -6.8655  -25.8246  -15.3153 H   0  0  0  0  0
  1  2  1  0  0  0
  1  6  1  0  0  0
  2  3  1  0  0  0
  2 31  1  0  0  0
  3  4  1  0  0  0
  4  5  1  0  0  0
  4 34  1  0  0  0
  5  6  1  0  0  0
  5 32  1  0  0  0
  6  7  1  0  0  0
  6  8  1  0  0  0
  8  9  4  0  0  0
  8 16  4  0  0  0
  9 10  4  0  0  0
  9 14  4  0  0  0
 10 11  4  0  0  0
 10 31  4  0  0  0
 11 12  4  0  0  0
 11 25  4  0  0  0
 12 13  4  0  0  0
 12 23  1  0  0  0
 13 14  4  0  0  0
 13 21  1  0  0  0
 14 15  4  0  0  0
 15 16  4  0  0  0
 15 20  4  0  0  0
 16 17  4  0  0  0
 17 18  4  0  0  0
 18 19  4  0  0  0
 19 20  4  0  0  0
 21 22  1  0  0  0
 22 23  1  0  0  0
 23 24  2  0  0  0
 25 26  4  0  0  0
 25 30  4  0  0  0
 26 27  4  0  0  0
 26 31  4  0  0  0
 27 28  4  0  0  0
 28 29  4  0  0  0
 29 30  4  0  0  0
 32 33  1  0  0  0
 34 35  1  0  0  0
  2 36  1  0  0  0
  3 37  1  0  0  0
  3 38  1  0  0  0
  4 39  1  0  0  0
  5 40  1  0  0  0
  7 41  1  0  0  0
  7 42  1  0  0  0
  7 43  1  0  0  0
 17 44  1  0  0  0
 18 45  1  0  0  0
 19 46  1  0  0  0
 20 47  1  0  0  0
 21 48  1  0  0  0
 21 49  1  0  0  0
 22 50  1  0  0  0
 27 51  1  0  0  0
 28 52  1  0  0  0
 29 53  1  0  0  0
 30 54  1  0  0  0
 33 55  1  0  0  0
 33 56  1  0  0  0
 33 57  1  0  0  0
 34 58  1  0  0  0
 34 59  1  0  0  0
 35 60  1  0  0  0
 35 61  1  0  0  0
 35 62  1  0  0  0
M  END
$$$$
