3bzi_ligand
  -I-interpret- 

111111  0  0  0  0  0  0  0  0999 V2000
   -9.6200  -25.8720   11.0640 N   0  3  0  0  0
   -9.1610  -24.4720   11.2920 C   0  0  0  0  0
   -8.3420  -23.9240   10.1220 C   0  0  0  0  0
   -8.0410  -24.6300    9.1950 O   0  0  0  0  0
   -8.3700  -24.3820   12.6040 C   0  0  0  0  0
   -7.3720  -25.4430   13.0530 C   0  0  0  0  0
   -6.0480  -25.3010   12.3590 C   0  0  0  0  0
   -7.1930  -25.1950   14.5120 C   0  0  0  0  0
   -8.0100  -22.6560   10.1500 N   0  0  0  0  0
   -7.0430  -22.0720    9.1950 C   0  0  0  0  0
   -5.8420  -21.5170    9.9810 C   0  0  0  0  0
   -6.0520  -20.9700   11.0780 O   0  0  0  0  0
   -7.6850  -20.9080    8.4710 C   0  0  0  0  0
   -8.1270  -21.1010    7.0400 C   0  0  0  0  0
   -9.1730  -22.2150    6.9260 C   0  0  0  0  0
   -8.6530  -19.7810    6.5960 C   0  0  0  0  0
   -4.6280  -21.6320    9.4540 N   0  0  0  0  0
   -3.4450  -21.3110   10.2440 C   0  0  0  0  0
   -2.4870  -20.5460    9.3700 C   0  0  0  0  0
   -2.5080  -20.7260    8.1620 O   0  0  0  0  0
   -2.8030  -22.6230   10.6960 C   0  0  0  0  0
   -3.8610  -23.3460   11.8830 S   0  0  0  0  0
   -1.6310  -19.7140    9.9680 N   0  0  0  0  0
   -0.5270  -19.1390    9.2200 C   0  0  0  0  0
    0.3720  -20.2860    8.6870 C   0  0  0  0  0
    0.0850  -21.4770    8.9230 O   0  0  0  0  0
    0.2580  -18.1290   10.0960 C   0  0  0  0  0
    0.7140  -18.7170   11.3050 O   0  0  0  0  0
    1.4660  -19.9390    8.0190 N   0  0  0  0  0
    2.3850  -20.9080    7.3970 C   0  0  0  0  0
    3.4990  -20.1140    6.7210 C   0  0  0  0  0
    4.5560  -21.0170    6.0150 C   0  0  0  0  0
    2.8800  -19.2400    5.7590 O   0  0  0  0  0
    2.8730  -17.6560    5.8380 P   0  0  0  0  0
    2.0650  -17.2730    4.6630 O   0  0  0  0  0
    4.2870  -17.2210    5.8480 O   0  0  0  0  0
    2.1640  -17.3560    7.2010 O   0  0  0  0  0
    2.9850  -21.9490    8.3160 C   0  0  0  0  0
    3.6840  -21.6000    9.2690 O   0  0  0  0  0
    2.7350  -23.2540    8.0250 N   0  0  0  0  0
    3.3420  -24.3560    8.8230 C   0  0  0  0  0
    4.8380  -24.5780    8.5810 C   0  0  0  0  0
    5.3740  -24.0880    7.6070 O   0  0  0  0  0
    2.5120  -25.6040    8.4390 C   0  0  0  0  0
    1.9370  -25.2930    7.0630 C   0  0  0  0  0
    1.8080  -23.7530    6.9820 C   0  0  0  0  0
    5.4910  -25.2810    9.5010 N   0  0  0  0  0
    6.9150  -25.6630    9.4020 C   0  0  0  0  0
    7.4060  -26.3460    8.1000 C   0  0  0  0  0
    6.8020  -27.3190    7.6240 O   0  0  0  0  0
    7.2320  -26.5740   10.5570 C   0  0  0  0  0
    7.1760  -25.8580   11.8710 C   0  0  0  0  0
    7.5160  -24.6360   11.9830 O   0  0  0  0  0
    6.7270  -26.5830   12.8900 N   0  0  0  0  0
    8.4330  -25.9065    7.5172 O   0  0  0  0  0
  -10.1438  -25.9187   10.1900 H   0  0  0  0  0
   -8.8100  -26.4895   11.0097 H   0  0  0  0  0
  -10.2191  -26.1622   11.8368 H   0  0  0  0  0
  -10.0506  -23.8467   11.3673 H   0  0  0  0  0
   -9.1483  -24.4386   13.3650 H   0  0  0  0  0
   -7.7435  -23.5028   12.4538 H   0  0  0  0  0
   -7.7351  -26.4442   12.8208 H   0  0  0  0  0
   -5.6644  -24.2926   12.5138 H   0  0  0  0  0
   -5.3446  -26.0257   12.7692 H   0  0  0  0  0
   -6.1773  -25.4821   11.2919 H   0  0  0  0  0
   -6.4877  -25.9198   14.9186 H   0  0  0  0  0
   -6.8075  -24.1867   14.6632 H   0  0  0  0  0
   -8.1534  -25.2977   15.0172 H   0  0  0  0  0
   -8.4329  -22.0515   10.8544 H   0  0  0  0  0
   -6.7322  -22.8398    8.4865 H   0  0  0  0  0
   -6.9131  -20.1395    8.4285 H   0  0  0  0  0
   -8.6001  -20.6990    9.0250 H   0  0  0  0  0
   -7.3026  -21.4199    6.4022 H   0  0  0  0  0
   -8.7462  -23.1507    7.2870 H   0  0  0  0  0
  -10.0447  -21.9560    7.5270 H   0  0  0  0  0
   -9.4695  -22.3279    5.8832 H   0  0  0  0  0
   -9.4889  -19.4916    7.2329 H   0  0  0  0  0
   -7.8631  -19.0334    6.6689 H   0  0  0  0  0
   -8.9907  -19.8550    5.5623 H   0  0  0  0  0
   -4.5225  -21.9472    8.4897 H   0  0  0  0  0
   -3.7033  -20.7098   11.1157 H   0  0  0  0  0
   -1.8191  -22.4367   11.1265 H   0  0  0  0  0
   -2.6690  -23.2934    9.8471 H   0  0  0  0  0
   -3.3356  -24.4936   12.3024 H   0  0  0  0  0
   -1.7529  -19.4814   10.9536 H   0  0  0  0  0
   -0.9046  -18.5778    8.3653 H   0  0  0  0  0
   -0.4095  -17.3050   10.3479 H   0  0  0  0  0
    1.1273  -17.7915    9.5317 H   0  0  0  0  0
    1.1935  -18.0618   11.8172 H   0  0  0  0  0
    1.6821  -18.9460    7.9317 H   0  0  0  0  0
    1.7859  -21.4916    6.6980 H   0  0  0  0  0
    4.0426  -19.5588    7.4855 H   0  0  0  0  0
    5.0194  -21.6747    6.7504 H   0  0  0  0  0
    4.0657  -21.6161    5.2477 H   0  0  0  0  0
    5.3192  -20.3892    5.5551 H   0  0  0  0  0
    4.7086  -17.5255    6.6549 H   0  0  0  0  0
    2.7355  -17.6253    7.9238 H   0  0  0  0  0
    3.3049  -24.1169    9.8858 H   0  0  0  0  0
    1.7262  -25.8042    9.1674 H   0  0  0  0  0
    3.1245  -26.5055    8.4246 H   0  0  0  0  0
    0.9689  -25.7746    6.9254 H   0  0  0  0  0
    2.5845  -25.6736    6.2731 H   0  0  0  0  0
    2.0590  -23.3711    5.9924 H   0  0  0  0  0
    0.7843  -23.4172    7.1474 H   0  0  0  0  0
    4.9751  -25.5762   10.3299 H   0  0  0  0  0
    7.4432  -24.7096    9.4086 H   0  0  0  0  0
    8.2437  -26.9561   10.4209 H   0  0  0  0  0
    6.4907  -27.3729   10.5733 H   0  0  0  0  0
    6.6416  -26.1635   13.8158 H   0  0  0  0  0
    6.4678  -27.5590   12.7464 H   0  0  0  0  0
    8.7815  -25.1577    8.0066 H   0  0  0  0  0
  1  2  1  0  0  0
  2  3  1  0  0  0
  2  5  1  0  0  0
  3  4  2  0  0  0
  3  9  1  0  0  0
  5  6  1  0  0  0
  6  7  1  0  0  0
  6  8  1  0  0  0
  9 10  1  0  0  0
 10 11  1  0  0  0
 10 13  1  0  0  0
 11 12  2  0  0  0
 11 17  1  0  0  0
 13 14  1  0  0  0
 14 15  1  0  0  0
 14 16  1  0  0  0
 17 18  1  0  0  0
 18 19  1  0  0  0
 18 21  1  0  0  0
 19 20  2  0  0  0
 19 23  1  0  0  0
 21 22  1  0  0  0
 23 24  1  0  0  0
 24 25  1  0  0  0
 24 27  1  0  0  0
 25 26  2  0  0  0
 25 29  1  0  0  0
 27 28  1  0  0  0
 29 30  1  0  0  0
 30 31  1  0  0  0
 30 38  1  0  0  0
 31 32  1  0  0  0
 31 33  1  0  0  0
 33 34  1  0  0  0
 34 35  2  0  0  0
 34 36  1  0  0  0
 34 37  1  0  0  0
 38 39  2  0  0  0
 38 40  1  0  0  0
 40 41  1  0  0  0
 40 46  1  0  0  0
 41 42  1  0  0  0
 41 44  1  0  0  0
 42 43  2  0  0  0
 42 47  1  0  0  0
 44 45  1  0  0  0
 45 46  1  0  0  0
 47 48  1  0  0  0
 48 49  1  0  0  0
 48 51  1  0  0  0
 49 50  2  0  0  0
 51 52  1  0  0  0
 52 53  2  0  0  0
 52 54  1  0  0  0
 49 55  1  0  0  0
  1 56  1  0  0  0
  1 57  1  0  0  0
  1 58  1  0  0  0
  2 59  1  0  0  0
  5 60  1  0  0  0
  5 61  1  0  0  0
  6 62  1  0  0  0
  7 63  1  0  0  0
  7 64  1  0  0  0
  7 65  1  0  0  0
  8 66  1  0  0  0
  8 67  1  0  0  0
  8 68  1  0  0  0
  9 69  1  0  0  0
 10 70  1  0  0  0
 13 71  1  0  0  0
 13 72  1  0  0  0
 14 73  1  0  0  0
 15 74  1  0  0  0
 15 75  1  0  0  0
 15 76  1  0  0  0
 16 77  1  0  0  0
 16 78  1  0  0  0
 16 79  1  0  0  0
 17 80  1  0  0  0
 18 81  1  0  0  0
 21 82  1  0  0  0
 21 83  1  0  0  0
 22 84  1  0  0  0
 23 85  1  0  0  0
 24 86  1  0  0  0
 27 87  1  0  0  0
 27 88  1  0  0  0
 28 89  1  0  0  0
 29 90  1  0  0  0
 30 91  1  0  0  0
 31 92  1  0  0  0
 32 93  1  0  0  0
 32 94  1  0  0  0
 32 95  1  0  0  0
 36 96  1  0  0  0
 37 97  1  0  0  0
 41 98  1  0  0  0
 44 99  1  0  0  0
 44100  1  0  0  0
 45101  1  0  0  0
 45102  1  0  0  0
 46103  1  0  0  0
 46104  1  0  0  0
 47105  1  0  0  0
 48106  1  0  0  0
 51107  1  0  0  0
 51108  1  0  0  0
 54109  1  0  0  0
 54110  1  0  0  0
 55111  1  0  0  0
M  END
$$$$
