### 
### Created by X-TOOL on Mon Sep 10 21:12:57 2018
### 

@<TRIPOS>MOLECULE
3bzi_ligand
  108   108     1     0     0
SMALL
GAST_HUCK


@<TRIPOS>ATOM
      1 N          -9.6200  -25.8720   11.0640 N.4       1 LEU         0.2379
      2 CA         -9.1610  -24.4720   11.2920 C.3       1 LEU         0.0652
      3 C          -8.3420  -23.9240   10.1220 C.2       1 LEU         0.2267
      4 O          -8.0410  -24.6300    9.1950 O.2       1 LEU        -0.3907
      5 CB         -8.3700  -24.3820   12.6040 C.3       1 LEU         0.0102
      6 CG         -7.3720  -25.4430   13.0530 C.3       1 LEU        -0.0394
      7 CD1        -6.0480  -25.3010   12.3590 C.3       1 LEU        -0.0623
      8 CD2        -7.1930  -25.1950   14.5120 C.3       1 LEU        -0.0623
      9 N          -8.0100  -22.6560   10.1500 N.am      1 LEU        -0.2610
     10 CA         -7.0430  -22.0720    9.1950 C.3       1 LEU         0.1313
     11 C          -5.8420  -21.5170    9.9810 C.2       1 LEU         0.2039
     12 O          -6.0520  -20.9700   11.0780 O.2       1 LEU        -0.3944
     13 CB         -7.6850  -20.9080    8.4710 C.3       1 LEU        -0.0101
     14 CG         -8.1270  -21.1010    7.0400 C.3       1 LEU        -0.0425
     15 CD1        -9.1730  -22.2150    6.9260 C.3       1 LEU        -0.0625
     16 CD2        -8.6530  -19.7810    6.5960 C.3       1 LEU        -0.0625
     17 N          -4.6280  -21.6320    9.4540 N.am      1 CYS        -0.2629
     18 CA         -3.4450  -21.3110   10.2440 C.3       1 CYS         0.1396
     19 C          -2.4870  -20.5460    9.3700 C.2       1 CYS         0.2048
     20 O          -2.5080  -20.7260    8.1620 O.2       1 CYS        -0.3944
     21 CB         -2.8030  -22.6230   10.6960 C.3       1 CYS         0.0311
     22 SG         -3.8610  -23.3460   11.8830 S.3       1 CYS        -0.1735
     23 N          -1.6310  -19.7140    9.9680 N.am      1 SER        -0.2615
     24 CA         -0.5270  -19.1390    9.2200 C.3       1 SER         0.1539
     25 C           0.3720  -20.2860    8.6870 C.2       1 SER         0.2063
     26 O           0.0850  -21.4770    8.9230 O.2       1 SER        -0.3943
     27 CB          0.2580  -18.1290   10.0960 C.3       1 SER         0.0843
     28 OG          0.7140  -18.7170   11.3050 O.3       1 SER        -0.3903
     29 N           1.4660  -19.9390    8.0190 N.am      1 TPO        -0.2610
     30 CA          2.3850  -20.9080    7.3970 C.3       1 TPO         0.1614
     31 CB          3.4990  -20.1140    6.7210 C.3       1 TPO         0.1262
     32 CG2         4.5560  -21.0170    6.0150 C.3       1 TPO        -0.0298
     33 OG1         2.8800  -19.2400    5.7590 O.3       1 TPO        -0.2685
     34 P           2.8730  -17.6560    5.8380 P.3       1 TPO         0.2014
     35 O1P         2.0650  -17.2730    4.6630 O.co2     1 TPO        -0.5537
     36 O2P         4.2870  -17.2210    5.8480 O.co2     1 TPO        -0.5537
     37 O3P         2.1640  -17.3560    7.2010 O.co2     1 TPO        -0.5537
     38 C           2.9850  -21.9490    8.3160 C.2       1 TPO         0.2093
     39 O           3.6840  -21.6000    9.2690 O.2       1 TPO        -0.3941
     40 N           2.7350  -23.2540    8.0250 N.am      1 PRO        -0.2498
     41 CA          3.3420  -24.3560    8.8230 C.3       1 PRO         0.1337
     42 C           4.8380  -24.5780    8.5810 C.2       1 PRO         0.2037
     43 O           5.3740  -24.0880    7.6070 O.2       1 PRO        -0.3944
     44 CB          2.5120  -25.6040    8.4390 C.3       1 PRO        -0.0104
     45 CG          1.9370  -25.2930    7.0630 C.3       1 PRO        -0.0281
     46 CD          1.8080  -23.7530    6.9820 C.3       1 PRO         0.0369
     47 N           5.4910  -25.2810    9.5010 N.am      1 ASN        -0.2674
     48 CA          6.9150  -25.6630    9.4020 C.3       1 ASN         0.1110
     49 C           7.4060  -26.3460    8.1000 C.2       1 ASN         0.0624
     50 O           6.8020  -27.3190    7.6240 O.co2     1 ASN        -0.5665
     51 CB          7.2320  -26.5740   10.5570 C.3       1 ASN         0.0718
     52 CG          7.1760  -25.8580   11.8710 C.2       1 ASN         0.1774
     53 OD1         7.5160  -24.6360   11.9830 O.2       1 ASN        -0.3971
     54 ND2         6.7270  -26.5830   12.8900 N.am      1 ASN        -0.3007
     55 O1          8.4330  -25.9065    7.5172 O.co2     1 ASN        -0.5665
     56 H1        -10.1528  -26.1848   11.8605 H         1 LEU         0.2015
     57 H2         -8.8197  -26.4718   10.9386 H         1 LEU         0.2015
     58 H3        -10.1979  -25.9060   10.2389 H         1 LEU         0.2015
     59 H4        -10.0562  -23.8407   11.3923 H         1 LEU         0.1098
     60 H5         -9.1209  -24.3158   13.4051 H         1 LEU         0.0348
     61 H6         -7.8053  -23.4395   12.5519 H         1 LEU         0.0348
     62 H7         -7.7751  -26.4502   12.8714 H         1 LEU         0.0299
     63 H8         -5.3624  -26.0849   12.7133 H         1 LEU         0.0232
     64 H9         -5.6211  -24.3122   12.5824 H         1 LEU         0.0232
     65 H10        -6.1905  -25.4020   11.2730 H         1 LEU         0.0232
     66 H11        -8.1616  -25.2984   15.0230 H         1 LEU         0.0232
     67 H12        -6.8040  -24.1777   14.6660 H         1 LEU         0.0232
     68 H13        -6.4815  -25.9259   14.9236 H         1 LEU         0.0232
     69 H14        -8.4246  -22.0634   10.8406 H         1 LEU         0.1884
     70 H15        -6.7137  -22.8362    8.4756 H         1 LEU         0.0800
     71 H16        -6.9586  -20.0820    8.4772 H         1 LEU         0.0315
     72 H17        -8.5750  -20.6180    9.0488 H         1 LEU         0.0315
     73 H18        -7.2608  -21.3757    6.4201 H         1 LEU         0.0298
     74 H19        -9.4731  -22.3299    5.8740 H         1 LEU         0.0232
     75 H20       -10.0533  -21.9548    7.5321 H         1 LEU         0.0232
     76 H21        -8.7435  -23.1600    7.2900 H         1 LEU         0.0232
     77 H22        -7.8657  -19.0196    6.6977 H         1 LEU         0.0232
     78 H23        -9.5157  -19.5017    7.2187 H         1 LEU         0.0232
     79 H24        -8.9662  -19.8463    5.5436 H         1 LEU         0.0232
     80 H25        -4.5246  -21.9410    8.5086 H         1 CYS         0.1884
     81 H26        -3.7218  -20.7054   11.1196 H         1 CYS         0.0808
     82 H27        -1.8178  -22.4242   11.1431 H         1 CYS         0.0422
     83 H28        -2.6859  -23.2992    9.8363 H         1 CYS         0.0422
     84 H29        -3.4628  -24.2157   12.2008 H         1 CYS         0.1019
     85 H30        -1.7505  -19.4860   10.9343 H         1 SER         0.1884
     86 H31        -0.9349  -18.5923    8.3570 H         1 SER         0.0823
     87 H32        -0.4008  -17.2824   10.3391 H         1 SER         0.0606
     88 H33         1.1270  -17.7660    9.5276 H         1 SER         0.0606
     89 H34         1.2888  -19.4462   11.1041 H         1 SER         0.2097
     90 H35         1.6779  -18.9655    7.9334 H         1 TPO         0.1884
     91 H36         1.8187  -21.4496    6.6250 H         1 TPO         0.0830
     92 H37         4.0153  -19.5114    7.4827 H         1 TPO         0.0695
     93 H38         5.3269  -20.3846    5.5505 H         1 TPO         0.0260
     94 H39         4.0625  -21.6222    5.2403 H         1 TPO         0.0260
     95 H40         5.0245  -21.6813    6.7561 H         1 TPO         0.0260
     96 H41         3.2082  -24.1380    9.8928 H         1 PRO         0.0802
     97 H42         1.7037  -25.7686    9.1666 H         1 PRO         0.0313
     98 H43         3.1541  -26.4961    8.3961 H         1 PRO         0.0313
     99 H44         0.9497  -25.7641    6.9478 H         1 PRO         0.0287
    100 H45         2.6126  -25.6601    6.2764 H         1 PRO         0.0287
    101 H46         2.1067  -23.3885    5.9881 H         1 PRO         0.0524
    102 H47         0.7760  -23.4365    7.1938 H         1 PRO         0.0524
    103 H48         4.9852  -25.5704   10.3137 H         1 ASN         0.1877
    104 H49         7.4987  -24.7371    9.5115 H         1 ASN         0.0752
    105 H50         8.2437  -26.9830   10.4188 H         1 ASN         0.0544
    106 H51         6.5024  -27.3970   10.5702 H         1 ASN         0.0544
    107 H52         6.6595  -26.1768   13.8013 H         1 ASN         0.1814
    108 H53         6.4565  -27.5348   12.7456 H         1 ASN         0.1814
@<TRIPOS>BOND
     1    1    2 1  
     2    2    3 1  
     3    2    5 1  
     4    3    4 2  
     5    3    9 am 
     6    5    6 1  
     7    6    7 1  
     8    6    8 1  
     9    9   10 1  
    10   10   11 1  
    11   10   13 1  
    12   11   12 2  
    13   11   17 am 
    14   13   14 1  
    15   14   15 1  
    16   14   16 1  
    17   17   18 1  
    18   18   19 1  
    19   18   21 1  
    20   19   20 2  
    21   19   23 am 
    22   21   22 1  
    23   23   24 1  
    24   24   25 1  
    25   24   27 1  
    26   25   26 2  
    27   25   29 am 
    28   27   28 1  
    29   29   30 1  
    30   30   31 1  
    31   30   38 1  
    32   31   32 1  
    33   31   33 1  
    34   33   34 1  
    35   34   35 ar 
    36   34   36 ar 
    37   34   37 ar 
    38   38   39 2  
    39   38   40 am 
    40   40   41 1  
    41   40   46 1  
    42   41   42 1  
    43   41   44 1  
    44   42   43 2  
    45   42   47 am 
    46   44   45 1  
    47   45   46 1  
    48   47   48 1  
    49   48   49 1  
    50   48   51 1  
    51   49   50 ar 
    52   51   52 1  
    53   52   53 2  
    54   52   54 am 
    55   49   55 ar 
    56    1   56 1  
    57    1   57 1  
    58    1   58 1  
    59    2   59 1  
    60    5   60 1  
    61    5   61 1  
    62    6   62 1  
    63    7   63 1  
    64    7   64 1  
    65    7   65 1  
    66    8   66 1  
    67    8   67 1  
    68    8   68 1  
    69    9   69 1  
    70   10   70 1  
    71   13   71 1  
    72   13   72 1  
    73   14   73 1  
    74   15   74 1  
    75   15   75 1  
    76   15   76 1  
    77   16   77 1  
    78   16   78 1  
    79   16   79 1  
    80   17   80 1  
    81   18   81 1  
    82   21   82 1  
    83   21   83 1  
    84   22   84 1  
    85   23   85 1  
    86   24   86 1  
    87   27   87 1  
    88   27   88 1  
    89   28   89 1  
    90   29   90 1  
    91   30   91 1  
    92   31   92 1  
    93   32   93 1  
    94   32   94 1  
    95   32   95 1  
    96   41   96 1  
    97   44   97 1  
    98   44   98 1  
    99   45   99 1  
   100   45  100 1  
   101   46  101 1  
   102   46  102 1  
   103   47  103 1  
   104   48  104 1  
   105   51  105 1  
   106   51  106 1  
   107   54  107 1  
   108   54  108 1  
@<TRIPOS>SUBSTRUCTURE
     1 LEU         1

