6h36_ligand
  -I-interpret- 

 44 46  0  0  0  0  0  0  0  0999 V2000
   16.3760   26.4320    6.8610 C   0  0  0  0  0
   16.6640   27.1440    5.7080 C   0  0  0  0  0
   16.9570   26.4640    4.5390 C   0  0  0  0  0
   16.9600   25.0750    4.5050 C   0  0  0  0  0
   16.6630   24.3760    5.6710 C   0  0  0  0  0
   16.3720   25.0470    6.8480 C   0  0  0  0  0
   17.2560   24.3470    3.2290 C   0  0  0  0  0
   18.3180   22.4970    2.0540 C   0  0  0  0  0
   19.6980   22.9000    1.5590 C   0  0  0  0  0
   20.7600   22.6450    2.6260 C   0  0  0  0  0
   20.3510   23.4110    3.8810 C   0  0  0  0  0
   18.9650   22.9960    4.3430 C   0  0  0  0  0
   22.1490   23.0570    2.1470 C   0  0  0  0  0
   22.4840   24.3970    1.9820 C   0  0  0  0  0
   23.7590   24.7660    1.5890 C   0  0  0  0  0
   24.7180   23.8020    1.3530 C   0  0  0  0  0
   24.4030   22.4690    1.5100 C   0  0  0  0  0
   23.1270   22.0990    1.9030 C   0  0  0  0  0
   16.0240   27.3030    8.3630 S   0  0  0  0  0
   17.2590   27.8590    8.8270 O   0  0  0  0  0
   14.9350   28.1920    8.0900 O   0  0  0  0  0
   16.8140   24.7740    2.1750 O   0  0  0  0  0
   17.9570   23.2040    3.2930 N   0  0  0  0  0
   15.5260   26.2560    9.4690 N   0  0  0  0  0
   16.6598   28.2339    5.7216 H   0  0  0  0  0
   17.1883   27.0250    3.6336 H   0  0  0  0  0
   16.6592   23.2861    5.6584 H   0  0  0  0  0
   16.1419   24.4895    7.7560 H   0  0  0  0  0
   18.3255   21.4265    2.2589 H   0  0  0  0  0
   17.5886   22.7549    1.2862 H   0  0  0  0  0
   19.6876   23.9644    1.3242 H   0  0  0  0  0
   19.9396   22.3066    0.6772 H   0  0  0  0  0
   20.8205   21.5784    2.8423 H   0  0  0  0  0
   20.3394   24.4767    3.6525 H   0  0  0  0  0
   21.0652   23.1902    4.6743 H   0  0  0  0  0
   18.6936   23.6052    5.2052 H   0  0  0  0  0
   18.9889   21.9348    4.5908 H   0  0  0  0  0
   21.7333   25.1659    2.1644 H   0  0  0  0  0
   24.0061   25.8204    1.4656 H   0  0  0  0  0
   25.7216   24.0937    1.0434 H   0  0  0  0  0
   25.1585   21.7055    1.3248 H   0  0  0  0  0
   22.8864   21.0426    2.0226 H   0  0  0  0  0
   16.0800   26.1019   10.3114 H   0  0  0  0  0
   14.6549   25.7436    9.3306 H   0  0  0  0  0
  2  1  4  0  0  0
  6  1  4  0  0  0
  1 19  1  0  0  0
  3  2  4  0  0  0
  4  3  4  0  0  0
  4  5  4  0  0  0
  7  4  1  0  0  0
  5  6  4  0  0  0
  7 22  2  0  0  0
 23  7  1  0  0  0
  8  9  1  0  0  0
  8 23  1  0  0  0
  9 10  1  0  0  0
 10 11  1  0  0  0
 10 13  1  0  0  0
 11 12  1  0  0  0
 12 23  1  0  0  0
 13 14  4  0  0  0
 13 18  4  0  0  0
 14 15  4  0  0  0
 15 16  4  0  0  0
 16 17  4  0  0  0
 17 18  4  0  0  0
 19 20  2  0  0  0
 19 21  2  0  0  0
 19 24  1  0  0  0
  2 25  1  0  0  0
  3 26  1  0  0  0
  5 27  1  0  0  0
  6 28  1  0  0  0
  8 29  1  0  0  0
  8 30  1  0  0  0
  9 31  1  0  0  0
  9 32  1  0  0  0
 10 33  1  0  0  0
 11 34  1  0  0  0
 11 35  1  0  0  0
 12 36  1  0  0  0
 12 37  1  0  0  0
 14 38  1  0  0  0
 15 39  1  0  0  0
 16 40  1  0  0  0
 17 41  1  0  0  0
 18 42  1  0  0  0
 24 43  1  0  0  0
 24 44  1  0  0  0
M  END
$$$$
