6gxq_ligand
  -I-interpret- 

 63 66  0  0  0  0  0  0  0  0999 V2000
  122.8580   13.1980   65.9300 C   0  0  0  0  0
  119.2530   17.8290   59.8570 C   0  0  0  0  0
  118.0700   18.5590   59.8300 C   0  0  0  0  0
  117.9820   15.8580   59.2900 C   0  0  0  0  0
  119.1950   16.4670   59.5850 C   0  0  0  0  0
  121.9590   17.3170   61.7680 C   0  0  0  0  0
  120.5720   18.5090   60.1560 C   0  0  0  0  0
  116.8610   17.9430   59.5380 C   0  0  0  0  0
  116.8200   16.5930   59.2710 C   0  0  0  0  0
  119.9830   10.5210   60.6960 C   0  0  0  0  0
  117.8910   11.3290   57.9270 C   0  0  0  0  0
  121.5230   12.8760   63.9480 C   0  0  0  0  0
  116.8370   11.9500   58.8400 C   0  0  0  0  0
  118.6280   12.3540   57.0830 C   0  0  0  0  0
  119.1490    9.2300   58.3860 C   0  0  0  0  0
  120.1920    8.5170   59.2160 C   0  0  0  0  0
  120.1730    6.9860   59.0740 C   0  0  0  0  0
  119.0750    6.3550   59.8550 C   0  0  0  0  0
  118.4650    6.9560   60.8550 C   0  0  0  0  0
  118.7570    8.3480   61.3180 C   0  0  0  0  0
  120.0160    8.9840   60.6810 C   0  0  0  0  0
  121.2970   11.5130   64.1390 C   0  0  0  0  0
  120.8050   10.7280   63.1070 C   0  0  0  0  0
  120.5310   11.2840   61.8590 C   0  0  0  0  0
  120.7470   12.6500   61.6590 C   0  0  0  0  0
  121.2320   13.4530   62.6910 C   0  0  0  0  0
  121.4730   14.8440   62.4490 C   0  0  0  0  0
  121.7290   15.9730   62.1690 C   0  0  0  0  0
  121.6390   17.5740   60.4880 N   0  0  0  0  0
  119.4950   11.2230   59.7290 N   0  0  0  0  0
  118.8810   10.5470   58.7150 N   0  0  0  0  0
  122.0080   13.7310   64.9100 O   0  0  0  0  0
  122.4410   18.1330   62.5540 O   0  0  0  0  0
  118.5480    8.6820   57.4750 O   0  0  0  0  0
  122.3197   12.4296   66.4849 H   0  0  0  0  0
  123.7452   12.7621   65.4707 H   0  0  0  0  0
  123.1544   13.9977   66.6088 H   0  0  0  0  0
  118.0923   19.6282   60.0407 H   0  0  0  0  0
  117.9510   14.7904   59.0721 H   0  0  0  0  0
  120.1084   15.8724   59.6034 H   0  0  0  0  0
  120.4208   19.1569   61.0194 H   0  0  0  0  0
  120.8748   19.0502   59.2596 H   0  0  0  0  0
  115.9422   18.5292   59.5200 H   0  0  0  0  0
  115.8700   16.1086   59.0454 H   0  0  0  0  0
  117.3462   10.6710   57.2500 H   0  0  0  0  0
  117.3165   12.6545   59.5197 H   0  0  0  0  0
  116.0968   12.4735   58.2348 H   0  0  0  0  0
  116.3477   11.1639   59.4152 H   0  0  0  0  0
  117.9145   12.8835   56.4516 H   0  0  0  0  0
  119.1341   13.0646   57.7365 H   0  0  0  0  0
  119.3625   11.8470   56.4572 H   0  0  0  0  0
  121.1813    8.7864   58.8460 H   0  0  0  0  0
  121.1197    6.6013   59.4534 H   0  0  0  0  0
  120.0173    6.7477   58.0218 H   0  0  0  0  0
  118.7605    5.3465   59.5863 H   0  0  0  0  0
  117.6914    6.3990   61.3836 H   0  0  0  0  0
  118.9337    8.2969   62.3924 H   0  0  0  0  0
  117.9064    8.9656   61.0297 H   0  0  0  0  0
  120.8548    8.6502   61.2919 H   0  0  0  0  0
  121.5089   11.0608   65.1079 H   0  0  0  0  0
  120.6308    9.6650   63.2738 H   0  0  0  0  0
  120.5341   13.0927   60.6860 H   0  0  0  0  0
  122.1503   17.1079   59.7386 H   0  0  0  0  0
 32  1  1  0  0  0
  2  3  4  0  0  0
  2  5  4  0  0  0
  7  2  1  0  0  0
  3  8  4  0  0  0
  5  4  4  0  0  0
  4  9  4  0  0  0
 28  6  1  0  0  0
  6 29  1  0  0  0
  6 33  2  0  0  0
 29  7  1  0  0  0
  8  9  4  0  0  0
 10 21  1  0  0  0
 24 10  1  0  0  0
 10 30  2  0  0  0
 11 13  1  0  0  0
 11 14  1  0  0  0
 31 11  1  0  0  0
 12 22  4  0  0  0
 26 12  4  0  0  0
 12 32  1  0  0  0
 16 15  1  0  0  0
 15 31  1  0  0  0
 15 34  2  0  0  0
 16 17  1  0  0  0
 21 16  1  0  0  0
 17 18  1  0  0  0
 19 18  2  0  0  0
 20 19  1  0  0  0
 21 20  1  0  0  0
 22 23  4  0  0  0
 24 23  4  0  0  0
 25 24  4  0  0  0
 26 25  4  0  0  0
 27 26  1  0  0  0
 27 28  3  0  0  0
 30 31  1  0  0  0
  1 35  1  0  0  0
  1 36  1  0  0  0
  1 37  1  0  0  0
  3 38  1  0  0  0
  4 39  1  0  0  0
  5 40  1  0  0  0
  7 41  1  0  0  0
  7 42  1  0  0  0
  8 43  1  0  0  0
  9 44  1  0  0  0
 11 45  1  0  0  0
 13 46  1  0  0  0
 13 47  1  0  0  0
 13 48  1  0  0  0
 14 49  1  0  0  0
 14 50  1  0  0  0
 14 51  1  0  0  0
 16 52  1  0  0  0
 17 53  1  0  0  0
 17 54  1  0  0  0
 18 55  1  0  0  0
 19 56  1  0  0  0
 20 57  1  0  0  0
 20 58  1  0  0  0
 21 59  1  0  0  0
 22 60  1  0  0  0
 23 61  1  0  0  0
 25 62  1  0  0  0
 29 63  1  0  0  0
M  END
$$$$
