6asu_ligand
  -I-interpret- 

 25 25  0  0  0  0  0  0  0  0999 V2000
   35.2770   81.3890   62.9530 C   0  0  0  0  0
   37.3800   82.4920   63.8270 C   0  0  0  0  0
   30.5640   76.8290   61.6500 C   0  0  0  0  0
   31.6380   77.8560   61.6900 C   0  0  0  0  0
   32.7040   77.7170   62.6040 C   0  0  0  0  0
   33.7030   78.6940   62.6560 C   0  0  0  0  0
   33.6650   79.8270   61.8010 C   0  0  0  0  0
   32.5960   79.9540   60.8820 C   0  0  0  0  0
   31.5940   78.9750   60.8260 C   0  0  0  0  0
   34.7580   80.8330   61.8500 C   0  0  0  0  0
   36.1930   82.5380   62.8860 C   0  0  0  0  0
   34.9460   81.6090   60.7240 O   0  0  0  0  0
   36.3170   83.2510   61.8740 O   0  0  0  0  0
   37.0750   82.1600   65.1200 O   0  0  0  0  0
   38.5090   82.1610   63.4460 O   0  0  0  0  0
   35.0130   80.9783   63.9275 H   0  0  0  0  0
   30.9991   75.8594   61.4078 H   0  0  0  0  0
   30.0764   76.7769   62.6235 H   0  0  0  0  0
   29.8318   77.1003   60.8895 H   0  0  0  0  0
   32.7485   76.8524   63.2662 H   0  0  0  0  0
   34.5242   78.5841   63.3643 H   0  0  0  0  0
   32.5517   80.8156   60.2158 H   0  0  0  0  0
   30.7763   79.0768   60.1125 H   0  0  0  0  0
   34.5578   81.1683   59.9646 H   0  0  0  0  0
   36.1845   82.4554   65.3235 H   0  0  0  0  0
 10  1  2  0  0  0
  1 11  1  0  0  0
 11  2  1  0  0  0
  2 14  1  0  0  0
  2 15  2  0  0  0
  4  3  1  0  0  0
  5  4  4  0  0  0
  4  9  4  0  0  0
  6  5  4  0  0  0
  7  6  4  0  0  0
  7  8  4  0  0  0
  7 10  1  0  0  0
  8  9  4  0  0  0
 10 12  1  0  0  0
 11 13  2  0  0  0
  1 16  1  0  0  0
  3 17  1  0  0  0
  3 18  1  0  0  0
  3 19  1  0  0  0
  5 20  1  0  0  0
  6 21  1  0  0  0
  8 22  1  0  0  0
  9 23  1  0  0  0
 12 24  1  0  0  0
 14 25  1  0  0  0
M  END
$$$$
