6h0u_ligand
  -I-interpret- 

 43 45  0  0  0  0  0  0  0  0999 V2000
   -2.9280  -27.1220  -14.5700 C   0  0  0  0  0
   -3.4140  -28.0650  -13.4830 C   0  0  0  0  0
   -4.7560  -27.7600  -13.1150 C   0  0  0  0  0
   -5.7410  -27.4590  -12.7610 N   0  0  0  0  0
   -2.6160  -27.8890  -12.2240 C   0  0  0  0  0
   -2.2110  -26.7760  -11.8990 O   0  0  0  0  0
   -2.4950  -29.0040  -11.5130 N   0  0  0  0  0
   -3.9060  -27.2380  -15.7360 C   0  0  0  0  0
   -4.3440  -26.2050  -16.4580 N   0  0  0  0  0
   -4.3980  -28.3840  -16.2040 N   0  0  0  0  0
   -5.1540  -28.0570  -17.2580 C   0  0  0  0  0
   -5.8770  -28.7690  -18.1220 N   0  0  0  0  0
   -5.1350  -26.7320  -17.4130 N   0  0  0  0  0
   -5.7700  -26.0980  -18.3720 C   0  0  0  0  0
   -5.6650  -24.7910  -18.4450 N   0  0  0  0  0
   -6.5020  -26.8250  -19.2370 N   0  0  0  0  0
   -6.5560  -28.1660  -19.1110 C   0  0  0  0  0
   -7.2750  -28.9160  -19.9620 N   0  0  0  0  0
   -7.3250  -30.4050  -19.8410 C   0  0  0  0  0
   -6.3260  -31.1040  -20.7610 C   0  0  0  0  0
   -6.3840  -32.5570  -20.4230 C   0  0  0  0  0
   -7.6660  -33.1060  -21.0310 C   0  0  0  0  0
   -8.9090  -32.4800  -20.3980 C   0  0  0  0  0
   -8.7370  -30.9570  -20.1020 C   0  0  0  0  0
   -1.9192  -27.3873  -14.8864 H   0  0  0  0  0
   -2.8895  -26.0971  -14.2009 H   0  0  0  0  0
   -3.3183  -29.0729  -13.8868 H   0  0  0  0  0
   -2.0293  -28.9823  -10.6058 H   0  0  0  0  0
   -2.8677  -29.8821  -11.8741 H   0  0  0  0  0
   -5.0978  -24.2861  -17.7640 H   0  0  0  0  0
   -6.1507  -24.2807  -19.1827 H   0  0  0  0  0
   -7.7991  -28.4589  -20.7082 H   0  0  0  0  0
   -7.0465  -30.6223  -18.8098 H   0  0  0  0  0
   -5.3202  -30.7095  -20.6168 H   0  0  0  0  0
   -6.5765  -30.9365  -21.8085 H   0  0  0  0  0
   -6.3775  -32.7016  -19.3427 H   0  0  0  0  0
   -5.5144  -33.0799  -20.8210 H   0  0  0  0  0
   -7.6960  -34.1811  -20.8536 H   0  0  0  0  0
   -7.6683  -32.8706  -22.0953 H   0  0  0  0  0
   -9.0905  -32.9855  -19.4495 H   0  0  0  0  0
   -9.7337  -32.5917  -21.1019 H   0  0  0  0  0
   -9.0726  -30.4542  -21.0090 H   0  0  0  0  0
   -9.2817  -30.7874  -19.1732 H   0  0  0  0  0
  1  2  1  0  0  0
  1  8  1  0  0  0
  2  3  1  0  0  0
  2  5  1  0  0  0
  3  4  3  0  0  0
  5  6  2  0  0  0
  5  7  1  0  0  0
  8  9  4  0  0  0
  8 10  4  0  0  0
  9 13  4  0  0  0
 10 11  4  0  0  0
 11 12  4  0  0  0
 11 13  4  0  0  0
 12 17  4  0  0  0
 13 14  4  0  0  0
 14 15  1  0  0  0
 14 16  4  0  0  0
 16 17  4  0  0  0
 17 18  1  0  0  0
 18 19  1  0  0  0
 19 20  1  0  0  0
 19 24  1  0  0  0
 20 21  1  0  0  0
 21 22  1  0  0  0
 22 23  1  0  0  0
 23 24  1  0  0  0
  1 25  1  0  0  0
  1 26  1  0  0  0
  2 27  1  0  0  0
  7 28  1  0  0  0
  7 29  1  0  0  0
 15 30  1  0  0  0
 15 31  1  0  0  0
 18 32  1  0  0  0
 19 33  1  0  0  0
 20 34  1  0  0  0
 20 35  1  0  0  0
 21 36  1  0  0  0
 21 37  1  0  0  0
 22 38  1  0  0  0
 22 39  1  0  0  0
 23 40  1  0  0  0
 23 41  1  0  0  0
 24 42  1  0  0  0
 24 43  1  0  0  0
M  END
$$$$
