4rab_ligand
  -I-interpret- 

 54 55  0  0  0  0  0  0  0  0999 V2000
   17.5900   32.2430    8.6750 O   0  0  0  0  0
   16.8040   33.0970    9.7130 P   0  0  0  0  0
   17.8480   33.8240   10.6600 O   0  0  0  0  0
   15.9850   34.1130    9.0100 O   0  0  0  0  0
   15.6920   31.9880   10.7290 C   0  0  0  0  0
   16.3880   30.9940   11.6360 C   0  0  0  0  0
   15.6550   30.4590   12.6980 O   0  0  0  0  0
   15.7510   31.0120   13.9540 C   0  0  0  0  0
   14.7080   30.5470   14.9840 C   0  0  0  0  0
   13.2950   30.9230   14.7510 N   0  3  0  0  0
   12.4650   30.4590   15.8510 C   0  0  0  0  0
   12.6640   31.1200   17.2160 C   0  0  0  0  0
   11.3710   30.8620   18.4960 P   0  0  0  0  0
   10.3050   31.9780   18.3750 O   0  0  0  0  0
   10.7320   29.5370   18.2910 O   0  0  0  0  0
   12.0250   30.9180   19.9250 O   0  0  0  0  0
   12.8030   30.3320   13.4880 C   0  0  0  0  0
   11.3520   30.6750   13.1230 C   0  0  0  0  0
   10.7870   30.1490   11.8670 N   0  0  0  0  0
   10.0210   29.0030   11.7520 C   0  0  0  0  0
    9.5740   28.0580   12.6620 N   0  0  0  0  0
    8.8260   27.0330   12.2460 C   0  0  0  0  0
    8.3670   26.0510   13.2000 N   0  0  0  0  0
    8.4800   26.8770   10.9220 N   0  0  0  0  0
    8.8810   27.7500   10.0010 C   0  0  0  0  0
    8.5120   27.5630    8.6710 O   0  0  0  0  0
    9.6830   28.8700   10.3980 C   0  0  0  0  0
   10.2520   29.9390    9.7250 N   0  0  0  0  0
   10.9140   30.7010   10.6260 C   0  0  0  0  0
   11.8950   32.3340   10.2120 Br  0  0  0  0  0
   18.1182   31.5872    9.1361 H   0  0  0  0  0
   18.3781   33.1656   11.1150 H   0  0  0  0  0
   15.1161   31.3982   10.0158 H   0  0  0  0  0
   15.1191   32.6467   11.3817 H   0  0  0  0  0
   17.2085   31.5445   12.0963 H   0  0  0  0  0
   16.6403   30.1458   10.9996 H   0  0  0  0  0
   15.5957   32.0834   13.8269 H   0  0  0  0  0
   16.7216   30.7084   14.3462 H   0  0  0  0  0
   14.9876   31.0298   15.9204 H   0  0  0  0  0
   14.7294   29.4578   14.9492 H   0  0  0  0  0
   13.2419   31.9397   14.6886 H   0  0  0  0  0
   12.7263   29.4103   15.9927 H   0  0  0  0  0
   11.4397   30.6888   15.5612 H   0  0  0  0  0
   12.6673   32.1923   17.0203 H   0  0  0  0  0
   13.5694   30.6718   17.6251 H   0  0  0  0  0
   10.7215   32.8326   18.5080 H   0  0  0  0  0
   12.4369   31.7755   20.0538 H   0  0  0  0  0
   12.8454   29.2500   13.6130 H   0  0  0  0  0
   13.4283   30.7348   12.6912 H   0  0  0  0  0
   11.3413   31.7584   13.0035 H   0  0  0  0  0
   10.7501   30.2241   13.9120 H   0  0  0  0  0
    8.6144   26.1426   14.1853 H   0  0  0  0  0
    7.7953   25.2657   12.8886 H   0  0  0  0  0
    7.9076   26.0801   10.6431 H   0  0  0  0  0
  1  2  1  0  0  0
  2  3  1  0  0  0
  2  4  2  0  0  0
  2  5  1  0  0  0
  5  6  1  0  0  0
  6  7  1  0  0  0
  7  8  1  0  0  0
  8  9  1  0  0  0
  9 10  1  0  0  0
 10 11  1  0  0  0
 10 17  1  0  0  0
 11 12  1  0  0  0
 12 13  1  0  0  0
 13 14  1  0  0  0
 13 15  2  0  0  0
 13 16  1  0  0  0
 17 18  1  0  0  0
 18 19  1  0  0  0
 19 20  4  0  0  0
 19 29  4  0  0  0
 20 21  1  0  0  0
 20 27  4  0  0  0
 21 22  2  0  0  0
 22 23  1  0  0  0
 22 24  1  0  0  0
 24 25  1  0  0  0
 25 26  2  0  0  0
 25 27  1  0  0  0
 27 28  4  0  0  0
 28 29  4  0  0  0
 29 30  1  0  0  0
  1 31  1  0  0  0
  3 32  1  0  0  0
  5 33  1  0  0  0
  5 34  1  0  0  0
  6 35  1  0  0  0
  6 36  1  0  0  0
  8 37  1  0  0  0
  8 38  1  0  0  0
  9 39  1  0  0  0
  9 40  1  0  0  0
 10 41  1  0  0  0
 11 42  1  0  0  0
 11 43  1  0  0  0
 12 44  1  0  0  0
 12 45  1  0  0  0
 14 46  1  0  0  0
 16 47  1  0  0  0
 17 48  1  0  0  0
 17 49  1  0  0  0
 18 50  1  0  0  0
 18 51  1  0  0  0
 23 52  1  0  0  0
 23 53  1  0  0  0
 24 54  1  0  0  0
M  END
$$$$
