### 
### Created by X-TOOL on Mon Sep 10 21:13:24 2018
### 

@<TRIPOS>MOLECULE
4rab_ligand
   50    51     1     0     0
SMALL
GAST_HUCK


@<TRIPOS>ATOM
      1 OAE        17.5900   32.2430    8.6750 O.co2     1 3L3        -0.5622
      2 PBC        16.8040   33.0970    9.7130 P.3       1 3L3         0.0600
      3 OAF        17.8480   33.8240   10.6600 O.co2     1 3L3        -0.5622
      4 OAC        15.9850   34.1130    9.0100 O.co2     1 3L3        -0.5622
      5 CAP        15.6920   31.9880   10.7290 C.3       1 3L3         0.0430
      6 CAK        16.3880   30.9940   11.6360 C.3       1 3L3         0.0628
      7 OAU        15.6550   30.4590   12.6980 O.3       1 3L3        -0.3731
      8 CAJ        15.7510   31.0120   13.9540 C.3       1 3L3         0.0876
      9 CAL        14.7080   30.5470   14.9840 C.3       1 3L3        -0.0078
     10 NBA        13.2950   30.9230   14.7510 N.4       1 3L3         0.2398
     11 CAN        12.4650   30.4590   15.8510 C.3       1 3L3        -0.0164
     12 CAQ        12.6640   31.1200   17.2160 C.3       1 3L3         0.0596
     13 PBD        11.3710   30.8620   18.4960 P.3       1 3L3         0.0628
     14 OAG        10.3050   31.9780   18.3750 O.co2     1 3L3        -0.5621
     15 OAH        10.7320   29.5370   18.2910 O.co2     1 3L3        -0.5621
     16 OAD        12.0250   30.9180   19.9250 O.co2     1 3L3        -0.5621
     17 CAM        12.8030   30.3320   13.4880 C.3       1 3L3        -0.0035
     18 CAO        11.3520   30.6750   13.1230 C.3       1 3L3         0.0974
     19 N9         10.7870   30.1490   11.8670 N.pl3     1 3L3        -0.2288
     20 C4         10.0210   29.0030   11.7520 C.2       1 3L3         0.1165
     21 N3          9.5740   28.0580   12.6620 N.2       1 3L3        -0.2745
     22 C2          8.8260   27.0330   12.2460 C.2       1 3L3         0.2350
     23 N2          8.3670   26.0510   13.2000 N.pl3     1 3L3        -0.2802
     24 N1          8.4800   26.8770   10.9220 N.am      1 3L3        -0.1831
     25 C6          8.8810   27.7500   10.0010 C.2       1 3L3         0.2160
     26 O6          8.5120   27.5630    8.6710 O.2       1 3L3        -0.4080
     27 C5          9.6830   28.8700   10.3980 C.2       1 3L3         0.0984
     28 N7         10.2520   29.9390    9.7250 N.2       1 3L3        -0.3126
     29 C8         10.9140   30.7010   10.6260 C.2       1 3L3         0.1721
     30 BR8        11.8950   32.3340   10.2120 Br        1 3L3         0.0065
     31 H1         15.0575   31.4200   10.0327 H         1 3L3         0.0474
     32 H2         15.0604   32.6319   11.3586 H         1 3L3         0.0474
     33 H3         17.2659   31.4994   12.0647 H         1 3L3         0.0574
     34 H4         16.7189   30.1530   11.0089 H         1 3L3         0.0574
     35 H5         15.6547   32.1027   13.8484 H         1 3L3         0.0613
     36 H6         16.7471   30.7686   14.3523 H         1 3L3         0.0613
     37 H7         15.0018   30.9622   15.9593 H         1 3L3         0.0837
     38 H8         14.7532   29.4487   15.0244 H         1 3L3         0.0837
     39 H9         13.2312   31.9272   14.6906 H         1 3L3         0.2036
     40 H10        12.6553   29.3828   15.9757 H         1 3L3         0.0828
     41 H11        11.4157   30.6146   15.5599 H         1 3L3         0.0828
     42 H12        12.7443   32.2038   17.0461 H         1 3L3         0.0504
     43 H13        13.6116   30.7421   17.6275 H         1 3L3         0.0504
     44 H14        12.8826   29.2381   13.5713 H         1 3L3         0.0842
     45 H15        13.4509   30.6858   12.6725 H         1 3L3         0.0842
     46 H16        11.2829   31.7717   13.0730 H         1 3L3         0.0669
     47 H17        10.7176   30.3046   13.9417 H         1 3L3         0.0669
     48 H18         8.6128   26.1461   14.1957 H         1 3L3         0.1900
     49 H19         7.7938   25.2554   12.8848 H         1 3L3         0.1900
     50 H20         7.9189   26.0958   10.6485 H         1 3L3         0.2517
@<TRIPOS>BOND
     1    1    2 ar 
     2    2    3 ar 
     3    2    4 ar 
     4    2    5 1  
     5    5    6 1  
     6    6    7 1  
     7    7    8 1  
     8    8    9 1  
     9    9   10 1  
    10   10   11 1  
    11   10   17 1  
    12   11   12 1  
    13   12   13 1  
    14   13   14 ar 
    15   13   15 ar 
    16   13   16 ar 
    17   17   18 1  
    18   18   19 1  
    19   19   20 1  
    20   19   29 1  
    21   20   21 1  
    22   20   27 2  
    23   21   22 2  
    24   22   23 1  
    25   22   24 am 
    26   24   25 am 
    27   25   26 2  
    28   25   27 1  
    29   27   28 1  
    30   28   29 2  
    31   29   30 1  
    32    5   31 1  
    33    5   32 1  
    34    6   33 1  
    35    6   34 1  
    36    8   35 1  
    37    8   36 1  
    38    9   37 1  
    39    9   38 1  
    40   10   39 1  
    41   11   40 1  
    42   11   41 1  
    43   12   42 1  
    44   12   43 1  
    45   17   44 1  
    46   17   45 1  
    47   18   46 1  
    48   18   47 1  
    49   23   48 1  
    50   23   49 1  
    51   24   50 1  
@<TRIPOS>SUBSTRUCTURE
     1 3L3         1

