5lpk_ligand
  -I-interpret- 

 40 41  0  0  0  0  0  0  0  0999 V2000
  150.1100  -58.9270  148.0090 N   0  0  0  0  0
  146.7970  -60.9760  145.8550 C   0  0  0  0  0
  145.8490  -60.9960  144.7040 C   0  0  0  0  0
  145.3220  -59.7130  144.1580 C   0  0  0  0  0
  147.6470  -59.9490  146.2700 C   0  0  0  0  0
  147.8420  -58.5780  145.6760 C   0  0  0  0  0
  149.2940  -59.9200  148.3740 C   0  0  0  0  0
  148.3020  -60.5450  147.4640 C   0  0  0  0  0
  150.9800  -58.3270  149.0010 C   0  0  0  0  0
  152.1160  -59.2550  149.3270 C   0  0  0  0  0
  152.4730  -59.4710  150.6510 C   0  0  0  0  0
  153.5300  -60.3060  150.9870 C   0  0  0  0  0
  154.2190  -60.9550  149.9880 C   0  0  0  0  0
  153.8540  -60.7250  148.6710 C   0  0  0  0  0
  149.3130  -60.3790  149.5240 O   0  0  0  0  0
  148.7250  -58.6300  144.4280 C   0  0  0  0  0
  145.4800  -62.0460  144.2390 O   0  0  0  0  0
  146.9540  -62.1230  146.7640 C   0  0  0  0  0
  146.3040  -63.4820  146.7660 C   0  0  0  0  0
  147.8480  -61.7620  147.6840 N   0  0  0  0  0
  152.8090  -59.8980  148.3270 C   0  0  0  0  0
  154.7420  -61.5540  147.3830 Cl  0  0  0  0  0
  150.1206  -58.5953  147.0445 H   0  0  0  0  0
  145.5764  -59.6378  143.1008 H   0  0  0  0  0
  144.2386  -59.6876  144.2750 H   0  0  0  0  0
  145.7670  -58.8788  144.7004 H   0  0  0  0  0
  148.3291  -57.9456  146.4182 H   0  0  0  0  0
  146.8668  -58.1816  145.3934 H   0  0  0  0  0
  150.4065  -58.1340  149.9076 H   0  0  0  0  0
  151.3837  -57.3956  148.6039 H   0  0  0  0  0
  151.9120  -58.9749  151.4430 H   0  0  0  0  0
  153.8111  -60.4460  152.0308 H   0  0  0  0  0
  155.0354  -61.6363  150.2278 H   0  0  0  0  0
  149.7019  -59.0350  144.6923 H   0  0  0  0  0
  148.2562  -59.2683  143.6791 H   0  0  0  0  0
  148.8440  -57.6237  144.0265 H   0  0  0  0  0
  145.2239  -63.3666  146.8568 H   0  0  0  0  0
  146.5386  -63.9969  145.8344 H   0  0  0  0  0
  146.6808  -64.0623  147.6082 H   0  0  0  0  0
  152.5353  -59.7550  147.2817 H   0  0  0  0  0
  7  1  1  0  0  0
  1  9  1  0  0  0
  2  3  1  0  0  0
  5  2  4  0  0  0
  2 18  4  0  0  0
  3  4  1  0  0  0
  3 17  2  0  0  0
  5  6  1  0  0  0
  8  5  4  0  0  0
  6 16  1  0  0  0
  7  8  1  0  0  0
  7 15  2  0  0  0
  8 20  4  0  0  0
  9 10  1  0  0  0
 10 11  4  0  0  0
 10 21  4  0  0  0
 11 12  4  0  0  0
 12 13  4  0  0  0
 13 14  4  0  0  0
 14 21  4  0  0  0
 14 22  1  0  0  0
 18 19  1  0  0  0
 18 20  4  0  0  0
  1 23  1  0  0  0
  4 24  1  0  0  0
  4 25  1  0  0  0
  4 26  1  0  0  0
  6 27  1  0  0  0
  6 28  1  0  0  0
  9 29  1  0  0  0
  9 30  1  0  0  0
 11 31  1  0  0  0
 12 32  1  0  0  0
 13 33  1  0  0  0
 16 34  1  0  0  0
 16 35  1  0  0  0
 16 36  1  0  0  0
 19 37  1  0  0  0
 19 38  1  0  0  0
 19 39  1  0  0  0
 21 40  1  0  0  0
M  END
$$$$
