1w4l_ligand
  -I-interpret- 

 76 81  0  0  0  0  0  0  0  0999 V2000
    2.5360   67.5520   63.2280 C   0  0  0  0  0
    2.7100   68.0920   62.0010 C   0  0  0  0  0
    4.1320   68.3020   61.4100 C   0  0  0  0  0
    5.2970   68.3180   62.5910 C   0  0  0  0  0
    5.0440   67.0660   63.5100 C   0  0  0  0  0
    3.6920   67.1980   64.2430 C   0  0  0  0  0
    4.4880   63.6460   63.6910 C   0  0  0  0  0
    3.6700   62.9440   64.6380 C   0  0  0  0  0
    2.8550   63.6770   65.5220 C   0  0  0  0  0
    1.9870   65.7690   66.5040 C   0  0  0  0  0
    2.2390   68.2480   66.1490 C   0  0  0  0  0
    3.6250   68.2300   65.4320 C   0  0  0  0  0
    4.4060   65.0350   63.6680 C   0  0  0  0  0
    3.5790   65.7690   64.5550 C   0  0  0  0  0
    2.8100   65.1200   65.4940 C   0  0  0  0  0
    5.7100   61.6650   63.0940 C   0  0  0  0  0
    1.0430   67.1130   68.1070 C   0  0  0  0  0
    2.0370   67.4500   69.2870 C   0  0  0  0  0
    3.3170   66.5040   69.3880 C   0  0  0  0  0
    2.8790   65.0570   69.6490 C   0  0  0  0  0
    4.1040   64.1260   69.7210 C   0  0  0  0  0
    3.6160   62.6360   69.6090 C   0  0  0  0  0
    3.0940   62.1600   71.0020 C   0  0  0  0  0
    1.7820   61.6910   70.6310 C   0  0  0  0  0
   -0.1760   61.7490   72.0520 C   0  0  0  0  0
   -0.9030   60.8300   72.7950 C   0  0  0  0  0
   -2.1520   60.9480   73.4290 C   0  0  0  0  0
   -2.6640   59.7760   74.0900 C   0  0  0  0  0
   -1.9120   58.5710   74.0890 C   0  0  0  0  0
   -0.6410   58.4900   73.4420 C   0  0  0  0  0
   -0.1780   59.6540   72.7990 C   0  0  0  0  0
    0.9650   59.8740   72.0410 C   0  0  0  0  0
    5.1150   65.8430   62.7910 O   0  0  0  0  0
    5.4730   63.0580   62.8690 O   0  0  0  0  0
    4.1590   67.1110   60.5120 O   0  0  0  0  0
   -0.4610   62.9940   71.8990 O   0  0  0  0  0
    1.9030   59.0260   71.8380 O   0  0  0  0  0
    1.7570   66.9850   66.8270 N   0  3  0  0  0
    0.9000   61.1240   71.6040 N   0  0  0  0  0
    1.5133   67.3439   63.5424 H   0  0  0  0  0
    1.8381   68.3851   61.4162 H   0  0  0  0  0
    4.3314   69.2486   60.9077 H   0  0  0  0  0
    5.2422   69.2385   63.1722 H   0  0  0  0  0
    6.2925   68.2753   62.1492 H   0  0  0  0  0
    5.8439   67.0417   64.2500 H   0  0  0  0  0
    3.6793   61.8546   64.6728 H   0  0  0  0  0
    2.2419   63.1410   66.2465 H   0  0  0  0  0
    1.4437   65.0576   67.1259 H   0  0  0  0  0
    1.5133   68.4405   65.3588 H   0  0  0  0  0
    2.3441   68.9783   66.9513 H   0  0  0  0  0
    3.7971   69.2237   65.0184 H   0  0  0  0  0
    4.3747   67.9376   66.1672 H   0  0  0  0  0
    6.0369   61.5149   64.1229 H   0  0  0  0  0
    4.7894   61.1082   62.9190 H   0  0  0  0  0
    6.4836   61.3144   62.4108 H   0  0  0  0  0
    0.3190   67.9232   68.0210 H   0  0  0  0  0
    0.5520   66.1650   68.3268 H   0  0  0  0  0
    1.4780   67.3201   70.2137 H   0  0  0  0  0
    2.4072   68.4590   69.1057 H   0  0  0  0  0
    3.9491   66.8416   70.2093 H   0  0  0  0  0
    3.8709   66.5479   68.4503 H   0  0  0  0  0
    2.2338   64.7302   68.8335 H   0  0  0  0  0
    2.3462   65.0146   70.5989 H   0  0  0  0  0
    4.6248   64.2737   70.6671 H   0  0  0  0  0
    4.7885   64.3527   68.9035 H   0  0  0  0  0
    4.4449   62.0025   69.2932 H   0  0  0  0  0
    2.8130   62.5684   68.8750 H   0  0  0  0  0
    3.0953   62.9322   71.7713 H   0  0  0  0  0
    3.7202   61.4101   71.4853 H   0  0  0  0  0
    1.9799   60.8692   69.9428 H   0  0  0  0  0
    1.2644   62.5903   70.2973 H   0  0  0  0  0
   -2.7082   61.8853   73.4205 H   0  0  0  0  0
   -3.6307   59.8134   74.5922 H   0  0  0  0  0
   -2.3126   57.6908   74.5918 H   0  0  0  0  0
   -0.0567   57.5698   73.4459 H   0  0  0  0  0
    3.4552   67.1847   59.8633 H   0  0  0  0  0
  1  2  2  0  0  0
  6  1  1  0  0  0
  2  3  1  0  0  0
  4  3  1  0  0  0
  3 35  1  0  0  0
  5  4  1  0  0  0
  6  5  1  0  0  0
  5 33  1  0  0  0
 12  6  1  0  0  0
  6 14  1  0  0  0
  8  7  4  0  0  0
 13  7  4  0  0  0
  7 34  1  0  0  0
  9  8  4  0  0  0
 15  9  4  0  0  0
 10 15  1  0  0  0
 38 10  2  0  0  0
 11 12  1  0  0  0
 38 11  1  0  0  0
 14 13  4  0  0  0
 13 33  1  0  0  0
 15 14  4  0  0  0
 34 16  1  0  0  0
 18 17  1  0  0  0
 17 38  1  0  0  0
 19 18  1  0  0  0
 20 19  1  0  0  0
 21 20  1  0  0  0
 22 21  1  0  0  0
 23 22  1  0  0  0
 24 23  1  0  0  0
 39 24  1  0  0  0
 25 26  1  0  0  0
 25 36  2  0  0  0
 25 39  1  0  0  0
 26 27  4  0  0  0
 26 31  4  0  0  0
 27 28  4  0  0  0
 28 29  4  0  0  0
 29 30  4  0  0  0
 30 31  4  0  0  0
 31 32  1  0  0  0
 32 37  2  0  0  0
 32 39  1  0  0  0
  1 40  1  0  0  0
  2 41  1  0  0  0
  3 42  1  0  0  0
  4 43  1  0  0  0
  4 44  1  0  0  0
  5 45  1  0  0  0
  8 46  1  0  0  0
  9 47  1  0  0  0
 10 48  1  0  0  0
 11 49  1  0  0  0
 11 50  1  0  0  0
 12 51  1  0  0  0
 12 52  1  0  0  0
 16 53  1  0  0  0
 16 54  1  0  0  0
 16 55  1  0  0  0
 17 56  1  0  0  0
 17 57  1  0  0  0
 18 58  1  0  0  0
 18 59  1  0  0  0
 19 60  1  0  0  0
 19 61  1  0  0  0
 20 62  1  0  0  0
 20 63  1  0  0  0
 21 64  1  0  0  0
 21 65  1  0  0  0
 22 66  1  0  0  0
 22 67  1  0  0  0
 23 68  1  0  0  0
 23 69  1  0  0  0
 24 70  1  0  0  0
 24 71  1  0  0  0
 27 72  1  0  0  0
 28 73  1  0  0  0
 29 74  1  0  0  0
 30 75  1  0  0  0
 35 76  1  0  0  0
M  END
$$$$
