2owb_ligand
  -I-interpret- 

 58 62  0  0  0  0  0  0  0  0999 V2000
   -0.6310   28.7700   64.1010 C   0  0  0  0  0
   -0.2580   29.7610   63.4780 O   0  0  0  0  0
   -0.0340   28.4200   65.2440 N   0  0  0  0  0
    2.2070   28.5660   68.0640 N   0  0  0  0  0
    1.0950   26.8180   68.4280 C   0  0  0  0  0
    2.0440   27.5860   68.8750 N   0  0  0  0  0
    0.7470   25.6700   69.1520 N   0  0  0  0  0
   -0.1730   24.7700   68.7470 C   0  0  0  0  0
   -0.4150   23.5420   69.5720 C   0  0  0  0  0
   -0.8200   24.8810   67.7080 O   0  0  0  0  0
    0.2030   23.3230   70.8220 C   0  0  0  0  0
   -0.0320   22.1590   71.5690 C   0  0  0  0  0
   -1.5290   21.3650   69.8610 C   0  0  0  0  0
   -1.2930   22.5310   69.1120 C   0  0  0  0  0
    1.3560   28.5080   66.9920 C   0  0  0  0  0
    0.6220   27.4120   67.1700 C   0  0  0  0  0
   -0.3620   27.2160   66.0640 C   0  0  0  0  0
    1.0500   29.2840   65.7690 C   0  0  0  0  0
   -1.1260   19.9640   71.9180 N   0  0  0  0  0
   -1.7640   18.7760   71.3230 C   0  0  0  0  0
   -0.7340   18.0130   70.4850 C   0  0  0  0  0
    0.4230   17.6180   71.3230 N   0  3  0  0  0
    0.9990   18.7730   72.0480 C   0  0  0  0  0
   -0.0820   19.5050   72.8470 C   0  0  0  0  0
    1.4540   16.8830   70.5530 C   0  0  0  0  0
   -0.9040   21.1450   71.1150 C   0  0  0  0  0
   -1.1010   25.1660   60.8630 C   0  0  0  0  0
    0.0640   25.9230   60.9060 C   0  0  0  0  0
   -2.3310   25.7200   61.9460 S   0  0  0  0  0
   -0.0550   27.0070   61.8670 C   0  0  0  0  0
   -1.3080   26.9940   62.4920 C   0  0  0  0  0
   -1.7960   27.9610   63.5460 C   0  0  0  0  0
    1.2188   25.5043   70.0410 H   0  0  0  0  0
    0.8813   24.0789   71.2177 H   0  0  0  0  0
    0.4727   22.0336   72.5269 H   0  0  0  0  0
   -2.2101   20.6103   69.4677 H   0  0  0  0  0
   -1.7978   22.6598   68.1546 H   0  0  0  0  0
   -0.2793   26.2649   65.5380 H   0  0  0  0  0
   -1.4024   27.1451   66.3813 H   0  0  0  0  0
    0.7820   30.3282   65.9301 H   0  0  0  0  0
    1.8899   29.4465   65.0935 H   0  0  0  0  0
   -2.5926   19.0874   70.6870 H   0  0  0  0  0
   -2.1403   18.1291   72.1155 H   0  0  0  0  0
   -0.3847   18.6576   69.6784 H   0  0  0  0  0
   -1.2011   17.1158   70.0789 H   0  0  0  0  0
    0.0647   16.9694   72.0240 H   0  0  0  0  0
    1.4300   19.4640   71.3236 H   0  0  0  0  0
    1.7619   18.4111   72.7373 H   0  0  0  0  0
   -0.5149   18.8319   73.5870 H   0  0  0  0  0
    0.3547   20.3592   73.3644 H   0  0  0  0  0
    1.0159   15.9769   70.1346 H   0  0  0  0  0
    1.8229   17.5160   69.7459 H   0  0  0  0  0
    2.2789   16.6175   71.2142 H   0  0  0  0  0
   -1.2277   24.3039   60.2081 H   0  0  0  0  0
    0.9490   25.7295   60.2998 H   0  0  0  0  0
    0.7291   27.7353   62.0742 H   0  0  0  0  0
   -2.5198   28.6412   63.0971 H   0  0  0  0  0
   -2.2579   27.3992   64.3579 H   0  0  0  0  0
  1  2  2  0  0  0
  1  3  1  0  0  0
 32  1  1  0  0  0
  3 17  1  0  0  0
  3 18  1  0  0  0
  4  6  4  0  0  0
 15  4  4  0  0  0
  5  6  4  0  0  0
  5  7  1  0  0  0
 16  5  4  0  0  0
  7  8  1  0  0  0
  8  9  1  0  0  0
  8 10  2  0  0  0
  9 11  4  0  0  0
  9 14  4  0  0  0
 11 12  4  0  0  0
 12 26  4  0  0  0
 14 13  4  0  0  0
 13 26  4  0  0  0
 15 16  4  0  0  0
 18 15  1  0  0  0
 17 16  1  0  0  0
 19 20  1  0  0  0
 19 24  1  0  0  0
 26 19  1  0  0  0
 20 21  1  0  0  0
 21 22  1  0  0  0
 23 22  1  0  0  0
 22 25  1  0  0  0
 24 23  1  0  0  0
 28 27  4  0  0  0
 29 27  4  0  0  0
 30 28  4  0  0  0
 31 29  4  0  0  0
 31 30  4  0  0  0
 31 32  1  0  0  0
  7 33  1  0  0  0
 11 34  1  0  0  0
 12 35  1  0  0  0
 13 36  1  0  0  0
 14 37  1  0  0  0
 17 38  1  0  0  0
 17 39  1  0  0  0
 18 40  1  0  0  0
 18 41  1  0  0  0
 20 42  1  0  0  0
 20 43  1  0  0  0
 21 44  1  0  0  0
 21 45  1  0  0  0
 22 46  1  0  0  0
 23 47  1  0  0  0
 23 48  1  0  0  0
 24 49  1  0  0  0
 24 50  1  0  0  0
 25 51  1  0  0  0
 25 52  1  0  0  0
 25 53  1  0  0  0
 27 54  1  0  0  0
 28 55  1  0  0  0
 30 56  1  0  0  0
 32 57  1  0  0  0
 32 58  1  0  0  0
M  END
$$$$
