1sve_ligand
  -I-interpret- 

 64 67  0  0  0  0  0  0  0  0999 V2000
   16.9640   11.9350   -3.5410 F   0  0  0  0  0
   15.9570   11.6340   -4.3510 C   0  0  0  0  0
   16.2740   10.9660   -5.4930 C   0  0  0  0  0
   17.6140   10.6450   -5.6250 O   0  0  0  0  0
   18.0870   10.2850   -6.9000 C   0  0  0  0  0
   15.2230   10.6400   -6.3710 C   0  0  0  0  0
   13.9200   11.0270   -6.0500 C   0  0  0  0  0
   13.6150   11.7500   -4.8430 C   0  0  0  0  0
   12.4040   12.1290   -4.5410 O   0  0  0  0  0
   14.7000   12.0480   -3.9720 C   0  0  0  0  0
   14.5740   12.7890   -2.7270 C   0  0  0  0  0
   15.2440   13.8380   -2.5450 O   0  0  0  0  0
   13.7560   12.3760   -1.5800 C   0  0  0  0  0
   13.4500   11.0130   -1.3260 C   0  0  0  0  0
   12.7050   10.6880   -0.1990 C   0  0  0  0  0
   13.3220   13.3690   -0.6930 C   0  0  0  0  0
   12.5900   13.0410    0.4190 C   0  0  0  0  0
   12.2760   11.7040    0.6920 C   0  0  0  0  0
   11.5170   11.4040    1.9110 C   0  0  0  0  0
   11.3180   12.2070    2.8330 O   0  0  0  0  0
   11.0480   10.1530    2.0210 O   0  0  0  0  0
   10.4780    9.6780    3.2170 C   0  0  0  0  0
   11.5910    9.3580    4.2390 C   0  0  0  0  0
   12.7930    8.5620    3.7120 C   0  0  0  0  0
   12.5100    7.0730    3.7520 C   0  0  0  0  0
   11.4120    6.7720    2.8210 N   0  3  0  0  0
   10.0720    7.1110    3.3470 C   0  0  0  0  0
    9.5810    8.4880    2.8650 C   0  0  0  0  0
    8.2330    8.7490    3.3760 N   0  0  0  0  0
    7.1170    8.9480    2.5610 C   0  0  0  0  0
    7.2630    9.0250    1.3290 O   0  0  0  0  0
    5.7870    9.0600    3.1830 C   0  0  0  0  0
    4.6600    9.1210    2.3520 C   0  0  0  0  0
    3.3970    9.2150    2.9090 C   0  0  0  0  0
    3.2440    9.2480    4.2950 N   0  0  0  0  0
    4.3410    9.1810    5.1320 C   0  0  0  0  0
    5.6040    9.0860    4.5880 C   0  0  0  0  0
   17.5493    9.4039   -7.2501 H   0  0  0  0  0
   17.9244   11.1106   -7.5929 H   0  0  0  0  0
   19.1525   10.0626   -6.8414 H   0  0  0  0  0
   15.4239   10.0915   -7.2913 H   0  0  0  0  0
   13.1097   10.7741   -6.7338 H   0  0  0  0  0
   12.4154   12.5932   -3.7008 H   0  0  0  0  0
   13.7944   10.2330   -2.0051 H   0  0  0  0  0
   12.4493    9.6475    0.0009 H   0  0  0  0  0
   13.5685   14.4126   -0.8885 H   0  0  0  0  0
   12.2504   13.8259    1.0947 H   0  0  0  0  0
    9.8524   10.4277    3.7014 H   0  0  0  0  0
   11.1285    8.7360    5.0054 H   0  0  0  0  0
   11.9854   10.3194    4.5681 H   0  0  0  0  0
   13.6580    8.7730    4.3408 H   0  0  0  0  0
   12.9850    8.8562    2.6802 H   0  0  0  0  0
   12.2275    6.7785    4.7627 H   0  0  0  0  0
   13.4029    6.5201    3.4600 H   0  0  0  0  0
   11.4258    5.7665    2.6500 H   0  0  0  0  0
   11.5609    7.3349    1.9835 H   0  0  0  0  0
   10.1345    7.1380    4.4349 H   0  0  0  0  0
    9.3695    6.3588    2.9881 H   0  0  0  0  0
    9.5997    8.4139    1.7777 H   0  0  0  0  0
    8.1021    8.7876    4.3868 H   0  0  0  0  0
    4.7783    9.0944    1.2688 H   0  0  0  0  0
    2.5200    9.2634    2.2635 H   0  0  0  0  0
    4.2089    9.2031    6.2137 H   0  0  0  0  0
    6.4714    9.0303    5.2457 H   0  0  0  0  0
  1  2  1  0  0  0
  2  3  4  0  0  0
  2 10  4  0  0  0
  3  4  1  0  0  0
  3  6  4  0  0  0
  4  5  1  0  0  0
  6  7  4  0  0  0
  7  8  4  0  0  0
  8  9  1  0  0  0
  8 10  4  0  0  0
 10 11  1  0  0  0
 11 12  2  0  0  0
 11 13  1  0  0  0
 13 14  4  0  0  0
 13 16  4  0  0  0
 14 15  4  0  0  0
 15 18  4  0  0  0
 16 17  4  0  0  0
 17 18  4  0  0  0
 18 19  1  0  0  0
 19 20  2  0  0  0
 19 21  1  0  0  0
 21 22  1  0  0  0
 22 23  1  0  0  0
 22 28  1  0  0  0
 23 24  1  0  0  0
 24 25  1  0  0  0
 25 26  1  0  0  0
 26 27  1  0  0  0
 27 28  1  0  0  0
 28 29  1  0  0  0
 29 30  1  0  0  0
 30 31  2  0  0  0
 30 32  1  0  0  0
 32 33  4  0  0  0
 32 37  4  0  0  0
 33 34  4  0  0  0
 34 35  4  0  0  0
 35 36  4  0  0  0
 36 37  4  0  0  0
  5 38  1  0  0  0
  5 39  1  0  0  0
  5 40  1  0  0  0
  6 41  1  0  0  0
  7 42  1  0  0  0
  9 43  1  0  0  0
 14 44  1  0  0  0
 15 45  1  0  0  0
 16 46  1  0  0  0
 17 47  1  0  0  0
 22 48  1  0  0  0
 23 49  1  0  0  0
 23 50  1  0  0  0
 24 51  1  0  0  0
 24 52  1  0  0  0
 25 53  1  0  0  0
 25 54  1  0  0  0
 26 55  1  0  0  0
 26 56  1  0  0  0
 27 57  1  0  0  0
 27 58  1  0  0  0
 28 59  1  0  0  0
 29 60  1  0  0  0
 33 61  1  0  0  0
 34 62  1  0  0  0
 36 63  1  0  0  0
 37 64  1  0  0  0
M  END
$$$$
