3tl5_ligand
  -I-interpret- 

 66 70  0  0  0  0  0  0  0  0999 V2000
   21.0200   65.7900   19.2150 C   0  0  0  0  0
   20.0860   64.9020   19.9670 C   0  0  0  0  0
   18.7620   65.2660   20.3570 C   0  0  0  0  0
   18.1200   63.9210   21.2060 S   0  0  0  0  0
   19.4820   62.8590   21.1040 C   0  0  0  0  0
   20.4790   63.5450   20.3960 C   0  0  0  0  0
   21.6950   62.9300   20.1670 N   0  0  0  0  0
   21.9460   61.6680   20.5820 C   0  0  0  0  0
   20.9920   60.9990   21.2730 N   0  0  0  0  0
   19.7780   61.5380   21.5420 C   0  0  0  0  0
   18.8250   60.7480   22.2850 N   0  0  0  0  0
   17.5770   60.5850   21.6980 C   0  0  0  0  0
   16.5880   60.2940   22.7760 C   0  0  0  0  0
   16.9340   59.2050   23.6030 O   0  0  0  0  0
   18.2130   59.3380   24.1220 C   0  0  0  0  0
   19.2090   59.6380   23.0530 C   0  0  0  0  0
   23.2990   60.9960   20.3290 C   0  0  0  0  0
   23.8280   60.1210   21.2890 C   0  0  0  0  0
   25.0220   59.5340   21.0820 N   0  0  0  0  0
   25.7110   59.7790   19.9600 C   0  0  0  0  0
   25.2240   60.6010   19.0210 N   0  0  0  0  0
   24.0370   61.2310   19.1670 C   0  0  0  0  0
   26.9810   59.1480   19.7550 N   0  0  0  0  0
   18.0260   66.5790   20.1130 C   0  0  0  0  0
   17.5140   66.6880   18.9470 N   0  3  0  0  0
   16.7030   67.7820   18.9210 C   0  0  0  0  0
   16.1440   68.0160   17.5430 C   0  0  0  0  0
   15.6730   66.9270   16.9190 N   0  0  0  0  0
   16.2890   65.7740   17.1690 C   0  0  0  0  0
   16.7630   65.6090   18.5910 C   0  0  0  0  0
   14.5730   66.9900   15.9820 C   0  0  0  0  0
   14.2080   65.9550   15.4450 O   0  0  0  0  0
   13.8750   68.3070   15.7170 C   0  0  0  0  0
   12.5130   68.1450   15.1030 C   0  0  0  0  0
   14.6480   69.1230   14.9160 O   0  0  0  0  0
   20.5747   66.0546   18.2559 H   0  0  0  0  0
   21.2038   66.6952   19.7938 H   0  0  0  0  0
   21.9614   65.2667   19.0479 H   0  0  0  0  0
   17.6042   59.7627   20.9831 H   0  0  0  0  0
   17.2930   61.4921   21.1644 H   0  0  0  0  0
   15.6472   60.0397   22.2878 H   0  0  0  0  0
   16.5387   61.1772   23.4128 H   0  0  0  0  0
   18.4913   58.3982   24.5989 H   0  0  0  0  0
   18.2122   60.1631   24.8342 H   0  0  0  0  0
   20.1651   59.8612   23.5263 H   0  0  0  0  0
   19.2790   58.7719   22.3950 H   0  0  0  0  0
   23.2719   59.9159   22.2038 H   0  0  0  0  0
   23.6649   61.9061   18.3964 H   0  0  0  0  0
   27.3563   58.5156   20.4618 H   0  0  0  0  0
   27.5098   59.3312   18.9022 H   0  0  0  0  0
   18.7576   67.3802   20.2175 H   0  0  0  0  0
   17.2049   66.6234   20.8285 H   0  0  0  0  0
   18.2902   66.7653   18.2898 H   0  0  0  0  0
   17.2883   68.6547   19.2108 H   0  0  0  0  0
   15.8735   67.6153   19.6082 H   0  0  0  0  0
   16.9663   68.3915   16.9340 H   0  0  0  0  0
   15.2999   68.6954   17.6616 H   0  0  0  0  0
   17.1741   65.7426   16.5336 H   0  0  0  0  0
   15.5658   64.9804   16.9813 H   0  0  0  0  0
   15.9017   65.5308   19.2544 H   0  0  0  0  0
   17.3659   64.7044   18.6705 H   0  0  0  0  0
   13.7373   68.7709   16.6937 H   0  0  0  0  0
   12.6051   67.6240   14.1500 H   0  0  0  0  0
   11.8794   67.5664   15.7751 H   0  0  0  0  0
   12.0701   69.1275   14.9401 H   0  0  0  0  0
   14.1853   69.9500   14.7625 H   0  0  0  0  0
  1  2  1  0  0  0
  2  3  4  0  0  0
  2  6  4  0  0  0
  3  4  4  0  0  0
  3 24  1  0  0  0
  4  5  4  0  0  0
  5  6  4  0  0  0
  5 10  4  0  0  0
  6  7  4  0  0  0
  7  8  4  0  0  0
  8  9  4  0  0  0
  8 17  1  0  0  0
  9 10  4  0  0  0
 10 11  1  0  0  0
 11 12  1  0  0  0
 11 16  1  0  0  0
 12 13  1  0  0  0
 13 14  1  0  0  0
 14 15  1  0  0  0
 15 16  1  0  0  0
 17 18  4  0  0  0
 17 22  4  0  0  0
 18 19  4  0  0  0
 19 20  4  0  0  0
 20 21  4  0  0  0
 20 23  1  0  0  0
 21 22  4  0  0  0
 24 25  1  0  0  0
 25 26  1  0  0  0
 25 30  1  0  0  0
 26 27  1  0  0  0
 27 28  1  0  0  0
 28 29  1  0  0  0
 28 31  1  0  0  0
 29 30  1  0  0  0
 31 32  2  0  0  0
 31 33  1  0  0  0
 33 34  1  0  0  0
 33 35  1  0  0  0
  1 36  1  0  0  0
  1 37  1  0  0  0
  1 38  1  0  0  0
 12 39  1  0  0  0
 12 40  1  0  0  0
 13 41  1  0  0  0
 13 42  1  0  0  0
 15 43  1  0  0  0
 15 44  1  0  0  0
 16 45  1  0  0  0
 16 46  1  0  0  0
 18 47  1  0  0  0
 22 48  1  0  0  0
 23 49  1  0  0  0
 23 50  1  0  0  0
 24 51  1  0  0  0
 24 52  1  0  0  0
 25 53  1  0  0  0
 26 54  1  0  0  0
 26 55  1  0  0  0
 27 56  1  0  0  0
 27 57  1  0  0  0
 29 58  1  0  0  0
 29 59  1  0  0  0
 30 60  1  0  0  0
 30 61  1  0  0  0
 33 62  1  0  0  0
 34 63  1  0  0  0
 34 64  1  0  0  0
 34 65  1  0  0  0
 35 66  1  0  0  0
M  END
$$$$
