### 
### Created by X-TOOL on Mon Sep 10 21:13:07 2018
### 

@<TRIPOS>MOLECULE
3tl5_ligand
   65    69     1     0     0
SMALL
GAST_HUCK


@<TRIPOS>ATOM
      1 C1         21.0200   65.7900   19.2150 C.3       1 980        -0.0455
      2 C2         20.0860   64.9020   19.9670 C.2       1 980        -0.0317
      3 C3         18.7620   65.2660   20.3570 C.2       1 980         0.0043
      4 S4         18.1200   63.9210   21.2060 S.3       1 980        -0.0286
      5 C5         19.4820   62.8590   21.1040 C.ar      1 980         0.0959
      6 C6         20.4790   63.5450   20.3960 C.ar      1 980         0.0331
      7 N7         21.6950   62.9300   20.1670 N.ar      1 980        -0.3047
      8 C8         21.9460   61.6680   20.5820 C.ar      1 980         0.0910
      9 N9         20.9920   60.9990   21.2730 N.ar      1 980        -0.2691
     10 C10        19.7780   61.5380   21.5420 C.ar      1 980         0.1344
     11 N11        18.8250   60.7480   22.2850 N.pl3     1 980        -0.2856
     12 C12        17.5770   60.5850   21.6980 C.3       1 980         0.0548
     13 C13        16.5880   60.2940   22.7760 C.3       1 980         0.0681
     14 O14        16.9340   59.2050   23.6030 O.3       1 980        -0.3757
     15 C15        18.2130   59.3380   24.1220 C.3       1 980         0.0681
     16 C16        19.2090   59.6380   23.0530 C.3       1 980         0.0548
     17 C17        23.2990   60.9960   20.3290 C.ar      1 980         0.0491
     18 C18        23.8280   60.1210   21.2890 C.ar      1 980         0.0288
     19 N19        25.0220   59.5340   21.0820 N.ar      1 980        -0.2480
     20 C20        25.7110   59.7790   19.9600 C.ar      1 980         0.1945
     21 N21        25.2240   60.6010   19.0210 N.ar      1 980        -0.2480
     22 C22        24.0370   61.2310   19.1670 C.ar      1 980         0.0288
     23 N23        26.9810   59.1480   19.7550 N.pl3     1 980        -0.3007
     24 C24        18.0260   66.5790   20.1130 C.3       1 980        -0.0612
     25 N25        17.5140   66.6880   18.9470 N.4       1 980         0.4121
     26 C26        16.7030   67.7820   18.9210 C.3       1 980        -0.0888
     27 C27        16.1440   68.0160   17.5430 C.3       1 980         0.0157
     28 N28        15.6730   66.9270   16.9190 N.am      1 980        -0.2750
     29 C29        16.2890   65.7740   17.1690 C.3       1 980         0.0157
     30 C30        16.7630   65.6090   18.5910 C.3       1 980        -0.0888
     31 C31        14.5730   66.9900   15.9820 C.2       1 980         0.2070
     32 O32        14.2080   65.9550   15.4450 O.2       1 980        -0.3940
     33 C33        13.8750   68.3070   15.7170 C.3       1 980         0.1410
     34 C35        12.5130   68.1450   15.1030 C.3       1 980        -0.0214
     35 O36        14.6480   69.1230   14.9160 O.3       1 980        -0.3717
     36 H          20.5747   66.0546   18.2559 H         1 980         0.0312
     37 H          21.2038   66.6952   19.7938 H         1 980         0.0312
     38 H          21.9614   65.2667   19.0479 H         1 980         0.0312
     39 H          17.6042   59.7627   20.9831 H         1 980         0.0547
     40 H          17.2930   61.4921   21.1644 H         1 980         0.0547
     41 H          15.6472   60.0397   22.2878 H         1 980         0.0580
     42 H          16.5387   61.1772   23.4128 H         1 980         0.0580
     43 H          18.4913   58.3982   24.5989 H         1 980         0.0580
     44 H          18.2122   60.1631   24.8342 H         1 980         0.0580
     45 H          20.1651   59.8612   23.5263 H         1 980         0.0547
     46 H          19.2790   58.7719   22.3950 H         1 980         0.0547
     47 H          23.2719   59.9159   22.2038 H         1 980         0.0936
     48 H          23.6649   61.9061   18.3964 H         1 980         0.0936
     49 H          27.3563   58.5156   20.4618 H         1 980         0.1842
     50 H          27.5098   59.3312   18.9022 H         1 980         0.1842
     51 H          18.7576   67.3802   20.2175 H         1 980         0.0221
     52 H          17.2049   66.6234   20.8285 H         1 980         0.0221
     53 H          17.2883   68.6547   19.2108 H         1 980         0.0040
     54 H          15.8735   67.6153   19.6082 H         1 980         0.0040
     55 H          16.9663   68.3915   16.9340 H         1 980         0.0502
     56 H          15.2999   68.6954   17.6616 H         1 980         0.0502
     57 H          17.1741   65.7426   16.5336 H         1 980         0.0502
     58 H          15.5658   64.9804   16.9813 H         1 980         0.0502
     59 H          15.9017   65.5308   19.2544 H         1 980         0.0040
     60 H          17.3659   64.7044   18.6705 H         1 980         0.0040
     61 H          13.7373   68.7709   16.6937 H         1 980         0.0834
     62 H          12.6051   67.6240   14.1500 H         1 980         0.0279
     63 H          11.8794   67.5664   15.7751 H         1 980         0.0279
     64 H          12.0701   69.1275   14.9401 H         1 980         0.0279
     65 H          15.5175   69.2253   15.3098 H         1 980         0.2133
@<TRIPOS>BOND
     1    1    2 1  
     2    2    3 2  
     3    2    6 1  
     4    3    4 1  
     5    3   24 1  
     6    4    5 1  
     7    5    6 ar 
     8    5   10 ar 
     9    6    7 ar 
    10    7    8 ar 
    11    8    9 ar 
    12    8   17 1  
    13    9   10 ar 
    14   10   11 1  
    15   11   12 1  
    16   11   16 1  
    17   12   13 1  
    18   13   14 1  
    19   14   15 1  
    20   15   16 1  
    21   17   18 ar 
    22   17   22 ar 
    23   18   19 ar 
    24   19   20 ar 
    25   20   21 ar 
    26   20   23 1  
    27   21   22 ar 
    28   24   25 1  
    29   25   26 1  
    30   25   30 1  
    31   26   27 1  
    32   27   28 1  
    33   28   29 1  
    34   28   31 am 
    35   29   30 1  
    36   31   32 2  
    37   31   33 1  
    38   33   34 1  
    39   33   35 1  
    40    1   36 1  
    41    1   37 1  
    42    1   38 1  
    43   12   39 1  
    44   12   40 1  
    45   13   41 1  
    46   13   42 1  
    47   15   43 1  
    48   15   44 1  
    49   16   45 1  
    50   16   46 1  
    51   18   47 1  
    52   22   48 1  
    53   23   49 1  
    54   23   50 1  
    55   24   51 1  
    56   24   52 1  
    57   26   53 1  
    58   26   54 1  
    59   27   55 1  
    60   27   56 1  
    61   29   57 1  
    62   29   58 1  
    63   30   59 1  
    64   30   60 1  
    65   33   61 1  
    66   34   62 1  
    67   34   63 1  
    68   34   64 1  
    69   35   65 1  
@<TRIPOS>SUBSTRUCTURE
     1 980         1

