### 
### Created by X-TOOL on Mon Sep 10 21:12:59 2018
### 

@<TRIPOS>MOLECULE
2qic_ligand
  148   147     1     0     0
SMALL
GAST_HUCK


@<TRIPOS>ATOM
      1 N          -8.4160   35.9910   13.6410 N.4       1 ALA         0.2377
      2 CA         -7.1250   36.7280   13.7180 C.3       1 ALA         0.0621
      3 C          -6.2870   36.4530   12.4720 C.2       1 ALA         0.2264
      4 O          -6.6540   35.6270   11.6390 O.2       1 ALA        -0.3907
      5 CB         -6.3580   36.3040   14.9710 C.3       1 ALA        -0.0040
      6 N          -5.1700   37.1620   12.3440 N.am      1 ARG        -0.2610
      7 CA         -4.2750   36.9770   11.2010 C.3       1 ARG         0.1312
      8 C          -3.0780   36.1570   11.6840 C.2       1 ARG         0.2040
      9 O          -2.4060   36.5360   12.6360 O.2       1 ARG        -0.3944
     10 CB         -3.7840   38.3280   10.6670 C.3       1 ARG        -0.0092
     11 CG         -4.8880   39.2630   10.1640 C.3       1 ARG        -0.0156
     12 CD         -4.3000   40.5640    9.5980 C.3       1 ARG         0.0627
     13 NE         -3.4580   41.2630   10.5690 N.pl3     1 ARG        -0.2723
     14 CZ         -2.1390   41.4070   10.4630 C.cat     1 ARG         0.2882
     15 NH1        -1.4900   40.9030    9.4240 N.pl3     1 ARG        -0.2849
     16 NH2        -1.4620   42.0520   11.4030 N.pl3     1 ARG        -0.2849
     17 N          -2.8300   35.0260   11.0320 N.am      1 THR        -0.2613
     18 CA         -1.7030   34.1730   11.3970 C.3       1 THR         0.1565
     19 C          -1.0810   33.6390   10.1200 C.2       1 THR         0.2065
     20 O          -1.7250   33.5920    9.0760 O.2       1 THR        -0.3943
     21 CB         -2.1420   32.9560   12.2400 C.3       1 THR         0.0924
     22 OG1        -3.0100   32.1250   11.4610 O.3       1 THR        -0.3874
     23 CG2        -2.8680   33.4100   13.4970 C.3       1 THR        -0.0346
     24 N           0.1800   33.2330   10.2180 N.am      1 M3L        -0.2637
     25 CA          0.8860   32.6630    9.0850 C.3       1 M3L         0.1310
     26 CB          1.5900   33.7240    8.2180 C.3       1 M3L        -0.0122
     27 CG          2.7970   34.4080    8.8800 C.3       1 M3L        -0.0440
     28 CD          3.4640   35.4450    7.9670 C.3       1 M3L        -0.0123
     29 CE          4.5410   36.2720    8.6890 C.3       1 M3L        -0.0309
     30 NZ          5.3640   37.1610    7.7630 N.4       1 M3L         0.2369
     31 C           1.8850   31.6420    9.6140 C.2       1 M3L         0.2039
     32 O           2.3830   31.7700   10.7360 O.2       1 M3L        -0.3944
     33 CM1         4.5250   38.2500    7.1840 C.3       1 M3L        -0.0418
     34 CM2         5.9880   36.5220    6.5570 C.3       1 M3L        -0.0418
     35 CM3         6.4580   37.8120    8.5430 C.3       1 M3L        -0.0418
     36 N           2.1490   30.6220    8.8060 N.am      1 GLN        -0.2636
     37 CA          3.0940   29.5660    9.1660 C.3       1 GLN         0.1330
     38 C           4.4590   29.9790    8.6450 C.2       1 GLN         0.2041
     39 O           4.5720   30.5320    7.5580 O.2       1 GLN        -0.3944
     40 CB          2.6830   28.2410    8.5200 C.3       1 GLN         0.0045
     41 CG          1.4760   27.5750    9.1520 C.3       1 GLN         0.0412
     42 CD          1.7850   26.9820   10.5150 C.2       1 GLN         0.1737
     43 OE1         2.1760   27.6900   11.4410 O.2       1 GLN        -0.3973
     44 NE2         1.6110   25.6710   10.6410 N.am      1 GLN        -0.3009
     45 N           5.5000   29.7190    9.4220 N.am      1 THR        -0.2613
     46 CA          6.8470   30.0690    8.9900 C.3       1 THR         0.1565
     47 C           7.1660   29.2430    7.7330 C.2       1 THR         0.2065
     48 O           6.8450   28.0560    7.6670 O.2       1 THR        -0.3943
     49 CB          7.8720   29.7660   10.1000 C.3       1 THR         0.0924
     50 OG1         7.6150   30.6180   11.2230 O.3       1 THR        -0.3874
     51 CG2         9.2880   30.0020    9.6070 C.3       1 THR        -0.0346
     52 N           7.7800   29.8810    6.7400 N.am      1 ALA        -0.2639
     53 CA          8.1470   29.2050    5.4840 C.3       1 ALA         0.1282
     54 C           9.6230   29.4940    5.2070 C.2       1 ALA         0.2037
     55 O          10.1020   30.6000    5.4610 O.2       1 ALA        -0.3944
     56 CB          7.2820   29.7220    4.3360 C.3       1 ALA        -0.0244
     57 N          10.3400   28.5040    4.6850 N.am      1 ARG        -0.2624
     58 CA         11.7680   28.6690    4.3950 C.3       1 ARG         0.1421
     59 C          11.9400   29.7620    3.3390 C.2       1 ARG         0.2571
     60 O          10.9150   30.2170    2.7880 O.2       1 ARG        -0.3680
     61 CB         12.3650   27.3530    3.8830 C.3       1 ARG        -0.0079
     62 CG         12.1540   27.0850    2.3970 C.3       1 ARG        -0.0155
     63 CD         10.6850   27.0870    2.0070 C.3       1 ARG         0.0627
     64 NE         10.5050   26.8700    0.5730 N.pl3     1 ARG        -0.2723
     65 CZ         10.9790   27.6750   -0.3750 C.cat     1 ARG         0.2882
     66 NH1        11.6680   28.7610   -0.0490 N.pl3     1 ARG        -0.2849
     67 NH2        10.7650   27.3920   -1.6530 N.pl3     1 ARG        -0.2849
     68 H1         -8.9605   36.1798   14.4680 H         1 ALA         0.2015
     69 H2         -8.2347   35.0015   13.5767 H         1 ALA         0.2015
     70 H3         -8.9270   36.2926   12.8262 H         1 ALA         0.2015
     71 H4         -7.3333   37.8066   13.7755 H         1 ALA         0.1095
     72 H5         -5.4058   36.8524   15.0211 H         1 ALA         0.0310
     73 H6         -6.1570   35.2233   14.9298 H         1 ALA         0.0310
     74 H7         -6.9594   36.5313   15.8635 H         1 ALA         0.0310
     75 H8         -4.9361   37.8366   13.0441 H         1 ARG         0.1884
     76 H9         -4.8022   36.4383   10.3998 H         1 ARG         0.0800
     77 H10        -3.0935   38.1351    9.8328 H         1 ARG         0.0313
     78 H11        -3.2455   38.8405   11.4778 H         1 ARG         0.0313
     79 H12        -5.5598   39.5071   11.0001 H         1 ARG         0.0301
     80 H13        -5.4573   38.7529    9.3730 H         1 ARG         0.0301
     81 H14        -5.1269   41.2275    9.3049 H         1 ARG         0.0689
     82 H15        -3.6929   40.3220    8.7133 H         1 ARG         0.0689
     83 H16        -3.9189   41.6731   11.3938 H         1 ARG         0.2642
     84 H17        -0.4693   41.0185    9.3490 H         1 ARG         0.2615
     85 H18        -2.0061   40.3956    8.6911 H         1 ARG         0.2615
     86 H19        -1.9574   42.4475   12.2148 H         1 ARG         0.2615
     87 H20        -0.4407   42.1575   11.3214 H         1 ARG         0.2615
     88 H21        -3.4267   34.7541   10.2770 H         1 THR         0.1884
     89 H22        -0.9670   34.7641   11.9618 H         1 THR         0.0826
     90 H23        -1.2509   32.3795   12.5290 H         1 THR         0.0639
     91 H24        -2.5486   31.8251   10.6867 H         1 THR         0.2101
     92 H25        -3.1720   32.5300   14.0829 H         1 THR         0.0257
     93 H26        -3.7598   33.9895   13.2163 H         1 THR         0.0257
     94 H27        -2.1973   34.0387   14.1010 H         1 THR         0.0257
     95 H28         0.6545   33.3222   11.0937 H         1 M3L         0.1883
     96 H29         0.1543   32.1431    8.4491 H         1 M3L         0.0800
     97 H30         0.8538   34.5012    7.9652 H         1 M3L         0.0312
     98 H31         1.9382   33.2351    7.2962 H         1 M3L         0.0312
     99 H32         3.5390   33.6385    9.1394 H         1 M3L         0.0269
    100 H33         2.4567   34.9129    9.7961 H         1 M3L         0.0269
    101 H34         2.6903   36.1295    7.5892 H         1 M3L         0.0317
    102 H35         3.9328   34.9192    7.1221 H         1 M3L         0.0317
    103 H36         5.2247   35.5785    9.2005 H         1 M3L         0.0815
    104 H37         4.0446   36.9128    9.4326 H         1 M3L         0.0815
    105 H38         5.1417   38.8751    6.5215 H         1 M3L         0.0778
    106 H39         4.1161   38.8690    7.9961 H         1 M3L         0.0778
    107 H40         3.6986   37.8090    6.6074 H         1 M3L         0.0778
    108 H41         6.6370   35.6931    6.8758 H         1 M3L         0.0778
    109 H42         6.5867   37.2687    6.0148 H         1 M3L         0.0778
    110 H43         5.1978   36.1357    5.8965 H         1 M3L         0.0778
    111 H44         6.0348   38.2923    9.4375 H         1 M3L         0.0778
    112 H45         6.9521   38.5709    7.9185 H         1 M3L         0.0778
    113 H46         7.1931   37.0526    8.8477 H         1 M3L         0.0778
    114 H47         1.6857   30.5744    7.9211 H         1 GLN         0.1883
    115 H48         3.1260   29.4481   10.2592 H         1 GLN         0.0801
    116 H49         3.5334   27.5470    8.5909 H         1 GLN         0.0337
    117 H50         2.4533   28.4326    7.4615 H         1 GLN         0.0337
    118 H51         1.1295   26.7697    8.4876 H         1 GLN         0.0504
    119 H52         0.6792   28.3247    9.2662 H         1 GLN         0.0504
    120 H53         1.7984   25.2235   11.5154 H         1 GLN         0.1814
    121 H54         1.2926   25.1317    9.8614 H         1 GLN         0.1814
    122 H55         5.3607   29.2802   10.3097 H         1 THR         0.1884
    123 H56         6.8879   31.1411    8.7474 H         1 THR         0.0826
    124 H57         7.7690   28.7149   10.4075 H         1 THR         0.0639
    125 H58         7.6935   31.5259   10.9547 H         1 THR         0.2101
    126 H59         9.9997   29.7793   10.4157 H         1 THR         0.0257
    127 H60         9.3990   31.0524    9.2998 H         1 THR         0.0257
    128 H61         9.4916   29.3453    8.7484 H         1 THR         0.0257
    129 H62         7.9993   30.8504    6.8499 H         1 ALA         0.1883
    130 H63         7.9965   28.1205    5.5900 H         1 ALA         0.0797
    131 H64         7.5651   29.2103    3.4044 H         1 ALA         0.0277
    132 H65         7.4351   30.8051    4.2205 H         1 ALA         0.0277
    133 H66         6.2229   29.5228    4.5564 H         1 ALA         0.0277
    134 H67         9.8971   27.6297    4.4862 H         1 ARG         0.1885
    135 H68        12.2919   28.9666    5.3153 H         1 ARG         0.0816
    136 O          13.1477   30.2158    3.0160 O.3       1 ARG        -0.2910
    137 H69        11.9060   26.5277    4.4471 H         1 ARG         0.0315
    138 H70        13.4478   27.3715    4.0760 H         1 ARG         0.0315
    139 H71        12.5825   26.1021    2.1517 H         1 ARG         0.0301
    140 H72        12.6727   27.8653    1.8208 H         1 ARG         0.0301
    141 H73        10.2457   28.0583    2.2782 H         1 ARG         0.0689
    142 H74        10.1695   26.2853    2.5561 H         1 ARG         0.0689
    143 H75         9.9756   26.0379    0.2759 H         1 ARG         0.2642
    144 H76        12.0325   29.3804   -0.7868 H         1 ARG         0.2615
    145 H77        11.8384   28.9846    0.9419 H         1 ARG         0.2615
    146 H78        10.2308   26.5502   -1.9116 H         1 ARG         0.2615
    147 H79        11.1330   28.0140   -2.3869 H         1 ARG         0.2615
    148 H80        13.3055   30.0628    2.0917 H         1 ARG         0.2540
@<TRIPOS>BOND
     1    1    2 1  
     2    2    3 1  
     3    2    5 1  
     4    3    4 2  
     5    3    6 am 
     6    6    7 1  
     7    7    8 1  
     8    7   10 1  
     9    8    9 2  
    10    8   17 am 
    11   10   11 1  
    12   11   12 1  
    13   12   13 1  
    14   13   14 ar 
    15   14   15 ar 
    16   14   16 ar 
    17   17   18 1  
    18   18   19 1  
    19   18   21 1  
    20   19   20 2  
    21   19   24 am 
    22   21   22 1  
    23   21   23 1  
    24   24   25 1  
    25   25   26 1  
    26   25   31 1  
    27   26   27 1  
    28   27   28 1  
    29   28   29 1  
    30   29   30 1  
    31   30   33 1  
    32   30   34 1  
    33   30   35 1  
    34   31   32 2  
    35   31   36 am 
    36   36   37 1  
    37   37   38 1  
    38   37   40 1  
    39   38   39 2  
    40   38   45 am 
    41   40   41 1  
    42   41   42 1  
    43   42   43 2  
    44   42   44 am 
    45   45   46 1  
    46   46   47 1  
    47   46   49 1  
    48   47   48 2  
    49   47   52 am 
    50   49   50 1  
    51   49   51 1  
    52   52   53 1  
    53   53   54 1  
    54   53   56 1  
    55   54   55 2  
    56   54   57 am 
    57   57   58 1  
    58   58   59 1  
    59   58   61 1  
    60   59   60 2  
    61   61   62 1  
    62   62   63 1  
    63   63   64 1  
    64   64   65 ar 
    65   65   66 ar 
    66   65   67 ar 
    67    1   68 1  
    68    1   69 1  
    69    1   70 1  
    70    2   71 1  
    71    5   72 1  
    72    5   73 1  
    73    5   74 1  
    74    6   75 1  
    75    7   76 1  
    76   10   77 1  
    77   10   78 1  
    78   11   79 1  
    79   11   80 1  
    80   12   81 1  
    81   12   82 1  
    82   13   83 1  
    83   15   84 1  
    84   15   85 1  
    85   16   86 1  
    86   16   87 1  
    87   17   88 1  
    88   18   89 1  
    89   21   90 1  
    90   22   91 1  
    91   23   92 1  
    92   23   93 1  
    93   23   94 1  
    94   24   95 1  
    95   25   96 1  
    96   26   97 1  
    97   26   98 1  
    98   27   99 1  
    99   27  100 1  
   100   28  101 1  
   101   28  102 1  
   102   29  103 1  
   103   29  104 1  
   104   33  105 1  
   105   33  106 1  
   106   33  107 1  
   107   34  108 1  
   108   34  109 1  
   109   34  110 1  
   110   35  111 1  
   111   35  112 1  
   112   35  113 1  
   113   36  114 1  
   114   37  115 1  
   115   40  116 1  
   116   40  117 1  
   117   41  118 1  
   118   41  119 1  
   119   44  120 1  
   120   44  121 1  
   121   45  122 1  
   122   46  123 1  
   123   49  124 1  
   124   50  125 1  
   125   51  126 1  
   126   51  127 1  
   127   51  128 1  
   128   52  129 1  
   129   53  130 1  
   130   56  131 1  
   131   56  132 1  
   132   56  133 1  
   133   57  134 1  
   134   58  135 1  
   135   59  136 1  
   136   61  137 1  
   137   61  138 1  
   138   62  139 1  
   139   62  140 1  
   140   63  141 1  
   141   63  142 1  
   142   64  143 1  
   143   66  144 1  
   144   66  145 1  
   145   67  146 1  
   146   67  147 1  
   147  136  148 1  
@<TRIPOS>SUBSTRUCTURE
     1 ALA         1

