2qic_ligand
  -I-interpret- 

146145  0  0  0  0  0  0  0  0999 V2000
   -8.4160   35.9910   13.6410 N   0  3  0  0  0
   -7.1250   36.7280   13.7180 C   0  0  0  0  0
   -6.2870   36.4530   12.4720 C   0  0  0  0  0
   -6.6540   35.6270   11.6390 O   0  0  0  0  0
   -6.3580   36.3040   14.9710 C   0  0  0  0  0
   -5.1700   37.1620   12.3440 N   0  0  0  0  0
   -4.2750   36.9770   11.2010 C   0  0  0  0  0
   -3.0780   36.1570   11.6840 C   0  0  0  0  0
   -2.4060   36.5360   12.6360 O   0  0  0  0  0
   -3.7840   38.3280   10.6670 C   0  0  0  0  0
   -4.8880   39.2630   10.1640 C   0  0  0  0  0
   -4.3000   40.5640    9.5980 C   0  0  0  0  0
   -3.4580   41.2630   10.5690 N   0  0  0  0  0
   -2.1390   41.4070   10.4630 C   0  0  0  0  0
   -1.4900   40.9030    9.4240 N   0  0  0  0  0
   -1.4620   42.0520   11.4030 N   0  0  0  0  0
   -2.8300   35.0260   11.0320 N   0  0  0  0  0
   -1.7030   34.1730   11.3970 C   0  0  0  0  0
   -1.0810   33.6390   10.1200 C   0  0  0  0  0
   -1.7250   33.5920    9.0760 O   0  0  0  0  0
   -2.1420   32.9560   12.2400 C   0  0  0  0  0
   -3.0100   32.1250   11.4610 O   0  0  0  0  0
   -2.8680   33.4100   13.4970 C   0  0  0  0  0
    0.1800   33.2330   10.2180 N   0  0  0  0  0
    0.8860   32.6630    9.0850 C   0  0  0  0  0
    1.5900   33.7240    8.2180 C   0  0  0  0  0
    2.7970   34.4080    8.8800 C   0  0  0  0  0
    3.4640   35.4450    7.9670 C   0  0  0  0  0
    4.5410   36.2720    8.6890 C   0  0  0  0  0
    5.3640   37.1610    7.7630 N   0  3  0  0  0
    1.8850   31.6420    9.6140 C   0  0  0  0  0
    2.3830   31.7700   10.7360 O   0  0  0  0  0
    4.5250   38.2500    7.1840 C   0  0  0  0  0
    5.9880   36.5220    6.5570 C   0  0  0  0  0
    6.4580   37.8120    8.5430 C   0  0  0  0  0
    2.1490   30.6220    8.8060 N   0  0  0  0  0
    3.0940   29.5660    9.1660 C   0  0  0  0  0
    4.4590   29.9790    8.6450 C   0  0  0  0  0
    4.5720   30.5320    7.5580 O   0  0  0  0  0
    2.6830   28.2410    8.5200 C   0  0  0  0  0
    1.4760   27.5750    9.1520 C   0  0  0  0  0
    1.7850   26.9820   10.5150 C   0  0  0  0  0
    2.1760   27.6900   11.4410 O   0  0  0  0  0
    1.6110   25.6710   10.6410 N   0  0  0  0  0
    5.5000   29.7190    9.4220 N   0  0  0  0  0
    6.8470   30.0690    8.9900 C   0  0  0  0  0
    7.1660   29.2430    7.7330 C   0  0  0  0  0
    6.8450   28.0560    7.6670 O   0  0  0  0  0
    7.8720   29.7660   10.1000 C   0  0  0  0  0
    7.6150   30.6180   11.2230 O   0  0  0  0  0
    9.2880   30.0020    9.6070 C   0  0  0  0  0
    7.7800   29.8810    6.7400 N   0  0  0  0  0
    8.1470   29.2050    5.4840 C   0  0  0  0  0
    9.6230   29.4940    5.2070 C   0  0  0  0  0
   10.1020   30.6000    5.4610 O   0  0  0  0  0
    7.2820   29.7220    4.3360 C   0  0  0  0  0
   10.3400   28.5040    4.6850 N   0  0  0  0  0
   11.7680   28.6690    4.3950 C   0  0  0  0  0
   11.9400   29.7620    3.3390 C   0  0  0  0  0
   10.9150   30.2170    2.7880 O   0  0  0  0  0
   12.3650   27.3530    3.8830 C   0  0  0  0  0
   12.1540   27.0850    2.3970 C   0  0  0  0  0
   10.6850   27.0870    2.0070 C   0  0  0  0  0
   10.5050   26.8700    0.5730 N   0  0  0  0  0
   10.9790   27.6750   -0.3750 C   0  0  0  0  0
   11.6680   28.7610   -0.0490 N   0  0  0  0  0
   10.7650   27.3920   -1.6530 N   0  0  0  0  0
   13.1477   30.2158    3.0160 O   0  0  0  0  0
   -8.9212   36.2792   12.8031 H   0  0  0  0  0
   -8.2320   34.9886   13.6005 H   0  0  0  0  0
   -8.9763   36.2020   14.4668 H   0  0  0  0  0
   -7.3307   37.7970   13.7724 H   0  0  0  0  0
   -6.1361   35.2382   14.9164 H   0  0  0  0  0
   -5.4271   36.8675   15.0336 H   0  0  0  0  0
   -6.9660   36.5051   15.8530 H   0  0  0  0  0
   -4.9314   37.8501   13.0581 H   0  0  0  0  0
   -4.8043   36.4694   10.3946 H   0  0  0  0  0
   -3.1389   38.1146    9.8147 H   0  0  0  0  0
   -3.2944   38.8363   11.4977 H   0  0  0  0  0
   -5.5408   39.5117   11.0007 H   0  0  0  0  0
   -5.4381   38.7563    9.3711 H   0  0  0  0  0
   -5.1280   41.2218    9.3337 H   0  0  0  0  0
   -3.6820   40.3088    8.7371 H   0  0  0  0  0
   -3.9145   41.6691   11.3858 H   0  0  0  0  0
   -2.0011   40.4005    8.6983 H   0  0  0  0  0
   -0.4506   42.1565   11.3222 H   0  0  0  0  0
   -1.9526   42.4437   12.2069 H   0  0  0  0  0
   -3.4386   34.7486   10.2619 H   0  0  0  0  0
   -1.0068   34.7714   11.9846 H   0  0  0  0  0
   -1.2550   32.3940   12.5324 H   0  0  0  0  0
   -3.2826   31.3686   11.9855 H   0  0  0  0  0
   -2.2024   34.0329   14.0946 H   0  0  0  0  0
   -3.7514   33.9841   13.2175 H   0  0  0  0  0
   -3.1687   32.5372   14.0766 H   0  0  0  0  0
    0.6640   33.3240   11.1112 H   0  0  0  0  0
    0.1584   32.1855    8.4288 H   0  0  0  0  0
    0.8561   34.5049    8.0189 H   0  0  0  0  0
    1.9662   33.2088    7.3342 H   0  0  0  0  0
    3.5347   33.6384    9.1073 H   0  0  0  0  0
    2.4413   34.9258    9.7707 H   0  0  0  0  0
    2.6911   36.1323    7.6229 H   0  0  0  0  0
    3.9475   34.9084    7.1507 H   0  0  0  0  0
    5.2290   35.5684    9.1577 H   0  0  0  0  0
    4.0280   36.9262    9.3939 H   0  0  0  0  0
    3.7065   37.8117    6.6130 H   0  0  0  0  0
    4.1204   38.8626    7.9897 H   0  0  0  0  0
    5.1372   38.8686    6.5278 H   0  0  0  0  0
    6.6682   35.7326    6.8767 H   0  0  0  0  0
    5.2064   36.0969    5.9273 H   0  0  0  0  0
    6.5410   37.2740    5.9941 H   0  0  0  0  0
    6.0244   38.4174    9.3390 H   0  0  0  0  0
    7.0994   37.0448    8.9767 H   0  0  0  0  0
    7.0461   38.4474    7.8808 H   0  0  0  0  0
    1.6764   30.5735    7.9034 H   0  0  0  0  0
    3.1110   29.4287   10.2472 H   0  0  0  0  0
    3.5223   27.5559    8.6399 H   0  0  0  0  0
    2.4185   28.4610    7.4857 H   0  0  0  0  0
    1.1586   26.7637    8.4969 H   0  0  0  0  0
    0.7040   28.3333    9.2828 H   0  0  0  0  0
    1.8037   25.2143   11.5325 H   0  0  0  0  0
    1.2848   25.1211    9.8463 H   0  0  0  0  0
    5.3579   29.2714   10.3275 H   0  0  0  0  0
    6.9036   31.1354    8.7718 H   0  0  0  0  0
    7.7743   28.7195   10.3889 H   0  0  0  0  0
    8.2519   30.4320   11.9168 H   0  0  0  0  0
    9.4884   29.3508    8.7562 H   0  0  0  0  0
    9.3967   31.0431    9.3029 H   0  0  0  0  0
    9.9922   29.7811   10.4091 H   0  0  0  0  0
    8.0037   30.8698    6.8521 H   0  0  0  0  0
    7.9840   28.1308    5.5710 H   0  0  0  0  0
    6.2329   29.5241    4.5556 H   0  0  0  0  0
    7.4346   30.7953    4.2226 H   0  0  0  0  0
    7.5635   29.2142    3.4135 H   0  0  0  0  0
    9.8882   27.6123    4.4822 H   0  0  0  0  0
   12.2898   28.9524    5.3091 H   0  0  0  0  0
   11.8637   26.5492    4.4221 H   0  0  0  0  0
   13.4416   27.4128    4.0423 H   0  0  0  0  0
   12.5598   26.0985    2.1726 H   0  0  0  0  0
   12.6509   27.8784    1.8387 H   0  0  0  0  0
   10.2636   28.0593    2.2623 H   0  0  0  0  0
   10.1871   26.2780    2.5415 H   0  0  0  0  0
    9.9807   26.0460    0.2788 H   0  0  0  0  0
   12.0302   29.3736   -0.7797 H   0  0  0  0  0
   11.8354   28.9833    0.9323 H   0  0  0  0  0
   10.2373   26.5576   -1.9091 H   0  0  0  0  0
   13.8108   29.7554    3.5355 H   0  0  0  0  0
  1  2  1  0  0  0
  2  3  1  0  0  0
  2  5  1  0  0  0
  3  4  2  0  0  0
  3  6  1  0  0  0
  6  7  1  0  0  0
  7  8  1  0  0  0
  7 10  1  0  0  0
  8  9  2  0  0  0
  8 17  1  0  0  0
 10 11  1  0  0  0
 11 12  1  0  0  0
 12 13  1  0  0  0
 13 14  1  0  0  0
 14 15  2  0  0  0
 14 16  1  0  0  0
 17 18  1  0  0  0
 18 19  1  0  0  0
 18 21  1  0  0  0
 19 20  2  0  0  0
 19 24  1  0  0  0
 21 22  1  0  0  0
 21 23  1  0  0  0
 24 25  1  0  0  0
 25 26  1  0  0  0
 25 31  1  0  0  0
 26 27  1  0  0  0
 27 28  1  0  0  0
 28 29  1  0  0  0
 29 30  1  0  0  0
 30 33  1  0  0  0
 30 34  1  0  0  0
 30 35  1  0  0  0
 31 32  2  0  0  0
 31 36  1  0  0  0
 36 37  1  0  0  0
 37 38  1  0  0  0
 37 40  1  0  0  0
 38 39  2  0  0  0
 38 45  1  0  0  0
 40 41  1  0  0  0
 41 42  1  0  0  0
 42 43  2  0  0  0
 42 44  1  0  0  0
 45 46  1  0  0  0
 46 47  1  0  0  0
 46 49  1  0  0  0
 47 48  2  0  0  0
 47 52  1  0  0  0
 49 50  1  0  0  0
 49 51  1  0  0  0
 52 53  1  0  0  0
 53 54  1  0  0  0
 53 56  1  0  0  0
 54 55  2  0  0  0
 54 57  1  0  0  0
 57 58  1  0  0  0
 58 59  1  0  0  0
 58 61  1  0  0  0
 59 60  2  0  0  0
 61 62  1  0  0  0
 62 63  1  0  0  0
 63 64  1  0  0  0
 64 65  1  0  0  0
 65 66  1  0  0  0
 65 67  2  0  0  0
 59 68  1  0  0  0
  1 69  1  0  0  0
  1 70  1  0  0  0
  1 71  1  0  0  0
  2 72  1  0  0  0
  5 73  1  0  0  0
  5 74  1  0  0  0
  5 75  1  0  0  0
  6 76  1  0  0  0
  7 77  1  0  0  0
 10 78  1  0  0  0
 10 79  1  0  0  0
 11 80  1  0  0  0
 11 81  1  0  0  0
 12 82  1  0  0  0
 12 83  1  0  0  0
 13 84  1  0  0  0
 15 85  1  0  0  0
 16 86  1  0  0  0
 16 87  1  0  0  0
 17 88  1  0  0  0
 18 89  1  0  0  0
 21 90  1  0  0  0
 22 91  1  0  0  0
 23 92  1  0  0  0
 23 93  1  0  0  0
 23 94  1  0  0  0
 24 95  1  0  0  0
 25 96  1  0  0  0
 26 97  1  0  0  0
 26 98  1  0  0  0
 27 99  1  0  0  0
 27100  1  0  0  0
 28101  1  0  0  0
 28102  1  0  0  0
 29103  1  0  0  0
 29104  1  0  0  0
 33105  1  0  0  0
 33106  1  0  0  0
 33107  1  0  0  0
 34108  1  0  0  0
 34109  1  0  0  0
 34110  1  0  0  0
 35111  1  0  0  0
 35112  1  0  0  0
 35113  1  0  0  0
 36114  1  0  0  0
 37115  1  0  0  0
 40116  1  0  0  0
 40117  1  0  0  0
 41118  1  0  0  0
 41119  1  0  0  0
 44120  1  0  0  0
 44121  1  0  0  0
 45122  1  0  0  0
 46123  1  0  0  0
 49124  1  0  0  0
 50125  1  0  0  0
 51126  1  0  0  0
 51127  1  0  0  0
 51128  1  0  0  0
 52129  1  0  0  0
 53130  1  0  0  0
 56131  1  0  0  0
 56132  1  0  0  0
 56133  1  0  0  0
 57134  1  0  0  0
 58135  1  0  0  0
 61136  1  0  0  0
 61137  1  0  0  0
 62138  1  0  0  0
 62139  1  0  0  0
 63140  1  0  0  0
 63141  1  0  0  0
 64142  1  0  0  0
 66143  1  0  0  0
 66144  1  0  0  0
 67145  1  0  0  0
 68146  1  0  0  0
M  END
$$$$
