5n87_ligand
  -I-interpret- 

 80 85  0  0  0  0  0  0  0  0999 V2000
   32.4680   47.7980   45.1110 C   0  0  0  0  0
   33.1570   48.5310   46.2110 C   0  0  0  0  0
   33.0650   47.6170   47.3730 N   0  3  0  0  0
   33.7910   48.1560   48.5430 C   0  0  0  0  0
   33.5020   46.2230   47.0340 C   0  0  0  0  0
   34.2090   46.0380   45.7070 C   0  0  0  0  0
   33.3870   46.7240   44.6610 N   0  0  0  0  0
   33.5120   46.4570   43.3450 C   0  0  0  0  0
   33.6820   47.5170   42.4580 C   0  0  0  0  0
   33.8070   47.2790   41.0910 C   0  0  0  0  0
   33.9730   48.2720   40.1600 O   0  0  0  0  0
   33.9580   49.6390   40.6080 C   0  0  0  0  0
   33.4740   45.1470   42.8460 C   0  0  0  0  0
   33.5940   44.8980   41.4770 C   0  0  0  0  0
   33.7770   45.9680   40.5930 C   0  0  0  0  0
   33.9000   45.8450   39.2570 N   0  0  0  0  0
   34.7050   44.9150   38.7010 C   0  0  0  0  0
   35.3050   43.9240   39.4100 N   0  0  0  0  0
   36.1040   43.0070   38.8430 C   0  0  0  0  0
   34.8900   44.9810   37.3720 N   0  0  0  0  0
   35.7170   44.0420   36.7270 C   0  0  0  0  0
   36.3240   43.0410   37.4730 C   0  0  0  0  0
   37.1560   42.1040   36.8410 C   0  0  0  0  0
   37.4070   40.8230   37.6610 C   0  0  0  0  0
   37.2890   40.9630   39.0490 C   0  0  0  0  0
   36.6640   42.0280   39.5620 N   0  0  0  0  0
   36.6780   41.9110   40.8930 C   0  0  0  0  0
   37.3210   40.7970   41.2200 C   0  0  0  0  0
   37.6970   40.1940   40.0850 C   0  0  0  0  0
   38.3860   39.0130   40.0050 C   0  0  0  0  0
   38.9680   38.6780   38.9690 O   0  0  0  0  0
   38.4130   38.2370   41.1290 N   0  0  0  0  0
   39.0810   37.0680   41.1210 C   0  0  0  0  0
   38.3580   35.8620   41.0280 C   0  0  0  0  0
   36.9640   35.8110   40.9250 C   0  0  0  0  0
   36.3410   35.5330   42.3040 C   0  0  0  0  0
   39.0580   34.6550   41.0350 C   0  0  0  0  0
   40.4480   34.6520   41.1360 C   0  0  0  0  0
   41.1510   35.8530   41.2400 C   0  0  0  0  0
   40.4820   37.0760   41.2350 C   0  0  0  0  0
   41.2340   38.2320   41.3360 C   0  0  0  0  0
   41.2560   38.5830   42.8290 C   0  0  0  0  0
   32.2316   48.4724   44.2879 H   0  0  0  0  0
   31.5253   47.3768   45.4604 H   0  0  0  0  0
   32.6958   49.4980   46.4118 H   0  0  0  0  0
   34.1897   48.7726   45.9595 H   0  0  0  0  0
   32.0795   47.5563   47.6289 H   0  0  0  0  0
   33.6051   47.5203   49.4087 H   0  0  0  0  0
   34.8594   48.1763   48.3282 H   0  0  0  0  0
   33.4417   49.1673   48.7514 H   0  0  0  0  0
   32.5908   45.6277   46.9753 H   0  0  0  0  0
   34.2221   45.9382   47.8011 H   0  0  0  0  0
   34.3142   44.9781   45.4752 H   0  0  0  0  0
   35.2111   46.4652   45.7457 H   0  0  0  0  0
   33.7175   48.5389   42.8355 H   0  0  0  0  0
   32.9995   49.8549   41.0799 H   0  0  0  0  0
   34.7617   49.7929   41.3280 H   0  0  0  0  0
   34.1015   50.3014   39.7543 H   0  0  0  0  0
   33.3492   44.3122   43.5356 H   0  0  0  0  0
   33.5455   43.8767   41.0991 H   0  0  0  0  0
   33.3710   46.4710   38.6498 H   0  0  0  0  0
   35.8794   44.1004   35.6507 H   0  0  0  0  0
   37.5881   42.2681   35.8539 H   0  0  0  0  0
   37.6594   39.8721   37.1917 H   0  0  0  0  0
   36.2336   42.6158   41.5958 H   0  0  0  0  0
   37.5094   40.4372   42.2315 H   0  0  0  0  0
   37.9280   38.5426   41.9727 H   0  0  0  0  0
   36.6853   35.0111   40.2390 H   0  0  0  0  0
   36.5978   36.7681   40.5537 H   0  0  0  0  0
   36.7074   34.5781   42.6809 H   0  0  0  0  0
   36.6201   36.3289   42.9945 H   0  0  0  0  0
   35.2557   35.4957   42.2101 H   0  0  0  0  0
   38.5163   33.7120   40.9613 H   0  0  0  0  0
   40.9893   33.7059   41.1337 H   0  0  0  0  0
   42.2374   35.8346   41.3263 H   0  0  0  0  0
   40.8035   39.0396   40.7439 H   0  0  0  0  0
   42.2417   38.0863   40.9468 H   0  0  0  0  0
   40.2358   38.7411   43.1788 H   0  0  0  0  0
   41.7100   37.7639   43.3868 H   0  0  0  0  0
   41.8378   39.4925   42.9786 H   0  0  0  0  0
  1  2  1  0  0  0
  1  7  1  0  0  0
  2  3  1  0  0  0
  3  4  1  0  0  0
  3  5  1  0  0  0
  5  6  1  0  0  0
  6  7  1  0  0  0
  7  8  1  0  0  0
  8  9  4  0  0  0
  8 13  4  0  0  0
  9 10  4  0  0  0
 10 11  1  0  0  0
 10 15  4  0  0  0
 11 12  1  0  0  0
 13 14  4  0  0  0
 14 15  4  0  0  0
 15 16  1  0  0  0
 16 17  1  0  0  0
 17 18  4  0  0  0
 17 20  4  0  0  0
 18 19  4  0  0  0
 19 22  4  0  0  0
 19 26  4  0  0  0
 20 21  4  0  0  0
 21 22  4  0  0  0
 22 23  4  0  0  0
 23 24  4  0  0  0
 24 25  4  0  0  0
 25 26  4  0  0  0
 25 29  4  0  0  0
 26 27  4  0  0  0
 27 28  4  0  0  0
 28 29  4  0  0  0
 29 30  1  0  0  0
 30 31  2  0  0  0
 30 32  1  0  0  0
 32 33  1  0  0  0
 33 34  4  0  0  0
 33 40  4  0  0  0
 34 35  1  0  0  0
 34 37  4  0  0  0
 35 36  1  0  0  0
 37 38  4  0  0  0
 38 39  4  0  0  0
 39 40  4  0  0  0
 40 41  1  0  0  0
 41 42  1  0  0  0
  1 43  1  0  0  0
  1 44  1  0  0  0
  2 45  1  0  0  0
  2 46  1  0  0  0
  3 47  1  0  0  0
  4 48  1  0  0  0
  4 49  1  0  0  0
  4 50  1  0  0  0
  5 51  1  0  0  0
  5 52  1  0  0  0
  6 53  1  0  0  0
  6 54  1  0  0  0
  9 55  1  0  0  0
 12 56  1  0  0  0
 12 57  1  0  0  0
 12 58  1  0  0  0
 13 59  1  0  0  0
 14 60  1  0  0  0
 16 61  1  0  0  0
 21 62  1  0  0  0
 23 63  1  0  0  0
 24 64  1  0  0  0
 27 65  1  0  0  0
 28 66  1  0  0  0
 32 67  1  0  0  0
 35 68  1  0  0  0
 35 69  1  0  0  0
 36 70  1  0  0  0
 36 71  1  0  0  0
 36 72  1  0  0  0
 37 73  1  0  0  0
 38 74  1  0  0  0
 39 75  1  0  0  0
 41 76  1  0  0  0
 41 77  1  0  0  0
 42 78  1  0  0  0
 42 79  1  0  0  0
 42 80  1  0  0  0
M  END
$$$$
