2duv_ligand
  -I-interpret- 

 45 48  0  0  0  0  0  0  0  0999 V2000
   26.7820   29.0830   26.8430 O   0  0  0  0  0
   27.3150   30.3250   27.1130 C   0  0  0  0  0
   26.7270   31.1880   28.0230 C   0  0  0  0  0
   25.4570   30.7340   28.7240 C   0  0  0  0  0
   23.7360   28.8650   28.9870 C   0  0  0  0  0
   23.2560   27.5740   28.6410 C   0  0  0  0  0
   23.9780   26.7840   27.6850 C   0  0  0  0  0
   25.1690   27.2930   27.0840 C   0  0  0  0  0
   25.6240   28.5910   27.4430 C   0  0  0  0  0
   24.9140   29.3780   28.3940 C   0  0  0  0  0
   24.9810   31.5560   29.5170 O   0  0  0  0  0
   28.5350   30.6160   26.3370 C   0  0  0  0  0
   28.8470   31.9240   25.8360 C   0  0  0  0  0
   30.0220   32.1400   25.0780 C   0  0  0  0  0
   30.8760   31.0490   24.8190 C   0  0  0  0  0
   30.5740   29.7360   25.3140 C   0  0  0  0  0
   29.4110   29.5290   26.0660 C   0  0  0  0  0
   21.9930   27.0560   29.2860 C   0  0  0  0  0
   27.1770   32.4440   28.3640 O   0  0  0  0  0
   31.4670   28.7080   25.0110 O   0  0  0  0  0
   32.0230   31.2020   24.0840 O   0  0  0  0  0
   26.5620   25.5410   24.0630 C   0  0  0  0  0
   25.4590   26.3660   24.7790 C   0  0  0  0  0
   25.9100   26.5850   26.1550 N   0  0  0  0  0
   27.3570   25.8980   26.4190 S   0  0  0  0  0
   27.9000   25.8740   24.7420 C   0  0  0  0  0
   27.0860   24.5620   26.8660 O   0  0  0  0  0
   28.1790   26.7660   27.2180 O   0  0  0  0  0
   23.1922   29.4661   29.7158 H   0  0  0  0  0
   23.6158   25.7916   27.4166 H   0  0  0  0  0
   28.1742   32.7568   26.0408 H   0  0  0  0  0
   30.2628   33.1338   24.7005 H   0  0  0  0  0
   29.1769   28.5338   26.4440 H   0  0  0  0  0
   22.1297   27.0130   30.3665 H   0  0  0  0  0
   21.1652   27.7245   29.0495 H   0  0  0  0  0
   21.7755   26.0578   28.9060 H   0  0  0  0  0
   26.5867   32.8280   29.0164 H   0  0  0  0  0
   31.1519   27.8877   25.3975 H   0  0  0  0  0
   32.4716   30.3562   24.0132 H   0  0  0  0  0
   26.5990   25.7922   23.0030 H   0  0  0  0  0
   26.3506   24.4744   24.1387 H   0  0  0  0  0
   24.5092   25.8315   24.7659 H   0  0  0  0  0
   25.2987   27.3168   24.2707 H   0  0  0  0  0
   28.3745   26.7932   24.3984 H   0  0  0  0  0
   28.7101   25.1762   24.5302 H   0  0  0  0  0
  1  2  1  0  0  0
  9  1  1  0  0  0
  2  3  2  0  0  0
  2 12  1  0  0  0
  4  3  1  0  0  0
  3 19  1  0  0  0
 10  4  1  0  0  0
  4 11  2  0  0  0
  6  5  4  0  0  0
 10  5  4  0  0  0
  7  6  4  0  0  0
  6 18  1  0  0  0
  8  7  4  0  0  0
  8  9  4  0  0  0
 24  8  1  0  0  0
  9 10  4  0  0  0
 12 13  4  0  0  0
 12 17  4  0  0  0
 13 14  4  0  0  0
 14 15  4  0  0  0
 16 15  4  0  0  0
 15 21  1  0  0  0
 17 16  4  0  0  0
 16 20  1  0  0  0
 23 22  1  0  0  0
 22 26  1  0  0  0
 23 24  1  0  0  0
 24 25  1  0  0  0
 25 26  1  0  0  0
 25 27  2  0  0  0
 25 28  2  0  0  0
  5 29  1  0  0  0
  7 30  1  0  0  0
 13 31  1  0  0  0
 14 32  1  0  0  0
 17 33  1  0  0  0
 18 34  1  0  0  0
 18 35  1  0  0  0
 18 36  1  0  0  0
 19 37  1  0  0  0
 20 38  1  0  0  0
 21 39  1  0  0  0
 22 40  1  0  0  0
 22 41  1  0  0  0
 23 42  1  0  0  0
 23 43  1  0  0  0
 26 44  1  0  0  0
 26 45  1  0  0  0
M  END
$$$$
