6qxj_ligand
  -I-interpret- 

 43 46  0  0  0  0  0  0  0  0999 V2000
   14.3390   54.4910   -3.0130 N   0  0  0  0  0
   14.8250   57.7810   -5.5330 N   0  0  0  0  0
   12.1800   57.3050   -3.9190 C   0  0  0  0  0
   13.4010   56.5330   -3.9850 C   0  0  0  0  0
   13.3530   55.3850   -3.1230 C   0  0  0  0  0
   15.4350   54.7630   -3.7250 C   0  0  0  0  0
   14.6080   56.7120   -4.7290 C   0  0  0  0  0
   15.8300   59.2620   -7.2000 C   0  0  0  0  0
   11.9520   58.4590   -6.1040 C   0  0  0  0  0
   11.4080   60.8140   -6.1920 C   0  0  0  0  0
   11.6970   59.9110   -8.2620 C   0  0  0  0  0
    8.7980   56.1260   -2.7530 C   0  0  0  0  0
   17.5290   56.4090   -7.2750 O   0  0  0  0  0
   11.8390   55.3100   -2.2900 S   0  0  0  0  0
    9.8510   57.2230   -2.6860 C   0  0  0  0  0
   15.6070   55.8100   -4.5580 N   0  0  0  0  0
   15.4040   55.9440   -7.7150 O   0  0  0  0  0
   11.2210   56.7530   -3.0260 C   0  0  0  0  0
   11.2170   61.7890   -7.1460 N   0  0  0  0  0
   15.8960   57.9340   -6.4990 C   0  0  0  0  0
   16.3050   56.6530   -7.2160 C   0  0  0  0  0
   11.9280   58.5350   -4.7120 C   0  0  0  0  0
   11.7150   59.6130   -6.8690 C   0  0  0  0  0
   11.4030   61.2310   -8.3860 C   0  0  0  0  0
   11.3410   60.8840   -4.7970 C   0  0  0  0  0
   11.6050   59.7410   -4.0710 C   0  0  0  0  0
   14.1683   58.5571   -5.4504 H   0  0  0  0  0
   16.2720   54.0722   -3.6234 H   0  0  0  0  0
   16.8144   59.5117   -7.5960 H   0  0  0  0  0
   15.1119   59.2043   -8.0180 H   0  0  0  0  0
   15.5161   60.0296   -6.4926 H   0  0  0  0  0
   12.1539   57.5079   -6.5966 H   0  0  0  0  0
   11.8842   59.2106   -9.0759 H   0  0  0  0  0
    8.7625   55.7195   -3.7637 H   0  0  0  0  0
    9.0554   55.3336   -2.0501 H   0  0  0  0  0
    7.8247   56.5421   -2.4929 H   0  0  0  0  0
    9.8761   57.5904   -1.6601 H   0  0  0  0  0
    9.5762   57.9855   -3.4148 H   0  0  0  0  0
   14.5489   56.3416   -7.5351 H   0  0  0  0  0
   16.8548   58.0507   -5.9938 H   0  0  0  0  0
   11.3261   61.7683   -9.3313 H   0  0  0  0  0
   11.0866   61.8180   -4.2959 H   0  0  0  0  0
   11.5620   59.7751   -2.9824 H   0  0  0  0  0
  5  1  4  0  0  0
  6  1  4  0  0  0
  2  7  1  0  0  0
 20  2  1  0  0  0
  4  3  4  0  0  0
  3 18  4  0  0  0
  3 22  1  0  0  0
  4  5  4  0  0  0
  7  4  4  0  0  0
  5 14  4  0  0  0
 16  6  4  0  0  0
  7 16  4  0  0  0
 20  8  1  0  0  0
 22  9  4  0  0  0
  9 23  4  0  0  0
 10 19  4  0  0  0
 23 10  4  0  0  0
 10 25  4  0  0  0
 23 11  4  0  0  0
 11 24  4  0  0  0
 15 12  1  0  0  0
 21 13  2  0  0  0
 14 18  4  0  0  0
 18 15  1  0  0  0
 21 17  1  0  0  0
 24 19  4  0  0  0
 20 21  1  0  0  0
 22 26  4  0  0  0
 25 26  4  0  0  0
  2 27  1  0  0  0
  6 28  1  0  0  0
  8 29  1  0  0  0
  8 30  1  0  0  0
  8 31  1  0  0  0
  9 32  1  0  0  0
 11 33  1  0  0  0
 12 34  1  0  0  0
 12 35  1  0  0  0
 12 36  1  0  0  0
 15 37  1  0  0  0
 15 38  1  0  0  0
 17 39  1  0  0  0
 20 40  1  0  0  0
 24 41  1  0  0  0
 25 42  1  0  0  0
 26 43  1  0  0  0
M  END
$$$$
