4y5s_ligand
  -I-interpret- 

 16 15  0  0  0  0  0  0  0  0999 V2000
  134.2670    3.1820  122.6850 C   0  0  0  0  0
  133.4770    3.5200  121.7710 O   0  0  0  0  0
  133.9060    2.8760  123.8440 O   0  0  0  0  0
  135.6940    3.1380  122.4140 C   0  0  0  0  0
  136.4360    2.9210  123.3600 O   0  0  0  0  0
  136.1950    3.3490  120.9950 C   0  0  0  0  0
  137.7170    3.2850  120.9110 C   0  0  0  0  0
  138.1980    3.5840  119.4980 C   0  0  0  0  0
  137.4970    4.2630  118.7100 O   0  0  0  0  0
  139.3140    3.1430  119.1480 O   0  0  0  0  0
  133.9753    3.7084  120.9724 H   0  0  0  0  0
  135.8766    4.3377  120.6645 H   0  0  0  0  0
  135.7854    2.5574  120.3676 H   0  0  0  0  0
  138.0406    2.2810  121.1856 H   0  0  0  0  0
  138.1363    4.0291  121.5881 H   0  0  0  0  0
  136.6796    4.5143  119.1462 H   0  0  0  0  0
  1  2  1  0  0  0
  1  3  2  0  0  0
  1  4  1  0  0  0
  4  5  2  0  0  0
  4  6  1  0  0  0
  6  7  1  0  0  0
  7  8  1  0  0  0
  8  9  1  0  0  0
  8 10  2  0  0  0
  2 11  1  0  0  0
  6 12  1  0  0  0
  6 13  1  0  0  0
  7 14  1  0  0  0
  7 15  1  0  0  0
  9 16  1  0  0  0
M  END
$$$$
