### 
### Created by X-TOOL on Mon Sep 10 21:13:20 2018
### 

@<TRIPOS>MOLECULE
4z2o_ligand
  163   162     1     0     0
SMALL
GAST_HUCK


@<TRIPOS>ATOM
      1 N           6.1700    9.9880   -9.1180 N.4       1 VAL         0.2381
      2 CA          6.2090    8.6300   -8.4800 C.3       1 VAL         0.0673
      3 C           5.1710    8.4540   -7.3580 C.2       1 VAL         0.2269
      4 O           5.4010    7.7070   -6.4020 O.2       1 VAL        -0.3907
      5 CB          7.6200    8.2720   -7.9380 C.3       1 VAL         0.0139
      6 CG1         8.6000    8.0420   -9.0840 C.3       1 VAL        -0.0553
      7 CG2         8.1220    9.3340   -6.9630 C.3       1 VAL        -0.0553
      8 N           4.0300    9.1320   -7.4740 N.am      1 ALA        -0.2613
      9 CA          2.9090    8.8560   -6.5970 C.3       1 ALA         0.1283
     10 C           2.3170    7.5040   -6.9890 C.2       1 ALA         0.2037
     11 O           2.1930    7.1940   -8.1800 O.2       1 ALA        -0.3944
     12 CB          1.8570    9.9510   -6.6970 C.3       1 ALA        -0.0244
     13 N           1.9670    6.7010   -5.9870 N.am      1 THR        -0.2613
     14 CA          1.2910    5.4180   -6.2080 C.3       1 THR         0.1565
     15 C          -0.1350    5.7070   -6.6990 C.2       1 THR         0.2065
     16 O          -0.8260    6.4900   -6.0910 O.2       1 THR        -0.3943
     17 CB          1.2260    4.6260   -4.8880 C.3       1 THR         0.0924
     18 OG1         2.5590    4.3700   -4.4190 O.3       1 THR        -0.3874
     19 CG2         0.4960    3.2960   -5.0620 C.3       1 THR        -0.0346
     20 N          -0.5730    5.0610   -7.7760 N.am      1 VAL        -0.2634
     21 CA         -1.8920    5.3530   -8.3480 C.3       1 VAL         0.1333
     22 C          -2.8590    4.2090   -8.0870 C.2       1 VAL         0.2042
     23 O          -2.5640    3.0510   -8.3870 O.2       1 VAL        -0.3944
     24 CB         -1.8180    5.5840   -9.8700 C.3       1 VAL        -0.0063
     25 CG1        -3.1800    5.9630  -10.4320 C.3       1 VAL        -0.0584
     26 CG2        -0.8220    6.6820  -10.1850 C.3       1 VAL        -0.0584
     27 N          -4.0110    4.5500   -7.5160 N.am      1 SER        -0.2616
     28 CA         -5.1060    3.6150   -7.3090 C.3       1 SER         0.1539
     29 C          -6.2770    4.0010   -8.1950 C.2       1 SER         0.2062
     30 O          -6.4830    5.1840   -8.4990 O.2       1 SER        -0.3943
     31 CB         -5.5570    3.6330   -5.8420 C.3       1 SER         0.0843
     32 OG         -4.5360    3.2260   -4.9460 O.3       1 SER        -0.3903
     33 N          -7.0840    3.0190   -8.5810 N.am      1 GLU        -0.2636
     34 CA         -8.2190    3.2970   -9.4390 C.3       1 GLU         0.1325
     35 C          -9.1680    4.3030   -8.7900 C.2       1 GLU         0.2041
     36 O          -9.6960    5.2070   -9.4590 O.2       1 GLU        -0.3944
     37 CB         -8.9690    2.0070   -9.7600 C.3       1 GLU        -0.0008
     38 CG        -10.0930    2.2100  -10.7600 C.3       1 GLU         0.0044
     39 CD        -10.6830    0.8990  -11.2590 C.2       1 GLU         0.0350
     40 OE1       -10.0350   -0.1680  -11.1360 O.co2     1 GLU        -0.5690
     41 OE2       -11.7990    0.9360  -11.8010 O.co2     1 GLU        -0.5690
     42 N          -9.3990    4.1310   -7.4940 N.am      1 SER        -0.2616
     43 CA        -10.2110    5.0580   -6.7220 C.3       1 SER         0.1539
     44 C          -9.8020    4.9330   -5.2640 C.2       1 SER         0.2062
     45 O          -8.9950    4.0830   -4.9080 O.2       1 SER        -0.3943
     46 CB        -11.6960    4.7500   -6.8850 C.3       1 SER         0.0843
     47 OG        -12.0270    3.5650   -6.1920 O.3       1 SER        -0.3903
     48 N         -10.3630    5.7690   -4.4050 N.am      1 LEU        -0.2636
     49 CA        -10.0550    5.6810   -2.9840 C.3       1 LEU         0.1312
     50 C         -10.3820    4.2900   -2.4200 C.2       1 LEU         0.2039
     51 O          -9.6770    3.7800   -1.5630 O.2       1 LEU        -0.3944
     52 CB        -10.8120    6.7740   -2.2300 C.3       1 LEU        -0.0101
     53 CG        -10.4950    6.8640   -0.7430 C.3       1 LEU        -0.0425
     54 CD1        -9.0720    7.3420   -0.4970 C.3       1 LEU        -0.0625
     55 CD2       -11.5160    7.7730   -0.0880 C.3       1 LEU        -0.0625
     56 N         -11.4680    3.7000   -2.9050 N.am      1 LEU        -0.2637
     57 CA        -11.9530    2.4410   -2.3740 C.3       1 LEU         0.1312
     58 C         -11.3860    1.2120   -3.0610 C.2       1 LEU         0.2040
     59 O         -11.5720    0.0940   -2.5750 O.2       1 LEU        -0.3944
     60 CB        -13.4810    2.4130   -2.4300 C.3       1 LEU        -0.0101
     61 CG        -14.1670    3.5720   -1.6790 C.3       1 LEU        -0.0425
     62 CD1       -15.6850    3.4250   -1.7010 C.3       1 LEU        -0.0625
     63 CD2       -13.6570    3.7180   -0.2490 C.3       1 LEU        -0.0625
     64 N         -10.7170    1.4040   -4.1910 N.am      1 THR        -0.2613
     65 CA        -10.0680    0.3200   -4.9030 C.3       1 THR         0.1564
     66 C          -8.5840    0.6540   -4.9880 C.2       1 THR         0.2059
     67 O          -8.1440    1.3470   -5.9120 O.2       1 THR        -0.3943
     68 CB        -10.6950    0.1590   -6.2870 C.3       1 THR         0.0924
     69 OG1       -12.0950   -0.1010   -6.1250 O.3       1 THR        -0.3874
     70 CG2       -10.0400   -0.9820   -7.0530 C.3       1 THR        -0.0346
     71 N          -7.8420    0.1560   -3.9950 N.am      1 GLU        -0.2693
     72 CA         -6.3910    0.3410   -3.8630 C.3       1 GLU         0.0959
     73 C          -5.6300    0.0590   -5.1580 C.2       1 GLU         0.0602
     74 O          -4.5420    0.6060   -5.3770 O.co2     1 GLU        -0.5666
     75 CB         -5.8450   -0.5920   -2.7730 C.3       1 GLU        -0.0064
     76 CG         -6.2100   -0.2080   -1.3500 C.3       1 GLU         0.0038
     77 CD         -5.9590   -1.3280   -0.3460 C.2       1 GLU         0.0350
     78 OE1        -6.7130   -2.3290   -0.3570 O.co2     1 GLU        -0.5690
     79 OE2        -5.0140   -1.2020    0.4650 O.co2     1 GLU        -0.5690
     80 OXT        -6.0940   -0.7190   -6.0010 O.co2     1 GLU        -0.5666
     81 H1          5.2380   10.1751   -9.4532 H         1 VAL         0.2015
     82 H2          6.8166   10.0149   -9.8908 H         1 VAL         0.2015
     83 H3          6.4291   10.6860   -8.4386 H         1 VAL         0.2015
     84 H4          5.9641    7.9032   -9.2685 H         1 VAL         0.1101
     85 H5          7.5340    7.3272   -7.3812 H         1 VAL         0.0376
     86 H6          9.5897    7.7905   -8.6751 H         1 VAL         0.0236
     87 H7          8.6756    8.9563   -9.6910 H         1 VAL         0.0236
     88 H8          8.2415    7.2133   -9.7123 H         1 VAL         0.0236
     89 H9          7.3870    9.4672   -6.1555 H         1 VAL         0.0236
     90 H10         8.2575   10.2865   -7.4962 H         1 VAL         0.0236
     91 H11         9.0831    9.0135   -6.5347 H         1 VAL         0.0236
     92 H12         3.9457    9.8403   -8.1749 H         1 ALA         0.1884
     93 H13         3.2676    8.8064   -5.5583 H         1 ALA         0.0797
     94 H14         1.0195    9.7175   -6.0232 H         1 ALA         0.0277
     95 H15         1.4889   10.0124   -7.7317 H         1 ALA         0.0277
     96 H16         2.3021   10.9146   -6.4083 H         1 ALA         0.0277
     97 H17         2.1723    6.9824   -5.0496 H         1 THR         0.1884
     98 H18         1.8368    4.8332   -6.9630 H         1 THR         0.0826
     99 H19         0.6889    5.2292   -4.1413 H         1 THR         0.0639
    100 H20         2.5188    3.8817   -3.6052 H         1 THR         0.2101
    101 H21         0.4712    2.7628   -4.1002 H         1 THR         0.0257
    102 H22         1.0235    2.6830   -5.8076 H         1 THR         0.0257
    103 H23        -0.5326    3.4842   -5.4035 H         1 THR         0.0257
    104 H24         0.0056    4.3657   -8.2023 H         1 VAL         0.1883
    105 H25        -2.2801    6.2648   -7.8706 H         1 VAL         0.0802
    106 H26        -1.4846    4.6521  -10.3499 H         1 VAL         0.0343
    107 H27        -3.0976    6.1215  -11.5174 H         1 VAL         0.0234
    108 H28        -3.5301    6.8887   -9.9519 H         1 VAL         0.0234
    109 H29        -3.8971    5.1529  -10.2332 H         1 VAL         0.0234
    110 H30         0.1638    6.4102   -9.7796 H         1 VAL         0.0234
    111 H31        -1.1588    7.6246   -9.7288 H         1 VAL         0.0234
    112 H32        -0.7479    6.8082  -11.2752 H         1 VAL         0.0234
    113 H33        -4.1302    5.4959   -7.2141 H         1 SER         0.1884
    114 H34        -4.7686    2.6014   -7.5710 H         1 SER         0.0823
    115 H35        -6.4141    2.9527   -5.7299 H         1 SER         0.0606
    116 H36        -5.8647    4.6565   -5.5819 H         1 SER         0.0606
    117 H37        -4.2670    2.3393   -5.1559 H         1 SER         0.2097
    118 H38        -6.9076    2.0825   -8.2780 H         1 GLU         0.1883
    119 H39        -7.8449    3.7284  -10.3792 H         1 GLU         0.0801
    120 H40        -9.3962    1.6082   -8.8281 H         1 GLU         0.0330
    121 H41        -8.2556    1.2807  -10.1766 H         1 GLU         0.0330
    122 H42        -9.6998    2.7689  -11.6220 H         1 GLU         0.0433
    123 H43       -10.8912    2.7935  -10.2778 H         1 GLU         0.0433
    124 H44        -9.0013    3.3375   -7.0333 H         1 SER         0.1884
    125 H45       -10.0212    6.0844   -7.0690 H         1 SER         0.0823
    126 H46       -11.9256    4.6224   -7.9532 H         1 SER         0.0606
    127 H47       -12.2869    5.5848   -6.4801 H         1 SER         0.0606
    128 H48       -12.9532    3.3840   -6.3009 H         1 SER         0.2097
    129 H49       -11.0018    6.4649   -4.7332 H         1 LEU         0.1883
    130 H50        -8.9766    5.8541   -2.8538 H         1 LEU         0.0800
    131 H51       -11.8894    6.5807   -2.3386 H         1 LEU         0.0315
    132 H52       -10.5647    7.7415   -2.6913 H         1 LEU         0.0315
    133 H53       -10.5923    5.8596   -0.3052 H         1 LEU         0.0298
    134 H54        -8.8844    7.3929    0.5857 H         1 LEU         0.0232
    135 H55        -8.9388    8.3402   -0.9395 H         1 LEU         0.0232
    136 H56        -8.3638    6.6385   -0.9591 H         1 LEU         0.0232
    137 H57       -12.5283    7.3927   -0.2897 H         1 LEU         0.0232
    138 H58       -11.4179    8.7894   -0.4970 H         1 LEU         0.0232
    139 H59       -11.3428    7.7965    0.9980 H         1 LEU         0.0232
    140 H60       -11.9644    4.1353   -3.6561 H         1 LEU         0.1883
    141 H61       -11.6483    2.3931   -1.3181 H         1 LEU         0.0800
    142 H62       -13.8242    1.4659   -1.9883 H         1 LEU         0.0315
    143 H63       -13.7875    2.4577   -3.4855 H         1 LEU         0.0315
    144 H64       -13.9160    4.5004   -2.2129 H         1 LEU         0.0298
    145 H65       -16.1426    4.2653   -1.1583 H         1 LEU         0.0232
    146 H66       -15.9688    2.4785   -1.2178 H         1 LEU         0.0232
    147 H67       -16.0384    3.4253   -2.7427 H         1 LEU         0.0232
    148 H68       -12.5620    3.8223   -0.2591 H         1 LEU         0.0232
    149 H69       -13.9350    2.8265    0.3323 H         1 LEU         0.0232
    150 H70       -14.1060    4.6105    0.2111 H         1 LEU         0.0232
    151 H71       -10.6583    2.3296   -4.5650 H         1 THR         0.1884
    152 H72       -10.1970   -0.6189   -4.3447 H         1 THR         0.0826
    153 H73       -10.5607    1.0916   -6.8546 H         1 THR         0.0639
    154 H74       -12.4979   -0.2034   -6.9792 H         1 THR         0.2101
    155 H75       -10.5093   -1.0756   -8.0435 H         1 THR         0.0257
    156 H76       -10.1708   -1.9209   -6.4951 H         1 THR         0.0257
    157 H77        -8.9667   -0.7739   -7.1740 H         1 THR         0.0257
    158 H78        -8.3076   -0.3809   -3.2915 H         1 GLU         0.1875
    159 H79        -6.2043    1.3847   -3.5701 H         1 GLU         0.0727
    160 H80        -4.7479   -0.6018   -2.8519 H         1 GLU         0.0323
    161 H81        -6.2354   -1.6026   -2.9634 H         1 GLU         0.0323
    162 H82        -7.2776    0.0554   -1.3212 H         1 GLU         0.0432
    163 H83        -5.6088    0.6655   -1.0577 H         1 GLU         0.0432
@<TRIPOS>BOND
     1    1    2 1  
     2    2    3 1  
     3    2    5 1  
     4    3    4 2  
     5    3    8 am 
     6    5    6 1  
     7    5    7 1  
     8    8    9 1  
     9    9   10 1  
    10    9   12 1  
    11   10   11 2  
    12   10   13 am 
    13   13   14 1  
    14   14   15 1  
    15   14   17 1  
    16   15   16 2  
    17   15   20 am 
    18   17   18 1  
    19   17   19 1  
    20   20   21 1  
    21   21   22 1  
    22   21   24 1  
    23   22   23 2  
    24   22   27 am 
    25   24   25 1  
    26   24   26 1  
    27   27   28 1  
    28   28   29 1  
    29   28   31 1  
    30   29   30 2  
    31   29   33 am 
    32   31   32 1  
    33   33   34 1  
    34   34   35 1  
    35   34   37 1  
    36   35   36 2  
    37   35   42 am 
    38   37   38 1  
    39   38   39 1  
    40   39   40 ar 
    41   39   41 ar 
    42   42   43 1  
    43   43   44 1  
    44   43   46 1  
    45   44   45 2  
    46   44   48 am 
    47   46   47 1  
    48   48   49 1  
    49   49   50 1  
    50   49   52 1  
    51   50   51 2  
    52   50   56 am 
    53   52   53 1  
    54   53   54 1  
    55   53   55 1  
    56   56   57 1  
    57   57   58 1  
    58   57   60 1  
    59   58   59 2  
    60   58   64 am 
    61   60   61 1  
    62   61   62 1  
    63   61   63 1  
    64   64   65 1  
    65   65   66 1  
    66   65   68 1  
    67   66   67 2  
    68   66   71 am 
    69   68   69 1  
    70   68   70 1  
    71   71   72 1  
    72   72   73 1  
    73   72   75 1  
    74   73   74 ar 
    75   73   80 ar 
    76   75   76 1  
    77   76   77 1  
    78   77   78 ar 
    79   77   79 ar 
    80    1   81 1  
    81    1   82 1  
    82    1   83 1  
    83    2   84 1  
    84    5   85 1  
    85    6   86 1  
    86    6   87 1  
    87    6   88 1  
    88    7   89 1  
    89    7   90 1  
    90    7   91 1  
    91    8   92 1  
    92    9   93 1  
    93   12   94 1  
    94   12   95 1  
    95   12   96 1  
    96   13   97 1  
    97   14   98 1  
    98   17   99 1  
    99   18  100 1  
   100   19  101 1  
   101   19  102 1  
   102   19  103 1  
   103   20  104 1  
   104   21  105 1  
   105   24  106 1  
   106   25  107 1  
   107   25  108 1  
   108   25  109 1  
   109   26  110 1  
   110   26  111 1  
   111   26  112 1  
   112   27  113 1  
   113   28  114 1  
   114   31  115 1  
   115   31  116 1  
   116   32  117 1  
   117   33  118 1  
   118   34  119 1  
   119   37  120 1  
   120   37  121 1  
   121   38  122 1  
   122   38  123 1  
   123   42  124 1  
   124   43  125 1  
   125   46  126 1  
   126   46  127 1  
   127   47  128 1  
   128   48  129 1  
   129   49  130 1  
   130   52  131 1  
   131   52  132 1  
   132   53  133 1  
   133   54  134 1  
   134   54  135 1  
   135   54  136 1  
   136   55  137 1  
   137   55  138 1  
   138   55  139 1  
   139   56  140 1  
   140   57  141 1  
   141   60  142 1  
   142   60  143 1  
   143   61  144 1  
   144   62  145 1  
   145   62  146 1  
   146   62  147 1  
   147   63  148 1  
   148   63  149 1  
   149   63  150 1  
   150   64  151 1  
   151   65  152 1  
   152   68  153 1  
   153   69  154 1  
   154   70  155 1  
   155   70  156 1  
   156   70  157 1  
   157   71  158 1  
   158   72  159 1  
   159   75  160 1  
   160   75  161 1  
   161   76  162 1  
   162   76  163 1  
@<TRIPOS>SUBSTRUCTURE
     1 VAL         1

