4z2o_ligand
  -I-interpret- 

166165  0  0  0  0  0  0  0  0999 V2000
    6.1700    9.9880   -9.1180 N   0  3  0  0  0
    6.2090    8.6300   -8.4800 C   0  0  0  0  0
    5.1710    8.4540   -7.3580 C   0  0  0  0  0
    5.4010    7.7070   -6.4020 O   0  0  0  0  0
    7.6200    8.2720   -7.9380 C   0  0  0  0  0
    8.6000    8.0420   -9.0840 C   0  0  0  0  0
    8.1220    9.3340   -6.9630 C   0  0  0  0  0
    4.0300    9.1320   -7.4740 N   0  0  0  0  0
    2.9090    8.8560   -6.5970 C   0  0  0  0  0
    2.3170    7.5040   -6.9890 C   0  0  0  0  0
    2.1930    7.1940   -8.1800 O   0  0  0  0  0
    1.8570    9.9510   -6.6970 C   0  0  0  0  0
    1.9670    6.7010   -5.9870 N   0  0  0  0  0
    1.2910    5.4180   -6.2080 C   0  0  0  0  0
   -0.1350    5.7070   -6.6990 C   0  0  0  0  0
   -0.8260    6.4900   -6.0910 O   0  0  0  0  0
    1.2260    4.6260   -4.8880 C   0  0  0  0  0
    2.5590    4.3700   -4.4190 O   0  0  0  0  0
    0.4960    3.2960   -5.0620 C   0  0  0  0  0
   -0.5730    5.0610   -7.7760 N   0  0  0  0  0
   -1.8920    5.3530   -8.3480 C   0  0  0  0  0
   -2.8590    4.2090   -8.0870 C   0  0  0  0  0
   -2.5640    3.0510   -8.3870 O   0  0  0  0  0
   -1.8180    5.5840   -9.8700 C   0  0  0  0  0
   -3.1800    5.9630  -10.4320 C   0  0  0  0  0
   -0.8220    6.6820  -10.1850 C   0  0  0  0  0
   -4.0110    4.5500   -7.5160 N   0  0  0  0  0
   -5.1060    3.6150   -7.3090 C   0  0  0  0  0
   -6.2770    4.0010   -8.1950 C   0  0  0  0  0
   -6.4830    5.1840   -8.4990 O   0  0  0  0  0
   -5.5570    3.6330   -5.8420 C   0  0  0  0  0
   -4.5360    3.2260   -4.9460 O   0  0  0  0  0
   -7.0840    3.0190   -8.5810 N   0  0  0  0  0
   -8.2190    3.2970   -9.4390 C   0  0  0  0  0
   -9.1680    4.3030   -8.7900 C   0  0  0  0  0
   -9.6960    5.2070   -9.4590 O   0  0  0  0  0
   -8.9690    2.0070   -9.7600 C   0  0  0  0  0
  -10.0930    2.2100  -10.7600 C   0  0  0  0  0
  -10.6830    0.8990  -11.2590 C   0  0  0  0  0
  -10.0350   -0.1680  -11.1360 O   0  0  0  0  0
  -11.7990    0.9360  -11.8010 O   0  0  0  0  0
   -9.3990    4.1310   -7.4940 N   0  0  0  0  0
  -10.2110    5.0580   -6.7220 C   0  0  0  0  0
   -9.8020    4.9330   -5.2640 C   0  0  0  0  0
   -8.9950    4.0830   -4.9080 O   0  0  0  0  0
  -11.6960    4.7500   -6.8850 C   0  0  0  0  0
  -12.0270    3.5650   -6.1920 O   0  0  0  0  0
  -10.3630    5.7690   -4.4050 N   0  0  0  0  0
  -10.0550    5.6810   -2.9840 C   0  0  0  0  0
  -10.3820    4.2900   -2.4200 C   0  0  0  0  0
   -9.6770    3.7800   -1.5630 O   0  0  0  0  0
  -10.8120    6.7740   -2.2300 C   0  0  0  0  0
  -10.4950    6.8640   -0.7430 C   0  0  0  0  0
   -9.0720    7.3420   -0.4970 C   0  0  0  0  0
  -11.5160    7.7730   -0.0880 C   0  0  0  0  0
  -11.4680    3.7000   -2.9050 N   0  0  0  0  0
  -11.9530    2.4410   -2.3740 C   0  0  0  0  0
  -11.3860    1.2120   -3.0610 C   0  0  0  0  0
  -11.5720    0.0940   -2.5750 O   0  0  0  0  0
  -13.4810    2.4130   -2.4300 C   0  0  0  0  0
  -14.1670    3.5720   -1.6790 C   0  0  0  0  0
  -15.6850    3.4250   -1.7010 C   0  0  0  0  0
  -13.6570    3.7180   -0.2490 C   0  0  0  0  0
  -10.7170    1.4040   -4.1910 N   0  0  0  0  0
  -10.0680    0.3200   -4.9030 C   0  0  0  0  0
   -8.5840    0.6540   -4.9880 C   0  0  0  0  0
   -8.1440    1.3470   -5.9120 O   0  0  0  0  0
  -10.6950    0.1590   -6.2870 C   0  0  0  0  0
  -12.0950   -0.1010   -6.1250 O   0  0  0  0  0
  -10.0400   -0.9820   -7.0530 C   0  0  0  0  0
   -7.8420    0.1560   -3.9950 N   0  0  0  0  0
   -6.3910    0.3410   -3.8630 C   0  0  0  0  0
   -5.6300    0.0590   -5.1580 C   0  0  0  0  0
   -4.5420    0.6060   -5.3770 O   0  0  0  0  0
   -5.8450   -0.5920   -2.7730 C   0  0  0  0  0
   -6.2100   -0.2080   -1.3500 C   0  0  0  0  0
   -5.9590   -1.3280   -0.3460 C   0  0  0  0  0
   -6.7130   -2.3290   -0.3570 O   0  0  0  0  0
   -5.0140   -1.2020    0.4650 O   0  0  0  0  0
   -6.0940   -0.7190   -6.0010 O   0  0  0  0  0
    5.2265   10.1762   -9.4568 H   0  0  0  0  0
    6.4324   10.6934   -8.4296 H   0  0  0  0  0
    6.8247   10.0140   -9.8997 H   0  0  0  0  0
    5.9531    7.9404   -9.2844 H   0  0  0  0  0
    7.5441    7.3377   -7.3818 H   0  0  0  0  0
    8.7386    8.9727   -9.6342 H   0  0  0  0  0
    9.5570    7.7107   -8.6810 H   0  0  0  0  0
    8.2022    7.2788   -9.7529 H   0  0  0  0  0
    9.0744    9.0153   -6.5393 H   0  0  0  0  0
    8.2559   10.2773   -7.4925 H   0  0  0  0  0
    7.3929    9.4650   -6.1634 H   0  0  0  0  0
    3.9440    9.8544   -8.1889 H   0  0  0  0  0
    3.2502    8.8286   -5.5622 H   0  0  0  0  0
    2.2993   10.9052   -6.4108 H   0  0  0  0  0
    1.4931   10.0109   -7.7227 H   0  0  0  0  0
    1.0277    9.7185   -6.0289 H   0  0  0  0  0
    2.1764    6.9881   -5.0309 H   0  0  0  0  0
    1.8376    4.8298   -6.9451 H   0  0  0  0  0
    0.6735    5.2265   -4.1653 H   0  0  0  0  0
    2.5184    3.8765   -3.5965 H   0  0  0  0  0
   -0.5230    3.4838   -5.4004 H   0  0  0  0  0
    1.0196    2.6896   -5.8010 H   0  0  0  0  0
    0.4721    2.7686   -4.1084 H   0  0  0  0  0
    0.0172    4.3518   -8.2109 H   0  0  0  0  0
   -2.2454    6.2635   -7.8641 H   0  0  0  0  0
   -1.4944    4.6523  -10.3341 H   0  0  0  0  0
   -3.8896    5.1595  -10.2343 H   0  0  0  0  0
   -3.5258    6.8803   -9.9555 H   0  0  0  0  0
   -3.0970    6.1197  -11.5075 H   0  0  0  0  0
   -1.1353    7.6056   -9.6982 H   0  0  0  0  0
    0.1632    6.3930   -9.8191 H   0  0  0  0  0
   -0.7801    6.8344  -11.2635 H   0  0  0  0  0
   -4.1326    5.5148   -7.2081 H   0  0  0  0  0
   -4.7614    2.6125   -7.5627 H   0  0  0  0  0
   -6.3873    2.9342   -5.7403 H   0  0  0  0  0
   -5.8317    4.6574   -5.5906 H   0  0  0  0  0
   -4.8705    3.2557   -4.0467 H   0  0  0  0  0
   -6.9040    2.0638   -8.2719 H   0  0  0  0  0
   -7.8407    3.7313  -10.3644 H   0  0  0  0  0
   -9.4101    1.6392   -8.8336 H   0  0  0  0  0
   -8.2564    1.3078  -10.1976 H   0  0  0  0  0
   -9.6830    2.7400  -11.6197 H   0  0  0  0  0
  -10.8875    2.7648  -10.2609 H   0  0  0  0  0
   -9.2027    0.0136  -10.6934 H   0  0  0  0  0
   -8.9934    3.3216   -7.0241 H   0  0  0  0  0
  -10.0498    6.0758   -7.0774 H   0  0  0  0  0
  -11.9190    4.6184   -7.9438 H   0  0  0  0  0
  -12.2786    5.5762   -6.4776 H   0  0  0  0  0
  -12.9630    3.3821   -6.3021 H   0  0  0  0  0
  -11.0146    6.4788   -4.7398 H   0  0  0  0  0
   -8.9839    5.8324   -2.8500 H   0  0  0  0  0
  -11.8729    6.5378   -2.3129 H   0  0  0  0  0
  -10.5178    7.7252   -2.6736 H   0  0  0  0  0
  -10.5575    5.8707   -0.2985 H   0  0  0  0  0
   -8.3713    6.6442   -0.9554 H   0  0  0  0  0
   -8.9413    8.3311   -0.9360 H   0  0  0  0  0
   -8.8873    7.3921    0.5761 H   0  0  0  0  0
  -11.4628    8.7630   -0.5410 H   0  0  0  0  0
  -12.5141    7.3594   -0.2319 H   0  0  0  0  0
  -11.3027    7.8480    0.9783 H   0  0  0  0  0
  -11.9743    4.1440   -3.6711 H   0  0  0  0  0
  -11.6022    2.3924   -1.3431 H   0  0  0  0  0
  -13.8018    1.4875   -1.9518 H   0  0  0  0  0
  -13.7644    2.4993   -3.4790 H   0  0  0  0  0
  -13.9042    4.4872   -2.2096 H   0  0  0  0  0
  -16.0339    3.4254   -2.7337 H   0  0  0  0  0
  -15.9649    2.4867   -1.2220 H   0  0  0  0  0
  -16.1373    4.2581   -1.1630 H   0  0  0  0  0
  -13.8515    2.7970    0.3006 H   0  0  0  0  0
  -12.5848    3.9134   -0.2652 H   0  0  0  0  0
  -14.1715    4.5476    0.2360 H   0  0  0  0  0
  -10.6571    2.3481   -4.5725 H   0  0  0  0  0
  -10.1961   -0.6299   -4.3840 H   0  0  0  0  0
  -10.5439    1.0745   -6.8589 H   0  0  0  0  0
  -12.5021   -0.2045   -6.9882 H   0  0  0  0  0
   -8.9766   -0.7746   -7.1722 H   0  0  0  0  0
  -10.1703   -1.9117   -6.4991 H   0  0  0  0  0
  -10.5058   -1.0738   -8.0342 H   0  0  0  0  0
   -8.3170   -0.3917   -3.2775 H   0  0  0  0  0
   -6.2377    1.3886   -3.6038 H   0  0  0  0  0
   -4.7579   -0.5482   -2.8397 H   0  0  0  0  0
   -6.2824   -1.5739   -2.9539 H   0  0  0  0  0
   -7.2755    0.0213   -1.3314 H   0  0  0  0  0
   -5.5860    0.6389   -1.0647 H   0  0  0  0  0
   -7.3675   -2.2276   -1.0520 H   0  0  0  0  0
   -6.9359   -1.0603   -5.6907 H   0  0  0  0  0
  1  2  1  0  0  0
  2  3  1  0  0  0
  2  5  1  0  0  0
  3  4  2  0  0  0
  3  8  1  0  0  0
  5  6  1  0  0  0
  5  7  1  0  0  0
  8  9  1  0  0  0
  9 10  1  0  0  0
  9 12  1  0  0  0
 10 11  2  0  0  0
 10 13  1  0  0  0
 13 14  1  0  0  0
 14 15  1  0  0  0
 14 17  1  0  0  0
 15 16  2  0  0  0
 15 20  1  0  0  0
 17 18  1  0  0  0
 17 19  1  0  0  0
 20 21  1  0  0  0
 21 22  1  0  0  0
 21 24  1  0  0  0
 22 23  2  0  0  0
 22 27  1  0  0  0
 24 25  1  0  0  0
 24 26  1  0  0  0
 27 28  1  0  0  0
 28 29  1  0  0  0
 28 31  1  0  0  0
 29 30  2  0  0  0
 29 33  1  0  0  0
 31 32  1  0  0  0
 33 34  1  0  0  0
 34 35  1  0  0  0
 34 37  1  0  0  0
 35 36  2  0  0  0
 35 42  1  0  0  0
 37 38  1  0  0  0
 38 39  1  0  0  0
 39 40  1  0  0  0
 39 41  2  0  0  0
 42 43  1  0  0  0
 43 44  1  0  0  0
 43 46  1  0  0  0
 44 45  2  0  0  0
 44 48  1  0  0  0
 46 47  1  0  0  0
 48 49  1  0  0  0
 49 50  1  0  0  0
 49 52  1  0  0  0
 50 51  2  0  0  0
 50 56  1  0  0  0
 52 53  1  0  0  0
 53 54  1  0  0  0
 53 55  1  0  0  0
 56 57  1  0  0  0
 57 58  1  0  0  0
 57 60  1  0  0  0
 58 59  2  0  0  0
 58 64  1  0  0  0
 60 61  1  0  0  0
 61 62  1  0  0  0
 61 63  1  0  0  0
 64 65  1  0  0  0
 65 66  1  0  0  0
 65 68  1  0  0  0
 66 67  2  0  0  0
 66 71  1  0  0  0
 68 69  1  0  0  0
 68 70  1  0  0  0
 71 72  1  0  0  0
 72 73  1  0  0  0
 72 75  1  0  0  0
 73 74  2  0  0  0
 73 80  1  0  0  0
 75 76  1  0  0  0
 76 77  1  0  0  0
 77 78  1  0  0  0
 77 79  2  0  0  0
  1 81  1  0  0  0
  1 82  1  0  0  0
  1 83  1  0  0  0
  2 84  1  0  0  0
  5 85  1  0  0  0
  6 86  1  0  0  0
  6 87  1  0  0  0
  6 88  1  0  0  0
  7 89  1  0  0  0
  7 90  1  0  0  0
  7 91  1  0  0  0
  8 92  1  0  0  0
  9 93  1  0  0  0
 12 94  1  0  0  0
 12 95  1  0  0  0
 12 96  1  0  0  0
 13 97  1  0  0  0
 14 98  1  0  0  0
 17 99  1  0  0  0
 18100  1  0  0  0
 19101  1  0  0  0
 19102  1  0  0  0
 19103  1  0  0  0
 20104  1  0  0  0
 21105  1  0  0  0
 24106  1  0  0  0
 25107  1  0  0  0
 25108  1  0  0  0
 25109  1  0  0  0
 26110  1  0  0  0
 26111  1  0  0  0
 26112  1  0  0  0
 27113  1  0  0  0
 28114  1  0  0  0
 31115  1  0  0  0
 31116  1  0  0  0
 32117  1  0  0  0
 33118  1  0  0  0
 34119  1  0  0  0
 37120  1  0  0  0
 37121  1  0  0  0
 38122  1  0  0  0
 38123  1  0  0  0
 40124  1  0  0  0
 42125  1  0  0  0
 43126  1  0  0  0
 46127  1  0  0  0
 46128  1  0  0  0
 47129  1  0  0  0
 48130  1  0  0  0
 49131  1  0  0  0
 52132  1  0  0  0
 52133  1  0  0  0
 53134  1  0  0  0
 54135  1  0  0  0
 54136  1  0  0  0
 54137  1  0  0  0
 55138  1  0  0  0
 55139  1  0  0  0
 55140  1  0  0  0
 56141  1  0  0  0
 57142  1  0  0  0
 60143  1  0  0  0
 60144  1  0  0  0
 61145  1  0  0  0
 62146  1  0  0  0
 62147  1  0  0  0
 62148  1  0  0  0
 63149  1  0  0  0
 63150  1  0  0  0
 63151  1  0  0  0
 64152  1  0  0  0
 65153  1  0  0  0
 68154  1  0  0  0
 69155  1  0  0  0
 70156  1  0  0  0
 70157  1  0  0  0
 70158  1  0  0  0
 71159  1  0  0  0
 72160  1  0  0  0
 75161  1  0  0  0
 75162  1  0  0  0
 76163  1  0  0  0
 76164  1  0  0  0
 78165  1  0  0  0
 80166  1  0  0  0
M  END
$$$$
