1oyn_ligand
  -I-interpret- 

 41 43  0  0  0  0  0  0  0  0999 V2000
   21.2540   -3.2740   30.4680 C   0  0  0  0  0
   21.7400   -4.4480   31.0430 C   0  0  0  0  0
   22.0940   -4.4810   32.3930 C   0  0  0  0  0
   21.9610   -3.3420   33.1720 C   0  0  0  0  0
   21.4790   -2.1700   32.6060 C   0  0  0  0  0
   21.1300   -2.1420   31.2610 C   0  0  0  0  0
   20.8630   -3.2240   29.0110 C   0  0  0  0  0
   19.4400   -3.7790   28.8390 C   0  0  0  0  0
   19.4880   -5.0470   28.0610 C   0  0  0  0  0
   18.5410   -5.7940   27.8120 O   0  0  0  0  0
   20.7510   -5.2210   27.7150 N   0  0  0  0  0
   21.7150   -4.2220   28.1770 C   0  0  0  0  0
   22.5960   -5.6250   32.9860 O   0  0  0  0  0
   22.1190   -6.8220   32.3590 C   0  0  0  0  0
   21.2430   -7.5860   33.3500 C   0  0  0  0  0
   21.9100   -8.8930   33.7440 C   0  0  0  0  0
   23.2260   -8.9740   32.9780 C   0  0  0  0  0
   23.3160   -7.7340   32.1060 C   0  0  0  0  0
   22.2940   -3.3960   34.5130 O   0  0  0  0  0
   23.1470   -2.3210   34.8730 C   0  0  0  0  0
   21.8442   -5.3460   30.4341 H   0  0  0  0  0
   21.3743   -1.2725   33.2156 H   0  0  0  0  0
   20.7535   -1.2177   30.8228 H   0  0  0  0  0
   20.9818   -2.1879   28.6940 H   0  0  0  0  0
   18.8295   -3.0503   28.3057 H   0  0  0  0  0
   19.0062   -3.9727   29.8200 H   0  0  0  0  0
   21.0420   -6.0184   27.1494 H   0  0  0  0  0
   22.5180   -4.6672   28.7645 H   0  0  0  0  0
   22.2275   -3.7322   27.3490 H   0  0  0  0  0
   21.5806   -6.5621   31.4476 H   0  0  0  0  0
   20.2826   -7.8032   32.8824 H   0  0  0  0  0
   21.0997   -6.9763   34.2421 H   0  0  0  0  0
   21.2698   -9.7406   33.4993 H   0  0  0  0  0
   22.0880   -8.9252   34.8189 H   0  0  0  0  0
   23.2592   -9.8759   32.3668 H   0  0  0  0  0
   24.0689   -9.0200   33.6675 H   0  0  0  0  0
   24.2320   -7.1947   32.3471 H   0  0  0  0  0
   23.3196   -8.0347   31.0583 H   0  0  0  0  0
   24.0628   -2.3726   34.2841 H   0  0  0  0  0
   22.6406   -1.3758   34.6774 H   0  0  0  0  0
   23.3907   -2.3915   35.9331 H   0  0  0  0  0
  1  2  4  0  0  0
  1  6  4  0  0  0
  1  7  1  0  0  0
  2  3  4  0  0  0
  3  4  4  0  0  0
  3 13  1  0  0  0
  4  5  4  0  0  0
  4 19  1  0  0  0
  5  6  4  0  0  0
  7  8  1  0  0  0
  7 12  1  0  0  0
  8  9  1  0  0  0
  9 10  2  0  0  0
  9 11  1  0  0  0
 11 12  1  0  0  0
 13 14  1  0  0  0
 14 15  1  0  0  0
 14 18  1  0  0  0
 15 16  1  0  0  0
 16 17  1  0  0  0
 17 18  1  0  0  0
 19 20  1  0  0  0
  2 21  1  0  0  0
  5 22  1  0  0  0
  6 23  1  0  0  0
  7 24  1  0  0  0
  8 25  1  0  0  0
  8 26  1  0  0  0
 11 27  1  0  0  0
 12 28  1  0  0  0
 12 29  1  0  0  0
 14 30  1  0  0  0
 15 31  1  0  0  0
 15 32  1  0  0  0
 16 33  1  0  0  0
 16 34  1  0  0  0
 17 35  1  0  0  0
 17 36  1  0  0  0
 18 37  1  0  0  0
 18 38  1  0  0  0
 20 39  1  0  0  0
 20 40  1  0  0  0
 20 41  1  0  0  0
M  END
$$$$
