3h0e_ligand
  -I-interpret- 

 61 65  0  0  0  0  0  0  0  0999 V2000
   21.2150   59.4650    7.6640 C   0  0  0  0  0
   28.0630   49.4410   14.1630 O   0  0  0  0  0
   24.7570   56.2660   11.7350 C   0  0  0  0  0
   26.2530   56.4910   11.8210 C   0  0  0  0  0
   23.0420   58.8010    6.2340 C   0  0  0  0  0
   26.8160   49.6010   16.9730 N   0  0  0  0  0
   25.8060   52.9620   10.1230 S   0  0  0  0  0
   24.5940   55.3500   10.5150 C   0  0  0  0  0
   24.2710   56.1170    9.2290 C   0  0  0  0  0
   25.1510   51.2260   14.3120 C   0  0  0  0  0
   27.3180   50.5430   14.6910 C   0  0  0  0  0
   26.4220   50.1850   15.8950 C   0  0  0  0  0
   25.7510   49.4180   17.9880 C   0  0  0  0  0
   26.4280   51.1860   13.6970 C   0  0  0  0  0
   25.2740   51.8680   18.2730 C   0  0  0  0  0
   24.6430   50.5040   17.9320 C   0  0  0  0  0
   24.3250   52.3260   12.3450 C   0  0  0  0  0
   25.6120   52.2750   11.7570 C   0  0  0  0  0
   26.6950   51.6970   12.4350 C   0  0  0  0  0
   24.0950   51.8000   13.6270 C   0  0  0  0  0
   25.1620   50.6500   15.5780 N   0  0  0  0  0
   24.0590   50.5170   16.4970 C   0  0  0  0  0
   27.0850   52.5260    9.6050 O   0  0  0  0  0
   24.5820   52.7120    9.3910 O   0  0  0  0  0
   25.9100   54.6370   10.3850 N   0  0  0  0  0
   26.8180   55.1270   11.4600 C   0  0  0  0  0
   23.0860   56.8940    9.4170 O   0  0  0  0  0
   22.7700   57.7520    8.4000 C   0  0  0  0  0
   23.4690   57.8820    7.1980 C   0  0  0  0  0
   21.9160   59.5900    6.4660 C   0  0  0  0  0
   21.6410   58.5470    8.6280 C   0  0  0  0  0
   23.5300   50.2320   18.9660 C   0  0  0  0  0
   20.3358   60.0822    7.8489 H   0  0  0  0  0
   28.5931   49.7408   13.4209 H   0  0  0  0  0
   24.2025   57.1986   11.6307 H   0  0  0  0  0
   24.3512   55.8223   12.6442 H   0  0  0  0  0
   26.5748   56.8379   12.8029 H   0  0  0  0  0
   26.6021   57.2841   11.1598 H   0  0  0  0  0
   23.5915   58.9008    5.2979 H   0  0  0  0  0
   23.7534   54.6709   10.6577 H   0  0  0  0  0
   24.1137   55.4088    8.4154 H   0  0  0  0  0
   25.1020   56.7785    8.9841 H   0  0  0  0  0
   28.1104   51.2237   15.0023 H   0  0  0  0  0
   26.2212   49.4822   18.9693 H   0  0  0  0  0
   25.2757   48.4568   17.7923 H   0  0  0  0  0
   25.7048   51.8277   19.2735 H   0  0  0  0  0
   26.0556   52.0966   17.5485 H   0  0  0  0  0
   24.5064   52.6411   18.2374 H   0  0  0  0  0
   23.5008   52.7800   11.7949 H   0  0  0  0  0
   27.6912   51.6517   11.9950 H   0  0  0  0  0
   23.1019   51.8433   14.0742 H   0  0  0  0  0
   23.3627   51.3471   16.3776 H   0  0  0  0  0
   23.5106   49.5955   16.3016 H   0  0  0  0  0
   26.8494   54.4521   12.3153 H   0  0  0  0  0
   27.8561   55.1822   11.1322 H   0  0  0  0  0
   24.3487   57.2663    7.0108 H   0  0  0  0  0
   21.5846   60.3035    5.7115 H   0  0  0  0  0
   21.0903   58.4496    9.5636 H   0  0  0  0  0
   23.0744   49.2632   18.7612 H   0  0  0  0  0
   23.9595   50.2284   19.9678 H   0  0  0  0  0
   22.7728   51.0130   18.8967 H   0  0  0  0  0
 30  1  4  0  0  0
  1 31  4  0  0  0
 11  2  1  0  0  0
  3  4  1  0  0  0
  8  3  1  0  0  0
 26  4  1  0  0  0
 29  5  4  0  0  0
  5 30  4  0  0  0
 12  6  2  0  0  0
  6 13  1  0  0  0
  7 18  1  0  0  0
  7 23  2  0  0  0
  7 24  2  0  0  0
 25  7  1  0  0  0
  9  8  1  0  0  0
  8 25  1  0  0  0
 27  9  1  0  0  0
 14 10  4  0  0  0
 20 10  4  0  0  0
 10 21  1  0  0  0
 11 12  1  0  0  0
 14 11  1  0  0  0
 12 21  1  0  0  0
 13 16  1  0  0  0
 19 14  4  0  0  0
 16 15  1  0  0  0
 22 16  1  0  0  0
 16 32  1  0  0  0
 18 17  4  0  0  0
 17 20  4  0  0  0
 18 19  4  0  0  0
 21 22  1  0  0  0
 25 26  1  0  0  0
 28 27  1  0  0  0
 28 29  4  0  0  0
 28 31  4  0  0  0
  1 33  1  0  0  0
  2 34  1  0  0  0
  3 35  1  0  0  0
  3 36  1  0  0  0
  4 37  1  0  0  0
  4 38  1  0  0  0
  5 39  1  0  0  0
  8 40  1  0  0  0
  9 41  1  0  0  0
  9 42  1  0  0  0
 11 43  1  0  0  0
 13 44  1  0  0  0
 13 45  1  0  0  0
 15 46  1  0  0  0
 15 47  1  0  0  0
 15 48  1  0  0  0
 17 49  1  0  0  0
 19 50  1  0  0  0
 20 51  1  0  0  0
 22 52  1  0  0  0
 22 53  1  0  0  0
 26 54  1  0  0  0
 26 55  1  0  0  0
 29 56  1  0  0  0
 30 57  1  0  0  0
 31 58  1  0  0  0
 32 59  1  0  0  0
 32 60  1  0  0  0
 32 61  1  0  0  0
M  END
$$$$
