3bxh_ligand
  -I-interpret- 

 29 29  0  0  0  0  0  0  0  0999 V2000
   68.7520   85.6110   59.3080 O   0  0  0  0  0
   67.8700   84.9980   60.2120 C   0  0  0  0  0
   68.5320   84.5330   61.5100 C   0  0  0  0  0
   67.5000   84.3900   62.5210 O   0  0  0  0  0
   69.6360   85.3910   62.1290 C   0  0  0  0  0
   69.1760   86.4830   62.8810 O   0  0  0  0  0
   70.3140   84.3680   63.0170 C   0  0  0  0  0
   71.6090   84.7590   63.3680 O   0  0  0  0  0
   70.3730   83.2140   62.0340 C   0  0  0  0  0
   69.1720   83.2840   61.2820 O   0  0  0  0  0
   70.5590   81.8510   62.6610 C   0  0  0  0  0
   70.5920   80.9710   61.5460 O   0  0  0  0  0
   70.6840   79.3960   61.7630 P   0  0  0  0  0
   72.0230   79.0890   62.3620 O   0  0  0  0  0
   70.5890   78.7310   60.4230 O   0  0  0  0  0
   69.5450   78.9800   62.6880 O   0  0  0  0  0
   68.2695   85.8753   58.5213 H   0  0  0  0  0
   67.4667   84.1129   59.7200 H   0  0  0  0  0
   67.1167   85.7385   60.4808 H   0  0  0  0  0
   67.0757   85.2389   62.6659 H   0  0  0  0  0
   70.2655   85.8701   61.3792 H   0  0  0  0  0
   68.7512   87.1158   62.2973 H   0  0  0  0  0
   69.8135   84.1801   63.9669 H   0  0  0  0  0
   71.5642   85.4891   63.9898 H   0  0  0  0  0
   71.2622   83.3208   61.4127 H   0  0  0  0  0
   69.7631   81.6036   63.3635 H   0  0  0  0  0
   71.4637   81.7908   63.2660 H   0  0  0  0  0
   69.7335   78.9227   60.0318 H   0  0  0  0  0
   68.7049   79.1906   62.2740 H   0  0  0  0  0
  1  2  1  0  0  0
  2  3  1  0  0  0
  3  4  1  0  0  0
  3  5  1  0  0  0
  3 10  1  0  0  0
  5  6  1  0  0  0
  5  7  1  0  0  0
  7  8  1  0  0  0
  7  9  1  0  0  0
  9 10  1  0  0  0
  9 11  1  0  0  0
 11 12  1  0  0  0
 12 13  1  0  0  0
 13 14  2  0  0  0
 13 15  1  0  0  0
 13 16  1  0  0  0
  1 17  1  0  0  0
  2 18  1  0  0  0
  2 19  1  0  0  0
  4 20  1  0  0  0
  5 21  1  0  0  0
  6 22  1  0  0  0
  7 23  1  0  0  0
  8 24  1  0  0  0
  9 25  1  0  0  0
 11 26  1  0  0  0
 11 27  1  0  0  0
 15 28  1  0  0  0
 16 29  1  0  0  0
M  END
$$$$
