### 
### Created by X-TOOL on Mon Sep 10 21:12:55 2018
### 

@<TRIPOS>MOLECULE
2ohs_ligand
   41    43     1     0     0
SMALL
GAST_HUCK


@<TRIPOS>ATOM
      1 C1         70.3460   45.2650    1.6510 C.3       1 9IP         0.0611
      2 O2         70.3220   46.3010    2.6470 O.3       1 9IP        -0.3137
      3 C3         71.1190   46.1400    3.7510 C.ar      1 9IP         0.1184
      4 C4         72.1610   45.2300    3.8810 C.ar      1 9IP         0.0391
      5 N5         72.8980   45.1020    4.9860 N.ar      1 9IP        -0.3065
      6 C6         72.5730   45.8770    6.0270 C.ar      1 9IP         0.0071
      7 C7         71.5480   46.8230    6.0100 C.ar      1 9IP        -0.0014
      8 C8         70.7990   46.9310    4.8460 C.ar      1 9IP        -0.0069
      9 C9         71.2270   47.6230    7.2260 C.ar      1 9IP        -0.0203
     10 C10        72.2370   47.9840    8.1090 C.ar      1 9IP        -0.0594
     11 C11        71.9460   48.6710    9.2660 C.ar      1 9IP        -0.0668
     12 C12        70.6400   48.9970    9.5730 C.ar      1 9IP        -0.0575
     13 C13        69.6010   48.6310    8.7300 C.ar      1 9IP        -0.0205
     14 C14        68.1810   48.9910    9.0970 C.3       1 9IP         0.0567
     15 N15        67.1400   48.4090    8.2530 N.pl3     1 9IP        -0.3107
     16 C16        66.7280   47.0330    8.2800 C.2       1 9IP         0.0936
     17 C17        67.3370   46.1160    9.1300 C.2       1 9IP        -0.0414
     18 C18        66.9430   44.7930    9.1180 C.2       1 9IP        -0.0421
     19 C19        65.9210   44.3880    8.2810 C.2       1 9IP         0.0518
     20 N20        65.3140   45.2570    7.4540 N.pl3     1 9IP        -0.2445
     21 C21        65.6910   46.5750    7.4180 C.2       1 9IP         0.1259
     22 N22        65.0300   47.3900    6.5800 N.2       1 9IP        -0.4282
     23 C23        69.9050   47.9370    7.5560 C.ar      1 9IP        -0.0495
     24 H1         69.6627   45.5293    0.8305 H         1 9IP         0.0580
     25 H2         70.0260   44.3145    2.1028 H         1 9IP         0.0580
     26 H3         71.3676   45.1584    1.2574 H         1 9IP         0.0580
     27 H4         72.3879   44.5881    3.0375 H         1 9IP         0.0746
     28 H5         73.1426   45.7625    6.9422 H         1 9IP         0.0736
     29 H6         69.9704   47.6279    4.7926 H         1 9IP         0.0660
     30 H7         73.2647   47.7221    7.8847 H         1 9IP         0.0575
     31 H8         72.7460   48.9573    9.9391 H         1 9IP         0.0603
     32 H9         70.4241   49.5451   10.4830 H         1 9IP         0.0566
     33 H10        68.0857   50.0856    9.0442 H         1 9IP         0.0674
     34 H11        68.0041   48.6569   10.1300 H         1 9IP         0.0674
     35 H12        66.6644   49.0340    7.5866 H         1 9IP         0.1765
     36 H13        68.1259   46.4422    9.8061 H         1 9IP         0.0554
     37 H14        67.4364   44.0705    9.7665 H         1 9IP         0.0455
     38 H15        65.6017   43.3469    8.2914 H         1 9IP         0.1118
     39 H16        64.5557   44.9284    6.8393 H         1 9IP         0.2421
     40 H17        65.2782   48.3654    6.5252 H         1 9IP         0.0301
     41 H18        69.1034   47.6373    6.8906 H         1 9IP         0.0569
@<TRIPOS>BOND
     1    1    2 1  
     2    2    3 1  
     3    3    4 ar 
     4    3    8 ar 
     5    4    5 ar 
     6    5    6 ar 
     7    6    7 ar 
     8    7    8 ar 
     9    7    9 1  
    10    9   10 ar 
    11    9   23 ar 
    12   10   11 ar 
    13   11   12 ar 
    14   12   13 ar 
    15   13   14 1  
    16   13   23 ar 
    17   14   15 1  
    18   15   16 1  
    19   16   17 2  
    20   16   21 1  
    21   17   18 1  
    22   18   19 2  
    23   19   20 1  
    24   20   21 1  
    25   21   22 2  
    26    1   24 1  
    27    1   25 1  
    28    1   26 1  
    29    4   27 1  
    30    6   28 1  
    31    8   29 1  
    32   10   30 1  
    33   11   31 1  
    34   12   32 1  
    35   14   33 1  
    36   14   34 1  
    37   15   35 1  
    38   17   36 1  
    39   18   37 1  
    40   19   38 1  
    41   20   39 1  
    42   22   40 1  
    43   23   41 1  
@<TRIPOS>SUBSTRUCTURE
     1 9IP         1

