3s0n_ligand
  -I-interpret- 

 47 50  0  0  0  0  0  0  0  0999 V2000
   20.9980   29.0420    8.6840 C   0  0  0  0  0
   21.3810   28.7350    5.7600 O   0  0  0  0  0
   20.3910   24.2490    7.1600 C   0  0  0  0  0
   20.1160   23.7510    8.4080 C   0  0  0  0  0
   20.0840   24.6270    9.6300 C   0  0  0  0  0
   20.3260   25.9790    9.5850 C   0  0  0  0  0
   20.6330   26.5910    8.2440 C   0  0  0  0  0
   20.6650   25.7200    7.0320 C   0  0  0  0  0
   20.9600   26.5060    5.9960 N   0  0  0  0  0
   21.1060   27.7850    6.4750 C   0  0  0  0  0
   20.9150   27.8360    7.8340 N   0  0  0  0  0
   22.4340   29.2970    9.1870 C   0  0  0  0  0
   22.9540   30.6950    8.7930 C   0  0  0  0  0
   21.1060   26.1270    4.5810 C   0  0  0  0  0
   22.5280   25.8230    4.0690 C   0  0  0  0  0
   22.8900   25.2290    2.7440 C   0  0  0  0  0
   24.3440   25.1100    2.6590 C   0  0  0  0  0
   25.1290   25.6720    4.0520 S   0  0  0  0  0
   23.6920   26.0880    4.8330 C   0  0  0  0  0
   22.1120   24.7850    1.6170 C   0  0  0  0  0
   22.7640   24.2460    0.4660 C   0  0  0  0  0
   24.1700   24.1430    0.4130 C   0  0  0  0  0
   24.9430   24.5790    1.5130 C   0  0  0  0  0
   20.6040   24.8590    1.5810 C   0  0  0  0  0
   24.3950   30.9880    9.2750 C   0  0  0  0  0
   24.9430   32.0000    8.8400 O   0  0  0  0  0
   24.9540   30.2180   10.0700 O   0  0  0  0  0
   20.3546   28.8927    9.5511 H   0  0  0  0  0
   20.6880   29.9007    8.0884 H   0  0  0  0  0
   20.4101   23.5965    6.2871 H   0  0  0  0  0
   19.9140   22.6855    8.5177 H   0  0  0  0  0
   19.8590   24.1696   10.5935 H   0  0  0  0  0
   20.2967   26.5874   10.4890 H   0  0  0  0  0
   23.0882   28.5529    8.7326 H   0  0  0  0  0
   22.4270   29.2335   10.2751 H   0  0  0  0  0
   22.2996   31.4285    9.2640 H   0  0  0  0  0
   22.9608   30.7429    7.7041 H   0  0  0  0  0
   20.7666   26.9907    4.0093 H   0  0  0  0  0
   20.5481   25.1976    4.4670 H   0  0  0  0  0
   23.6618   26.5207    5.8330 H   0  0  0  0  0
   22.1676   23.9100   -0.3822 H   0  0  0  0  0
   24.6569   23.7299   -0.4704 H   0  0  0  0  0
   26.0291   24.4995    1.4668 H   0  0  0  0  0
   20.1928   24.2666    2.3984 H   0  0  0  0  0
   20.2898   25.8971    1.6891 H   0  0  0  0  0
   20.2449   24.4665    0.6297 H   0  0  0  0  0
   24.3601   29.4949   10.2846 H   0  0  0  0  0
 11  1  1  0  0  0
  1 12  1  0  0  0
 10  2  2  0  0  0
  3  4  4  0  0  0
  8  3  4  0  0  0
  4  5  4  0  0  0
  6  5  4  0  0  0
  7  6  4  0  0  0
  8  7  4  0  0  0
  7 11  1  0  0  0
  9  8  1  0  0  0
  9 10  1  0  0  0
  9 14  1  0  0  0
 10 11  1  0  0  0
 12 13  1  0  0  0
 13 25  1  0  0  0
 14 15  1  0  0  0
 15 16  4  0  0  0
 15 19  4  0  0  0
 16 17  4  0  0  0
 16 20  4  0  0  0
 17 18  4  0  0  0
 17 23  4  0  0  0
 18 19  4  0  0  0
 20 21  4  0  0  0
 20 24  1  0  0  0
 21 22  4  0  0  0
 22 23  4  0  0  0
 25 26  2  0  0  0
 25 27  1  0  0  0
  1 28  1  0  0  0
  1 29  1  0  0  0
  3 30  1  0  0  0
  4 31  1  0  0  0
  5 32  1  0  0  0
  6 33  1  0  0  0
 12 34  1  0  0  0
 12 35  1  0  0  0
 13 36  1  0  0  0
 13 37  1  0  0  0
 14 38  1  0  0  0
 14 39  1  0  0  0
 19 40  1  0  0  0
 21 41  1  0  0  0
 22 42  1  0  0  0
 23 43  1  0  0  0
 24 44  1  0  0  0
 24 45  1  0  0  0
 24 46  1  0  0  0
 27 47  1  0  0  0
M  END
$$$$
