5dtr_ligand
  -I-interpret- 

 36 38  0  0  0  0  0  0  0  0999 V2000
   30.0360  -14.2620   11.7400 C   0  0  0  0  0
   31.3280  -14.6730   12.1350 C   0  0  0  0  0
   32.4540  -13.9300   11.7060 C   0  0  0  0  0
   33.9110   -8.7930    8.8610 C   0  0  0  0  0
   33.3200   -7.9310    9.8170 C   0  0  0  0  0
   32.8050   -6.6770    9.4650 C   0  0  0  0  0
   32.9300   -6.2420    8.1510 C   0  0  0  0  0
   33.4740   -7.0990    7.1740 C   0  0  0  0  0
   33.9470   -8.3740    7.5170 C   0  0  0  0  0
   34.1470  -15.1440   13.0990 C   0  0  0  0  0
   35.6360  -10.5020    9.3290 C   0  0  0  0  0
   32.2430  -12.8180   10.8660 C   0  0  0  0  0
   30.9100  -12.4320   10.5260 C   0  0  0  0  0
   29.8470  -13.1790   10.9360 N   0  0  0  0  0
   33.3250  -12.0090   10.4640 C   0  0  0  0  0
   33.1420  -10.8670    9.6460 C   0  0  0  0  0
   31.7830  -10.5210    9.3420 C   0  0  0  0  0
   30.6850  -11.2670    9.7750 C   0  0  0  0  0
   34.2220  -10.0660    9.2550 N   0  0  0  0  0
   34.6310   -9.3390    6.2440 Cl  0  0  0  0  0
   33.2570   -8.4400   11.4860 Cl  0  0  0  0  0
   33.7810  -14.2610   12.0230 O   0  0  0  0  0
   29.1694  -14.8249   12.0868 H   0  0  0  0  0
   31.4570  -15.5538   12.7641 H   0  0  0  0  0
   32.3136   -6.0517   10.2104 H   0  0  0  0  0
   32.6072   -5.2378    7.8763 H   0  0  0  0  0
   33.5280   -6.7666    6.1373 H   0  0  0  0  0
   33.7828  -14.7361   14.0419 H   0  0  0  0  0
   33.7021  -16.1246   12.9299 H   0  0  0  0  0
   35.2323  -15.2377   13.1372 H   0  0  0  0  0
   35.8890  -10.7362   10.3630 H   0  0  0  0  0
   35.7744  -11.3885    8.7101 H   0  0  0  0  0
   36.2812   -9.7010    8.9682 H   0  0  0  0  0
   34.3313  -12.2696   10.7919 H   0  0  0  0  0
   31.5983   -9.6299    8.7421 H   0  0  0  0  0
   29.6702  -10.9504    9.5341 H   0  0  0  0  0
  2  1  4  0  0  0
 14  1  4  0  0  0
  3  2  4  0  0  0
 12  3  4  0  0  0
  3 22  1  0  0  0
  4  5  4  0  0  0
  4  9  4  0  0  0
 19  4  1  0  0  0
  5  6  4  0  0  0
  5 21  1  0  0  0
  6  7  4  0  0  0
  8  7  4  0  0  0
  9  8  4  0  0  0
  9 20  1  0  0  0
 22 10  1  0  0  0
 19 11  1  0  0  0
 12 13  4  0  0  0
 15 12  4  0  0  0
 13 14  4  0  0  0
 13 18  4  0  0  0
 16 15  4  0  0  0
 16 17  4  0  0  0
 16 19  1  0  0  0
 17 18  4  0  0  0
  1 23  1  0  0  0
  2 24  1  0  0  0
  6 25  1  0  0  0
  7 26  1  0  0  0
  8 27  1  0  0  0
 10 28  1  0  0  0
 10 29  1  0  0  0
 10 30  1  0  0  0
 11 31  1  0  0  0
 11 32  1  0  0  0
 11 33  1  0  0  0
 15 34  1  0  0  0
 17 35  1  0  0  0
 18 36  1  0  0  0
M  END
$$$$
