4odq_ligand
  -I-interpret- 

105107  0  0  0  0  0  0  0  0999 V2000
  -15.7420    2.9980    9.4770 N   0  3  0  0  0
  -15.3640    1.6300    9.7820 C   0  0  0  0  0
  -14.0160    1.5580   10.4710 C   0  0  0  0  0
  -12.9970    1.2710    9.8430 O   0  0  0  0  0
  -14.0100    1.8160   11.7750 N   0  0  0  0  0
  -12.7680    1.8840   12.5320 C   0  0  0  0  0
  -12.4940    0.6070   13.3120 C   0  0  0  0  0
  -11.3400    0.2840   13.5950 O   0  0  0  0  0
  -12.7810    3.0690   13.5050 C   0  0  0  0  0
  -14.0230    3.0100   14.3910 C   0  0  0  0  0
  -12.7420    4.3800   12.7400 C   0  0  0  0  0
  -14.2730    4.2730   15.1620 C   0  0  0  0  0
  -13.5540   -0.1160   13.6580 N   0  0  0  0  0
  -13.4210   -1.3790   14.3710 C   0  0  0  0  0
  -13.0320   -2.4880   13.3940 C   0  0  0  0  0
  -12.1200   -3.2700   13.6530 O   0  0  0  0  0
  -14.7280   -1.7500   15.1010 C   0  0  0  0  0
  -14.6170   -3.1100   15.7410 C   0  0  0  0  0
  -15.0690   -0.6940   16.1500 C   0  0  0  0  0
  -13.7320   -2.5290   12.2660 N   0  0  0  0  0
  -13.4660   -3.4860   11.1990 C   0  0  0  0  0
  -13.2060   -2.7190    9.9060 C   0  0  0  0  0
  -14.1340   -2.4520    9.1430 O   0  0  0  0  0
  -14.6430   -4.4540   11.0280 C   0  0  0  0  0
  -14.4650   -5.4900    9.9120 C   0  0  0  0  0
  -15.7460   -6.2790    9.6700 C   0  0  0  0  0
  -15.5800   -7.2690    8.5220 C   0  0  0  0  0
  -16.8480   -7.9920    8.2140 N   0  3  0  0  0
  -11.9370   -2.3470    9.6670 N   0  0  0  0  0
  -11.5470   -1.4870    8.5380 C   0  0  0  0  0
  -11.9790   -2.0340    7.1770 C   0  0  0  0  0
  -12.1240   -3.2480    7.0170 O   0  0  0  0  0
  -10.0150   -1.4490    8.6390 C   0  0  0  0  0
   -9.7190   -1.7670   10.0630 C   0  0  0  0  0
  -10.7740   -2.7480   10.4780 C   0  0  0  0  0
  -12.1810   -1.1430    6.2090 N   0  0  0  0  0
  -12.5580   -1.5580    4.8630 C   0  0  0  0  0
  -11.3240   -1.9660    4.0640 C   0  0  0  0  0
  -10.4520   -1.1420    3.7860 O   0  0  0  0  0
  -13.3090   -0.4390    4.1320 C   0  0  0  0  0
  -14.3730    0.2300    4.9540 C   0  0  0  0  0
  -14.3400    1.4970    5.4590 C   0  0  0  0  0
  -15.6260   -0.3340    5.3660 C   0  0  0  0  0
  -15.4940    1.7590    6.1580 N   0  0  0  0  0
  -16.2990    0.6510    6.1170 C   0  0  0  0  0
  -16.2420   -1.5740    5.1730 C   0  0  0  0  0
  -17.5570    0.4340    6.6760 C   0  0  0  0  0
  -17.4930   -1.7870    5.7290 C   0  0  0  0  0
  -18.1360   -0.7880    6.4710 C   0  0  0  0  0
  -11.1760   -3.1270    3.6820 O   0  0  0  0  0
  -16.6517    3.0033    9.0156 H   0  0  0  0  0
  -15.7951    3.5357   10.3421 H   0  0  0  0  0
  -15.0439    3.4128    8.8597 H   0  0  0  0  0
  -15.2999    1.0757    8.8457 H   0  0  0  0  0
  -16.1137    1.2089   10.4518 H   0  0  0  0  0
  -14.8959    1.9699   12.2565 H   0  0  0  0  0
  -11.9721    2.0164   11.7991 H   0  0  0  0  0
  -11.8961    3.0100   14.1387 H   0  0  0  0  0
  -13.8694    2.2103   15.1156 H   0  0  0  0  0
  -14.8818    2.8502   13.7390 H   0  0  0  0  0
  -13.6308    4.4606   12.1141 H   0  0  0  0  0
  -12.7165    5.2103   13.4457 H   0  0  0  0  0
  -11.8508    4.4069   12.1130 H   0  0  0  0  0
  -13.4203    4.4766   15.8097 H   0  0  0  0  0
  -14.4083    5.1011   14.4663 H   0  0  0  0  0
  -15.1713    4.1554   15.7680 H   0  0  0  0  0
  -14.4857    0.2227   13.4178 H   0  0  0  0  0
  -12.6382   -1.2657   15.1210 H   0  0  0  0  0
  -15.5319   -1.7842   14.3657 H   0  0  0  0  0
  -14.4194   -3.8569   14.9721 H   0  0  0  0  0
  -13.8003   -3.1049   16.4628 H   0  0  0  0  0
  -15.5513   -3.3483   16.2493 H   0  0  0  0  0
  -14.2600   -0.6323   16.8779 H   0  0  0  0  0
  -15.1956    0.2727   15.6627 H   0  0  0  0  0
  -15.9940   -0.9714   16.6556 H   0  0  0  0  0
  -14.4912   -1.8595   12.1404 H   0  0  0  0  0
  -12.5886   -4.0802   11.4545 H   0  0  0  0  0
  -15.5129   -3.8519   10.7656 H   0  0  0  0  0
  -14.7363   -5.0076   11.9623 H   0  0  0  0  0
  -13.6822   -6.1872   10.2108 H   0  0  0  0  0
  -14.2049   -4.9650    8.9929 H   0  0  0  0  0
  -16.5406   -5.5790    9.4117 H   0  0  0  0  0
  -15.9864   -6.8358   10.5757 H   0  0  0  0  0
  -14.8319   -8.0057    8.8148 H   0  0  0  0  0
  -15.2829   -6.7116    7.6336 H   0  0  0  0  0
  -16.6895   -8.6406    7.4429 H   0  0  0  0  0
  -17.1516   -8.5100    9.0386 H   0  0  0  0  0
  -17.5669   -7.3180    7.9507 H   0  0  0  0  0
  -12.0264   -0.5100    8.5990 H   0  0  0  0  0
   -9.6134   -0.4783    8.3483 H   0  0  0  0  0
   -9.5460   -2.1600    7.9588 H   0  0  0  0  0
   -9.7365   -0.8724   10.6854 H   0  0  0  0  0
   -8.7177   -2.1812   10.1814 H   0  0  0  0  0
  -10.4780   -3.7833   10.3090 H   0  0  0  0  0
  -10.9767   -2.7225   11.5487 H   0  0  0  0  0
  -12.0698   -0.1498    6.4129 H   0  0  0  0  0
  -13.2224   -2.4175    4.9520 H   0  0  0  0  0
  -10.6968   -0.2856    4.1440 H   0  0  0  0  0
  -13.8045   -0.8926    3.2736 H   0  0  0  0  0
  -12.5752    0.3246    3.8741 H   0  0  0  0  0
  -13.5174    2.1998    5.3272 H   0  0  0  0  0
  -15.7484   -2.3569    4.5971 H   0  0  0  0  0
  -18.0603    1.2086    7.2545 H   0  0  0  0  0
  -17.9855   -2.7489    5.5865 H   0  0  0  0  0
  -19.1200   -0.9890    6.8946 H   0  0  0  0  0
  1  2  1  0  0  0
  2  3  1  0  0  0
  3  4  2  0  0  0
  3  5  1  0  0  0
  5  6  1  0  0  0
  6  7  1  0  0  0
  6  9  1  0  0  0
  7  8  2  0  0  0
  7 13  1  0  0  0
  9 10  1  0  0  0
  9 11  1  0  0  0
 10 12  1  0  0  0
 13 14  1  0  0  0
 14 15  1  0  0  0
 14 17  1  0  0  0
 15 16  2  0  0  0
 15 20  1  0  0  0
 17 18  1  0  0  0
 17 19  1  0  0  0
 20 21  1  0  0  0
 21 22  1  0  0  0
 21 24  1  0  0  0
 22 23  2  0  0  0
 22 29  1  0  0  0
 24 25  1  0  0  0
 25 26  1  0  0  0
 26 27  1  0  0  0
 27 28  1  0  0  0
 29 30  1  0  0  0
 29 35  1  0  0  0
 30 31  1  0  0  0
 30 33  1  0  0  0
 31 32  2  0  0  0
 31 36  1  0  0  0
 33 34  1  0  0  0
 34 35  1  0  0  0
 36 37  1  0  0  0
 37 38  1  0  0  0
 37 40  1  0  0  0
 38 39  1  0  0  0
 38 50  2  0  0  0
 40 41  1  0  0  0
 41 42  4  0  0  0
 41 43  4  0  0  0
 42 44  4  0  0  0
 43 45  4  0  0  0
 43 46  4  0  0  0
 44 45  4  0  0  0
 45 47  4  0  0  0
 46 48  4  0  0  0
 47 49  4  0  0  0
 48 49  4  0  0  0
  1 51  1  0  0  0
  1 52  1  0  0  0
  1 53  1  0  0  0
  2 54  1  0  0  0
  2 55  1  0  0  0
  5 56  1  0  0  0
  6 57  1  0  0  0
  9 58  1  0  0  0
 10 59  1  0  0  0
 10 60  1  0  0  0
 11 61  1  0  0  0
 11 62  1  0  0  0
 11 63  1  0  0  0
 12 64  1  0  0  0
 12 65  1  0  0  0
 12 66  1  0  0  0
 13 67  1  0  0  0
 14 68  1  0  0  0
 17 69  1  0  0  0
 18 70  1  0  0  0
 18 71  1  0  0  0
 18 72  1  0  0  0
 19 73  1  0  0  0
 19 74  1  0  0  0
 19 75  1  0  0  0
 20 76  1  0  0  0
 21 77  1  0  0  0
 24 78  1  0  0  0
 24 79  1  0  0  0
 25 80  1  0  0  0
 25 81  1  0  0  0
 26 82  1  0  0  0
 26 83  1  0  0  0
 27 84  1  0  0  0
 27 85  1  0  0  0
 28 86  1  0  0  0
 28 87  1  0  0  0
 28 88  1  0  0  0
 30 89  1  0  0  0
 33 90  1  0  0  0
 33 91  1  0  0  0
 34 92  1  0  0  0
 34 93  1  0  0  0
 35 94  1  0  0  0
 35 95  1  0  0  0
 36 96  1  0  0  0
 37 97  1  0  0  0
 39 98  1  0  0  0
 40 99  1  0  0  0
 40100  1  0  0  0
 42101  1  0  0  0
 46102  1  0  0  0
 47103  1  0  0  0
 48104  1  0  0  0
 49105  1  0  0  0
M  END
$$$$
