### 
### Created by X-TOOL on Mon Sep 10 21:12:59 2018
### 

@<TRIPOS>MOLECULE
2rnx_ligand
  215   217     1     0     0
SMALL
GAST_HUCK


@<TRIPOS>ATOM
      1 N          10.2950    6.4620  -19.9560 N.4       1 SER         0.2396
      2 CA          9.9270    7.0790  -18.6560 C.3       1 SER         0.0885
      3 C           9.5490    6.0110  -17.6350 C.2       1 SER         0.2291
      4 O           8.8430    6.2880  -16.6650 O.2       1 SER        -0.3906
      5 CB          8.7620    8.0510  -18.8450 C.3       1 SER         0.1041
      6 OG          9.1010    9.0830  -19.7560 O.3       1 SER        -0.3870
      7 N          10.0260    4.7910  -17.8590 N.am      1 THR        -0.2585
      8 CA          9.7390    3.6790  -16.9610 C.3       1 THR         0.1566
      9 C          11.0200    3.1400  -16.3320 C.2       1 THR         0.2063
     10 O          11.8300    2.5010  -17.0030 O.2       1 THR        -0.3943
     11 CB          9.0180    2.5330  -17.6950 C.3       1 THR         0.0924
     12 OG1         7.8480    3.0320  -18.3530 O.3       1 THR        -0.3874
     13 CG2         8.6250    1.4280  -16.7250 C.3       1 THR        -0.0346
     14 N          11.1960    3.4040  -15.0410 N.am      1 GLY        -0.2663
     15 CA         12.3800    2.9380  -14.3420 C.3       1 GLY         0.1201
     16 C          12.4580    1.4250  -14.2790 C.2       1 GLY         0.2005
     17 O          11.4360    0.7500  -14.1480 O.2       1 GLY        -0.3947
     18 N          13.6720    0.8930  -14.3740 N.am      1 GLY        -0.2666
     19 CA         13.8590   -0.5450  -14.3260 C.3       1 GLY         0.1201
     20 C          14.4650   -1.0080  -13.0160 C.2       1 GLY         0.2008
     21 O          14.0900   -2.0540  -12.4890 O.2       1 GLY        -0.3947
     22 N          15.4010   -0.2240  -12.4910 N.am      1 VAL        -0.2637
     23 CA         16.0630   -0.5590  -11.2340 C.3       1 VAL         0.1332
     24 C          15.2400   -0.1000  -10.0400 C.2       1 VAL         0.2041
     25 O          14.1440    0.4380  -10.1990 O.2       1 VAL        -0.3944
     26 CB         17.4550    0.0940  -11.1420 C.3       1 VAL        -0.0063
     27 CG1        18.2760   -0.2190  -12.3840 C.3       1 VAL        -0.0584
     28 CG2        17.3250    1.6020  -10.9390 C.3       1 VAL        -0.0584
     29 OH         10.1890    0.6950   -5.6690 O.2       1 ALY        -0.3974
     30 CH          9.7570   -0.0820   -4.8170 C.2       1 ALY         0.1729
     31 CH3         8.3620    0.1500   -4.2340 C.3       1 ALY         0.0256
     32 NZ         10.4700   -1.1100   -4.3760 N.am      1 ALY        -0.2872
     33 CE         11.9140   -1.0650   -4.1760 C.3       1 ALY         0.0309
     34 CD         12.6750   -1.3930   -5.4460 C.3       1 ALY        -0.0325
     35 CG         13.9860   -0.6900   -5.4940 C.3       1 ALY        -0.0470
     36 CB         14.7510   -1.0900   -6.7260 C.3       1 ALY        -0.0123
     37 CA         15.0960    0.1070   -7.6270 C.3       1 ALY         0.1310
     38 N          15.7760   -0.3130   -8.8410 N.am      1 ALY        -0.2637
     39 C          15.9300    1.1410   -6.8750 C.2       1 ALY         0.2039
     40 O          16.0570    1.0800   -5.6530 O.2       1 ALY        -0.3944
     41 N          16.4890    2.0950   -7.6380 N.am      1 LYS        -0.2637
     42 CA         17.3110    3.1750   -7.0900 C.3       1 LYS         0.1312
     43 C          17.7940    2.8250   -5.6870 C.2       1 LYS         0.2064
     44 O          17.4170    3.4710   -4.7160 O.2       1 LYS        -0.3942
     45 CB         16.5280    4.5040   -7.0960 C.3       1 LYS        -0.0122
     46 CG         17.3270    5.6850   -6.5650 C.3       1 LYS        -0.0440
     47 CD         16.6570    7.0070   -6.8970 C.3       1 LYS        -0.0124
     48 CE         17.4180    8.1820   -6.3040 C.3       1 LYS        -0.0354
     49 NZ         18.7910    8.2990   -6.8710 N.4       1 LYS         0.2185
     50 N          18.6420    1.7800   -5.5810 N.am      1 PRO        -0.2498
     51 CA         19.1700    1.2900   -4.3170 C.3       1 PRO         0.1338
     52 C          19.2240    2.3590   -3.2290 C.2       1 PRO         0.2042
     53 O          20.0810    3.2440   -3.2540 O.2       1 PRO        -0.3944
     54 CB         20.5710    0.8570   -4.7260 C.3       1 PRO        -0.0104
     55 CG         20.3920    0.2940   -6.0990 C.3       1 PRO        -0.0281
     56 CD         19.1970    1.0000   -6.7050 C.3       1 PRO         0.0369
     57 N          18.3020    2.2660   -2.2790 N.am      1 HIS        -0.2625
     58 CA         18.2280    3.2270   -1.1860 C.3       1 HIS         0.1369
     59 C          19.0130    2.7340    0.0270 C.2       1 HIS         0.2054
     60 O          19.5260    1.6160    0.0320 O.2       1 HIS        -0.3942
     61 CB         16.7670    3.4690   -0.8010 C.3       1 HIS         0.0145
     62 CG         15.7990    3.1680   -1.9060 C.2       1 HIS        -0.0027
     63 ND1        15.1910    1.9430   -2.0540 N.2       1 HIS        -0.3252
     64 CD2        15.3400    3.9360   -2.9230 C.2       1 HIS         0.0291
     65 CE1        14.4050    1.9670   -3.1150 C.2       1 HIS         0.0907
     66 NE2        14.4760    3.1660   -3.6580 N.pl3     1 HIS        -0.2752
     67 N          19.0990    3.5780    1.0520 N.am      1 ARG        -0.2636
     68 CA         19.8230    3.2290    2.2700 C.3       1 ARG         0.1311
     69 C          19.0200    3.6160    3.5100 C.2       1 ARG         0.2040
     70 O          19.2550    4.6640    4.1130 O.2       1 ARG        -0.3944
     71 CB         21.1870    3.9250    2.2950 C.3       1 ARG        -0.0092
     72 CG         22.0740    3.5800    1.1100 C.3       1 ARG        -0.0156
     73 CD         22.5360    2.1320    1.1570 C.3       1 ARG         0.0627
     74 NE         23.3810    1.7910    0.0160 N.pl3     1 ARG        -0.2723
     75 CZ         24.3780    0.9110    0.0710 C.cat     1 ARG         0.2882
     76 NH1        24.6600    0.2920    1.2100 N.pl3     1 ARG        -0.2849
     77 NH2        25.0960    0.6520   -1.0130 N.pl3     1 ARG        -0.2849
     78 N          18.0730    2.7620    3.8860 N.am      1 TYR        -0.2621
     79 CA         17.2370    3.0130    5.0550 C.3       1 TYR         0.1390
     80 C          17.6030    2.0720    6.1990 C.2       1 TYR         0.2057
     81 O          17.5170    2.4410    7.3700 O.2       1 TYR        -0.3942
     82 CB         15.7560    2.8540    4.6940 C.3       1 TYR         0.0163
     83 CG         14.8260    2.9040    5.8870 C.ar      1 TYR        -0.0493
     84 CD1        14.7740    4.0170    6.7170 C.ar      1 TYR        -0.0685
     85 CD2        14.0020    1.8310    6.1800 C.ar      1 TYR        -0.0685
     86 CE1        13.9210    4.0530    7.8060 C.ar      1 TYR        -0.0398
     87 CE2        13.1470    1.8560    7.2600 C.ar      1 TYR        -0.0398
     88 CZ         13.1090    2.9690    8.0720 C.ar      1 TYR         0.0805
     89 OH         12.2580    2.9990    9.1530 O.3       1 TYR        -0.3376
     90 N          18.0150    0.8580    5.8520 N.am      1 LYS        -0.2636
     91 CA         18.3940   -0.1340    6.8520 C.3       1 LYS         0.1309
     92 C          19.6010   -0.9420    6.3820 C.2       1 LYS         0.2034
     93 O          19.4730   -2.1060    6.0010 O.2       1 LYS        -0.3944
     94 CB         17.2140   -1.0640    7.1470 C.3       1 LYS        -0.0122
     95 CG         17.4530   -2.0000    8.3210 C.3       1 LYS        -0.0440
     96 CD         16.2230   -2.8430    8.6190 C.3       1 LYS        -0.0124
     97 CE         16.4640   -3.7870    9.7860 C.3       1 LYS        -0.0354
     98 NZ         16.8480   -3.0560   11.0240 N.4       1 LYS         0.2185
     99 N          20.7720   -0.3130    6.4110 N.am      1 CYS        -0.2687
    100 CA         22.0060   -0.9680    5.9900 C.3       1 CYS         0.1030
    101 C          22.3840   -2.0890    6.9520 C.2       1 CYS         0.0609
    102 O          22.0030   -3.2490    6.6870 O.co2     1 CYS        -0.5666
    103 CB         23.1440    0.0510    5.9020 C.3       1 CYS         0.0256
    104 SG         22.8270    1.4150    4.7590 S.3       1 CYS        -0.1742
    105 OXT        23.0580   -1.7990    7.9630 O.co2     1 CYS        -0.5666
    106 H1         10.5405    7.1854  -20.6137 H         1 SER         0.2016
    107 H2          9.5122    5.9360  -20.3119 H         1 SER         0.2016
    108 H3         11.0820    5.8460  -19.8248 H         1 SER         0.2016
    109 H4         10.7951    7.6371  -18.2753 H         1 SER         0.1122
    110 H5          8.5067    8.4991  -17.8734 H         1 SER         0.0640
    111 H6          7.8934    7.4995  -19.2340 H         1 SER         0.0640
    112 H7          8.3620    9.6716  -19.8553 H         1 SER         0.2099
    113 H8         10.5967    4.6316  -18.6646 H         1 THR         0.1885
    114 H9          9.0824    4.0474  -16.1590 H         1 THR         0.0826
    115 H10         9.7003    2.1144  -18.4495 H         1 THR         0.0639
    116 H11         7.4103    2.3187  -18.8025 H         1 THR         0.2101
    117 H12         8.1130    0.6237  -17.2735 H         1 THR         0.0257
    118 H13         7.9502    1.8361  -15.9582 H         1 THR         0.0257
    119 H14         9.5278    1.0255  -16.2423 H         1 THR         0.0257
    120 H15        10.5046    3.9298  -14.5455 H         1 GLY         0.1881
    121 H16        12.3626    3.3335  -13.3157 H         1 GLY         0.0763
    122 H17        13.2706    3.3158  -14.8655 H         1 GLY         0.0763
    123 H18        14.4664    1.4911  -14.4799 H         1 GLY         0.1881
    124 H19        14.5271   -0.8415  -15.1480 H         1 GLY         0.0763
    125 H20        12.8812   -1.0324  -14.4541 H         1 GLY         0.0763
    126 H21        15.6580    0.6160  -12.9689 H         1 VAL         0.1883
    127 H22        16.1797   -1.6517  -11.1865 H         1 VAL         0.0802
    128 H23        17.9770   -0.3268  -10.2700 H         1 VAL         0.0343
    129 H24        19.2648    0.2554  -12.2990 H         1 VAL         0.0234
    130 H25        17.7582    0.1694  -13.2734 H         1 VAL         0.0234
    131 H26        18.3987   -1.3081  -12.4776 H         1 VAL         0.0234
    132 H27        16.7283    1.8004  -10.0364 H         1 VAL         0.0234
    133 H28        16.8275    2.0481  -11.8128 H         1 VAL         0.0234
    134 H29        18.3255    2.0438  -10.8215 H         1 VAL         0.0234
    135 H30         8.1395   -0.6321   -3.4931 H         1 ALY         0.0467
    136 H31         7.6162    0.1127   -5.0417 H         1 ALY         0.0467
    137 H32         8.3271    1.1361   -3.7479 H         1 ALY         0.0467
    138 H33         9.9909   -1.9631   -4.1692 H         1 ALY         0.1850
    139 H34        12.1877   -1.7947   -3.3998 H         1 ALY         0.0520
    140 H35        12.1951   -0.0544   -3.8448 H         1 ALY         0.0520
    141 H36        12.0725   -1.0850   -6.3133 H         1 ALY         0.0285
    142 H37        12.8498   -2.4782   -5.4877 H         1 ALY         0.0285
    143 H38        14.5721   -0.9548   -4.6016 H         1 ALY         0.0268
    144 H39        13.8143    0.3964   -5.5109 H         1 ALY         0.0268
    145 H40        14.1411   -1.8003   -7.3034 H         1 ALY         0.0312
    146 H41        15.6869   -1.5778   -6.4158 H         1 ALY         0.0312
    147 H42        14.1505    0.5860   -7.9210 H         1 ALY         0.0800
    148 H43        16.6628   -0.7703   -8.7739 H         1 ALY         0.1883
    149 H44        16.3365    2.0659   -8.6259 H         1 LYS         0.1883
    150 H45        18.1942    3.2958   -7.7344 H         1 LYS         0.0800
    151 H46        15.6312    4.3819   -6.4709 H         1 LYS         0.0312
    152 H47        16.2266    4.7253   -8.1305 H         1 LYS         0.0312
    153 H48        18.3299    5.6697   -7.0166 H         1 LYS         0.0269
    154 H49        17.4154    5.5940   -5.4724 H         1 LYS         0.0269
    155 H50        15.6348    7.0016   -6.4907 H         1 LYS         0.0317
    156 H51        16.6165    7.1226   -7.9902 H         1 LYS         0.0317
    157 H52        17.4937    8.0435   -5.2154 H         1 LYS         0.0813
    158 H53        16.8649    9.1083   -6.5183 H         1 LYS         0.0813
    159 H54        19.2608    9.0871   -6.4536 H         1 LYS         0.1994
    160 H55        18.7324    8.4324   -7.8684 H         1 LYS         0.1994
    161 H56        19.3086    7.4567   -6.6745 H         1 LYS         0.1994
    162 H57        18.5791    0.4375   -3.9508 H         1 PRO         0.0802
    163 H58        20.9598    0.0920   -4.0379 H         1 PRO         0.0313
    164 H59        21.2563    1.7173   -4.7430 H         1 PRO         0.0313
    165 H60        20.2051   -0.7886   -6.0437 H         1 PRO         0.0287
    166 H61        21.2905    0.4805   -6.7056 H         1 PRO         0.0287
    167 H62        19.5082    1.6626   -7.5260 H         1 PRO         0.0524
    168 H63        18.4608    0.2734   -7.0791 H         1 PRO         0.0524
    169 H64        17.6406    1.5168   -2.3141 H         1 HIS         0.1885
    170 H65        18.6666    4.1773   -1.5245 H         1 HIS         0.0817
    171 H66        16.6525    4.5253   -0.5161 H         1 HIS         0.0420
    172 H67        16.5231    2.8286    0.0594 H         1 HIS         0.0420
    173 H68        15.6077    4.9730   -3.1203 H         1 HIS         0.0729
    174 H69        13.8010    1.1373   -3.4793 H         1 HIS         0.1199
    175 H70        13.9655    3.4742   -4.4978 H         1 HIS         0.2361
    176 H71        18.6571    4.4726    0.9861 H         1 ARG         0.1883
    177 H72        19.9824    2.1407    2.2814 H         1 ARG         0.0800
    178 H73        21.7098    3.6302    3.2168 H         1 ARG         0.0313
    179 H74        21.0214    5.0124    2.2991 H         1 ARG         0.0313
    180 H75        22.9566    4.2364    1.1221 H         1 ARG         0.0301
    181 H76        21.5079    3.7437    0.1812 H         1 ARG         0.0301
    182 H77        21.6524    1.4768    1.1531 H         1 ARG         0.0689
    183 H78        23.1076    1.9713    2.0830 H         1 ARG         0.0689
    184 H79        23.1948    2.2582   -0.8829 H         1 ARG         0.2642
    185 H80        25.4323   -0.3884    1.2489 H         1 ARG         0.2615
    186 H81        24.1067    0.4918    2.0555 H         1 ARG         0.2615
    187 H82        24.8809    1.1301   -1.8996 H         1 ARG         0.2615
    188 H83        25.8690   -0.0273   -0.9686 H         1 ARG         0.2615
    189 H84        17.9302    1.9271    3.3545 H         1 TYR         0.1885
    190 H85        17.4070    4.0476    5.3877 H         1 TYR         0.0821
    191 H86        15.6239    1.8841    4.1921 H         1 TYR         0.0453
    192 H87        15.4785    3.6647    4.0042 H         1 TYR         0.0453
    193 H88        15.4106    4.8692    6.5085 H         1 TYR         0.0530
    194 H89        14.0301    0.9522    5.5460 H         1 TYR         0.0530
    195 H90        13.8907    4.9272    8.4463 H         1 TYR         0.0525
    196 H91        12.5082    1.0057    7.4698 H         1 TYR         0.0525
    197 H92        12.3522    3.8289    9.6058 H         1 TYR         0.2458
    198 H93        18.0666    0.6184    4.8825 H         1 LYS         0.1883
    199 H94        18.6662    0.3916    7.7792 H         1 LYS         0.0800
    200 H95        17.0190   -1.6726    6.2517 H         1 LYS         0.0312
    201 H96        16.3317   -0.4459    7.3696 H         1 LYS         0.0312
    202 H97        17.7009   -1.4022    9.2104 H         1 LYS         0.0269
    203 H98        18.2942   -2.6670    8.0813 H         1 LYS         0.0269
    204 H99        15.9705   -3.4348    7.7268 H         1 LYS         0.0317
    205 H100       15.3839   -2.1761    8.8662 H         1 LYS         0.0317
    206 H101       17.2732   -4.4826    9.5189 H         1 LYS         0.0813
    207 H102       15.5418   -4.3544    9.9802 H         1 LYS         0.0813
    208 H103       16.9981   -3.7160   11.7710 H         1 LYS         0.1994
    209 H104       16.1097   -2.4197   11.2812 H         1 LYS         0.1994
    210 H105       17.6963   -2.5372   10.8585 H         1 LYS         0.1994
    211 H106       20.8080    0.6341    6.7298 H         1 CYS         0.1876
    212 H107       21.8461   -1.4032    4.9925 H         1 CYS         0.0734
    213 H108       24.0523   -0.4734    5.5704 H         1 CYS         0.0415
    214 H109       23.3090    0.4720    6.9048 H         1 CYS         0.0415
    215 H110       23.6176    2.0403    4.7564 H         1 CYS         0.1018
@<TRIPOS>BOND
     1    2    1 1  
     2    3    2 1  
     3    2    5 1  
     4    3    4 2  
     5    7    3 am 
     6    5    6 1  
     7    8    7 1  
     8    9    8 1  
     9    8   11 1  
    10    9   10 2  
    11   14    9 am 
    12   11   12 1  
    13   11   13 1  
    14   15   14 1  
    15   16   15 1  
    16   16   17 2  
    17   18   16 am 
    18   19   18 1  
    19   20   19 1  
    20   20   21 2  
    21   22   20 am 
    22   23   22 1  
    23   24   23 1  
    24   23   26 1  
    25   24   25 2  
    26   38   24 am 
    27   26   27 1  
    28   26   28 1  
    29   30   29 2  
    30   30   31 1  
    31   32   30 am 
    32   33   32 1  
    33   34   33 1  
    34   35   34 1  
    35   36   35 1  
    36   37   36 1  
    37   37   38 1  
    38   37   39 1  
    39   39   40 2  
    40   39   41 am 
    41   41   42 1  
    42   42   43 1  
    43   42   45 1  
    44   43   44 2  
    45   43   50 am 
    46   45   46 1  
    47   46   47 1  
    48   47   48 1  
    49   48   49 1  
    50   50   51 1  
    51   50   56 1  
    52   51   52 1  
    53   51   54 1  
    54   52   53 2  
    55   52   57 am 
    56   54   55 1  
    57   55   56 1  
    58   57   58 1  
    59   58   59 1  
    60   58   61 1  
    61   59   60 2  
    62   59   67 am 
    63   61   62 1  
    64   62   63 1  
    65   62   64 2  
    66   63   65 2  
    67   64   66 1  
    68   65   66 1  
    69   67   68 1  
    70   68   69 1  
    71   68   71 1  
    72   69   70 2  
    73   69   78 am 
    74   71   72 1  
    75   72   73 1  
    76   73   74 1  
    77   74   75 ar 
    78   75   76 ar 
    79   75   77 ar 
    80   78   79 1  
    81   79   80 1  
    82   79   82 1  
    83   80   81 2  
    84   80   90 am 
    85   82   83 1  
    86   83   84 ar 
    87   83   85 ar 
    88   84   86 ar 
    89   85   87 ar 
    90   86   88 ar 
    91   87   88 ar 
    92   88   89 1  
    93   90   91 1  
    94   91   92 1  
    95   91   94 1  
    96   92   93 2  
    97   92   99 am 
    98   94   95 1  
    99   95   96 1  
   100   96   97 1  
   101   97   98 1  
   102   99  100 1  
   103  100  101 1  
   104  100  103 1  
   105  101  102 ar 
   106  101  105 ar 
   107  103  104 1  
   108    1  106 1  
   109    1  107 1  
   110    1  108 1  
   111    2  109 1  
   112    5  110 1  
   113    5  111 1  
   114    6  112 1  
   115    7  113 1  
   116    8  114 1  
   117   11  115 1  
   118   12  116 1  
   119   13  117 1  
   120   13  118 1  
   121   13  119 1  
   122   14  120 1  
   123   15  121 1  
   124   15  122 1  
   125   18  123 1  
   126   19  124 1  
   127   19  125 1  
   128   22  126 1  
   129   23  127 1  
   130   26  128 1  
   131   27  129 1  
   132   27  130 1  
   133   27  131 1  
   134   28  132 1  
   135   28  133 1  
   136   28  134 1  
   137   31  135 1  
   138   31  136 1  
   139   31  137 1  
   140   32  138 1  
   141   33  139 1  
   142   33  140 1  
   143   34  141 1  
   144   34  142 1  
   145   35  143 1  
   146   35  144 1  
   147   36  145 1  
   148   36  146 1  
   149   37  147 1  
   150   38  148 1  
   151   41  149 1  
   152   42  150 1  
   153   45  151 1  
   154   45  152 1  
   155   46  153 1  
   156   46  154 1  
   157   47  155 1  
   158   47  156 1  
   159   48  157 1  
   160   48  158 1  
   161   49  159 1  
   162   49  160 1  
   163   49  161 1  
   164   51  162 1  
   165   54  163 1  
   166   54  164 1  
   167   55  165 1  
   168   55  166 1  
   169   56  167 1  
   170   56  168 1  
   171   57  169 1  
   172   58  170 1  
   173   61  171 1  
   174   61  172 1  
   175   64  173 1  
   176   65  174 1  
   177   66  175 1  
   178   67  176 1  
   179   68  177 1  
   180   71  178 1  
   181   71  179 1  
   182   72  180 1  
   183   72  181 1  
   184   73  182 1  
   185   73  183 1  
   186   74  184 1  
   187   76  185 1  
   188   76  186 1  
   189   77  187 1  
   190   77  188 1  
   191   78  189 1  
   192   79  190 1  
   193   82  191 1  
   194   82  192 1  
   195   84  193 1  
   196   85  194 1  
   197   86  195 1  
   198   87  196 1  
   199   89  197 1  
   200   90  198 1  
   201   91  199 1  
   202   94  200 1  
   203   94  201 1  
   204   95  202 1  
   205   95  203 1  
   206   96  204 1  
   207   96  205 1  
   208   97  206 1  
   209   97  207 1  
   210   98  208 1  
   211   98  209 1  
   212   98  210 1  
   213   99  211 1  
   214  100  212 1  
   215  103  213 1  
   216  103  214 1  
   217  104  215 1  
@<TRIPOS>SUBSTRUCTURE
     1 SER         1

