2rnx_ligand
  -I-interpret- 

214216  0  0  0  0  0  0  0  0999 V2000
   10.2950    6.4620  -19.9560 N   0  3  0  0  0
    9.9270    7.0790  -18.6560 C   0  0  0  0  0
    9.5490    6.0110  -17.6350 C   0  0  0  0  0
    8.8430    6.2880  -16.6650 O   0  0  0  0  0
    8.7620    8.0510  -18.8450 C   0  0  0  0  0
    9.1010    9.0830  -19.7560 O   0  0  0  0  0
   10.0260    4.7910  -17.8590 N   0  0  0  0  0
    9.7390    3.6790  -16.9610 C   0  0  0  0  0
   11.0200    3.1400  -16.3320 C   0  0  0  0  0
   11.8300    2.5010  -17.0030 O   0  0  0  0  0
    9.0180    2.5330  -17.6950 C   0  0  0  0  0
    7.8480    3.0320  -18.3530 O   0  0  0  0  0
    8.6250    1.4280  -16.7250 C   0  0  0  0  0
   11.1960    3.4040  -15.0410 N   0  0  0  0  0
   12.3800    2.9380  -14.3420 C   0  0  0  0  0
   12.4580    1.4250  -14.2790 C   0  0  0  0  0
   11.4360    0.7500  -14.1480 O   0  0  0  0  0
   13.6720    0.8930  -14.3740 N   0  0  0  0  0
   13.8590   -0.5450  -14.3260 C   0  0  0  0  0
   14.4650   -1.0080  -13.0160 C   0  0  0  0  0
   14.0900   -2.0540  -12.4890 O   0  0  0  0  0
   15.4010   -0.2240  -12.4910 N   0  0  0  0  0
   16.0630   -0.5590  -11.2340 C   0  0  0  0  0
   15.2400   -0.1000  -10.0400 C   0  0  0  0  0
   14.1440    0.4380  -10.1990 O   0  0  0  0  0
   17.4550    0.0940  -11.1420 C   0  0  0  0  0
   18.2760   -0.2190  -12.3840 C   0  0  0  0  0
   17.3250    1.6020  -10.9390 C   0  0  0  0  0
   10.1890    0.6950   -5.6690 O   0  0  0  0  0
    9.7570   -0.0820   -4.8170 C   0  0  0  0  0
    8.3620    0.1500   -4.2340 C   0  0  0  0  0
   10.4700   -1.1100   -4.3760 N   0  0  0  0  0
   11.9140   -1.0650   -4.1760 C   0  0  0  0  0
   12.6750   -1.3930   -5.4460 C   0  0  0  0  0
   13.9860   -0.6900   -5.4940 C   0  0  0  0  0
   14.7510   -1.0900   -6.7260 C   0  0  0  0  0
   15.0960    0.1070   -7.6270 C   0  0  0  0  0
   15.7760   -0.3130   -8.8410 N   0  0  0  0  0
   15.9300    1.1410   -6.8750 C   0  0  0  0  0
   16.0570    1.0800   -5.6530 O   0  0  0  0  0
   16.4890    2.0950   -7.6380 N   0  0  0  0  0
   17.3110    3.1750   -7.0900 C   0  0  0  0  0
   17.7940    2.8250   -5.6870 C   0  0  0  0  0
   17.4170    3.4710   -4.7160 O   0  0  0  0  0
   16.5280    4.5040   -7.0960 C   0  0  0  0  0
   17.3270    5.6850   -6.5650 C   0  0  0  0  0
   16.6570    7.0070   -6.8970 C   0  0  0  0  0
   17.4180    8.1820   -6.3040 C   0  0  0  0  0
   18.7910    8.2990   -6.8710 N   0  3  0  0  0
   18.6420    1.7800   -5.5810 N   0  0  0  0  0
   19.1700    1.2900   -4.3170 C   0  0  0  0  0
   19.2240    2.3590   -3.2290 C   0  0  0  0  0
   20.0810    3.2440   -3.2540 O   0  0  0  0  0
   20.5710    0.8570   -4.7260 C   0  0  0  0  0
   20.3920    0.2940   -6.0990 C   0  0  0  0  0
   19.1970    1.0000   -6.7050 C   0  0  0  0  0
   18.3020    2.2660   -2.2790 N   0  0  0  0  0
   18.2280    3.2270   -1.1860 C   0  0  0  0  0
   19.0130    2.7340    0.0270 C   0  0  0  0  0
   19.5260    1.6160    0.0320 O   0  0  0  0  0
   16.7670    3.4690   -0.8010 C   0  0  0  0  0
   15.7990    3.1680   -1.9060 C   0  0  0  0  0
   15.1910    1.9430   -2.0540 N   0  0  0  0  0
   15.3400    3.9360   -2.9230 C   0  0  0  0  0
   14.4050    1.9670   -3.1150 C   0  0  0  0  0
   14.4760    3.1660   -3.6580 N   0  0  0  0  0
   19.0990    3.5780    1.0520 N   0  0  0  0  0
   19.8230    3.2290    2.2700 C   0  0  0  0  0
   19.0200    3.6160    3.5100 C   0  0  0  0  0
   19.2550    4.6640    4.1130 O   0  0  0  0  0
   21.1870    3.9250    2.2950 C   0  0  0  0  0
   22.0740    3.5800    1.1100 C   0  0  0  0  0
   22.5360    2.1320    1.1570 C   0  0  0  0  0
   23.3810    1.7910    0.0160 N   0  0  0  0  0
   24.3780    0.9110    0.0710 C   0  0  0  0  0
   24.6600    0.2920    1.2100 N   0  0  0  0  0
   25.0960    0.6520   -1.0130 N   0  0  0  0  0
   18.0730    2.7620    3.8860 N   0  0  0  0  0
   17.2370    3.0130    5.0550 C   0  0  0  0  0
   17.6030    2.0720    6.1990 C   0  0  0  0  0
   17.5170    2.4410    7.3700 O   0  0  0  0  0
   15.7560    2.8540    4.6940 C   0  0  0  0  0
   14.8260    2.9040    5.8870 C   0  0  0  0  0
   14.7740    4.0170    6.7170 C   0  0  0  0  0
   14.0020    1.8310    6.1800 C   0  0  0  0  0
   13.9210    4.0530    7.8060 C   0  0  0  0  0
   13.1470    1.8560    7.2600 C   0  0  0  0  0
   13.1090    2.9690    8.0720 C   0  0  0  0  0
   12.2580    2.9990    9.1530 O   0  0  0  0  0
   18.0150    0.8580    5.8520 N   0  0  0  0  0
   18.3940   -0.1340    6.8520 C   0  0  0  0  0
   19.6010   -0.9420    6.3820 C   0  0  0  0  0
   19.4730   -2.1060    6.0010 O   0  0  0  0  0
   17.2140   -1.0640    7.1470 C   0  0  0  0  0
   17.4530   -2.0000    8.3210 C   0  0  0  0  0
   16.2230   -2.8430    8.6190 C   0  0  0  0  0
   16.4640   -3.7870    9.7860 C   0  0  0  0  0
   16.8480   -3.0560   11.0240 N   0  3  0  0  0
   20.7720   -0.3130    6.4110 N   0  0  0  0  0
   22.0060   -0.9680    5.9900 C   0  0  0  0  0
   22.3840   -2.0890    6.9520 C   0  0  0  0  0
   22.0030   -3.2490    6.6870 O   0  0  0  0  0
   23.1440    0.0510    5.9020 C   0  0  0  0  0
   22.8270    1.4150    4.7590 S   0  0  0  0  0
   23.0580   -1.7990    7.9630 O   0  0  0  0  0
   11.0723    5.8165  -19.8167 H   0  0  0  0  0
    9.4928    5.9546  -20.3293 H   0  0  0  0  0
   10.5717    7.1928  -20.6116 H   0  0  0  0  0
   10.7932    7.6246  -18.2816 H   0  0  0  0  0
    8.5233    8.5009  -17.8813 H   0  0  0  0  0
    7.9095    7.5005  -19.2430 H   0  0  0  0  0
    8.3542    9.6778  -19.8564 H   0  0  0  0  0
   10.6081    4.6284  -18.6807 H   0  0  0  0  0
    9.0851    4.0640  -16.1785 H   0  0  0  0  0
    9.7037    2.1190  -18.4343 H   0  0  0  0  0
    7.4057    2.3111  -18.8073 H   0  0  0  0  0
    7.9333    1.8267  -15.9830 H   0  0  0  0  0
    8.1440    0.6185  -17.2740 H   0  0  0  0  0
    9.5173    1.0502  -16.2258 H   0  0  0  0  0
   10.4908    3.9403  -14.5356 H   0  0  0  0  0
   12.3384    3.3158  -13.3204 H   0  0  0  0  0
   13.2545    3.2979  -14.8841 H   0  0  0  0  0
   14.4823    1.5030  -14.4820 H   0  0  0  0  0
   14.5418   -0.8224  -15.1291 H   0  0  0  0  0
   12.8809   -1.0150  -14.4289 H   0  0  0  0  0
   15.6632    0.6328  -12.9784 H   0  0  0  0  0
   16.1662   -1.6439  -11.2153 H   0  0  0  0  0
   17.9763   -0.3212  -10.2795 H   0  0  0  0  0
   18.3968   -1.2984  -12.4756 H   0  0  0  0  0
   17.7618    0.1663  -13.2645 H   0  0  0  0  0
   19.2555    0.2516  -12.2986 H   0  0  0  0  0
   16.7845    2.0353  -11.7805 H   0  0  0  0  0
   16.7795    1.7973  -10.0158 H   0  0  0  0  0
   18.3186    2.0459  -10.8763 H   0  0  0  0  0
    8.3287    1.1274   -3.7527 H   0  0  0  0  0
    7.6240    0.1128   -5.0353 H   0  0  0  0  0
    8.1428   -0.6255   -3.5001 H   0  0  0  0  0
    9.9813   -1.9801   -4.1651 H   0  0  0  0  0
   12.1764   -1.8060   -3.4209 H   0  0  0  0  0
   12.1838   -0.0546   -3.8688 H   0  0  0  0  0
   12.0785   -1.0694   -6.2990 H   0  0  0  0  0
   12.8584   -2.4672   -5.4707 H   0  0  0  0  0
   14.5665   -0.9610   -4.6122 H   0  0  0  0  0
   13.8113    0.3856   -5.5183 H   0  0  0  0  0
   14.1247   -1.7717   -7.3015 H   0  0  0  0  0
   15.6870   -1.5468   -6.4044 H   0  0  0  0  0
   14.1541    0.5723   -7.9173 H   0  0  0  0  0
   16.6805   -0.7795   -8.7725 H   0  0  0  0  0
   16.3334    2.0653   -8.6456 H   0  0  0  0  0
   18.1897    3.2986   -7.7230 H   0  0  0  0  0
   15.6628    4.3762   -6.4455 H   0  0  0  0  0
   16.2676    4.7249   -8.1311 H   0  0  0  0  0
   18.3125    5.6716   -7.0306 H   0  0  0  0  0
   17.3947    5.5957   -5.4808 H   0  0  0  0  0
   15.6514    6.9995   -6.4766 H   0  0  0  0  0
   16.6362    7.1208   -7.9808 H   0  0  0  0  0
   17.5048    8.0250   -5.2289 H   0  0  0  0  0
   16.8724    9.0959   -6.5392 H   0  0  0  0  0
   19.2654    9.0968   -6.4480 H   0  0  0  0  0
   19.3137    7.4461   -6.6716 H   0  0  0  0  0
   18.7304    8.4339   -7.8802 H   0  0  0  0  0
   18.5535    0.5071   -3.8754 H   0  0  0  0  0
   20.9960    0.1295   -4.0344 H   0  0  0  0  0
   21.2797    1.6850   -4.7092 H   0  0  0  0  0
   20.2285   -0.7829   -6.0594 H   0  0  0  0  0
   21.2850    0.4523   -6.7037 H   0  0  0  0  0
   19.4719    1.6294   -7.5514 H   0  0  0  0  0
   18.4718    0.3028   -7.1246 H   0  0  0  0  0
   17.6274    1.5018   -2.3148 H   0  0  0  0  0
   18.6713    4.1642   -1.5227 H   0  0  0  0  0
   16.6641    4.5257   -0.5544 H   0  0  0  0  0
   16.5328    2.8034    0.0298 H   0  0  0  0  0
   15.6079    4.9739   -3.1204 H   0  0  0  0  0
   13.8004    1.1366   -3.4797 H   0  0  0  0  0
   18.6482    4.4905    0.9848 H   0  0  0  0  0
   19.9727    2.1494    2.2773 H   0  0  0  0  0
   21.7043    3.5937    3.1954 H   0  0  0  0  0
   21.0043    4.9991    2.2622 H   0  0  0  0  0
   22.9539    4.2227    1.1407 H   0  0  0  0  0
   21.4991    3.7278    0.1958 H   0  0  0  0  0
   21.6543    1.4916    1.1320 H   0  0  0  0  0
   23.1181    1.9890    2.0674 H   0  0  0  0  0
   23.1966    2.2537   -0.8741 H   0  0  0  0  0
   25.4264   -0.3799    1.2491 H   0  0  0  0  0
   24.1104    0.4880    2.0466 H   0  0  0  0  0
   24.8846    1.1273   -1.8904 H   0  0  0  0  0
   17.9273    1.9104    3.3439 H   0  0  0  0  0
   17.4130    4.0370    5.3844 H   0  0  0  0  0
   15.6382    1.8740    4.2316 H   0  0  0  0  0
   15.4903    3.6849    4.0405 H   0  0  0  0  0
   15.4142    4.8739    6.5074 H   0  0  0  0  0
   14.0302    0.9473    5.5425 H   0  0  0  0  0
   13.8905    4.9320    8.4498 H   0  0  0  0  0
   12.5047    1.0010    7.4709 H   0  0  0  0  0
   11.7681    2.1745    9.1962 H   0  0  0  0  0
   18.0676    0.6136    4.8631 H   0  0  0  0  0
   18.6685    0.3885    7.7684 H   0  0  0  0  0
   17.0574   -1.6826    6.2633 H   0  0  0  0  0
   16.3592   -0.4364    7.3990 H   0  0  0  0  0
   17.6820   -1.3992    9.2012 H   0  0  0  0  0
   18.2770   -2.6675    8.0689 H   0  0  0  0  0
   15.9900   -3.4380    7.7360 H   0  0  0  0  0
   15.4015   -2.1754    8.8789 H   0  0  0  0  0
   17.2807   -4.4577    9.5189 H   0  0  0  0  0
   15.5388   -4.3286    9.9830 H   0  0  0  0  0
   16.9996   -3.7248   11.7791 H   0  0  0  0  0
   17.7064   -2.5315   10.8553 H   0  0  0  0  0
   16.1003   -2.4125   11.2832 H   0  0  0  0  0
   20.8087    0.6531    6.7362 H   0  0  0  0  0
   21.8391   -1.4022    5.0043 H   0  0  0  0  0
   21.5026   -3.2410    5.8677 H   0  0  0  0  0
   24.0234   -0.4787    5.5358 H   0  0  0  0  0
   23.2664    0.4841    6.8947 H   0  0  0  0  0
   23.8702    2.2400    4.7556 H   0  0  0  0  0
  2  1  1  0  0  0
  3  2  1  0  0  0
  2  5  1  0  0  0
  3  4  2  0  0  0
  7  3  1  0  0  0
  5  6  1  0  0  0
  8  7  1  0  0  0
  9  8  1  0  0  0
  8 11  1  0  0  0
  9 10  2  0  0  0
 14  9  1  0  0  0
 11 12  1  0  0  0
 11 13  1  0  0  0
 15 14  1  0  0  0
 16 15  1  0  0  0
 16 17  2  0  0  0
 18 16  1  0  0  0
 19 18  1  0  0  0
 20 19  1  0  0  0
 20 21  2  0  0  0
 22 20  1  0  0  0
 23 22  1  0  0  0
 24 23  1  0  0  0
 23 26  1  0  0  0
 24 25  2  0  0  0
 38 24  1  0  0  0
 26 27  1  0  0  0
 26 28  1  0  0  0
 30 29  2  0  0  0
 30 31  1  0  0  0
 32 30  1  0  0  0
 33 32  1  0  0  0
 34 33  1  0  0  0
 35 34  1  0  0  0
 36 35  1  0  0  0
 37 36  1  0  0  0
 37 38  1  0  0  0
 37 39  1  0  0  0
 39 40  2  0  0  0
 39 41  1  0  0  0
 41 42  1  0  0  0
 42 43  1  0  0  0
 42 45  1  0  0  0
 43 44  2  0  0  0
 43 50  1  0  0  0
 45 46  1  0  0  0
 46 47  1  0  0  0
 47 48  1  0  0  0
 48 49  1  0  0  0
 50 51  1  0  0  0
 50 56  1  0  0  0
 51 52  1  0  0  0
 51 54  1  0  0  0
 52 53  2  0  0  0
 52 57  1  0  0  0
 54 55  1  0  0  0
 55 56  1  0  0  0
 57 58  1  0  0  0
 58 59  1  0  0  0
 58 61  1  0  0  0
 59 60  2  0  0  0
 59 67  1  0  0  0
 61 62  1  0  0  0
 62 63  4  0  0  0
 62 64  4  0  0  0
 63 65  4  0  0  0
 64 66  4  0  0  0
 65 66  4  0  0  0
 67 68  1  0  0  0
 68 69  1  0  0  0
 68 71  1  0  0  0
 69 70  2  0  0  0
 69 78  1  0  0  0
 71 72  1  0  0  0
 72 73  1  0  0  0
 73 74  1  0  0  0
 74 75  1  0  0  0
 75 76  1  0  0  0
 75 77  2  0  0  0
 78 79  1  0  0  0
 79 80  1  0  0  0
 79 82  1  0  0  0
 80 81  2  0  0  0
 80 90  1  0  0  0
 82 83  1  0  0  0
 83 84  4  0  0  0
 83 85  4  0  0  0
 84 86  4  0  0  0
 85 87  4  0  0  0
 86 88  4  0  0  0
 87 88  4  0  0  0
 88 89  1  0  0  0
 90 91  1  0  0  0
 91 92  1  0  0  0
 91 94  1  0  0  0
 92 93  2  0  0  0
 92 99  1  0  0  0
 94 95  1  0  0  0
 95 96  1  0  0  0
 96 97  1  0  0  0
 97 98  1  0  0  0
 99100  1  0  0  0
100101  1  0  0  0
100103  1  0  0  0
101102  1  0  0  0
101105  2  0  0  0
103104  1  0  0  0
  1106  1  0  0  0
  1107  1  0  0  0
  1108  1  0  0  0
  2109  1  0  0  0
  5110  1  0  0  0
  5111  1  0  0  0
  6112  1  0  0  0
  7113  1  0  0  0
  8114  1  0  0  0
 11115  1  0  0  0
 12116  1  0  0  0
 13117  1  0  0  0
 13118  1  0  0  0
 13119  1  0  0  0
 14120  1  0  0  0
 15121  1  0  0  0
 15122  1  0  0  0
 18123  1  0  0  0
 19124  1  0  0  0
 19125  1  0  0  0
 22126  1  0  0  0
 23127  1  0  0  0
 26128  1  0  0  0
 27129  1  0  0  0
 27130  1  0  0  0
 27131  1  0  0  0
 28132  1  0  0  0
 28133  1  0  0  0
 28134  1  0  0  0
 31135  1  0  0  0
 31136  1  0  0  0
 31137  1  0  0  0
 32138  1  0  0  0
 33139  1  0  0  0
 33140  1  0  0  0
 34141  1  0  0  0
 34142  1  0  0  0
 35143  1  0  0  0
 35144  1  0  0  0
 36145  1  0  0  0
 36146  1  0  0  0
 37147  1  0  0  0
 38148  1  0  0  0
 41149  1  0  0  0
 42150  1  0  0  0
 45151  1  0  0  0
 45152  1  0  0  0
 46153  1  0  0  0
 46154  1  0  0  0
 47155  1  0  0  0
 47156  1  0  0  0
 48157  1  0  0  0
 48158  1  0  0  0
 49159  1  0  0  0
 49160  1  0  0  0
 49161  1  0  0  0
 51162  1  0  0  0
 54163  1  0  0  0
 54164  1  0  0  0
 55165  1  0  0  0
 55166  1  0  0  0
 56167  1  0  0  0
 56168  1  0  0  0
 57169  1  0  0  0
 58170  1  0  0  0
 61171  1  0  0  0
 61172  1  0  0  0
 64173  1  0  0  0
 65174  1  0  0  0
 67175  1  0  0  0
 68176  1  0  0  0
 71177  1  0  0  0
 71178  1  0  0  0
 72179  1  0  0  0
 72180  1  0  0  0
 73181  1  0  0  0
 73182  1  0  0  0
 74183  1  0  0  0
 76184  1  0  0  0
 76185  1  0  0  0
 77186  1  0  0  0
 78187  1  0  0  0
 79188  1  0  0  0
 82189  1  0  0  0
 82190  1  0  0  0
 84191  1  0  0  0
 85192  1  0  0  0
 86193  1  0  0  0
 87194  1  0  0  0
 89195  1  0  0  0
 90196  1  0  0  0
 91197  1  0  0  0
 94198  1  0  0  0
 94199  1  0  0  0
 95200  1  0  0  0
 95201  1  0  0  0
 96202  1  0  0  0
 96203  1  0  0  0
 97204  1  0  0  0
 97205  1  0  0  0
 98206  1  0  0  0
 98207  1  0  0  0
 98208  1  0  0  0
 99209  1  0  0  0
100210  1  0  0  0
102211  1  0  0  0
103212  1  0  0  0
103213  1  0  0  0
104214  1  0  0  0
M  END
$$$$
