6af9_ligand
  -I-interpret- 

 18 19  0  0  0  0  0  0  0  0999 V2000
  -36.3230   12.9610  -12.6280 C   0  0  0  0  0
  -35.6200   12.2280  -13.6110 C   0  0  0  0  0
  -35.0630   12.9290  -14.6900 C   0  0  0  0  0
  -35.2570   14.3050  -14.6920 C   0  0  0  0  0
  -35.9640   15.0450  -13.7340 C   0  0  0  0  0
  -37.3520   14.8020  -11.6500 N   0  0  0  0  0
  -36.5810   14.3870  -12.6940 C   0  0  0  0  0
  -37.0350   12.4970  -11.4060 C   0  0  0  0  0
  -37.6890   13.7430  -10.9200 C   0  0  0  0  0
  -37.8190   11.3880  -11.4630 O   0  0  0  0  0
  -38.4270   13.6990   -9.8970 O   0  0  0  0  0
  -35.5137   11.1461  -13.5323 H   0  0  0  0  0
  -34.5097   12.4238  -15.4816 H   0  0  0  0  0
  -34.8168   14.8630  -15.5185 H   0  0  0  0  0
  -36.0246   16.1305  -13.8118 H   0  0  0  0  0
  -37.6255   15.7661  -11.4598 H   0  0  0  0  0
  -36.3282   12.0595  -10.7009 H   0  0  0  0  0
  -37.3010   10.6476  -11.7873 H   0  0  0  0  0
  1  2  4  0  0  0
  1  7  4  0  0  0
  1  8  1  0  0  0
  2  3  4  0  0  0
  3  4  4  0  0  0
  4  5  4  0  0  0
  5  7  4  0  0  0
  7  6  1  0  0  0
  6  9  1  0  0  0
  8  9  1  0  0  0
  8 10  1  0  0  0
  9 11  2  0  0  0
  2 12  1  0  0  0
  3 13  1  0  0  0
  4 14  1  0  0  0
  5 15  1  0  0  0
  6 16  1  0  0  0
  8 17  1  0  0  0
 10 18  1  0  0  0
M  END
$$$$
