5ot3_ligand

Created by X-TOOL on Mon Aug  2 16:12:08 2021
 58 61  0  0  0  0  0  0  0  0999 V2000
    9.4830   13.1470    7.5210  C 0  0  0  2  0  3
   10.6890   13.7970    7.3230  C 0  0  0  2  0  3
   11.8350   13.0900    7.1080  C 0  0  0  2  0  3
   11.8150   11.6740    7.0630  C 0  0  0  1  0  3
   10.5820   10.9900    7.2360  C 0  0  0  1  0  3
   10.6020    9.5770    7.1710  C 0  0  0  2  0  3
    9.4210   11.7790    7.5030  C 0  0  0  1  0  3
   12.9700    9.5590    6.8450  N 0  0  0  1  0  2
    8.2340   10.0970    9.0440  O 0  0  0  1  0  1
    2.5360   16.3250    9.5370  O 0  0  0  3  0  3
    7.1620   10.6060    6.8720  O 0  0  0  1  0  1
    7.9010   11.0330    8.0180  S 0  0  0  1  0  4
   11.7890    8.9370    6.9770  C 0  0  0  2  0  3
   12.9720   10.8860    6.8820  C 0  0  0  2  0  3
    7.0230   12.2140    8.7300  N 0  0  0  1  0  3
    6.3930   13.2510    7.8890  C 0  0  0  3  0  4
    5.0230   12.9970    7.6680  C 0  0  0  3  0  4
    4.1140   13.1940    8.7840  N 0  3  0  2  0  4
    4.6940   13.5360   10.0810  C 0  0  0  3  0  4
    5.6350   12.5630   10.7780  C 0  0  0  3  0  4
    7.0370   12.4970   10.1800  C 0  0  0  3  0  4
    2.7290   13.5830    8.4620  C 0  0  0  3  0  4
    2.5780   14.2990    7.1350  C 0  0  0  1  0  3
    2.6850   15.7050    7.0340  C 0  0  0  2  0  4
    2.7510   16.7120    8.2500  B 0  0  0  1  0  3
    3.0020   18.0310    8.0310  O 0  0  0  3  0  3
    2.6540   16.2640    5.7470  C 0  0  0  2  0  3
    2.4920   15.4840    4.6170  C 0  0  0  2  0  3
    2.3420   14.1250    4.7360  C 0  0  0  2  0  3
    2.3800   13.5320    5.9860  C 0  0  0  2  0  3
    8.5817   13.7246    7.6914  H 0  0  0  1  0  1
   10.7228   14.8804    7.3390  H 0  0  0  1  0  1
   12.7720   13.6173    6.9699  H 0  0  0  1  0  1
    9.6838    9.0102    7.2743  H 0  0  0  1  0  1
    3.3027   16.5282   10.0599  H 0  0  0  1  0  1
    3.3027   16.5282   10.0599  H 0  0  0  1  0  1
   11.7783    7.8542    6.9260  H 0  0  0  1  0  1
   13.9214   11.3962    6.7660  H 0  0  0  1  0  1
    6.9089   13.2815    6.9180  H 0  0  0  1  0  1
    6.4965   14.2248    8.3900  H 0  0  0  1  0  1
    4.9299   11.9484    7.3489  H 0  0  0  1  0  1
    4.6927   13.6588    6.8538  H 0  0  0  1  0  1
    3.9300   12.2229    8.9819  H 0  0  0  1  0  1
    3.8530   13.7106   10.7681  H 0  0  0  1  0  1
    5.2536   14.4726    9.9409  H 0  0  0  1  0  1
    5.1912   11.5580   10.7237  H 0  0  0  1  0  1
    5.7252   12.8677   11.8311  H 0  0  0  1  0  1
    7.5366   13.4629   10.3457  H 0  0  0  1  0  1
    7.6000   11.7008   10.6890  H 0  0  0  1  0  1
    2.3640   14.2496    9.2572  H 0  0  0  1  0  1
    2.1123   12.6726    8.4349  H 0  0  0  1  0  1
    2.7870   16.3270    7.9160  H 0  0  0  1  0  1
    3.7831   18.2869    8.5073  H 0  0  0  1  0  1
    3.7831   18.2869    8.5073  H 0  0  0  1  0  1
    2.7600   17.3371    5.6359  H 0  0  0  1  0  1
    2.4835   15.9461    3.6365  H 0  0  0  1  0  1
    2.1938   13.5163    3.8514  H 0  0  0  1  0  1
    2.2545   12.4589    6.0736  H 0  0  0  1  0  1
  1  2  4  0  0  1
  7  1  4  0  0  1
  2  3  4  0  0  1
  4  3  4  0  0  1
  5  4  4  0  0  1
  4 14  4  0  0  1
  5  6  4  0  0  1
  7  5  4  0  0  1
  6 13  4  0  0  1
 12  7  1  0  0  2
 13  8  4  0  0  1
 14  8  4  0  0  1
 12  9  2  0  0  2
 25 10  1  0  0  2
 12 11  2  0  0  2
 15 12  1  0  0  2
 16 15  1  0  0  1
 21 15  1  0  0  1
 17 16  1  0  0  1
 18 17  1  0  0  1
 18 19  1  0  0  1
 22 18  1  0  0  2
 19 20  1  0  0  1
 20 21  1  0  0  1
 23 22  1  0  0  2
 24 23  4  0  0  1
 23 30  4  0  0  1
 24 25  1  0  0  2
 24 27  4  0  0  1
 25 26  1  0  0  2
 27 28  4  0  0  1
 28 29  4  0  0  1
 29 30  4  0  0  1
  1 31  1  0  0  2
  2 32  1  0  0  2
  3 33  1  0  0  2
  6 34  1  0  0  2
 10 35  1  0  0  2
 10 36  1  0  0  2
 13 37  1  0  0  2
 14 38  1  0  0  2
 16 39  1  0  0  2
 16 40  1  0  0  2
 17 41  1  0  0  2
 17 42  1  0  0  2
 18 43  1  0  0  2
 19 44  1  0  0  2
 19 45  1  0  0  2
 20 46  1  0  0  2
 20 47  1  0  0  2
 21 48  1  0  0  2
 21 49  1  0  0  2
 22 50  1  0  0  2
 22 51  1  0  0  2
 24 52  1  0  0  2
 26 53  1  0  0  2
 26 54  1  0  0  2
 27 55  1  0  0  2
 28 56  1  0  0  2
 29 57  1  0  0  2
 30 58  1  0  0  2
M  END
> <MOLECULAR_FORMULA>
C21H28N3O4SB

> <MOLECULAR_WEIGHT>
429.1

> <NUM_HB_ATOMS>
6  

> <NUM_ROTOR>
4  

> <XLOGP2>
1.90 

$$$$
