#	Name:			5ot3_ligand
#	Creating user name:	wangrx
#	Creation time:		Thu Aug  5 17:14:57 2021

#	Modifying user name:	wangrx
#	Modification time:	Thu Aug  5 17:15:27 2021

@<TRIPOS>MOLECULE
5ot3_ligand
   57    60     1     0     0
SMALL
GAST_HUCK


@<TRIPOS>ATOM
      1 C1          9.4830   13.1470    7.5210 C.ar      1 9LQ        -0.0287 
      2 C2         10.6890   13.7970    7.3230 C.ar      1 9LQ        -0.0534 
      3 C3         11.8350   13.0900    7.1080 C.ar      1 9LQ        -0.0451 
      4 C4         11.8150   11.6740    7.0630 C.ar      1 9LQ         0.0110 
      5 C5         10.5820   10.9900    7.2360 C.ar      1 9LQ         0.0243 
      6 C6         10.6020    9.5770    7.1710 C.ar      1 9LQ        -0.0294 
      7 C           9.4210   11.7790    7.5030 C.ar      1 9LQ         0.1236 
      8 N          12.9700    9.5590    6.8450 N.ar      1 9LQ        -0.2974 
      9 O           8.2340   10.0970    9.0440 O.2       1 9LQ        -0.1499 
     10 O2          2.5360   16.3250    9.5370 O.3       1 9LQ        -0.4105 
     11 O3          7.1620   10.6060    6.8720 O.2       1 9LQ        -0.1499 
     12 S           7.9010   11.0330    8.0180 S.o2      1 9LQ         0.0730 
     13 C7         11.7890    8.9370    6.9770 C.ar      1 9LQ         0.0077 
     14 C8         12.9720   10.8860    6.8820 C.ar      1 9LQ         0.0199 
     15 N1          7.0230   12.2140    8.7300 N.am      1 9LQ        -0.2286 
     16 C20         6.3930   13.2510    7.8890 C.3       1 9LQ         0.0696 
     17 C19         5.0230   12.9970    7.6680 C.3       1 9LQ        -0.0131 
     18 N2          4.1140   13.1940    8.7840 N.4       1 9LQ         0.2472 
     19 C11         4.6940   13.5360   10.0810 C.3       1 9LQ        -0.0290 
     20 C10         5.6350   12.5630   10.7780 C.3       1 9LQ         0.0046 
     21 C9          7.0370   12.4970   10.1800 C.3       1 9LQ         0.0347 
     22 C12         2.7290   13.5830    8.4620 C.3       1 9LQ        -0.0167 
     23 C13         2.5780   14.2990    7.1350 C.ar      1 9LQ        -0.1004 
     24 C18         2.6850   15.7050    7.0340 C.ar      1 9LQ        -0.1814 
     25 B           2.7510   16.7120    8.2500 B         1 9LQ         3.0000 
     26 O1          3.0020   18.0310    8.0310 O.3       1 9LQ        -0.4105 
     27 C17         2.6540   16.2640    5.7470 C.ar      1 9LQ        -0.1856 
     28 C16         2.4920   15.4840    4.6170 C.ar      1 9LQ        -0.1687 
     29 C15         2.3420   14.1250    4.7360 C.ar      1 9LQ        -0.1825 
     30 C14         2.3800   13.5320    5.9860 C.ar      1 9LQ        -0.1703 
     31 H1          8.5817   13.7246    7.6914 H         1 9LQ         0.0675 
     32 H2         10.7228   14.8804    7.3390 H         1 9LQ         0.0645 
     33 H3         12.7720   13.6173    6.9699 H         1 9LQ         0.0659 
     34 H4          9.6838    9.0102    7.2743 H         1 9LQ         0.0716 
     35 H5          3.3027   16.5282   10.0599 H         1 9LQ         0.2052 
     36 H6          3.3027   16.5282   10.0599 H         1 9LQ         0.2052 
     37 H7         11.7783    7.8542    6.9260 H         1 9LQ         0.0775 
     38 H8         13.9214   11.3962    6.7660 H         1 9LQ         0.0870 
     39 H9          6.9089   13.2815    6.9180 H         1 9LQ         0.0531 
     40 H10         6.4965   14.2248    8.3900 H         1 9LQ         0.0531 
     41 H11         4.9299   11.9484    7.3489 H         1 9LQ         0.0831 
     42 H12         4.6927   13.6588    6.8538 H         1 9LQ         0.0831 
     43 H13         3.9300   12.2229    8.9819 H         1 9LQ         0.2048 
     44 H14         3.8530   13.7106   10.7681 H         1 9LQ         0.0815 
     45 H15         5.2536   14.4726    9.9409 H         1 9LQ         0.0815 
     46 H16         5.1912   11.5580   10.7237 H         1 9LQ         0.0333 
     47 H17         5.7252   12.8677   11.8311 H         1 9LQ         0.0333 
     48 H18         7.5366   13.4629   10.3457 H         1 9LQ         0.0480 
     49 H19         7.6000   11.7008   10.6890 H         1 9LQ         0.0480 
     50 H20         2.3640   14.2496    9.2572 H         1 9LQ         0.0964 
     51 H21         2.1123   12.6726    8.4349 H         1 9LQ         0.0964 
     52 H23         3.7831   18.2869    8.5073 H         1 9LQ         0.2052 
     53 H24         3.7831   18.2869    8.5073 H         1 9LQ         0.2052 
     54 H25         2.7600   17.3371    5.6359 H         1 9LQ        -0.0149 
     55 H26         2.4835   15.9461    3.6365 H         1 9LQ         0.0333 
     56 H27         2.1938   13.5163    3.8514 H         1 9LQ        -0.0146 
     57 H28         2.2545   12.4589    6.0736 H         1 9LQ        -0.0188 
@<TRIPOS>BOND
     1    1    2 ar   
     2    7    1 ar   
     3    2    3 ar   
     4    4    3 ar   
     5    5    4 ar   
     6    4   14 ar   
     7    5    6 ar   
     8    7    5 ar   
     9    6   13 ar   
    10   12    7 1    
    11   13    8 ar   
    12   14    8 ar   
    13   12    9 2    
    14   25   10 1    
    15   12   11 2    
    16   15   12 am   
    17   16   15 1    
    18   21   15 1    
    19   17   16 1    
    20   18   17 1    
    21   18   19 1    
    22   22   18 1    
    23   19   20 1    
    24   20   21 1    
    25   23   22 1    
    26   24   23 ar   
    27   23   30 ar   
    28   24   25 1    
    29   24   27 ar   
    30   25   26 1    
    31   27   28 ar   
    32   28   29 ar   
    33   29   30 ar   
    34    1   31 1    
    35    2   32 1    
    36    3   33 1    
    37    6   34 1    
    38   10   35 1    
    39   10   36 1    
    40   13   37 1    
    41   14   38 1    
    42   16   39 1    
    43   16   40 1    
    44   17   41 1    
    45   17   42 1    
    46   18   43 1    
    47   19   44 1    
    48   19   45 1    
    49   20   46 1    
    50   20   47 1    
    51   21   48 1    
    52   21   49 1    
    53   22   50 1    
    54   22   51 1    
    55   26   52 1    
    56   26   53 1    
    57   27   54 1    
    58   28   55 1    
    59   29   56 1    
    60   30   57 1    
@<TRIPOS>SUBSTRUCTURE
     1 9LQ         1 PERM              0 ****  ****    0 ROOT 
