4zw6_ligand
  -I-interpret- 

 47 48  0  0  0  0  0  0  0  0999 V2000
   88.6700  120.1170  132.2390 C   0  0  0  0  0
   88.3520  121.4200  132.6170 C   0  0  0  0  0
   87.9110  121.6490  133.9150 C   0  0  0  0  0
   88.5840  119.0560  133.1360 C   0  0  0  0  0
   88.1490  119.2860  134.4330 C   0  0  0  0  0
   87.8010  120.5840  134.8030 C   0  0  0  0  0
   87.3570  120.8640  136.2430 C   0  0  0  0  0
   88.0070  121.7890  137.0650 C   0  0  0  0  0
   86.3230  120.2790  136.9730 C   0  0  0  0  0
   86.3360  120.8630  138.2360 N   0  0  0  0  0
   87.3650  121.7870  138.2900 N   0  0  0  0  0
   87.7420  122.6250  139.4320 C   0  0  0  0  0
   90.7690  117.1390  127.2420 C   0  0  0  0  0
   91.6380  118.2670  127.8760 C   0  0  0  0  0
   91.8370  119.3300  126.8520 C   0  0  0  0  0
   93.0270  117.6670  128.3150 C   0  0  0  0  0
   90.8720  118.7480  129.0300 O   0  0  0  0  0
   91.4010  119.7290  129.9160 C   0  0  0  0  0
   92.4800  120.2870  129.6820 O   0  0  0  0  0
   90.5200  120.3040  130.7560 N   0  0  0  0  0
   89.1630  119.8260  130.8440 C   0  0  0  0  0
   88.2980  120.4540  129.7830 C   0  0  0  0  0
   87.2210  119.9450  129.4630 O   0  0  0  0  0
   88.7130  121.5640  129.1690 N   0  0  0  0  0
   87.8700  122.1490  128.1470 O   0  0  0  0  0
   88.4472  122.2432  131.9089 H   0  0  0  0  0
   87.6526  122.6582  134.2356 H   0  0  0  0  0
   88.8572  118.0490  132.8207 H   0  0  0  0  0
   88.0806  118.4672  135.1492 H   0  0  0  0  0
   88.8655  122.4017  136.7900 H   0  0  0  0  0
   85.6351  119.5102  136.6211 H   0  0  0  0  0
   88.7671  122.3980  139.7249 H   0  0  0  0  0
   87.6673  123.6754  139.1506 H   0  0  0  0  0
   87.0710  122.4226  140.2668 H   0  0  0  0  0
   89.8073  117.5513  126.9365 H   0  0  0  0  0
   91.2837  116.7311  126.3721 H   0  0  0  0  0
   90.6104  116.3486  127.9756 H   0  0  0  0  0
   92.3445  118.9071  125.9850 H   0  0  0  0  0
   90.8681  119.7272  126.5495 H   0  0  0  0  0
   92.4435  120.1309  127.2747 H   0  0  0  0  0
   92.8645  116.8752  129.0463 H   0  0  0  0  0
   93.5370  117.2585  127.4425 H   0  0  0  0  0
   93.6372  118.4536  128.7589 H   0  0  0  0  0
   90.8165  121.0878  131.3375 H   0  0  0  0  0
   89.1172  118.7523  130.6620 H   0  0  0  0  0
   89.6059  121.9916  129.4146 H   0  0  0  0  0
   88.2933  122.9361  127.7965 H   0  0  0  0  0
  1  2  4  0  0  0
  1  4  4  0  0  0
 21  1  1  0  0  0
  2  3  4  0  0  0
  3  6  4  0  0  0
  4  5  4  0  0  0
  5  6  4  0  0  0
  6  7  1  0  0  0
  7  8  4  0  0  0
  7  9  4  0  0  0
  8 11  4  0  0  0
  9 10  4  0  0  0
 10 11  4  0  0  0
 11 12  1  0  0  0
 14 13  1  0  0  0
 14 15  1  0  0  0
 14 16  1  0  0  0
 17 14  1  0  0  0
 18 17  1  0  0  0
 18 19  2  0  0  0
 20 18  1  0  0  0
 20 21  1  0  0  0
 21 22  1  0  0  0
 22 23  2  0  0  0
 22 24  1  0  0  0
 24 25  1  0  0  0
  2 26  1  0  0  0
  3 27  1  0  0  0
  4 28  1  0  0  0
  5 29  1  0  0  0
  8 30  1  0  0  0
  9 31  1  0  0  0
 12 32  1  0  0  0
 12 33  1  0  0  0
 12 34  1  0  0  0
 13 35  1  0  0  0
 13 36  1  0  0  0
 13 37  1  0  0  0
 15 38  1  0  0  0
 15 39  1  0  0  0
 15 40  1  0  0  0
 16 41  1  0  0  0
 16 42  1  0  0  0
 16 43  1  0  0  0
 20 44  1  0  0  0
 21 45  1  0  0  0
 24 46  1  0  0  0
 25 47  1  0  0  0
M  END
$$$$
