6jsz_ligand
  -I-interpret- 

 57 60  0  0  0  0  0  0  0  0999 V2000
   20.3750   -3.9920  -17.5700 C   0  0  0  0  0
   21.1400   -5.1400  -18.3010 C   0  0  0  0  0
   23.6330   -5.4550  -18.1360 C   0  0  0  0  0
   22.2020   -6.1080  -20.4170 C   0  0  0  0  0
   21.3120   -4.9390  -19.8610 C   0  0  0  0  0
   21.9280   -3.5270  -20.1510 C   0  0  0  0  0
   22.2560   -3.2050  -21.6070 C   0  0  0  0  0
   22.4750   -5.0970  -17.6890 N   0  0  0  0  0
   24.7570   -5.3140  -17.3870 N   0  0  0  0  0
   21.0580   -3.1330  -23.9250 O   0  0  0  0  0
   20.0080   -4.7740  -22.1580 C   0  0  0  0  0
   19.8480   -2.1630  -22.0120 O   0  0  0  0  0
   21.5460   -9.8030  -16.5770 N   0  0  0  0  0
   19.9710   -4.9980  -20.6440 C   0  0  0  0  0
   20.4570   -6.4890  -17.9010 C   0  0  0  0  0
   21.2060   -7.5880  -17.4260 C   0  0  0  0  0
   20.6550   -8.8220  -17.0630 C   0  0  0  0  0
   21.3210  -11.1370  -16.3970 C   0  0  0  0  0
   22.4270  -11.9330  -15.8220 C   0  0  0  0  0
   24.5930  -11.9670  -14.9780 C   0  0  0  0  0
   18.1740   -5.7840  -18.4000 F   0  0  0  0  0
   19.0560   -6.7140  -17.9770 C   0  0  0  0  0
   20.7120   -3.1560  -22.5500 S   0  0  0  0  0
   23.8830   -6.1380  -19.7340 S   0  0  0  0  0
   18.4900   -7.9270  -17.6120 C   0  0  0  0  0
   19.2630   -8.9660  -17.1490 C   0  0  0  0  0
   20.2840  -11.7110  -16.6810 O   0  0  0  0  0
   22.3110  -13.3150  -15.5780 C   0  0  0  0  0
   23.3390  -13.9670  -15.0530 N   0  0  0  0  0
   24.4850  -13.3410  -14.7430 C   0  0  0  0  0
   23.5730  -11.3080  -15.4970 N   0  0  0  0  0
   25.5570  -13.9690  -14.2050 O   0  0  0  0  0
   25.5200  -15.3570  -13.8720 C   0  0  0  0  0
   24.9450  -15.5330  -12.6090 F   0  0  0  0  0
   20.3506   -4.1973  -16.4998 H   0  0  0  0  0
   20.8858   -3.0457  -17.7482 H   0  0  0  0  0
   19.3563   -3.9343  -17.9535 H   0  0  0  0  0
   22.2914   -5.9644  -21.4938 H   0  0  0  0  0
   21.7205   -7.0447  -20.1362 H   0  0  0  0  0
   22.8779   -3.4994  -19.6170 H   0  0  0  0  0
   21.1723   -2.8026  -19.8472 H   0  0  0  0  0
   22.9166   -3.9694  -22.0163 H   0  0  0  0  0
   22.7595   -2.2403  -21.6692 H   0  0  0  0  0
   22.4902   -4.7168  -16.7426 H   0  0  0  0  0
   25.6608   -5.5976  -17.7653 H   0  0  0  0  0
   18.9899   -4.8175  -22.5449 H   0  0  0  0  0
   20.6279   -5.5467  -22.6127 H   0  0  0  0  0
   22.4783   -9.4722  -16.3283 H   0  0  0  0  0
   19.3695   -4.1804  -20.2467 H   0  0  0  0  0
   19.6055   -6.0165  -20.5126 H   0  0  0  0  0
   22.2855   -7.4669  -17.3361 H   0  0  0  0  0
   25.5161  -11.4414  -14.7336 H   0  0  0  0  0
   17.4111   -8.0591  -17.6938 H   0  0  0  0  0
   18.7930   -9.9024  -16.8486 H   0  0  0  0  0
   21.3875  -13.8421  -15.8178 H   0  0  0  0  0
   26.5369  -15.7493  -13.8600 H   0  0  0  0  0
   24.9229  -15.8871  -14.6140 H   0  0  0  0  0
  2  1  1  0  0  0
  2  5  1  0  0  0
  2  8  1  0  0  0
 15  2  1  0  0  0
  8  3  1  0  0  0
  3  9  2  0  0  0
  3 24  1  0  0  0
  5  4  1  0  0  0
  4 24  1  0  0  0
  5  6  1  0  0  0
  5 14  1  0  0  0
  6  7  1  0  0  0
  7 23  1  0  0  0
 23 10  2  0  0  0
 14 11  1  0  0  0
 11 23  1  0  0  0
 23 12  2  0  0  0
 13 17  1  0  0  0
 18 13  1  0  0  0
 16 15  4  0  0  0
 15 22  4  0  0  0
 17 16  4  0  0  0
 17 26  4  0  0  0
 19 18  1  0  0  0
 18 27  2  0  0  0
 19 28  4  0  0  0
 31 19  4  0  0  0
 20 30  4  0  0  0
 20 31  4  0  0  0
 22 21  1  0  0  0
 22 25  4  0  0  0
 25 26  4  0  0  0
 28 29  4  0  0  0
 29 30  4  0  0  0
 30 32  1  0  0  0
 32 33  1  0  0  0
 33 34  1  0  0  0
  1 35  1  0  0  0
  1 36  1  0  0  0
  1 37  1  0  0  0
  4 38  1  0  0  0
  4 39  1  0  0  0
  6 40  1  0  0  0
  6 41  1  0  0  0
  7 42  1  0  0  0
  7 43  1  0  0  0
  8 44  1  0  0  0
  9 45  1  0  0  0
 11 46  1  0  0  0
 11 47  1  0  0  0
 13 48  1  0  0  0
 14 49  1  0  0  0
 14 50  1  0  0  0
 16 51  1  0  0  0
 20 52  1  0  0  0
 25 53  1  0  0  0
 26 54  1  0  0  0
 28 55  1  0  0  0
 33 56  1  0  0  0
 33 57  1  0  0  0
M  END
$$$$
