1ngw_ligand
  -I-interpret- 

 82 86  0  0  0  0  0  0  0  0999 V2000
  114.0570   87.1620   59.2440 N   0  0  0  0  0
  114.5750   85.8730   59.1770 C   0  0  0  0  0
  114.9390   85.5560   57.7920 C   0  0  0  0  0
  114.6190   86.6980   57.0170 C   0  0  0  0  0
  114.0760   87.6800   57.9600 C   0  0  0  0  0
  113.6140   88.9960   57.6350 C   0  0  0  0  0
  115.5420   84.2100   57.3110 C   0  0  0  0  0
  114.7830   86.9260   55.4550 C   0  0  0  0  0
  116.0470   86.2640   54.8600 C   0  0  0  0  0
  111.6460   89.1150   59.1450 N   0  0  0  0  0
  112.3420   89.5380   58.0140 C   0  0  0  0  0
  111.4250   90.3010   57.1470 C   0  0  0  0  0
  110.1830   90.3240   57.7740 C   0  0  0  0  0
  110.3340   89.5780   59.0210 C   0  0  0  0  0
  109.3100   89.3320   60.0000 C   0  0  0  0  0
  111.7640   90.9460   55.8050 C   0  0  0  0  0
  108.8820   91.0090   57.2390 C   0  0  0  0  0
  108.7370   92.4010   57.8570 C   0  0  0  0  0
  110.7670   88.0310   61.4710 N   0  0  0  0  0
  109.5320   88.5820   61.1890 C   0  0  0  0  0
  108.7540   88.6710   62.4360 C   0  0  0  0  0
  109.5600   88.1630   63.4630 C   0  0  0  0  0
  110.8240   87.7660   62.8180 C   0  0  0  0  0
  112.0330   87.4330   63.4590 C   0  0  0  0  0
  107.3050   89.2260   62.5910 C   0  0  0  0  0
  109.1800   88.0370   65.0080 C   0  0  0  0  0
  109.4120   89.3490   65.8540 C   0  0  0  0  0
  109.4020   89.0870   67.3840 C   0  0  0  0  0
  108.5930   88.1090   67.9230 O   0  0  0  0  0
  110.2010   89.8370   68.2180 O   0  0  0  0  0
  113.7150   86.5700   61.9020 N   0  0  0  0  0
  112.8280   86.3940   62.9470 C   0  0  0  0  0
  112.8400   85.0020   63.4050 C   0  0  0  0  0
  113.7730   84.3460   62.5870 C   0  0  0  0  0
  114.3070   85.3440   61.6410 C   0  0  0  0  0
  114.7130   85.0050   60.3170 C   0  0  0  0  0
  114.1610   82.8350   62.6570 C   0  0  0  0  0
  111.9670   84.3580   64.5860 C   0  0  0  0  0
  112.3640   84.7580   66.0710 C   0  0  0  0  0
  111.4630   84.0970   67.1680 C   0  0  0  0  0
  110.6400   83.0320   66.8550 O   0  0  0  0  0
  111.4770   84.5750   68.4650 O   0  0  0  0  0
  113.5337   88.9524   56.5488 H   0  0  0  0  0
  114.3097   89.6291   58.1857 H   0  0  0  0  0
  116.4876   84.0332   57.8236 H   0  0  0  0  0
  114.8477   83.4008   57.5373 H   0  0  0  0  0
  115.7129   84.2537   56.2354 H   0  0  0  0  0
  114.8688   87.9999   55.2895 H   0  0  0  0  0
  113.9186   86.4754   54.9672 H   0  0  0  0  0
  116.9330   86.6755   55.3436 H   0  0  0  0  0
  116.0059   85.1880   55.0291 H   0  0  0  0  0
  116.0902   86.4634   53.7893 H   0  0  0  0  0
  108.5894   88.7222   59.4550 H   0  0  0  0  0
  109.0843   90.3297   60.3765 H   0  0  0  0  0
  112.5569   91.6805   55.9463 H   0  0  0  0  0
  112.0988   90.1775   55.1082 H   0  0  0  0  0
  110.8774   91.4388   55.4059 H   0  0  0  0  0
  108.0179   90.4026   57.5104 H   0  0  0  0  0
  108.9431   91.1009   56.1546 H   0  0  0  0  0
  108.6777   92.3112   58.9417 H   0  0  0  0  0
  109.6013   93.0083   57.5882 H   0  0  0  0  0
  107.8291   92.8718   57.4799 H   0  0  0  0  0
  111.7340   87.0887   64.4490 H   0  0  0  0  0
  112.6509   88.3257   63.3623 H   0  0  0  0  0
  107.2796   90.2670   62.2688 H   0  0  0  0  0
  106.6241   88.6373   61.9762 H   0  0  0  0  0
  107.0020   89.1602   63.6360 H   0  0  0  0  0
  109.8261   87.2681   65.4317 H   0  0  0  0  0
  108.1142   87.8137   65.0552 H   0  0  0  0  0
  108.5999   90.0401   65.6281 H   0  0  0  0  0
  110.3913   89.7480   65.5898 H   0  0  0  0  0
  108.1018   87.6781   67.2197 H   0  0  0  0  0
  115.7947   84.9143   60.4165 H   0  0  0  0  0
  114.0462   84.1793   60.0685 H   0  0  0  0  0
  114.5666   82.6107   63.6435 H   0  0  0  0  0
  113.2751   82.2251   62.4797 H   0  0  0  0  0
  114.9111   82.6182   61.8965 H   0  0  0  0  0
  112.1178   83.2807   64.5160 H   0  0  0  0  0
  110.9504   84.7230   64.4396 H   0  0  0  0  0
  112.2433   85.8377   66.1594 H   0  0  0  0  0
  113.3843   84.4129   66.2381 H   0  0  0  0  0
  112.0918   85.3096   68.5275 H   0  0  0  0  0
  1  2  4  0  0  0
  1  5  4  0  0  0
  2  3  4  0  0  0
  2 36  1  0  0  0
  3  4  4  0  0  0
  3  7  1  0  0  0
  4  5  4  0  0  0
  4  8  1  0  0  0
  5  6  1  0  0  0
  6 11  1  0  0  0
  8  9  1  0  0  0
 11 10  4  0  0  0
 10 14  4  0  0  0
 11 12  4  0  0  0
 12 13  4  0  0  0
 12 16  1  0  0  0
 13 14  4  0  0  0
 13 17  1  0  0  0
 14 15  1  0  0  0
 15 20  1  0  0  0
 17 18  1  0  0  0
 20 19  4  0  0  0
 19 23  4  0  0  0
 20 21  4  0  0  0
 21 22  4  0  0  0
 21 25  1  0  0  0
 22 23  4  0  0  0
 22 26  1  0  0  0
 23 24  1  0  0  0
 24 32  1  0  0  0
 26 27  1  0  0  0
 27 28  1  0  0  0
 28 29  1  0  0  0
 28 30  2  0  0  0
 32 31  4  0  0  0
 31 35  4  0  0  0
 32 33  4  0  0  0
 33 34  4  0  0  0
 33 38  1  0  0  0
 34 35  4  0  0  0
 34 37  1  0  0  0
 35 36  1  0  0  0
 38 39  1  0  0  0
 39 40  1  0  0  0
 40 41  2  0  0  0
 40 42  1  0  0  0
  6 43  1  0  0  0
  6 44  1  0  0  0
  7 45  1  0  0  0
  7 46  1  0  0  0
  7 47  1  0  0  0
  8 48  1  0  0  0
  8 49  1  0  0  0
  9 50  1  0  0  0
  9 51  1  0  0  0
  9 52  1  0  0  0
 15 53  1  0  0  0
 15 54  1  0  0  0
 16 55  1  0  0  0
 16 56  1  0  0  0
 16 57  1  0  0  0
 17 58  1  0  0  0
 17 59  1  0  0  0
 18 60  1  0  0  0
 18 61  1  0  0  0
 18 62  1  0  0  0
 24 63  1  0  0  0
 24 64  1  0  0  0
 25 65  1  0  0  0
 25 66  1  0  0  0
 25 67  1  0  0  0
 26 68  1  0  0  0
 26 69  1  0  0  0
 27 70  1  0  0  0
 27 71  1  0  0  0
 29 72  1  0  0  0
 36 73  1  0  0  0
 36 74  1  0  0  0
 37 75  1  0  0  0
 37 76  1  0  0  0
 37 77  1  0  0  0
 38 78  1  0  0  0
 38 79  1  0  0  0
 39 80  1  0  0  0
 39 81  1  0  0  0
 42 82  1  0  0  0
M  END
$$$$
