1rzx_ligand
  -I-interpret- 

108107  0  0  0  0  0  0  0  0999 V2000
    5.3050   29.5130   -2.9530 C   0  0  0  0  0
    5.3300   28.3070   -2.6930 O   0  0  0  0  0
    3.9920   30.2180   -3.2980 C   0  0  0  0  0
    6.2120   30.3680   -2.4950 N   0  0  0  0  0
    7.6390   30.1140   -2.6460 C   0  0  0  0  0
    8.0850   28.9530   -1.7580 C   0  0  0  0  0
    7.6490   28.8270   -0.6130 O   0  0  0  0  0
    8.4680   31.3620   -2.2720 C   0  0  0  0  0
    9.9390   31.1240   -2.5780 C   0  0  0  0  0
    7.9510   32.5740   -3.0300 C   0  0  0  0  0
    8.9490   28.1020   -2.2990 N   0  0  0  0  0
    9.4740   26.9650   -1.5540 C   0  0  0  0  0
   10.8350   27.3530   -0.9930 C   0  0  0  0  0
   11.7440   27.6830   -1.7450 O   0  0  0  0  0
    9.6270   25.7510   -2.4720 C   0  0  0  0  0
   10.3300   24.5540   -1.8310 C   0  0  0  0  0
    9.4640   23.8770   -0.7810 C   0  0  0  0  0
   10.1440   22.6210   -0.2350 C   0  0  0  0  0
    9.2250   21.8070    0.6190 N   0  3  0  0  0
   10.9730   27.3310    0.3260 N   0  0  0  0  0
   12.2440   27.6720    0.9480 C   0  0  0  0  0
   12.6900   26.5640    1.8850 C   0  0  0  0  0
   11.8740   25.7900    2.3780 O   0  0  0  0  0
   12.1480   29.0210    1.6760 C   0  0  0  0  0
   11.1800   29.0680    2.8310 C   0  0  0  0  0
   10.6130   30.4640    3.0470 C   0  0  0  0  0
   11.3700   31.4520    2.9340 O   0  0  0  0  0
    9.4040   30.5760    3.3410 O   0  0  0  0  0
   13.9970   26.4950    2.1120 N   0  0  0  0  0
   14.5950   25.4650    2.9520 C   0  0  0  0  0
   15.4590   26.0790    4.0500 C   0  0  0  0  0
   16.3550   26.8790    3.7670 O   0  0  0  0  0
   15.4320   24.5270    2.0680 C   0  0  0  0  0
   16.2600   23.6750    2.8390 O   0  0  0  0  0
   15.1700   25.7130    5.2980 N   0  0  0  0  0
   15.8990   26.2370    6.4490 C   0  0  0  0  0
   17.2520   25.5460    6.6440 C   0  0  0  0  0
   17.3830   24.3310    6.4900 O   0  0  0  0  0
   15.0740   26.0420    7.7190 C   0  0  0  0  0
   15.7440   26.3650    9.0590 C   0  0  0  0  0
   15.9820   27.8690    9.1410 C   0  0  0  0  0
   14.8580   25.9090   10.2250 C   0  0  0  0  0
   18.2560   26.3370    6.9810 N   0  0  0  0  0
   19.5830   25.8070    7.2520 C   0  0  0  0  0
   20.0380   26.4630    8.5580 C   0  0  0  0  0
   19.5840   27.6060    8.7990 O   0  0  0  0  0
   20.5660   26.1330    6.1000 C   0  0  0  0  0
   20.0870   25.4590    4.8120 C   0  0  0  0  0
   20.6840   27.6230    5.8920 C   0  0  0  0  0
   20.8150   25.8400    9.3220 O   0  0  0  0  0
    3.5562   29.7579   -4.1848 H   0  0  0  0  0
    3.2999   30.1242   -2.4611 H   0  0  0  0  0
    4.1876   31.2724   -3.4930 H   0  0  0  0  0
    5.9034   31.2205   -2.0277 H   0  0  0  0  0
    7.8090   29.8624   -3.6929 H   0  0  0  0  0
    8.3659   31.5518   -1.2035 H   0  0  0  0  0
   10.0631   30.9511   -3.6470 H   0  0  0  0  0
   10.5168   31.9991   -2.2807 H   0  0  0  0  0
   10.2874   30.2519   -2.0247 H   0  0  0  0  0
    8.5201   33.4555   -2.7347 H   0  0  0  0  0
    8.0663   32.4075   -4.1010 H   0  0  0  0  0
    6.8972   32.7250   -2.7959 H   0  0  0  0  0
    9.2532   28.2481   -3.2616 H   0  0  0  0  0
    8.7873   26.7033   -0.7490 H   0  0  0  0  0
   10.2401   26.0656   -3.3165 H   0  0  0  0  0
    8.6218   25.4246   -2.7386 H   0  0  0  0  0
   11.2366   24.9131   -1.3439 H   0  0  0  0  0
   10.5455   23.8270   -2.6141 H   0  0  0  0  0
    8.5180   23.5904   -1.2404 H   0  0  0  0  0
    9.3043   24.5735    0.0421 H   0  0  0  0  0
   10.9897   22.9325    0.3781 H   0  0  0  0  0
   10.4529   22.0074   -1.0813 H   0  0  0  0  0
    9.7201   20.9827    0.9594 H   0  0  0  0  0
    8.9124   22.3685    1.4111 H   0  0  0  0  0
    8.4180   21.5165    0.0670 H   0  0  0  0  0
   10.1789   27.0720    0.9115 H   0  0  0  0  0
   12.9984   27.7729    0.1678 H   0  0  0  0  0
   11.7917   29.7446    0.9428 H   0  0  0  0  0
   13.1360   29.2208    2.0908 H   0  0  0  0  0
   11.7145   28.7748    3.7345 H   0  0  0  0  0
   10.3517   28.3956    2.6078 H   0  0  0  0  0
   12.2529   31.1527    2.7047 H   0  0  0  0  0
   14.6063   27.1905    1.6813 H   0  0  0  0  0
   13.8016   24.9001    3.4414 H   0  0  0  0  0
   16.0701   25.1378    1.4294 H   0  0  0  0  0
   14.7503   23.9066    1.4862 H   0  0  0  0  0
   16.7654   23.1063    2.2536 H   0  0  0  0  0
   14.4150   25.0451    5.4542 H   0  0  0  0  0
   16.0755   27.2953    6.2566 H   0  0  0  0  0
   14.8434   24.9773    7.7569 H   0  0  0  0  0
   14.2392   26.7377    7.6347 H   0  0  0  0  0
   16.6945   25.8357    9.1258 H   0  0  0  0  0
   16.6291   28.1784    8.3203 H   0  0  0  0  0
   15.0278   28.3910    9.0697 H   0  0  0  0  0
   16.4587   28.1088   10.0915 H   0  0  0  0  0
   13.8990   26.4245   10.1741 H   0  0  0  0  0
   14.6975   24.8329   10.1585 H   0  0  0  0  0
   15.3501   26.1466   11.1681 H   0  0  0  0  0
   18.0965   27.3419    7.0526 H   0  0  0  0  0
   19.5620   24.7204    7.3351 H   0  0  0  0  0
   21.5515   25.7515    6.3672 H   0  0  0  0  0
   20.0472   24.3800    4.9612 H   0  0  0  0  0
   19.0937   25.8288    4.5576 H   0  0  0  0  0
   20.7802   25.6899    4.0031 H   0  0  0  0  0
   19.7051   28.0323    5.6423 H   0  0  0  0  0
   21.0512   28.0883    6.8067 H   0  0  0  0  0
   21.3806   27.8208    5.0773 H   0  0  0  0  0
   21.0295   24.9887    8.9335 H   0  0  0  0  0
  1  2  2  0  0  0
  1  3  1  0  0  0
  1  4  1  0  0  0
  4  5  1  0  0  0
  5  6  1  0  0  0
  5  8  1  0  0  0
  6  7  2  0  0  0
  6 11  1  0  0  0
  8  9  1  0  0  0
  8 10  1  0  0  0
 11 12  1  0  0  0
 12 13  1  0  0  0
 12 15  1  0  0  0
 13 14  2  0  0  0
 13 20  1  0  0  0
 15 16  1  0  0  0
 16 17  1  0  0  0
 17 18  1  0  0  0
 18 19  1  0  0  0
 20 21  1  0  0  0
 21 22  1  0  0  0
 21 24  1  0  0  0
 22 23  2  0  0  0
 22 29  1  0  0  0
 24 25  1  0  0  0
 25 26  1  0  0  0
 26 27  1  0  0  0
 26 28  2  0  0  0
 29 30  1  0  0  0
 30 31  1  0  0  0
 30 33  1  0  0  0
 31 32  2  0  0  0
 31 35  1  0  0  0
 33 34  1  0  0  0
 35 36  1  0  0  0
 36 37  1  0  0  0
 36 39  1  0  0  0
 37 38  2  0  0  0
 37 43  1  0  0  0
 39 40  1  0  0  0
 40 41  1  0  0  0
 40 42  1  0  0  0
 43 44  1  0  0  0
 44 45  1  0  0  0
 44 47  1  0  0  0
 45 46  2  0  0  0
 45 50  1  0  0  0
 47 48  1  0  0  0
 47 49  1  0  0  0
  3 51  1  0  0  0
  3 52  1  0  0  0
  3 53  1  0  0  0
  4 54  1  0  0  0
  5 55  1  0  0  0
  8 56  1  0  0  0
  9 57  1  0  0  0
  9 58  1  0  0  0
  9 59  1  0  0  0
 10 60  1  0  0  0
 10 61  1  0  0  0
 10 62  1  0  0  0
 11 63  1  0  0  0
 12 64  1  0  0  0
 15 65  1  0  0  0
 15 66  1  0  0  0
 16 67  1  0  0  0
 16 68  1  0  0  0
 17 69  1  0  0  0
 17 70  1  0  0  0
 18 71  1  0  0  0
 18 72  1  0  0  0
 19 73  1  0  0  0
 19 74  1  0  0  0
 19 75  1  0  0  0
 20 76  1  0  0  0
 21 77  1  0  0  0
 24 78  1  0  0  0
 24 79  1  0  0  0
 25 80  1  0  0  0
 25 81  1  0  0  0
 27 82  1  0  0  0
 29 83  1  0  0  0
 30 84  1  0  0  0
 33 85  1  0  0  0
 33 86  1  0  0  0
 34 87  1  0  0  0
 35 88  1  0  0  0
 36 89  1  0  0  0
 39 90  1  0  0  0
 39 91  1  0  0  0
 40 92  1  0  0  0
 41 93  1  0  0  0
 41 94  1  0  0  0
 41 95  1  0  0  0
 42 96  1  0  0  0
 42 97  1  0  0  0
 42 98  1  0  0  0
 43 99  1  0  0  0
 44100  1  0  0  0
 47101  1  0  0  0
 48102  1  0  0  0
 48103  1  0  0  0
 48104  1  0  0  0
 49105  1  0  0  0
 49106  1  0  0  0
 49107  1  0  0  0
 50108  1  0  0  0
M  END
$$$$
