4wk2_ligand
  -I-interpret- 

 79 79  0  0  0  0  0  0  0  0999 V2000
   27.6620   13.2040  -19.5390 N   0  3  0  0  0
   26.8670   13.4450  -20.7290 C   0  0  0  0  0
   25.9270   12.2930  -21.0290 C   0  0  0  0  0
   26.1230   11.5580  -21.9980 O   0  0  0  0  0
   24.9040   12.1400  -20.1920 N   0  0  0  0  0
   23.9260   11.0690  -20.3440 C   0  0  0  0  0
   22.6160   11.6210  -20.8950 C   0  0  0  0  0
   22.2470   12.7630  -20.6150 O   0  0  0  0  0
   23.6920   10.3690  -19.0050 C   0  0  0  0  0
   24.9800    9.9970  -18.2860 C   0  0  0  0  0
   24.7280    9.1240  -17.0690 C   0  0  0  0  0
   24.2510    7.7940  -17.4340 N   0  0  0  0  0
   24.1810    6.7650  -16.5950 C   0  0  0  0  0
   24.5650    6.9030  -15.3320 N   0  0  0  0  0
   23.7320    5.5930  -17.0200 N   0  0  0  0  0
   21.9160   10.8060  -21.6780 N   0  0  0  0  0
   20.7030   11.2460  -22.3390 C   0  0  0  0  0
   21.0170   12.3290  -23.3510 C   0  0  0  0  0
   22.1310   12.3930  -23.8730 O   0  0  0  0  0
   20.0390   13.1840  -23.6300 N   0  0  0  0  0
   20.2330   14.2870  -24.5630 C   0  0  0  0  0
   20.8730   15.4800  -23.8630 C   0  0  0  0  0
   20.1830   16.4000  -23.4230 O   0  0  0  0  0
   18.9030   14.7000  -25.1940 C   0  0  0  0  0
   19.0580   15.8340  -26.1840 C   0  0  0  0  0
   20.1440   15.9520  -26.7870 O   0  0  0  0  0
   18.0940   16.6070  -26.3630 O   0  0  0  0  0
   22.1970   15.4520  -23.7600 N   0  0  0  0  0
   22.9440   16.5400  -23.1450 C   0  0  0  0  0
   24.3430   16.6190  -23.7470 C   0  0  0  0  0
   24.8440   15.6280  -24.2780 O   0  0  0  0  0
   23.0300   16.3470  -21.6300 C   0  0  0  0  0
   23.8420   15.2330  -21.3050 O   0  0  0  0  0
   24.9810   17.8000  -23.6700 N   0  0  0  0  0
   26.3300   17.9320  -24.2300 C   0  0  0  0  0
   27.3500   17.0720  -23.4870 C   0  0  0  0  0
   27.3010   16.9460  -22.2630 O   0  0  0  0  0
   26.6440   19.4250  -24.0550 C   0  0  0  0  0
   25.3270   20.0840  -23.8220 C   0  0  0  0  0
   24.4950   19.0730  -23.1120 C   0  0  0  0  0
   28.2460   16.4830  -24.0930 O   0  0  0  0  0
   28.2774   14.0009  -19.3755 H   0  0  0  0  0
   27.0433   13.0806  -18.7375 H   0  0  0  0  0
   28.2221   12.3617  -19.6706 H   0  0  0  0  0
   27.5456   13.5595  -21.5742 H   0  0  0  0  0
   26.2668   14.3394  -20.5619 H   0  0  0  0  0
   24.8002   12.7948  -19.4169 H   0  0  0  0  0
   24.3170   10.3382  -21.0519 H   0  0  0  0  0
   23.1494    9.4455  -19.2069 H   0  0  0  0  0
   23.1449   11.0600  -18.3637 H   0  0  0  0  0
   25.4578   10.9171  -17.9495 H   0  0  0  0  0
   25.6059    9.4369  -18.9807 H   0  0  0  0  0
   23.9618    9.6039  -16.4602 H   0  0  0  0  0
   25.6697    9.0110  -16.5318 H   0  0  0  0  0
   23.9512    7.6438  -18.3973 H   0  0  0  0  0
   24.5137    6.1091  -14.6937 H   0  0  0  0  0
   24.9114    7.8030  -14.9997 H   0  0  0  0  0
   23.4401    5.4803  -17.9908 H   0  0  0  0  0
   22.2399    9.8488  -21.8170 H   0  0  0  0  0
   20.0165   11.6455  -21.5925 H   0  0  0  0  0
   20.2517   10.3982  -22.8544 H   0  0  0  0  0
   19.1310   13.0657  -23.1807 H   0  0  0  0  0
   20.9032   13.9465  -25.3523 H   0  0  0  0  0
   18.2430   15.0388  -24.3955 H   0  0  0  0  0
   18.5032   13.8388  -25.7293 H   0  0  0  0  0
   17.3619   16.3387  -25.8029 H   0  0  0  0  0
   22.7050   14.6451  -24.1222 H   0  0  0  0  0
   22.4199   17.4751  -23.3422 H   0  0  0  0  0
   22.0263   16.1728  -21.2423 H   0  0  0  0  0
   23.4701   17.2410  -21.1882 H   0  0  0  0  0
   23.8798   15.1335  -20.3509 H   0  0  0  0  0
   26.3800   17.5956  -25.2656 H   0  0  0  0  0
   27.1454   19.8334  -24.9325 H   0  0  0  0  0
   27.3283   19.5946  -23.2237 H   0  0  0  0  0
   24.8647   20.3942  -24.7591 H   0  0  0  0  0
   25.4354   20.9955  -23.2341 H   0  0  0  0  0
   24.5955   19.1268  -22.0280 H   0  0  0  0  0
   23.4259   19.2217  -23.2634 H   0  0  0  0  0
   28.1689   16.6654  -25.0324 H   0  0  0  0  0
  1  2  1  0  0  0
  2  3  1  0  0  0
  3  4  2  0  0  0
  3  5  1  0  0  0
  5  6  1  0  0  0
  6  7  1  0  0  0
  6  9  1  0  0  0
  7  8  2  0  0  0
  7 16  1  0  0  0
  9 10  1  0  0  0
 10 11  1  0  0  0
 11 12  1  0  0  0
 12 13  1  0  0  0
 13 14  1  0  0  0
 13 15  2  0  0  0
 16 17  1  0  0  0
 17 18  1  0  0  0
 18 19  2  0  0  0
 18 20  1  0  0  0
 20 21  1  0  0  0
 21 22  1  0  0  0
 21 24  1  0  0  0
 22 23  2  0  0  0
 22 28  1  0  0  0
 24 25  1  0  0  0
 25 26  2  0  0  0
 25 27  1  0  0  0
 28 29  1  0  0  0
 29 30  1  0  0  0
 29 32  1  0  0  0
 30 31  2  0  0  0
 30 34  1  0  0  0
 32 33  1  0  0  0
 34 35  1  0  0  0
 34 40  1  0  0  0
 35 36  1  0  0  0
 35 38  1  0  0  0
 36 37  2  0  0  0
 36 41  1  0  0  0
 38 39  1  0  0  0
 39 40  1  0  0  0
  1 42  1  0  0  0
  1 43  1  0  0  0
  1 44  1  0  0  0
  2 45  1  0  0  0
  2 46  1  0  0  0
  5 47  1  0  0  0
  6 48  1  0  0  0
  9 49  1  0  0  0
  9 50  1  0  0  0
 10 51  1  0  0  0
 10 52  1  0  0  0
 11 53  1  0  0  0
 11 54  1  0  0  0
 12 55  1  0  0  0
 14 56  1  0  0  0
 14 57  1  0  0  0
 15 58  1  0  0  0
 16 59  1  0  0  0
 17 60  1  0  0  0
 17 61  1  0  0  0
 20 62  1  0  0  0
 21 63  1  0  0  0
 24 64  1  0  0  0
 24 65  1  0  0  0
 27 66  1  0  0  0
 28 67  1  0  0  0
 29 68  1  0  0  0
 32 69  1  0  0  0
 32 70  1  0  0  0
 33 71  1  0  0  0
 35 72  1  0  0  0
 38 73  1  0  0  0
 38 74  1  0  0  0
 39 75  1  0  0  0
 39 76  1  0  0  0
 40 77  1  0  0  0
 40 78  1  0  0  0
 41 79  1  0  0  0
M  END
$$$$
