5igm_ligand
  -I-interpret- 

 48 50  0  0  0  0  0  0  0  0999 V2000
   61.9130   -4.0930   25.5870 C   0  0  0  0  0
   59.7230   -3.2590   25.2020 N   0  0  0  0  0
   58.6260   -5.7910   25.5220 C   0  0  0  0  0
   58.5550   -8.1630   25.9280 C   0  0  0  0  0
   57.3410  -11.5750   26.3330 C   0  0  0  0  0
   60.0050   -5.5900   25.6710 C   0  0  0  0  0
   57.6490   -1.1580   24.5460 C   0  0  0  0  0
   64.2120   -4.6730   26.0830 C   0  0  0  0  0
   66.0370   -3.2300   25.4520 C   0  0  0  0  0
   64.6600   -3.4990   25.4670 C   0  0  0  0  0
   63.7220   -2.6340   24.9020 C   0  0  0  0  0
   64.1300   -1.4980   24.3200 N   0  0  0  0  0
   64.1800   -1.4340   22.6640 S   0  0  0  0  0
   62.6510   -1.8910   21.8650 C   0  0  0  0  0
   64.5340   -0.0080   22.2100 O   0  0  0  0  0
   65.2130   -2.4780   22.2450 O   0  0  0  0  0
   62.3700   -2.9440   24.9370 C   0  0  0  0  0
   60.5300   -4.3110   25.5180 C   0  0  0  0  0
   58.4140   -3.5230   25.1010 N   0  0  0  0  0
   57.8570   -4.7240   25.2440 C   0  0  0  0  0
   57.9680   -6.9580   25.6810 N   0  0  0  0  0
   57.7420   -9.2150   26.1700 O   0  0  0  0  0
   58.3660  -10.4560   26.5150 C   0  0  0  0  0
   59.7800   -8.3290   25.9890 O   0  0  0  0  0
   56.5420   -4.5900   25.0150 N   0  0  0  0  0
   56.2980   -3.3090   24.7430 N   0  0  0  0  0
   57.4540   -2.6540   24.7930 C   0  0  0  0  0
   62.8460   -4.9860   26.1310 C   0  0  0  0  0
   56.4859  -11.3921   26.9838 H   0  0  0  0  0
   57.0106  -11.5979   25.2945 H   0  0  0  0  0
   57.7981  -12.5302   26.5913 H   0  0  0  0  0
   60.6606   -6.4288   25.9048 H   0  0  0  0  0
   58.0665   -0.6948   25.4400 H   0  0  0  0  0
   58.3320   -1.0153   23.7086 H   0  0  0  0  0
   56.6870   -0.7009   24.3139 H   0  0  0  0  0
   64.9352   -5.3538   26.5319 H   0  0  0  0  0
   66.4040   -3.1633   26.4762 H   0  0  0  0  0
   66.5571   -4.0331   24.9298 H   0  0  0  0  0
   66.2158   -2.2854   24.9384 H   0  0  0  0  0
   64.4032   -0.6920   24.8823 H   0  0  0  0  0
   61.8668   -1.1928   22.1577 H   0  0  0  0  0
   62.7836   -1.8579   20.7836 H   0  0  0  0  0
   62.3721   -2.9004   22.1674 H   0  0  0  0  0
   61.6542   -2.2815   24.4503 H   0  0  0  0  0
   56.9506   -6.9368   25.6108 H   0  0  0  0  0
   59.2294  -10.6316   25.8733 H   0  0  0  0  0
   58.7089  -10.4274   27.5493 H   0  0  0  0  0
   62.5122   -5.9174   26.5883 H   0  0  0  0  0
  1 17  4  0  0  0
 18  1  1  0  0  0
  1 28  4  0  0  0
 18  2  4  0  0  0
 19  2  4  0  0  0
  3  6  4  0  0  0
  3 20  4  0  0  0
 21  3  1  0  0  0
  4 21  1  0  0  0
 22  4  1  0  0  0
  4 24  2  0  0  0
 23  5  1  0  0  0
  6 18  4  0  0  0
 27  7  1  0  0  0
  8 10  4  0  0  0
 28  8  4  0  0  0
 10  9  1  0  0  0
 11 10  4  0  0  0
 11 12  1  0  0  0
 17 11  4  0  0  0
 12 13  1  0  0  0
 13 14  1  0  0  0
 13 15  2  0  0  0
 13 16  2  0  0  0
 20 19  4  0  0  0
 19 27  4  0  0  0
 20 25  4  0  0  0
 22 23  1  0  0  0
 25 26  4  0  0  0
 26 27  4  0  0  0
  5 29  1  0  0  0
  5 30  1  0  0  0
  5 31  1  0  0  0
  6 32  1  0  0  0
  7 33  1  0  0  0
  7 34  1  0  0  0
  7 35  1  0  0  0
  8 36  1  0  0  0
  9 37  1  0  0  0
  9 38  1  0  0  0
  9 39  1  0  0  0
 12 40  1  0  0  0
 14 41  1  0  0  0
 14 42  1  0  0  0
 14 43  1  0  0  0
 17 44  1  0  0  0
 21 45  1  0  0  0
 23 46  1  0  0  0
 23 47  1  0  0  0
 28 48  1  0  0  0
M  END
$$$$
