4lk7_ligand
  -I-interpret- 

 46 49  0  0  0  0  0  0  0  0999 V2000
   18.2890   22.1740   35.1890 O   0  0  0  0  0
   16.9260   17.5360   35.1840 O   0  0  0  0  0
   14.9430   18.0740   37.0510 N   0  0  0  0  0
   15.6150   12.8500   35.1010 O   0  0  0  0  0
   15.6290   20.4470   37.0610 C   0  0  0  0  0
   16.4680   21.4650   36.5920 C   0  0  0  0  0
   17.4620   21.1700   35.6480 C   0  0  0  0  0
   17.6150   19.8610   35.1770 C   0  0  0  0  0
   16.7580   18.8180   35.6560 C   0  0  0  0  0
   15.7890   19.1120   36.5810 C   0  0  0  0  0
   15.1290   16.7540   36.5460 C   0  0  0  0  0
   16.1160   16.5140   35.6280 C   0  0  0  0  0
   16.3110   15.1860   35.1140 C   0  0  0  0  0
   15.4820   14.1480   35.5700 C   0  0  0  0  0
   14.4740   14.3990   36.5120 C   0  0  0  0  0
   14.2890   15.6940   37.0070 C   0  0  0  0  0
   16.8220   12.5730   34.5680 C   0  0  0  0  0
   16.9710   11.0890   34.5930 C   0  0  0  0  0
   18.1520   10.6430   33.9200 C   0  0  0  0  0
   18.2460   11.1600   32.5490 C   0  0  0  0  0
   18.0570   12.6640   32.5230 C   0  0  0  0  0
   18.0120   13.1720   31.1160 C   0  0  0  0  0
   16.9840   10.6580   35.9750 O   0  0  0  0  0
   18.1680    9.1820   33.9120 O   0  0  0  0  0
   17.2610   10.5520   31.7480 O   0  0  0  0  0
   16.8730   13.0570   33.1710 O   0  0  0  0  0
   17.9220   14.5460   30.9910 O   0  0  0  0  0
   18.9093   21.8103   34.5530 H   0  0  0  0  0
   14.2147   18.2690   37.7380 H   0  0  0  0  0
   14.8536   20.6737   37.7927 H   0  0  0  0  0
   16.3488   22.4842   36.9597 H   0  0  0  0  0
   18.3887   19.6345   34.4434 H   0  0  0  0  0
   17.0919   14.9871   34.3800 H   0  0  0  0  0
   13.8356   13.5861   36.8580 H   0  0  0  0  0
   13.5080   15.8936   37.7407 H   0  0  0  0  0
   17.6216   13.0587   35.1273 H   0  0  0  0  0
   16.1301   10.6478   34.0579 H   0  0  0  0  0
   19.0163   11.0300   34.4598 H   0  0  0  0  0
   19.2378   10.9278   32.1610 H   0  0  0  0  0
   18.9105   13.0899   33.0505 H   0  0  0  0  0
   17.1132   12.7560   30.6608 H   0  0  0  0  0
   18.9490   12.8748   30.6450 H   0  0  0  0  0
   17.0794    9.7034   36.0104 H   0  0  0  0  0
   18.9581    8.8742   33.4618 H   0  0  0  0  0
   17.3242   10.8914   30.8522 H   0  0  0  0  0
   17.8988   14.7807   30.0604 H   0  0  0  0  0
  7  1  1  0  0  0
  2  9  1  0  0  0
 12  2  1  0  0  0
  3 10  1  0  0  0
 11  3  1  0  0  0
 14  4  1  0  0  0
  4 17  1  0  0  0
  5  6  4  0  0  0
 10  5  4  0  0  0
  7  6  4  0  0  0
  8  7  4  0  0  0
  9  8  4  0  0  0
  9 10  4  0  0  0
 12 11  4  0  0  0
 11 16  4  0  0  0
 13 12  4  0  0  0
 13 14  4  0  0  0
 14 15  4  0  0  0
 15 16  4  0  0  0
 17 18  1  0  0  0
 17 26  1  0  0  0
 18 19  1  0  0  0
 18 23  1  0  0  0
 19 20  1  0  0  0
 19 24  1  0  0  0
 20 21  1  0  0  0
 20 25  1  0  0  0
 21 22  1  0  0  0
 21 26  1  0  0  0
 22 27  1  0  0  0
  1 28  1  0  0  0
  3 29  1  0  0  0
  5 30  1  0  0  0
  6 31  1  0  0  0
  8 32  1  0  0  0
 13 33  1  0  0  0
 15 34  1  0  0  0
 16 35  1  0  0  0
 17 36  1  0  0  0
 18 37  1  0  0  0
 19 38  1  0  0  0
 20 39  1  0  0  0
 21 40  1  0  0  0
 22 41  1  0  0  0
 22 42  1  0  0  0
 23 43  1  0  0  0
 24 44  1  0  0  0
 25 45  1  0  0  0
 27 46  1  0  0  0
M  END
$$$$
