3q2a_ligand
  -I-interpret- 

 17 17  0  0  0  0  0  0  0  0999 V2000
  -11.2930   13.2870  -20.1160 C   0  0  0  0  0
  -11.4200   12.1800  -19.5390 O   0  0  0  0  0
  -12.0560   13.5840  -21.0700 O   0  0  0  0  0
  -10.2440   14.2540  -19.6870 C   0  0  0  0  0
  -10.1340   15.4680  -20.3420 C   0  0  0  0  0
   -9.1670   16.3820  -19.9590 C   0  0  0  0  0
   -8.3070   16.0820  -18.9170 C   0  0  0  0  0
   -8.4160   14.8670  -18.2580 C   0  0  0  0  0
   -9.3860   13.9540  -18.6410 C   0  0  0  0  0
   -7.3120   17.0280  -18.5250 N   0  0  0  0  0
  -11.8301   14.4571  -21.3990 H   0  0  0  0  0
  -10.8111   15.7056  -21.1625 H   0  0  0  0  0
   -9.0832   17.3370  -20.4777 H   0  0  0  0  0
   -7.7383   14.6296  -17.4380 H   0  0  0  0  0
   -9.4739   13.0007  -18.1198 H   0  0  0  0  0
   -7.2370   17.9209  -19.0124 H   0  0  0  0  0
   -6.6761   16.8109  -17.7576 H   0  0  0  0  0
  1  2  2  0  0  0
  1  3  1  0  0  0
  1  4  1  0  0  0
  4  5  4  0  0  0
  4  9  4  0  0  0
  5  6  4  0  0  0
  6  7  4  0  0  0
  7  8  4  0  0  0
  7 10  1  0  0  0
  8  9  4  0  0  0
  3 11  1  0  0  0
  5 12  1  0  0  0
  6 13  1  0  0  0
  8 14  1  0  0  0
  9 15  1  0  0  0
 10 16  1  0  0  0
 10 17  1  0  0  0
M  END
$$$$
