3sgv_ligand
  -I-interpret- 

 48 50  0  0  0  0  0  0  0  0999 V2000
  -14.9060    2.0090   -9.5840 C   0  0  0  0  0
  -16.7810    4.2710  -11.7890 N   0  0  0  0  0
  -16.7570    4.5060  -13.2420 O   0  0  0  0  0
  -14.8250    0.8890  -10.4420 C   0  0  0  0  0
  -14.7170    1.2550   -7.2070 N   0  0  0  0  0
  -17.4950    5.1820  -10.8720 O   0  0  0  0  0
  -15.3950    0.9220  -11.7040 C   0  0  0  0  0
  -13.7560   -1.1750  -10.9680 O   0  0  0  0  0
  -16.0470    2.0630  -12.1300 C   0  0  0  0  0
  -13.8130   -0.5170   -8.8810 O   0  0  0  0  0
  -16.1420    3.1940  -11.3070 C   0  0  0  0  0
  -13.5520    3.0670   -7.9670 O   0  0  0  0  0
  -15.5600    3.1810  -10.0240 C   0  0  0  0  0
  -14.7910   -0.2480   -2.5680 O   0  0  0  0  0
  -14.1260   -0.3890  -10.0620 C   0  0  0  0  0
  -14.3110    2.1180   -8.1680 C   0  0  0  0  0
  -14.2550    1.3770   -5.8920 C   0  0  0  0  0
  -13.3070    2.3410   -5.4950 C   0  0  0  0  0
  -12.8360    2.4570   -4.1630 C   0  0  0  0  0
  -13.3530    1.5710   -3.2220 C   0  0  0  0  0
  -14.3040   -1.5050   -2.2700 C   0  0  0  0  0
  -14.2940    0.5890   -3.5730 C   0  0  0  0  0
  -14.7280    0.4990   -4.8940 C   0  0  0  0  0
  -14.8820   -2.2230   -1.1800 C   0  0  0  0  0
  -14.4420   -3.5110   -0.8610 C   0  0  0  0  0
  -13.4120   -4.1070   -1.5890 C   0  0  0  0  0
  -13.0000   -5.5450   -1.1800 C   0  0  0  0  0
  -12.8370   -3.3800   -2.6600 C   0  0  0  0  0
  -11.8170   -3.9270   -3.5700 C   0  0  0  0  0
  -13.2680   -2.0950   -3.0040 C   0  0  0  0  0
  -15.3679    0.5065   -7.4447 H   0  0  0  0  0
  -15.3294    0.0522  -12.3576 H   0  0  0  0  0
  -14.1164   -0.8845  -11.8090 H   0  0  0  0  0
  -16.4954    2.0843  -13.1233 H   0  0  0  0  0
  -15.6135    4.0603   -9.3820 H   0  0  0  0  0
  -12.9183    3.0286   -6.2461 H   0  0  0  0  0
  -12.0982    3.2102   -3.8866 H   0  0  0  0  0
  -13.0192    1.6410   -2.1867 H   0  0  0  0  0
  -15.4520   -0.2700   -5.1635 H   0  0  0  0  0
  -15.6746   -1.7623   -0.5904 H   0  0  0  0  0
  -14.9070   -4.0533   -0.0377 H   0  0  0  0  0
  -12.6638   -5.5442   -0.1431 H   0  0  0  0  0
  -13.8566   -6.2108   -1.2851 H   0  0  0  0  0
  -12.1910   -5.8872   -1.8253 H   0  0  0  0  0
  -10.9365   -4.2150   -2.9957 H   0  0  0  0  0
  -12.2200   -4.8006   -4.0823 H   0  0  0  0  0
  -11.5421   -3.1689   -4.3033 H   0  0  0  0  0
  -12.8037   -1.5599   -3.8324 H   0  0  0  0  0
  1  4  4  0  0  0
  1 13  4  0  0  0
 16  1  1  0  0  0
  2  3  2  0  0  0
  2  6  2  0  0  0
 11  2  1  0  0  0
  4  7  4  0  0  0
  4 15  1  0  0  0
  5 16  1  0  0  0
 17  5  1  0  0  0
  7  9  4  0  0  0
 15  8  1  0  0  0
 11  9  4  0  0  0
 15 10  2  0  0  0
 13 11  4  0  0  0
 16 12  2  0  0  0
 14 21  1  0  0  0
 22 14  1  0  0  0
 18 17  4  0  0  0
 17 23  4  0  0  0
 19 18  4  0  0  0
 20 19  4  0  0  0
 20 22  4  0  0  0
 21 24  4  0  0  0
 21 30  4  0  0  0
 22 23  4  0  0  0
 24 25  4  0  0  0
 25 26  4  0  0  0
 26 27  1  0  0  0
 26 28  4  0  0  0
 28 29  1  0  0  0
 28 30  4  0  0  0
  5 31  1  0  0  0
  7 32  1  0  0  0
  8 33  1  0  0  0
  9 34  1  0  0  0
 13 35  1  0  0  0
 18 36  1  0  0  0
 19 37  1  0  0  0
 20 38  1  0  0  0
 23 39  1  0  0  0
 24 40  1  0  0  0
 25 41  1  0  0  0
 27 42  1  0  0  0
 27 43  1  0  0  0
 27 44  1  0  0  0
 29 45  1  0  0  0
 29 46  1  0  0  0
 29 47  1  0  0  0
 30 48  1  0  0  0
M  END
$$$$
