6epa_ligand
  -I-interpret- 

 44 47  0  0  0  0  0  0  0  0999 V2000
   -7.4790  -10.2110   12.2470 C   0  0  0  0  0
   -8.8890   -3.5920   10.6180 C   0  0  0  0  0
   -6.4550   -3.6170    9.8500 C   0  0  0  0  0
   -4.9390   -4.7230    8.3370 C   0  0  0  0  0
   -5.6570   -4.0360   10.9080 C   0  0  0  0  0
   -7.3800   -1.5650   10.9670 C   0  0  0  0  0
   -7.1540   -0.3190   10.3970 C   0  0  0  0  0
   -6.7810    0.6440   12.5590 C   0  0  0  0  0
   -7.2940   -1.6860   12.3480 C   0  0  0  0  0
   -8.5910   -6.8450   12.3480 C   0  0  0  0  0
   -9.3570   -9.0040   13.1450 C   0  0  0  0  0
   -9.8920  -10.1800   13.6550 C   0  0  0  0  0
   -9.2100  -11.3690   13.4520 C   0  0  0  0  0
   -8.0170  -11.3820   12.7550 C   0  0  0  0  0
   -8.1500   -9.0010   12.4390 C   0  0  0  0  0
   -8.5540   -5.0650   10.7340 C   0  0  0  0  0
   -7.6970   -2.7690   10.0880 C   0  0  0  0  0
   -6.0740   -3.9640    8.5600 C   0  0  0  0  0
   -4.1630   -5.1410    9.3980 C   0  0  0  0  0
   -4.5240   -4.7970   10.6830 C   0  0  0  0  0
   -6.8590    0.7770   11.1880 C   0  0  0  0  0
   -6.9990   -0.5890   13.1380 C   0  0  0  0  0
   -7.7290   -7.7530   11.9850 N   0  0  0  0  0
   -8.4100   -5.5230   12.0120 N   0  0  0  0  0
   -8.6620   -5.8240    9.7740 O   0  0  0  0  0
   -9.9880   -7.3830   13.2450 S   0  0  0  0  0
   -6.5365  -10.2336   11.7000 H   0  0  0  0  0
   -9.1450   -3.2213   11.6105 H   0  0  0  0  0
   -9.7164   -3.4846    9.9166 H   0  0  0  0  0
   -4.6569   -4.9917    7.3190 H   0  0  0  0  0
   -5.9273   -3.7615   11.9277 H   0  0  0  0  0
   -7.2096   -0.2033    9.3146 H   0  0  0  0  0
   -6.5484    1.5083   13.1812 H   0  0  0  0  0
   -7.4609   -2.6567   12.8150 H   0  0  0  0  0
  -10.8326  -10.1678   14.2057 H   0  0  0  0  0
   -9.6175  -12.3005   13.8449 H   0  0  0  0  0
   -7.4927  -12.3255   12.6030 H   0  0  0  0  0
   -8.0156   -2.3874    9.1179 H   0  0  0  0  0
   -6.6764   -3.6344    7.7135 H   0  0  0  0  0
   -3.2695   -5.7398    9.2213 H   0  0  0  0  0
   -3.9146   -5.1258   11.5248 H   0  0  0  0  0
   -6.6875    1.7494   10.7263 H   0  0  0  0  0
   -6.9387   -0.6994   14.2207 H   0  0  0  0  0
   -8.1588   -4.8602   12.7455 H   0  0  0  0  0
  1 14  4  0  0  0
 15  1  4  0  0  0
 16  2  1  0  0  0
  2 17  1  0  0  0
  3  5  4  0  0  0
 17  3  1  0  0  0
  3 18  4  0  0  0
 18  4  4  0  0  0
  4 19  4  0  0  0
  5 20  4  0  0  0
  6  7  4  0  0  0
  6  9  4  0  0  0
 17  6  1  0  0  0
  7 21  4  0  0  0
 21  8  4  0  0  0
 22  8  4  0  0  0
  9 22  4  0  0  0
 10 23  4  0  0  0
 24 10  1  0  0  0
 10 26  4  0  0  0
 11 12  4  0  0  0
 11 15  4  0  0  0
 26 11  4  0  0  0
 12 13  4  0  0  0
 13 14  4  0  0  0
 23 15  4  0  0  0
 16 24  1  0  0  0
 16 25  2  0  0  0
 19 20  4  0  0  0
  1 27  1  0  0  0
  2 28  1  0  0  0
  2 29  1  0  0  0
  4 30  1  0  0  0
  5 31  1  0  0  0
  7 32  1  0  0  0
  8 33  1  0  0  0
  9 34  1  0  0  0
 12 35  1  0  0  0
 13 36  1  0  0  0
 14 37  1  0  0  0
 17 38  1  0  0  0
 18 39  1  0  0  0
 19 40  1  0  0  0
 20 41  1  0  0  0
 21 42  1  0  0  0
 22 43  1  0  0  0
 24 44  1  0  0  0
M  END
$$$$
