3odu_ligand
  -I-interpret- 

 62 65  0  0  0  0  0  0  0  0999 V2000
   16.2630   -6.2800   67.1020 C   0  0  0  0  0
   17.9260   -7.9840   67.6150 N   0  0  0  0  0
   18.8530   -9.8430   69.4940 S   0  0  0  0  0
   17.6610   -6.5460   67.6430 C   0  0  0  0  0
   18.2090   -7.3820   69.7010 N   0  3  0  0  0
   20.2660   -6.1330   72.2410 S   0  0  0  0  0
   18.7290   -5.8120   66.8360 C   0  0  0  0  0
   20.7210   -8.1890   73.6900 N   0  0  0  0  0
   18.2290   -8.3790   68.8590 C   0  0  0  0  0
   22.5090   -7.4970   72.3240 N   0  0  0  0  0
   18.9810   -9.0930   71.0610 C   0  0  0  0  0
   17.7520   -6.1320   69.1200 C   0  0  0  0  0
   18.5880   -7.7370   70.9550 C   0  0  0  0  0
   18.6210   -6.7600   72.1050 C   0  0  0  0  0
   21.2550   -7.3690   72.7790 C   0  0  0  0  0
   21.3010   -9.3400   74.3660 C   0  0  0  0  0
   22.1470   -9.0060   75.5860 C   0  0  0  0  0
   22.2680  -10.2460   76.4700 C   0  0  0  0  0
   22.8210  -11.4530   75.7100 C   0  0  0  0  0
   22.1440  -11.6820   74.3500 C   0  0  0  0  0
   21.9670  -10.4100   73.5160 C   0  0  0  0  0
   22.9540   -7.4320   70.9310 C   0  0  0  0  0
   21.8950   -7.6050   69.8450 C   0  0  0  0  0
   22.5520   -7.7520   68.4730 C   0  0  0  0  0
   23.5120   -6.6030   68.1570 C   0  0  0  0  0
   24.5160   -6.3620   69.2800 C   0  0  0  0  0
   23.8280   -6.2180   70.6370 C   0  0  0  0  0
   16.0542   -5.2112   67.1483 H   0  0  0  0  0
   16.2046   -6.6184   66.0675 H   0  0  0  0  0
   15.5328   -6.8206   67.7042 H   0  0  0  0  0
   17.8869   -8.5831   66.7904 H   0  0  0  0  0
   18.5716   -4.7368   66.9208 H   0  0  0  0  0
   19.7152   -6.0679   67.2235 H   0  0  0  0  0
   18.6601   -6.1092   65.7896 H   0  0  0  0  0
   23.2324   -7.6572   73.0250 H   0  0  0  0  0
   19.3103   -9.5875   71.9749 H   0  0  0  0  0
   16.8210   -5.7521   69.5408 H   0  0  0  0  0
   18.4045   -5.2800   69.3109 H   0  0  0  0  0
   17.9205   -5.9442   71.9263 H   0  0  0  0  0
   18.3298   -7.2573   73.0302 H   0  0  0  0  0
   20.3810   -9.8135   74.7088 H   0  0  0  0  0
   21.6746   -8.2009   76.1488 H   0  0  0  0  0
   23.1391   -8.6871   75.2663 H   0  0  0  0  0
   21.2714  -10.5020   76.8298 H   0  0  0  0  0
   22.9569  -10.0148   77.2825 H   0  0  0  0  0
   22.6379  -12.3371   76.3206 H   0  0  0  0  0
   23.8785  -11.2664   75.5228 H   0  0  0  0  0
   21.1481  -12.0779   74.5487 H   0  0  0  0  0
   22.7856  -12.3540   73.7801 H   0  0  0  0  0
   22.9416  -10.0552   73.1807 H   0  0  0  0  0
   21.3440  -10.6266   72.6482 H   0  0  0  0  0
   23.5561   -8.3381   70.8637 H   0  0  0  0  0
   21.2508   -6.7258   69.8361 H   0  0  0  0  0
   21.3145   -8.5029   70.0571 H   0  0  0  0  0
   21.7636   -7.7482   67.7204 H   0  0  0  0  0
   23.1252   -8.6791   68.4722 H   0  0  0  0  0
   22.9225   -5.6950   68.0298 H   0  0  0  0  0
   24.0680   -6.8647   67.2567 H   0  0  0  0  0
   25.0511   -5.4364   69.0678 H   0  0  0  0  0
   25.1890   -7.2181   69.3268 H   0  0  0  0  0
   24.5908   -6.1377   71.4115 H   0  0  0  0  0
   23.1994   -5.3276   70.6202 H   0  0  0  0  0
  4  1  1  0  0  0
  4  2  1  0  0  0
  9  2  1  0  0  0
  3  9  4  0  0  0
 11  3  4  0  0  0
  4  7  1  0  0  0
 12  4  1  0  0  0
  5  9  4  0  0  0
  5 12  1  0  0  0
 13  5  4  0  0  0
 14  6  1  0  0  0
  6 15  1  0  0  0
 15  8  2  0  0  0
  8 16  1  0  0  0
 15 10  1  0  0  0
 10 22  1  0  0  0
 13 11  4  0  0  0
 13 14  1  0  0  0
 16 17  1  0  0  0
 16 21  1  0  0  0
 17 18  1  0  0  0
 18 19  1  0  0  0
 19 20  1  0  0  0
 20 21  1  0  0  0
 22 23  1  0  0  0
 22 27  1  0  0  0
 23 24  1  0  0  0
 24 25  1  0  0  0
 25 26  1  0  0  0
 26 27  1  0  0  0
  1 28  1  0  0  0
  1 29  1  0  0  0
  1 30  1  0  0  0
  2 31  1  0  0  0
  7 32  1  0  0  0
  7 33  1  0  0  0
  7 34  1  0  0  0
 10 35  1  0  0  0
 11 36  1  0  0  0
 12 37  1  0  0  0
 12 38  1  0  0  0
 14 39  1  0  0  0
 14 40  1  0  0  0
 16 41  1  0  0  0
 17 42  1  0  0  0
 17 43  1  0  0  0
 18 44  1  0  0  0
 18 45  1  0  0  0
 19 46  1  0  0  0
 19 47  1  0  0  0
 20 48  1  0  0  0
 20 49  1  0  0  0
 21 50  1  0  0  0
 21 51  1  0  0  0
 22 52  1  0  0  0
 23 53  1  0  0  0
 23 54  1  0  0  0
 24 55  1  0  0  0
 24 56  1  0  0  0
 25 57  1  0  0  0
 25 58  1  0  0  0
 26 59  1  0  0  0
 26 60  1  0  0  0
 27 61  1  0  0  0
 27 62  1  0  0  0
M  END
$$$$
