### 
### Created by X-TOOL on Mon Sep 10 21:13:04 2018
### 

@<TRIPOS>MOLECULE
3hu1_ligand
   44    46     1     0     0
SMALL
GAST_HUCK


@<TRIPOS>ATOM
      1 PG          8.4780   44.0810   -4.4480 P.3       1 AGS         0.2197
      2 O1G         8.9200   43.5640   -3.1050 O.co2     1 AGS        -0.6077
      3 O2G         9.4320   44.8280   -5.3220 O.co2     1 AGS        -0.6077
      4 S3G         7.9180   42.4450   -5.4620 S.3       1 AGS        -0.0461
      5 PB          6.9990   46.4080   -3.7580 P.3       1 AGS         0.3347
      6 O1B         8.2250   47.1720   -4.1870 O.co2     1 AGS        -0.6076
      7 O2B         6.6330   46.2880   -2.3050 O.co2     1 AGS        -0.6076
      8 O3B         7.1010   44.9290   -4.3430 O.3       1 AGS        -0.1434
      9 PA          5.7210   48.2520   -5.4720 P.3       1 AGS         0.2978
     10 O1A         6.0190   49.5150   -4.7240 O.co2     1 AGS        -0.6127
     11 O2A         6.5820   47.9080   -6.6320 O.co2     1 AGS        -0.6127
     12 O3A         5.7040   47.0140   -4.4620 O.3       1 AGS        -0.1263
     13 O5'         4.1950   48.2680   -5.8510 O.3       1 AGS        -0.2476
     14 C5'         3.7900   48.2340   -7.1820 C.3       1 AGS         0.1128
     15 C4'         2.7040   49.2650   -7.4290 C.3       1 AGS         0.1189
     16 O4'         1.5160   48.9430   -6.7090 O.3       1 AGS        -0.3364
     17 C3'         3.0890   50.6870   -7.0690 C.3       1 AGS         0.1149
     18 O3'         3.6150   51.3640   -8.2010 O.3       1 AGS        -0.3864
     19 C2'         1.7820   51.2970   -6.6590 C.3       1 AGS         0.1385
     20 O2'         1.1270   51.8920   -7.7950 O.3       1 AGS        -0.3836
     21 C1'         0.9470   50.1210   -6.1750 C.3       1 AGS         0.2010
     22 N9          1.0020   50.0130   -4.6990 N.pl3     1 AGS        -0.1919
     23 C8          1.4960   48.9590   -4.0110 C.2       1 AGS         0.1123
     24 N7          1.3580   49.1590   -2.6730 N.2       1 AGS        -0.2958
     25 C5          0.7960   50.3580   -2.4920 C.ar      1 AGS         0.1045
     26 C6          0.3290   51.1560   -1.3250 C.ar      1 AGS         0.1298
     27 N6          0.4850   50.6960   -0.0500 N.pl3     1 AGS        -0.3152
     28 N1         -0.2370   52.3690   -1.5680 N.ar      1 AGS        -0.2698
     29 C2         -0.4460   52.8230   -2.8200 C.ar      1 AGS         0.0533
     30 N3         -0.0610   52.1310   -3.9120 N.ar      1 AGS        -0.2714
     31 C4          0.5440   50.9130   -3.8170 C.ar      1 AGS         0.1613
     32 H           7.0638   41.7398   -4.7258 H         1 AGS         0.1255
     33 H           3.3978   47.2427   -7.4093 H         1 AGS         0.0648
     34 H           4.6450   48.4582   -7.8198 H         1 AGS         0.0648
     35 H           2.5418   49.2263   -8.5062 H         1 AGS         0.0651
     36 H           3.8557   50.7419   -6.2962 H         1 AGS         0.0648
     37 H           2.9524   51.3868   -8.8952 H         1 AGS         0.2100
     38 H           1.9157   52.0732   -5.9055 H         1 AGS         0.0676
     39 H           1.6894   52.5763   -8.1651 H         1 AGS         0.2101
     40 H          -0.0873   50.2608   -6.4894 H         1 AGS         0.0996
     41 H           1.9419   48.0739   -4.4648 H         1 AGS         0.1349
     42 H           0.9276   49.7920    0.1155 H         1 AGS         0.1820
     43 H           0.1591   51.2561    0.7377 H         1 AGS         0.1820
     44 H          -0.9437   53.7833   -2.9547 H         1 AGS         0.0996
@<TRIPOS>BOND
     1    1    2 ar 
     2    1    3 ar 
     3    1    4 1  
     4    8    1 1  
     5    5    6 ar 
     6    5    7 ar 
     7    5    8 1  
     8   12    5 1  
     9    9   10 ar 
    10    9   11 ar 
    11    9   12 1  
    12    9   13 1  
    13   13   14 1  
    14   14   15 1  
    15   15   16 1  
    16   15   17 1  
    17   16   21 1  
    18   17   18 1  
    19   17   19 1  
    20   19   20 1  
    21   19   21 1  
    22   21   22 1  
    23   22   23 1  
    24   22   31 1  
    25   23   24 2  
    26   24   25 1  
    27   25   26 ar 
    28   25   31 ar 
    29   26   27 1  
    30   26   28 ar 
    31   28   29 ar 
    32   29   30 ar 
    33   30   31 ar 
    34    4   32 1  
    35   14   33 1  
    36   14   34 1  
    37   15   35 1  
    38   17   36 1  
    39   18   37 1  
    40   19   38 1  
    41   20   39 1  
    42   21   40 1  
    43   23   41 1  
    44   27   42 1  
    45   27   43 1  
    46   29   44 1  
@<TRIPOS>SUBSTRUCTURE
     1 AGS         1

