3hu1_ligand
  -I-interpret- 

 47 49  0  0  0  0  0  0  0  0999 V2000
    8.4780   44.0810   -4.4480 P   0  0  0  0  0
    8.9200   43.5640   -3.1050 O   0  0  0  0  0
    9.4320   44.8280   -5.3220 O   0  0  0  0  0
    7.9180   42.4450   -5.4620 S   0  0  0  0  0
    6.9990   46.4080   -3.7580 P   0  0  0  0  0
    8.2250   47.1720   -4.1870 O   0  0  0  0  0
    6.6330   46.2880   -2.3050 O   0  0  0  0  0
    7.1010   44.9290   -4.3430 O   0  0  0  0  0
    5.7210   48.2520   -5.4720 P   0  0  0  0  0
    6.0190   49.5150   -4.7240 O   0  0  0  0  0
    6.5820   47.9080   -6.6320 O   0  0  0  0  0
    5.7040   47.0140   -4.4620 O   0  0  0  0  0
    4.1950   48.2680   -5.8510 O   0  0  0  0  0
    3.7900   48.2340   -7.1820 C   0  0  0  0  0
    2.7040   49.2650   -7.4290 C   0  0  0  0  0
    1.5160   48.9430   -6.7090 O   0  0  0  0  0
    3.0890   50.6870   -7.0690 C   0  0  0  0  0
    3.6150   51.3640   -8.2010 O   0  0  0  0  0
    1.7820   51.2970   -6.6590 C   0  0  0  0  0
    1.1270   51.8920   -7.7950 O   0  0  0  0  0
    0.9470   50.1210   -6.1750 C   0  0  0  0  0
    1.0020   50.0130   -4.6990 N   0  0  0  0  0
    1.4960   48.9590   -4.0110 C   0  0  0  0  0
    1.3580   49.1590   -2.6730 N   0  0  0  0  0
    0.7960   50.3580   -2.4920 C   0  0  0  0  0
    0.3290   51.1560   -1.3250 C   0  0  0  0  0
    0.4850   50.6960   -0.0500 N   0  0  0  0  0
   -0.2370   52.3690   -1.5680 N   0  0  0  0  0
   -0.4460   52.8230   -2.8200 C   0  0  0  0  0
   -0.0610   52.1310   -3.9120 N   0  0  0  0  0
    0.5440   50.9130   -3.8170 C   0  0  0  0  0
    8.1872   43.1120   -2.6804 H   0  0  0  0  0
    7.0638   41.7398   -4.7258 H   0  0  0  0  0
    8.3003   47.1430   -5.1436 H   0  0  0  0  0
    5.3917   49.6149   -4.0042 H   0  0  0  0  0
    3.3978   47.2427   -7.4093 H   0  0  0  0  0
    4.6450   48.4582   -7.8198 H   0  0  0  0  0
    2.5418   49.2263   -8.5062 H   0  0  0  0  0
    3.8557   50.7419   -6.2962 H   0  0  0  0  0
    3.8526   52.2608   -7.9543 H   0  0  0  0  0
    1.9157   52.0732   -5.9055 H   0  0  0  0  0
    0.2931   52.2775   -7.5165 H   0  0  0  0  0
   -0.0873   50.2608   -6.4894 H   0  0  0  0  0
    1.9419   48.0739   -4.4648 H   0  0  0  0  0
    0.9276   49.7920    0.1155 H   0  0  0  0  0
    0.1591   51.2561    0.7377 H   0  0  0  0  0
   -0.9437   53.7833   -2.9547 H   0  0  0  0  0
  1  2  1  0  0  0
  1  3  2  0  0  0
  1  4  1  0  0  0
  8  1  1  0  0  0
  5  6  1  0  0  0
  5  7  2  0  0  0
  5  8  1  0  0  0
 12  5  1  0  0  0
  9 10  1  0  0  0
  9 11  2  0  0  0
  9 12  1  0  0  0
  9 13  1  0  0  0
 13 14  1  0  0  0
 14 15  1  0  0  0
 15 16  1  0  0  0
 15 17  1  0  0  0
 16 21  1  0  0  0
 17 18  1  0  0  0
 17 19  1  0  0  0
 19 20  1  0  0  0
 19 21  1  0  0  0
 21 22  1  0  0  0
 22 23  4  0  0  0
 22 31  4  0  0  0
 23 24  4  0  0  0
 24 25  4  0  0  0
 25 26  4  0  0  0
 25 31  4  0  0  0
 26 27  1  0  0  0
 26 28  4  0  0  0
 28 29  4  0  0  0
 29 30  4  0  0  0
 30 31  4  0  0  0
  2 32  1  0  0  0
  4 33  1  0  0  0
  6 34  1  0  0  0
 10 35  1  0  0  0
 14 36  1  0  0  0
 14 37  1  0  0  0
 15 38  1  0  0  0
 17 39  1  0  0  0
 18 40  1  0  0  0
 19 41  1  0  0  0
 20 42  1  0  0  0
 21 43  1  0  0  0
 23 44  1  0  0  0
 27 45  1  0  0  0
 27 46  1  0  0  0
 29 47  1  0  0  0
M  END
$$$$
