1z6p_ligand
  -I-interpret- 

 45 47  0  0  0  0  0  0  0  0999 V2000
   30.5040    0.0440   52.1840 C   0  0  0  0  0
   29.1630   -0.2510   52.1070 C   0  0  0  0  0
   28.5540   -0.3870   50.8790 C   0  0  0  0  0
   29.2610   -0.3620   49.7050 C   0  0  0  0  0
   30.5910   -0.0270   49.7610 C   0  0  0  0  0
   31.1940    0.2620   50.9960 C   0  0  0  0  0
   32.5060    0.9780   51.1290 C   0  0  0  0  0
   33.4070    0.5470   51.7720 O   0  0  0  0  0
   32.5980    2.1990   50.5400 O   0  0  0  0  0
   31.2730    0.0530   48.4890 C   0  0  0  0  0
   32.1130   -0.9580   48.1130 O   0  0  0  0  0
   31.0290    0.9680   47.7960 O   0  0  0  0  0
   27.2090   -0.5640   50.7770 O   0  0  0  0  0
   26.7290   -1.6170   51.5270 C   0  0  0  0  0
   25.3550   -1.6180   51.7890 C   0  0  0  0  0
   24.7690   -2.6700   52.5300 C   0  0  0  0  0
   25.5900   -3.6370   53.1050 C   0  0  0  0  0
   26.9630   -3.6200   52.8770 C   0  0  0  0  0
   27.5110   -2.6520   52.0030 C   0  0  0  0  0
   24.6550   -0.5170   51.2980 N   0  0  0  0  0
   24.3410    0.5060   52.1230 C   0  0  0  0  0
   24.2880    0.2770   53.3100 O   0  0  0  0  0
   24.0430    1.9050   51.6640 C   0  0  0  0  0
   23.9140    2.9440   52.6100 C   0  0  0  0  0
   23.5450    4.2460   52.1680 C   0  0  0  0  0
   23.2770    4.4870   50.8220 C   0  0  0  0  0
   23.4450    3.4810   49.9040 C   0  0  0  0  0
   23.8060    2.2220   50.3460 C   0  0  0  0  0
   23.6070    5.3760   53.0680 N   0  0  0  0  0
   24.1480    5.2870   54.1090 O   0  0  0  0  0
   23.2250    6.5490   52.6940 O   0  0  0  0  0
   31.0110    0.1052   53.1470 H   0  0  0  0  0
   28.5807   -0.3775   53.0197 H   0  0  0  0  0
   28.7816   -0.6009   48.7557 H   0  0  0  0  0
   31.7852    2.3857   50.0645 H   0  0  0  0  0
   32.1742   -1.6021   48.8222 H   0  0  0  0  0
   23.6869   -2.7236   52.6499 H   0  0  0  0  0
   25.1550   -4.4113   53.7370 H   0  0  0  0  0
   27.6106   -4.3465   53.3678 H   0  0  0  0  0
   28.5566   -2.7230   51.7032 H   0  0  0  0  0
   24.3800   -0.4837   50.3163 H   0  0  0  0  0
   24.0949    2.7518   53.6676 H   0  0  0  0  0
   22.9353    5.4706   50.4996 H   0  0  0  0  0
   23.2959    3.6720   48.8413 H   0  0  0  0  0
   23.9095    1.4304   49.6038 H   0  0  0  0  0
  1  2  4  0  0  0
  1  6  4  0  0  0
  2  3  4  0  0  0
  3  4  4  0  0  0
  3 13  1  0  0  0
  4  5  4  0  0  0
  5  6  4  0  0  0
  5 10  1  0  0  0
  6  7  1  0  0  0
  7  8  2  0  0  0
  7  9  1  0  0  0
 10 11  1  0  0  0
 10 12  2  0  0  0
 13 14  1  0  0  0
 14 15  4  0  0  0
 14 19  4  0  0  0
 15 16  4  0  0  0
 15 20  1  0  0  0
 16 17  4  0  0  0
 17 18  4  0  0  0
 18 19  4  0  0  0
 20 21  1  0  0  0
 21 22  2  0  0  0
 21 23  1  0  0  0
 23 24  4  0  0  0
 23 28  4  0  0  0
 24 25  4  0  0  0
 25 26  4  0  0  0
 25 29  1  0  0  0
 26 27  4  0  0  0
 27 28  4  0  0  0
 29 30  2  0  0  0
 29 31  2  0  0  0
  1 32  1  0  0  0
  2 33  1  0  0  0
  4 34  1  0  0  0
  9 35  1  0  0  0
 11 36  1  0  0  0
 16 37  1  0  0  0
 17 38  1  0  0  0
 18 39  1  0  0  0
 19 40  1  0  0  0
 20 41  1  0  0  0
 24 42  1  0  0  0
 26 43  1  0  0  0
 27 44  1  0  0  0
 28 45  1  0  0  0
M  END
$$$$
