6i62_ligand
  -I-interpret- 

 30 31  0  0  0  0  0  0  0  0999 V2000
    3.1950  -17.7720    4.9050 C   0  0  0  0  0
    3.0980  -18.2200    3.5940 C   0  0  0  0  0
    2.8680  -17.3340    2.5480 C   0  0  0  0  0
    2.7790  -17.8140    1.2760 O   0  0  0  0  0
    2.7270  -15.9770    2.7950 C   0  0  0  0  0
    2.8220  -15.5290    4.1070 C   0  0  0  0  0
    3.0550  -16.4190    5.1520 C   0  0  0  0  0
    3.1350  -15.8490    6.4210 C   0  0  0  0  0
    2.0520  -16.2480    7.4290 C   0  0  0  0  0
    1.9950  -17.9620    7.9770 Cl  0  0  0  0  0
    2.1700  -15.1750    8.7420 Cl  0  0  0  0  0
    0.5470  -15.9510    6.6210 Cl  0  0  0  0  0
    4.4300  -15.9020    6.9750 C   0  0  0  0  0
    4.9480  -16.9140    7.7920 C   0  0  0  0  0
    6.2560  -16.8110    8.2910 C   0  0  0  0  0
    7.0140  -15.6810    7.9640 C   0  0  0  0  0
    8.2970  -15.4910    8.3880 O   0  0  0  0  0
    6.4780  -14.7000    7.1590 C   0  0  0  0  0
    5.2010  -14.8020    6.6750 C   0  0  0  0  0
    3.3774  -18.4714    5.7208 H   0  0  0  0  0
    3.2040  -19.2839    3.3819 H   0  0  0  0  0
    2.6196  -17.0860    0.6709 H   0  0  0  0  0
    2.5458  -15.2776    1.9788 H   0  0  0  0  0
    2.7126  -14.4658    4.3210 H   0  0  0  0  0
    2.9064  -14.8036    6.2138 H   0  0  0  0  0
    4.3361  -17.7812    8.0404 H   0  0  0  0  0
    6.6734  -17.5963    8.9212 H   0  0  0  0  0
    8.6243  -14.6546    8.0491 H   0  0  0  0  0
    7.0802  -13.8283    6.9031 H   0  0  0  0  0
    4.7932  -14.0082    6.0492 H   0  0  0  0  0
  1  2  4  0  0  0
  1  7  4  0  0  0
  2  3  4  0  0  0
  3  4  1  0  0  0
  3  5  4  0  0  0
  5  6  4  0  0  0
  6  7  4  0  0  0
  7  8  1  0  0  0
  8  9  1  0  0  0
  8 13  1  0  0  0
  9 10  1  0  0  0
  9 11  1  0  0  0
  9 12  1  0  0  0
 13 14  4  0  0  0
 13 19  4  0  0  0
 14 15  4  0  0  0
 15 16  4  0  0  0
 16 17  1  0  0  0
 16 18  4  0  0  0
 18 19  4  0  0  0
  1 20  1  0  0  0
  2 21  1  0  0  0
  4 22  1  0  0  0
  5 23  1  0  0  0
  6 24  1  0  0  0
  8 25  1  0  0  0
 14 26  1  0  0  0
 15 27  1  0  0  0
 17 28  1  0  0  0
 18 29  1  0  0  0
 19 30  1  0  0  0
M  END
$$$$
