5zee_ligand
  -I-interpret- 

 30 29  0  0  0  0  0  0  0  0999 V2000
   -3.6920   19.6960   -8.7720 N   0  3  0  0  0
   -2.7410   19.6940   -9.9390 C   0  0  0  0  0
   -3.4940   19.5510  -11.2810 C   0  0  0  0  0
   -2.8590   20.0090  -12.2680 O   0  0  0  0  0
   -1.7230   18.5720   -9.8010 C   0  0  0  0  0
   -2.4350   17.2440   -9.4730 C   0  0  0  0  0
   -1.7380   15.9520   -9.8340 C   0  0  0  0  0
   -0.5140   15.7390   -9.4470 N   0  0  0  0  0
    0.1140   14.4540   -9.7600 C   0  0  0  0  0
   -0.6650   13.4120   -9.0240 N   0  3  0  0  0
    1.5290   14.5140   -9.4970 N   0  3  0  0  0
   -0.4430   13.1640   -7.6510 O   0  0  0  0  0
   -4.6560   19.0100  -11.2700 O   0  0  0  0  0
   -4.3647   20.4545   -8.8844 H   0  0  0  0  0
   -4.1861   18.8044   -8.7360 H   0  0  0  0  0
   -3.1674   19.8305   -7.9077 H   0  0  0  0  0
   -2.2211   20.6520   -9.9362 H   0  0  0  0  0
   -1.0316   18.8149   -8.9941 H   0  0  0  0  0
   -1.1817   18.4639  -10.7409 H   0  0  0  0  0
   -3.3490   17.2534  -10.0669 H   0  0  0  0  0
   -2.5268   17.2275   -8.3870 H   0  0  0  0  0
   -2.2621   15.1969  -10.4200 H   0  0  0  0  0
    0.0757   14.1898  -10.8168 H   0  0  0  0  0
   -0.3963   12.5388   -9.4776 H   0  0  0  0  0
   -1.6256   13.7532   -9.0595 H   0  0  0  0  0
    1.9534   13.6134   -9.7191 H   0  0  0  0  0
    1.9504   15.2415  -10.0746 H   0  0  0  0  0
    1.6816   14.7294   -8.5118 H   0  0  0  0  0
   -1.0314   12.4661   -7.3538 H   0  0  0  0  0
   -4.8814   18.7568  -10.3718 H   0  0  0  0  0
  1  2  1  0  0  0
  2  3  1  0  0  0
  2  5  1  0  0  0
  3  4  2  0  0  0
  3 13  1  0  0  0
  5  6  1  0  0  0
  6  7  1  0  0  0
  7  8  2  0  0  0
  8  9  1  0  0  0
  9 10  1  0  0  0
  9 11  1  0  0  0
 10 12  1  0  0  0
  1 14  1  0  0  0
  1 15  1  0  0  0
  1 16  1  0  0  0
  2 17  1  0  0  0
  5 18  1  0  0  0
  5 19  1  0  0  0
  6 20  1  0  0  0
  6 21  1  0  0  0
  7 22  1  0  0  0
  9 23  1  0  0  0
 10 24  1  0  0  0
 10 25  1  0  0  0
 11 26  1  0  0  0
 11 27  1  0  0  0
 11 28  1  0  0  0
 12 29  1  0  0  0
 13 30  1  0  0  0
M  END
$$$$
