2w1i_ligand
  -I-interpret- 

 50 54  0  0  0  0  0  0  0  0999 V2000
   37.8580    6.2900   -2.7790 O   0  0  0  0  0
   38.3810    5.2270   -3.0200 C   0  0  0  0  0
   37.8160    4.1040   -3.4810 N   0  0  0  0  0
   37.1980    3.9520   -4.7680 C   0  0  0  0  0
   38.1420    3.3430   -5.7540 C   0  0  0  0  0
   36.9990    2.5450   -5.2390 C   0  0  0  0  0
   39.6070    4.8750   -2.6720 N   0  0  0  0  0
   40.6800    5.5810   -2.2070 C   0  0  0  0  0
   40.7800    6.6870   -1.4250 C   0  0  0  0  0
   42.0880    6.8980   -1.2370 N   0  0  0  0  0
   42.8380    5.9550   -1.8540 N   0  0  0  0  0
   41.9640    5.1370   -2.4350 C   0  0  0  0  0
   42.3470    3.9770   -3.1980 C   0  0  0  0  0
   41.5380    3.2510   -3.9720 N   0  0  0  0  0
   42.2980    2.2720   -4.4860 C   0  0  0  0  0
   41.9830    1.2390   -5.3590 C   0  0  0  0  0
   42.9790    0.3590   -5.7320 C   0  0  0  0  0
   44.2920    0.4820   -5.2720 C   0  0  0  0  0
   45.3370   -0.5370   -5.6840 C   0  0  0  0  0
   46.4320   -0.1010   -6.6170 N   0  3  0  0  0
   47.3170    0.9700   -6.0390 C   0  0  0  0  0
   48.5030    1.3100   -6.9430 C   0  0  0  0  0
   49.2300    0.1570   -7.4200 O   0  0  0  0  0
   48.3410   -0.8010   -8.0250 C   0  0  0  0  0
   47.2570   -1.2740   -7.0610 C   0  0  0  0  0
   44.6120    1.5120   -4.3950 C   0  0  0  0  0
   43.6050    2.3940   -4.0220 C   0  0  0  0  0
   43.6010    3.4810   -3.1940 N   0  0  0  0  0
   37.8254    3.2894   -2.8673 H   0  0  0  0  0
   36.5457    4.8236   -4.7133 H   0  0  0  0  0
   39.2176    3.2318   -5.8911 H   0  0  0  0  0
   38.5931    3.5954   -6.7136 H   0  0  0  0  0
   36.1959    1.9215   -5.6319 H   0  0  0  0  0
   36.8189    1.5587   -4.8113 H   0  0  0  0  0
   39.7879    3.8760   -2.7705 H   0  0  0  0  0
   39.9583    7.2840   -1.0293 H   0  0  0  0  0
   40.9690    1.1253   -5.7423 H   0  0  0  0  0
   42.7324   -0.4595   -6.4083 H   0  0  0  0  0
   44.7878   -1.3058   -6.2275 H   0  0  0  0  0
   45.8433   -0.8167   -4.7601 H   0  0  0  0  0
   45.9652    0.3093   -7.4258 H   0  0  0  0  0
   47.7132    0.6012   -5.0929 H   0  0  0  0  0
   46.7167    1.8723   -5.9222 H   0  0  0  0  0
   49.1975    1.9078   -6.3528 H   0  0  0  0  0
   48.1049    1.8248   -7.8174 H   0  0  0  0  0
   48.9303   -1.6681   -8.3231 H   0  0  0  0  0
   47.8532   -0.3210   -8.8734 H   0  0  0  0  0
   46.6160   -1.9984   -7.5636 H   0  0  0  0  0
   47.7226   -1.7392   -6.1921 H   0  0  0  0  0
   45.6256    1.6248   -4.0102 H   0  0  0  0  0
  1  2  2  0  0  0
  2  3  1  0  0  0
  2  7  1  0  0  0
  3  4  1  0  0  0
  4  5  1  0  0  0
  4  6  1  0  0  0
  5  6  1  0  0  0
  7  8  1  0  0  0
  8  9  4  0  0  0
  8 12  4  0  0  0
  9 10  4  0  0  0
 10 11  4  0  0  0
 11 12  4  0  0  0
 12 13  1  0  0  0
 13 14  4  0  0  0
 13 28  4  0  0  0
 14 15  4  0  0  0
 15 16  4  0  0  0
 15 27  4  0  0  0
 16 17  4  0  0  0
 17 18  4  0  0  0
 18 19  1  0  0  0
 18 26  4  0  0  0
 19 20  1  0  0  0
 20 21  1  0  0  0
 20 25  1  0  0  0
 21 22  1  0  0  0
 22 23  1  0  0  0
 23 24  1  0  0  0
 24 25  1  0  0  0
 26 27  4  0  0  0
 27 28  4  0  0  0
  3 29  1  0  0  0
  4 30  1  0  0  0
  5 31  1  0  0  0
  5 32  1  0  0  0
  6 33  1  0  0  0
  6 34  1  0  0  0
  7 35  1  0  0  0
  9 36  1  0  0  0
 16 37  1  0  0  0
 17 38  1  0  0  0
 19 39  1  0  0  0
 19 40  1  0  0  0
 20 41  1  0  0  0
 21 42  1  0  0  0
 21 43  1  0  0  0
 22 44  1  0  0  0
 22 45  1  0  0  0
 24 46  1  0  0  0
 24 47  1  0  0  0
 25 48  1  0  0  0
 25 49  1  0  0  0
 26 50  1  0  0  0
M  END
$$$$
