### 
### Created by X-TOOL on Mon Sep 10 21:12:45 2018
### 

@<TRIPOS>MOLECULE
1slg_ligand
  110   112     1     0     0
SMALL
GAST_HUCK


@<TRIPOS>ATOM
      1 N          23.3250   -5.4260   18.9270 N.4       1 PHE         0.2394
      2 CA         23.7540   -4.1070   18.5170 C.3       1 PHE         0.0744
      3 C          22.7200   -3.3310   19.3100 C.2       1 PHE         0.2288
      4 O          22.8730   -3.4700   20.5380 O.2       1 PHE        -0.3905
      5 CB         23.5960   -3.9150   17.0090 C.3       1 PHE         0.0416
      6 CG         24.3500   -2.6950   16.4840 C.ar      1 PHE        -0.0353
      7 CD1        25.6810   -2.4820   16.8760 C.ar      1 PHE        -0.0600
      8 CD2        23.7380   -1.8180   15.5800 C.ar      1 PHE        -0.0600
      9 CE1        26.3890   -1.3880   16.3630 C.ar      1 PHE        -0.0686
     10 CE2        24.4550   -0.7310   15.0790 C.ar      1 PHE        -0.0686
     11 CZ         25.7760   -0.5100   15.4660 C.ar      1 PHE        -0.0687
     12 N          21.6640   -2.7170   18.7120 N.am      1 SER        -0.2587
     13 CA         20.6230   -1.8840   19.4100 C.3       1 SER         0.1540
     14 C          21.3540   -0.5370   19.4810 C.2       1 SER         0.2063
     15 O          22.5820   -0.4610   19.7790 O.2       1 SER        -0.3943
     16 CB         20.1980   -2.3840   20.8930 C.3       1 SER         0.0843
     17 OG         19.8460   -3.8300   20.7500 O.3       1 SER        -0.3903
     18 N          20.5870    0.3800   18.8570 N.am      1 HIS        -0.2624
     19 CA         21.1250    1.6660   18.4890 C.3       1 HIS         0.1371
     20 C          19.9680    2.6800   18.5070 C.2       1 HIS         0.2079
     21 O          18.8040    2.2320   18.4080 O.2       1 HIS        -0.3940
     22 CB         21.7580    1.4290   17.1100 C.3       1 HIS         0.0145
     23 CG         22.3710    2.6780   16.5040 C.2       1 HIS        -0.0027
     24 ND1        21.5970    3.6200   15.9640 N.2       1 HIS        -0.3252
     25 CD2        23.6970    2.9990   16.5800 C.2       1 HIS         0.0291
     26 CE1        22.4500    4.5620   15.6910 C.2       1 HIS         0.0907
     27 NE2        23.6820    4.2120   16.0600 N.pl3     1 HIS        -0.2752
     28 N          20.2170    4.0320   18.6510 N.am      1 PRO        -0.2497
     29 CA         19.1960    5.0700   18.6580 C.3       1 PRO         0.1338
     30 C          18.4730    5.2870   17.3590 C.2       1 PRO         0.2041
     31 O          17.4010    5.8650   17.3880 O.2       1 PRO        -0.3944
     32 CB         19.8970    6.3470   19.0560 C.3       1 PRO        -0.0104
     33 CG         21.1430    5.9120   19.7340 C.3       1 PRO        -0.0281
     34 CD         21.4970    4.6600   18.9830 C.3       1 PRO         0.0369
     35 N          19.0260    4.8640   16.2020 N.am      1 GLN        -0.2636
     36 CA         18.4670    5.2880   14.9320 C.3       1 GLN         0.1330
     37 C          17.0230    4.8590   14.6800 C.2       1 GLN         0.2042
     38 O          16.2540    5.6240   14.0580 O.2       1 GLN        -0.3944
     39 CB         19.4050    4.7790   13.8200 C.3       1 GLN         0.0045
     40 CG         18.9470    5.2200   12.4350 C.3       1 GLN         0.0412
     41 CD         19.9570    4.8720   11.3710 C.2       1 GLN         0.1737
     42 OE1        21.1570    4.9650   11.6080 O.2       1 GLN        -0.3973
     43 NE2        19.4870    4.4750   10.1910 N.am      1 GLN        -0.3009
     44 N          16.5950    3.6800   15.1340 N.am      1 ASN        -0.2616
     45 CA         15.2120    3.2970   14.9330 C.3       1 ASN         0.1475
     46 C          14.7360    2.5160   16.1210 C.2       1 ASN         0.2058
     47 O          15.5170    1.7150   16.6380 O.2       1 ASN        -0.3942
     48 CB         15.0150    2.4060   13.6890 C.3       1 ASN         0.0773
     49 CG         15.0970    3.2200   12.4140 C.2       1 ASN         0.1780
     50 OD1        14.2500    4.0640   12.1350 O.2       1 ASN        -0.3970
     51 ND2        16.1030    3.0030   11.5980 N.am      1 ASN        -0.3007
     52 N          13.4470    2.7890   16.3560 N.am      1 THR        -0.2668
     53 CA         12.5230    2.2840   17.3600 C.3       1 THR         0.1198
     54 C          13.0810    2.2470   18.7680 C.2       1 THR         0.0626
     55 O          13.6610    3.2850   19.1220 O.co2     1 THR        -0.5665
     56 CB         12.0050    0.9050   16.7820 C.3       1 THR         0.0869
     57 OG1        10.7090    0.8190   17.3890 O.3       1 THR        -0.3880
     58 CG2        12.8920   -0.3430   16.9620 C.3       1 THR        -0.0352
     59 OXT        12.8970    1.2820   19.5150 O.co2     1 THR        -0.5665
     60 H1         23.9107   -6.1206   18.4904 H         1 PHE         0.2017
     61 H2         22.3674   -5.5700   18.6472 H         1 PHE         0.2017
     62 H3         23.3980   -5.5067   19.9291 H         1 PHE         0.2017
     63 H4         24.7860   -3.8757   18.8195 H         1 PHE         0.1122
     64 H5         22.5270   -3.7921   16.7807 H         1 PHE         0.0507
     65 H6         23.9793   -4.8110   16.4988 H         1 PHE         0.0507
     66 H7         26.1587   -3.1613   17.5727 H         1 PHE         0.0557
     67 H8         22.7121   -1.9828   15.2709 H         1 PHE         0.0557
     68 H9         27.4172   -1.2218   16.6633 H         1 PHE         0.0599
     69 H10        23.9798   -0.0510   14.3813 H         1 PHE         0.0599
     70 H11        26.3244    0.3385   15.0730 H         1 PHE         0.0559
     71 H12        21.5712   -2.8288   17.7226 H         1 SER         0.1885
     72 H13        19.7138   -1.8152   18.7947 H         1 SER         0.0823
     73 H14        19.3308   -1.8128   21.2560 H         1 SER         0.0606
     74 H15        21.0371   -2.2616   21.5936 H         1 SER         0.0606
     75 H16        20.6010   -4.3082   20.4277 H         1 SER         0.2097
     76 H17        19.6332    0.1653   18.6469 H         1 HIS         0.1885
     77 H18        21.8981    1.9919   19.2004 H         1 HIS         0.0817
     78 H19        20.9789    1.0573   16.4282 H         1 HIS         0.0420
     79 H20        22.5467    0.6694   17.2145 H         1 HIS         0.0420
     80 H21        24.5334    2.4162   16.9630 H         1 HIS         0.0729
     81 H22        22.1923    5.5110   15.2230 H         1 HIS         0.1199
     82 H23        24.5138    4.8101   15.9533 H         1 HIS         0.2361
     83 H24        18.4450    4.8090   19.4182 H         1 PRO         0.0802
     84 H25        19.2691    6.9339   19.7425 H         1 PRO         0.0313
     85 H26        20.1322    6.9510   18.1673 H         1 PRO         0.0313
     86 H27        20.9641    5.7006   20.7986 H         1 PRO         0.0287
     87 H28        21.9339    6.6705   19.6386 H         1 PRO         0.0287
     88 H29        22.1020    3.9913   19.6128 H         1 PRO         0.0524
     89 H30        22.0546    4.9051   18.0671 H         1 PRO         0.0524
     90 H31        19.8213    4.2581   16.2205 H         1 GLN         0.1883
     91 H32        18.4784    6.3878   14.9166 H         1 GLN         0.0801
     92 H33        19.4288    3.6797   13.8520 H         1 GLN         0.0337
     93 H34        20.4159    5.1731   14.0011 H         1 GLN         0.0337
     94 H35        18.7974    6.3097   12.4403 H         1 GLN         0.0504
     95 H36        17.9958    4.7204   12.1992 H         1 GLN         0.0504
     96 H37        20.1206    4.2341    9.4558 H         1 GLN         0.1814
     97 H38        18.5002    4.4176   10.0395 H         1 GLN         0.1814
     98 H39        17.2239    3.0650   15.6096 H         1 ASN         0.1885
     99 H40        14.6070    4.2088   14.8210 H         1 ASN         0.0826
    100 H41        14.0273    1.9251   13.7448 H         1 ASN         0.0551
    101 H42        15.7984    1.6340   13.6728 H         1 ASN         0.0551
    102 H43        16.1806    3.5267   10.7497 H         1 ASN         0.1814
    103 H44        16.7913    2.3140   11.8250 H         1 ASN         0.1814
    104 H45        13.0480    3.4593   15.7302 H         1 THR         0.1876
    105 H46        11.6634    2.9691   17.3998 H         1 THR         0.0752
    106 H47        11.8783    1.0185   15.6952 H         1 THR         0.0632
    107 H48        10.8025    0.8219   18.3344 H         1 THR         0.2100
    108 H49        12.3957   -1.2140   16.5092 H         1 THR         0.0256
    109 H50        13.0511   -0.5282   18.0345 H         1 THR         0.0256
    110 H51        13.8621   -0.1774   16.4706 H         1 THR         0.0256
@<TRIPOS>BOND
     1    3    2 1  
     2    2    5 1  
     3    2    1 1  
     4    5    6 1  
     5    6    8 ar 
     6    6    7 ar 
     7    7    9 ar 
     8    9   11 ar 
     9   10   11 ar 
    10    8   10 ar 
    11    3    4 2  
    12   14   13 1  
    13   13   16 1  
    14   13   12 1  
    15   16   17 1  
    16   14   15 2  
    17   20   19 1  
    18   19   22 1  
    19   19   18 1  
    20   22   23 1  
    21   23   25 2  
    22   23   24 1  
    23   24   26 2  
    24   26   27 1  
    25   25   27 1  
    26   20   21 2  
    27   29   28 1  
    28   29   32 1  
    29   30   29 1  
    30   30   31 2  
    31   32   33 1  
    32   33   34 1  
    33   28   34 1  
    34   37   36 1  
    35   36   39 1  
    36   36   35 1  
    37   39   40 1  
    38   40   41 1  
    39   41   42 2  
    40   41   43 am 
    41   37   38 2  
    42   46   45 1  
    43   45   48 1  
    44   45   44 1  
    45   48   49 1  
    46   49   50 2  
    47   49   51 am 
    48   46   47 2  
    49   53   54 1  
    50   53   56 1  
    51   52   53 1  
    52   56   57 1  
    53   56   58 1  
    54   54   59 ar 
    55   54   55 ar 
    56   12    3 am 
    57   18   14 am 
    58   28   20 am 
    59   35   30 am 
    60   44   37 am 
    61   46   52 am 
    62    1   60 1  
    63    1   61 1  
    64    1   62 1  
    65    2   63 1  
    66    5   64 1  
    67    5   65 1  
    68    7   66 1  
    69    8   67 1  
    70    9   68 1  
    71   10   69 1  
    72   11   70 1  
    73   12   71 1  
    74   13   72 1  
    75   16   73 1  
    76   16   74 1  
    77   17   75 1  
    78   18   76 1  
    79   19   77 1  
    80   22   78 1  
    81   22   79 1  
    82   25   80 1  
    83   26   81 1  
    84   27   82 1  
    85   29   83 1  
    86   32   84 1  
    87   32   85 1  
    88   33   86 1  
    89   33   87 1  
    90   34   88 1  
    91   34   89 1  
    92   35   90 1  
    93   36   91 1  
    94   39   92 1  
    95   39   93 1  
    96   40   94 1  
    97   40   95 1  
    98   43   96 1  
    99   43   97 1  
   100   44   98 1  
   101   45   99 1  
   102   48  100 1  
   103   48  101 1  
   104   51  102 1  
   105   51  103 1  
   106   52  104 1  
   107   53  105 1  
   108   56  106 1  
   109   57  107 1  
   110   58  108 1  
   111   58  109 1  
   112   58  110 1  
@<TRIPOS>SUBSTRUCTURE
     1 PHE         1

