1slg_ligand
  -I-interpret- 

110112  0  0  0  0  0  0  0  0999 V2000
   23.3250   -5.4260   18.9270 N   0  3  0  0  0
   23.7540   -4.1070   18.5170 C   0  0  0  0  0
   22.7200   -3.3310   19.3100 C   0  0  0  0  0
   22.8730   -3.4700   20.5380 O   0  0  0  0  0
   23.5960   -3.9150   17.0090 C   0  0  0  0  0
   24.3500   -2.6950   16.4840 C   0  0  0  0  0
   25.6810   -2.4820   16.8760 C   0  0  0  0  0
   23.7380   -1.8180   15.5800 C   0  0  0  0  0
   26.3890   -1.3880   16.3630 C   0  0  0  0  0
   24.4550   -0.7310   15.0790 C   0  0  0  0  0
   25.7760   -0.5100   15.4660 C   0  0  0  0  0
   21.6640   -2.7170   18.7120 N   0  0  0  0  0
   20.6230   -1.8840   19.4100 C   0  0  0  0  0
   21.3540   -0.5370   19.4810 C   0  0  0  0  0
   22.5820   -0.4610   19.7790 O   0  0  0  0  0
   20.1980   -2.3840   20.8930 C   0  0  0  0  0
   19.8460   -3.8300   20.7500 O   0  0  0  0  0
   20.5870    0.3800   18.8570 N   0  0  0  0  0
   21.1250    1.6660   18.4890 C   0  0  0  0  0
   19.9680    2.6800   18.5070 C   0  0  0  0  0
   18.8040    2.2320   18.4080 O   0  0  0  0  0
   21.7580    1.4290   17.1100 C   0  0  0  0  0
   22.3710    2.6780   16.5040 C   0  0  0  0  0
   21.5970    3.6200   15.9640 N   0  0  0  0  0
   23.6970    2.9990   16.5800 C   0  0  0  0  0
   22.4500    4.5620   15.6910 C   0  0  0  0  0
   23.6820    4.2120   16.0600 N   0  0  0  0  0
   20.2170    4.0320   18.6510 N   0  0  0  0  0
   19.1960    5.0700   18.6580 C   0  0  0  0  0
   18.4730    5.2870   17.3590 C   0  0  0  0  0
   17.4010    5.8650   17.3880 O   0  0  0  0  0
   19.8970    6.3470   19.0560 C   0  0  0  0  0
   21.1430    5.9120   19.7340 C   0  0  0  0  0
   21.4970    4.6600   18.9830 C   0  0  0  0  0
   19.0260    4.8640   16.2020 N   0  0  0  0  0
   18.4670    5.2880   14.9320 C   0  0  0  0  0
   17.0230    4.8590   14.6800 C   0  0  0  0  0
   16.2540    5.6240   14.0580 O   0  0  0  0  0
   19.4050    4.7790   13.8200 C   0  0  0  0  0
   18.9470    5.2200   12.4350 C   0  0  0  0  0
   19.9570    4.8720   11.3710 C   0  0  0  0  0
   21.1570    4.9650   11.6080 O   0  0  0  0  0
   19.4870    4.4750   10.1910 N   0  0  0  0  0
   16.5950    3.6800   15.1340 N   0  0  0  0  0
   15.2120    3.2970   14.9330 C   0  0  0  0  0
   14.7360    2.5160   16.1210 C   0  0  0  0  0
   15.5170    1.7150   16.6380 O   0  0  0  0  0
   15.0150    2.4060   13.6890 C   0  0  0  0  0
   15.0970    3.2200   12.4140 C   0  0  0  0  0
   14.2500    4.0640   12.1350 O   0  0  0  0  0
   16.1030    3.0030   11.5980 N   0  0  0  0  0
   13.4470    2.7890   16.3560 N   0  0  0  0  0
   12.5230    2.2840   17.3600 C   0  0  0  0  0
   13.0810    2.2470   18.7680 C   0  0  0  0  0
   13.6610    3.2850   19.1220 O   0  0  0  0  0
   12.0050    0.9050   16.7820 C   0  0  0  0  0
   10.7090    0.8190   17.3890 O   0  0  0  0  0
   12.8920   -0.3430   16.9620 C   0  0  0  0  0
   12.8970    1.2820   19.5150 O   0  0  0  0  0
   23.4427   -5.5223   19.9356 H   0  0  0  0  0
   22.3425   -5.5534   18.6844 H   0  0  0  0  0
   23.8884   -6.1293   18.4491 H   0  0  0  0  0
   24.7969   -3.8422   18.6909 H   0  0  0  0  0
   22.5363   -3.7668   16.8011 H   0  0  0  0  0
   24.0049   -4.7970   16.5161 H   0  0  0  0  0
   26.1613   -3.1651   17.5766 H   0  0  0  0  0
   22.7065   -1.9837   15.2692 H   0  0  0  0  0
   27.4229   -1.2209   16.6650 H   0  0  0  0  0
   23.9772   -0.0472   14.3774 H   0  0  0  0  0
   26.3274    0.3432   15.0708 H   0  0  0  0  0
   21.5694   -2.8310   17.7028 H   0  0  0  0  0
   19.6674   -1.9010   18.8859 H   0  0  0  0  0
   19.3577   -1.8077   21.2801 H   0  0  0  0  0
   21.0093   -2.2421   21.6070 H   0  0  0  0  0
   19.5847   -4.1806   21.6046 H   0  0  0  0  0
   19.6141    0.1611   18.6427 H   0  0  0  0  0
   21.8811    2.0767   19.1582 H   0  0  0  0  0
   20.9671    1.0932   16.4393 H   0  0  0  0  0
   22.5579    0.6995   17.2372 H   0  0  0  0  0
   24.5342    2.4157   16.9634 H   0  0  0  0  0
   22.1921    5.5118   15.2226 H   0  0  0  0  0
   18.4151    4.7537   19.3495 H   0  0  0  0  0
   19.2762    6.9594   19.7100 H   0  0  0  0  0
   20.1084    6.9759   18.1912 H   0  0  0  0  0
   21.0138    5.7479   20.8038 H   0  0  0  0  0
   21.9307    6.6649   19.7072 H   0  0  0  0  0
   22.1248    3.9986   19.5801 H   0  0  0  0  0
   22.0791    4.8806   18.0882 H   0  0  0  0  0
   19.8372    4.2460   16.2209 H   0  0  0  0  0
   18.4087    6.3764   14.9455 H   0  0  0  0  0
   19.4034    3.6893   13.8470 H   0  0  0  0  0
   20.3975    5.1933   13.9972 H   0  0  0  0  0
   18.8212    6.3027   12.4455 H   0  0  0  0  0
   18.0151    4.7043   12.2031 H   0  0  0  0  0
   20.1332    4.2336    9.4397 H   0  0  0  0  0
   18.4805    4.4121   10.0379 H   0  0  0  0  0
   17.2365    3.0527   15.6191 H   0  0  0  0  0
   14.6486    4.2198   14.7950 H   0  0  0  0  0
   14.0292    1.9442   13.7443 H   0  0  0  0  0
   15.8026    1.6527   13.6722 H   0  0  0  0  0
   16.1811    3.5358   10.7317 H   0  0  0  0  0
   16.8062    2.3017   11.8306 H   0  0  0  0  0
   13.0401    3.4727   15.7177 H   0  0  0  0  0
   11.6854    2.9639   17.5160 H   0  0  0  0  0
   13.6922    3.8999   18.3854 H   0  0  0  0  0
   12.0065    0.9027   15.6920 H   0  0  0  0  0
   10.2801    0.0063   17.1113 H   0  0  0  0  0
   13.8529   -0.1776   16.4747 H   0  0  0  0  0
   13.0489   -0.5254   18.0251 H   0  0  0  0  0
   12.3991   -1.2053   16.5130 H   0  0  0  0  0
  3  2  1  0  0  0
  2  5  1  0  0  0
  2  1  1  0  0  0
  5  6  1  0  0  0
  6  8  4  0  0  0
  6  7  4  0  0  0
  7  9  4  0  0  0
  9 11  4  0  0  0
 10 11  4  0  0  0
  8 10  4  0  0  0
  3  4  2  0  0  0
 14 13  1  0  0  0
 13 16  1  0  0  0
 13 12  1  0  0  0
 16 17  1  0  0  0
 14 15  2  0  0  0
 20 19  1  0  0  0
 19 22  1  0  0  0
 19 18  1  0  0  0
 22 23  1  0  0  0
 23 25  4  0  0  0
 23 24  4  0  0  0
 24 26  4  0  0  0
 26 27  4  0  0  0
 25 27  4  0  0  0
 20 21  2  0  0  0
 29 28  1  0  0  0
 29 32  1  0  0  0
 30 29  1  0  0  0
 30 31  2  0  0  0
 32 33  1  0  0  0
 33 34  1  0  0  0
 28 34  1  0  0  0
 37 36  1  0  0  0
 36 39  1  0  0  0
 36 35  1  0  0  0
 39 40  1  0  0  0
 40 41  1  0  0  0
 41 42  2  0  0  0
 41 43  1  0  0  0
 37 38  2  0  0  0
 46 45  1  0  0  0
 45 48  1  0  0  0
 45 44  1  0  0  0
 48 49  1  0  0  0
 49 50  2  0  0  0
 49 51  1  0  0  0
 46 47  2  0  0  0
 53 54  1  0  0  0
 53 56  1  0  0  0
 52 53  1  0  0  0
 56 57  1  0  0  0
 56 58  1  0  0  0
 54 59  2  0  0  0
 54 55  1  0  0  0
 12  3  1  0  0  0
 18 14  1  0  0  0
 28 20  1  0  0  0
 35 30  1  0  0  0
 44 37  1  0  0  0
 46 52  1  0  0  0
  1 60  1  0  0  0
  1 61  1  0  0  0
  1 62  1  0  0  0
  2 63  1  0  0  0
  5 64  1  0  0  0
  5 65  1  0  0  0
  7 66  1  0  0  0
  8 67  1  0  0  0
  9 68  1  0  0  0
 10 69  1  0  0  0
 11 70  1  0  0  0
 12 71  1  0  0  0
 13 72  1  0  0  0
 16 73  1  0  0  0
 16 74  1  0  0  0
 17 75  1  0  0  0
 18 76  1  0  0  0
 19 77  1  0  0  0
 22 78  1  0  0  0
 22 79  1  0  0  0
 25 80  1  0  0  0
 26 81  1  0  0  0
 29 82  1  0  0  0
 32 83  1  0  0  0
 32 84  1  0  0  0
 33 85  1  0  0  0
 33 86  1  0  0  0
 34 87  1  0  0  0
 34 88  1  0  0  0
 35 89  1  0  0  0
 36 90  1  0  0  0
 39 91  1  0  0  0
 39 92  1  0  0  0
 40 93  1  0  0  0
 40 94  1  0  0  0
 43 95  1  0  0  0
 43 96  1  0  0  0
 44 97  1  0  0  0
 45 98  1  0  0  0
 48 99  1  0  0  0
 48100  1  0  0  0
 51101  1  0  0  0
 51102  1  0  0  0
 52103  1  0  0  0
 53104  1  0  0  0
 55105  1  0  0  0
 56106  1  0  0  0
 57107  1  0  0  0
 58108  1  0  0  0
 58109  1  0  0  0
 58110  1  0  0  0
M  END
$$$$
