6eds_ligand
  -I-interpret- 

 70 74  0  0  0  0  0  0  0  0999 V2000
  100.2660  -69.2720  -29.7560 C   0  0  0  0  0
   99.8620  -71.2580  -28.7860 C   0  0  0  0  0
  101.1660  -71.2980  -29.3410 C   0  0  0  0  0
  102.6140  -69.6530  -30.6340 C   0  0  0  0  0
   97.2800  -67.6620  -30.3350 C   0  0  0  0  0
   96.2520  -66.7440  -31.1200 C   0  0  0  0  0
   98.4320  -66.0640  -28.7550 C   0  0  0  0  0
   97.8480  -64.6850  -29.2070 C   0  0  0  0  0
   96.3660  -64.4330  -28.7980 C   0  0  0  0  0
   95.4920  -65.7220  -28.9140 C   0  0  0  0  0
   94.0650  -66.7090  -31.0430 C   0  0  0  0  0
   93.1410  -67.5660  -30.1490 C   0  0  0  0  0
   95.1310  -67.5480  -31.8170 C   0  0  0  0  0
   95.0240  -67.4310  -33.3480 C   0  0  0  0  0
   94.7800  -68.5960  -34.0870 C   0  0  0  0  0
   94.6580  -68.5390  -35.4850 C   0  0  0  0  0
   94.7690  -67.3230  -36.2010 C   0  0  0  0  0
   94.6240  -67.3520  -37.6260 C   0  0  0  0  0
   93.3860  -67.0820  -38.2770 C   0  0  0  0  0
   92.1720  -66.6920  -37.4410 C   0  0  0  0  0
   93.2950  -67.1540  -39.6790 C   0  0  0  0  0
   91.9870  -66.8520  -40.3650 C   0  0  0  0  0
   94.4360  -67.5130  -40.4420 C   0  0  0  0  0
   95.6800  -67.8030  -39.8130 C   0  0  0  0  0
   95.7570  -67.7260  -38.4060 C   0  0  0  0  0
   95.0060  -66.1400  -35.4450 C   0  0  0  0  0
   95.1280  -66.1950  -34.0310 C   0  0  0  0  0
   99.3320  -69.9850  -29.0660 N   0  0  0  0  0
  101.3670  -70.0620  -29.9220 N   0  0  0  0  0
   98.5720  -67.0090  -29.8960 N   0  0  0  0  0
   95.1460  -65.9940  -30.3260 N   0  3  0  0  0
  100.2430  -67.4990  -31.7930 O   0  0  0  0  0
   92.9300  -68.8300  -30.8720 O   0  0  0  0  0
  101.1220  -66.7520  -29.8240 O   0  0  0  0  0
  100.0540  -67.5660  -30.3480 S   0  0  0  0  0
   99.3638  -72.0621  -28.2443 H   0  0  0  0  0
  101.8660  -72.1331  -29.3144 H   0  0  0  0  0
  102.3747  -69.3999  -31.6669 H   0  0  0  0  0
  103.0467  -68.7849  -30.1367 H   0  0  0  0  0
  103.3277  -70.4767  -30.6164 H   0  0  0  0  0
   97.5634  -68.4559  -31.0260 H   0  0  0  0  0
   96.7721  -67.9694  -29.4209 H   0  0  0  0  0
   97.0031  -66.1569  -31.6484 H   0  0  0  0  0
   97.7474  -66.5035  -28.0296 H   0  0  0  0  0
   99.4210  -65.8932  -28.3297 H   0  0  0  0  0
   97.8810  -64.6707  -30.2964 H   0  0  0  0  0
   98.4450  -63.9147  -28.7187 H   0  0  0  0  0
   95.9523  -63.6821  -29.4712 H   0  0  0  0  0
   96.3528  -64.1079  -27.7577 H   0  0  0  0  0
   94.5721  -65.5760  -28.3477 H   0  0  0  0  0
   96.0568  -66.5672  -28.5206 H   0  0  0  0  0
   93.3027  -66.1388  -31.5739 H   0  0  0  0  0
   92.1952  -67.0583  -29.9597 H   0  0  0  0  0
   93.5913  -67.7419  -29.1721 H   0  0  0  0  0
   95.1567  -68.6367  -31.7707 H   0  0  0  0  0
   94.6842  -69.5528  -33.5737 H   0  0  0  0  0
   94.4719  -69.4607  -36.0363 H   0  0  0  0  0
   91.9407  -67.4955  -36.7418 H   0  0  0  0  0
   92.3917  -65.7790  -36.8876 H   0  0  0  0  0
   91.3188  -66.5236  -38.0982 H   0  0  0  0  0
   91.2251  -67.5481  -40.0143 H   0  0  0  0  0
   91.6833  -65.8314  -40.1322 H   0  0  0  0  0
   92.1103  -66.9589  -41.4427 H   0  0  0  0  0
   94.3590  -67.5677  -41.5279 H   0  0  0  0  0
   96.5530  -68.0782  -40.4048 H   0  0  0  0  0
   96.6985  -67.9563  -37.9074 H   0  0  0  0  0
   95.0948  -65.1818  -35.9569 H   0  0  0  0  0
   95.3030  -65.2787  -33.4673 H   0  0  0  0  0
   94.8750  -65.0120  -30.2755 H   0  0  0  0  0
   92.3581  -69.4017  -30.3546 H   0  0  0  0  0
  1 28  4  0  0  0
  1 29  4  0  0  0
 35  1  1  0  0  0
  3  2  4  0  0  0
 28  2  4  0  0  0
 29  3  4  0  0  0
 29  4  1  0  0  0
  5  6  1  0  0  0
 30  5  1  0  0  0
  6 13  1  0  0  0
  6 31  1  0  0  0
  7  8  1  0  0  0
 30  7  1  0  0  0
  8  9  1  0  0  0
  9 10  1  0  0  0
 31 10  1  0  0  0
 11 12  1  0  0  0
 13 11  1  0  0  0
 31 11  1  0  0  0
 12 33  1  0  0  0
 13 14  1  0  0  0
 14 15  4  0  0  0
 14 27  4  0  0  0
 15 16  4  0  0  0
 16 17  4  0  0  0
 17 18  1  0  0  0
 26 17  4  0  0  0
 18 19  4  0  0  0
 18 25  4  0  0  0
 19 20  1  0  0  0
 19 21  4  0  0  0
 21 22  1  0  0  0
 21 23  4  0  0  0
 24 23  4  0  0  0
 25 24  4  0  0  0
 27 26  4  0  0  0
 30 35  1  0  0  0
 35 32  2  0  0  0
 35 34  2  0  0  0
  2 36  1  0  0  0
  3 37  1  0  0  0
  4 38  1  0  0  0
  4 39  1  0  0  0
  4 40  1  0  0  0
  5 41  1  0  0  0
  5 42  1  0  0  0
  6 43  1  0  0  0
  7 44  1  0  0  0
  7 45  1  0  0  0
  8 46  1  0  0  0
  8 47  1  0  0  0
  9 48  1  0  0  0
  9 49  1  0  0  0
 10 50  1  0  0  0
 10 51  1  0  0  0
 11 52  1  0  0  0
 12 53  1  0  0  0
 12 54  1  0  0  0
 13 55  1  0  0  0
 15 56  1  0  0  0
 16 57  1  0  0  0
 20 58  1  0  0  0
 20 59  1  0  0  0
 20 60  1  0  0  0
 22 61  1  0  0  0
 22 62  1  0  0  0
 22 63  1  0  0  0
 23 64  1  0  0  0
 24 65  1  0  0  0
 25 66  1  0  0  0
 26 67  1  0  0  0
 27 68  1  0  0  0
 31 69  1  0  0  0
 33 70  1  0  0  0
M  END
$$$$
