5ll5_ligand
  -I-interpret- 

 35 37  0  0  0  0  0  0  0  0999 V2000
   27.6040    7.5220   11.0450 O   0  0  0  0  0
   26.3900    7.5430   11.0600 C   0  0  0  0  0
   25.7030    6.2610   10.8420 C   0  0  0  0  0
   24.3050    6.1770   10.8560 C   0  0  0  0  0
   23.6780    4.9350   10.6310 C   0  0  0  0  0
   26.5040    5.1560   10.4770 C   0  0  0  0  0
   25.8700    3.9200   10.2470 C   0  0  0  0  0
   24.4540    3.8830   10.2910 C   0  0  0  0  0
   23.5830    2.3540    9.9390 S   0  0  0  0  0
   22.8970    2.4960    8.6020 O   0  0  0  0  0
   22.6040    2.1460   11.1290 N   0  0  0  0  0
   24.6360    1.2600    9.9510 O   0  0  0  0  0
   25.6070    8.8300   11.1820 C   0  0  0  0  0
   26.4430   10.0440   11.3300 N   0  0  0  0  0
   26.8910   10.8140   10.2930 C   0  0  0  0  0
   26.7110   10.6710    8.9200 C   0  0  0  0  0
   27.2690   11.6560    8.0610 C   0  0  0  0  0
   28.0490   12.7110    8.5710 C   0  0  0  0  0
   28.2280   12.8360    9.9610 C   0  0  0  0  0
   27.6280   11.8720   10.8170 C   0  0  0  0  0
   27.6610   11.7860   12.1920 N   0  0  0  0  0
   26.9210   10.6550   12.4760 C   0  0  0  0  0
   23.7047    7.0680   11.0400 H   0  0  0  0  0
   22.5978    4.8265   10.7286 H   0  0  0  0  0
   27.5846    5.2576   10.3761 H   0  0  0  0  0
   26.4499    3.0202   10.0416 H   0  0  0  0  0
   21.5981    2.1164   10.9627 H   0  0  0  0  0
   22.9677    2.0392   12.0759 H   0  0  0  0  0
   24.9981    8.7495   12.0825 H   0  0  0  0  0
   25.0361    8.9454   10.2606 H   0  0  0  0  0
   26.1562    9.8251    8.5142 H   0  0  0  0  0
   27.0898   11.5935    6.9877 H   0  0  0  0  0
   28.5120   13.4275    7.8925 H   0  0  0  0  0
   28.8154   13.6562   10.3738 H   0  0  0  0  0
   26.7352   10.2867   13.4849 H   0  0  0  0  0
  1  2  2  0  0  0
  2  3  1  0  0  0
  2 13  1  0  0  0
  3  4  4  0  0  0
  3  6  4  0  0  0
  4  5  4  0  0  0
  5  8  4  0  0  0
  6  7  4  0  0  0
  7  8  4  0  0  0
  8  9  1  0  0  0
  9 10  2  0  0  0
  9 11  1  0  0  0
  9 12  2  0  0  0
 13 14  1  0  0  0
 14 15  4  0  0  0
 14 22  4  0  0  0
 15 16  4  0  0  0
 15 20  4  0  0  0
 16 17  4  0  0  0
 17 18  4  0  0  0
 18 19  4  0  0  0
 19 20  4  0  0  0
 20 21  4  0  0  0
 21 22  4  0  0  0
  4 23  1  0  0  0
  5 24  1  0  0  0
  6 25  1  0  0  0
  7 26  1  0  0  0
 11 27  1  0  0  0
 11 28  1  0  0  0
 13 29  1  0  0  0
 13 30  1  0  0  0
 16 31  1  0  0  0
 17 32  1  0  0  0
 18 33  1  0  0  0
 19 34  1  0  0  0
 22 35  1  0  0  0
M  END
$$$$
