### 
### Created by X-TOOL on Mon Sep 10 21:13:02 2018
### 

@<TRIPOS>MOLECULE
2w85_ligand
  202   204     1     0     0
SMALL
GAST_HUCK


@<TRIPOS>ATOM
      1 N           2.8070   18.7490    3.6930 N.4       1 SER         0.2396
      2 CA          2.1280   17.8430    4.6360 C.3       1 SER         0.0885
      3 C           2.3030   16.3920    4.2010 C.2       1 SER         0.2290
      4 O           1.9220   16.0080    3.0950 O.2       1 SER        -0.3906
      5 CB          0.6460   18.2090    4.7120 C.3       1 SER         0.1041
      6 OG          0.1150   18.4450    3.4200 O.3       1 SER        -0.3870
      7 N           2.8880   15.5860    5.0790 N.am      1 GLN        -0.2608
      8 CA          3.1510   14.1890    4.7720 C.3       1 GLN         0.1331
      9 C           1.8550   13.3870    4.7800 C.2       1 GLN         0.2040
     10 O           1.7080   12.4290    4.0290 O.2       1 GLN        -0.3944
     11 CB          4.1640   13.6120    5.7650 C.3       1 GLN         0.0045
     12 CG          4.5030   12.1490    5.5200 C.3       1 GLN         0.0412
     13 CD          5.6960   11.6840    6.3290 C.2       1 GLN         0.1737
     14 OE1         6.6140   12.4550    6.6010 O.2       1 GLN        -0.3973
     15 NE2         5.6880   10.4240    6.7220 N.am      1 GLN        -0.3009
     16 N           0.9150   13.7980    5.6220 N.am      1 GLU        -0.2636
     17 CA         -0.3970   13.1660    5.6730 C.3       1 GLU         0.1325
     18 C          -1.0960   13.2800    4.3210 C.2       1 GLU         0.2040
     19 O          -1.6350   12.3020    3.8030 O.2       1 GLU        -0.3944
     20 CB         -1.2720   13.7980    6.7610 C.3       1 GLU        -0.0008
     21 CG         -0.6520   13.7750    8.1490 C.3       1 GLU         0.0044
     22 CD          0.2890   14.9390    8.3940 C.2       1 GLU         0.0350
     23 OE1         1.4850   14.8290    8.0530 O.co2     1 GLU        -0.5690
     24 OE2        -0.1640   15.9710    8.9220 O.co2     1 GLU        -0.5690
     25 N          -1.0590   14.4760    3.7450 N.am      1 LYS        -0.2637
     26 CA         -1.6650   14.7190    2.4430 C.3       1 LYS         0.1310
     27 C          -0.9050   13.9680    1.3540 C.2       1 LYS         0.2040
     28 O          -1.4730   13.6050    0.3260 O.2       1 LYS        -0.3944
     29 CB         -1.6770   16.2160    2.1290 C.3       1 LYS        -0.0122
     30 CG         -2.3910   16.5660    0.8330 C.3       1 LYS        -0.0440
     31 CD         -2.1240   18.0030    0.4250 C.3       1 LYS        -0.0124
     32 CE         -2.8540   18.3630   -0.8590 C.3       1 LYS        -0.0354
     33 NZ         -2.4190   19.6810   -1.3890 N.4       1 LYS         0.2185
     34 N           0.3810   13.7310    1.5950 N.am      1 PHE        -0.2619
     35 CA          1.2220   12.9960    0.6540 C.3       1 PHE         0.1404
     36 C           0.7070   11.5700    0.4770 C.2       1 PHE         0.2061
     37 O           0.7980   11.0040   -0.6090 O.2       1 PHE        -0.3942
     38 CB          2.6770   12.9950    1.1420 C.3       1 PHE         0.0214
     39 CG          3.6610   12.4420    0.1510 C.ar      1 PHE        -0.0386
     40 CD1         4.0740   13.2040   -0.9300 C.ar      1 PHE        -0.0601
     41 CD2         4.1850   11.1690    0.3080 C.ar      1 PHE        -0.0601
     42 CE1         4.9860   12.7050   -1.8390 C.ar      1 PHE        -0.0686
     43 CE2         5.0950   10.6650   -0.5980 C.ar      1 PHE        -0.0686
     44 CZ          5.4980   11.4330   -1.6730 C.ar      1 PHE        -0.0687
     45 N           0.1330   11.0060    1.5380 N.am      1 PHE        -0.2618
     46 CA         -0.4330    9.6630    1.4710 C.3       1 PHE         0.1404
     47 C          -1.7810    9.6960    0.7570 C.2       1 PHE         0.2060
     48 O          -2.2070    8.7180    0.1460 O.2       1 PHE        -0.3942
     49 CB         -0.6250    9.0730    2.8740 C.3       1 PHE         0.0214
     50 CG          0.6400    8.8930    3.6680 C.ar      1 PHE        -0.0386
     51 CD1         0.8360    9.6030    4.8400 C.ar      1 PHE        -0.0601
     52 CD2         1.6230    8.0110    3.2530 C.ar      1 PHE        -0.0601
     53 CE1         1.9880    9.4350    5.5850 C.ar      1 PHE        -0.0686
     54 CE2         2.7780    7.8400    3.9910 C.ar      1 PHE        -0.0686
     55 CZ          2.9610    8.5530    5.1600 C.ar      1 PHE        -0.0687
     56 N          -2.4380   10.8430    0.8270 N.am      1 GLN        -0.2634
     57 CA         -3.7990   10.9830    0.3390 C.3       1 GLN         0.1330
     58 C          -3.8360   11.4360   -1.1180 C.2       1 GLN         0.2040
     59 O          -4.3270   10.7190   -1.9870 O.2       1 GLN        -0.3944
     60 CB         -4.5530   11.9720    1.2250 C.3       1 GLN         0.0045
     61 CG         -4.6690   11.5130    2.6700 C.3       1 GLN         0.0412
     62 CD         -5.2390   12.5820    3.5810 C.2       1 GLN         0.1737
     63 OE1        -5.0520   13.7750    3.3450 O.2       1 GLN        -0.3973
     64 NE2        -5.9360   12.1600    4.6260 N.am      1 GLN        -0.3009
     65 N          -3.2890   12.6180   -1.3760 N.am      1 GLU        -0.2636
     66 CA         -3.3290   13.2300   -2.7030 C.3       1 GLU         0.1325
     67 C          -2.6390   12.3560   -3.7460 C.2       1 GLU         0.2040
     68 O          -3.1680   12.1320   -4.8370 O.2       1 GLU        -0.3944
     69 CB         -2.6550   14.6040   -2.6560 C.3       1 GLU        -0.0008
     70 CG         -2.5920   15.3120   -4.0010 C.3       1 GLU         0.0044
     71 CD         -3.9460   15.7880   -4.4790 C.2       1 GLU         0.0350
     72 OE1        -4.2020   17.0080   -4.4040 O.co2     1 GLU        -0.5690
     73 OE2        -4.7530   14.9510   -4.9340 O.co2     1 GLU        -0.5690
     74 N          -1.4640   11.8560   -3.3990 N.am      1 LEU        -0.2637
     75 CA         -0.6470   11.1130   -4.3450 C.3       1 LEU         0.1312
     76 C          -1.2870    9.7740   -4.7080 C.2       1 LEU         0.2040
     77 O          -1.1260    9.2890   -5.8260 O.2       1 LEU        -0.3944
     78 CB          0.7540   10.8900   -3.7710 C.3       1 LEU        -0.0101
     79 CG          1.7750   10.2970   -4.7450 C.3       1 LEU        -0.0425
     80 CD1         2.0090   11.2370   -5.9160 C.3       1 LEU        -0.0625
     81 CD2         3.0830   10.0070   -4.0300 C.3       1 LEU        -0.0625
     82 N          -2.0270    9.1870   -3.7750 N.am      1 PHE        -0.2619
     83 CA         -2.6290    7.8820   -4.0140 C.3       1 PHE         0.1404
     84 C          -4.0440    8.0310   -4.5730 C.2       1 PHE         0.2060
     85 O          -4.6100    7.0820   -5.1160 O.2       1 PHE        -0.3942
     86 CB         -2.6550    7.0460   -2.7320 C.3       1 PHE         0.0214
     87 CG         -2.6630    5.5730   -3.0020 C.ar      1 PHE        -0.0386
     88 CD1        -3.8520    4.8760   -3.1450 C.ar      1 PHE        -0.0601
     89 CD2        -1.4710    4.8860   -3.1260 C.ar      1 PHE        -0.0601
     90 CE1        -3.8470    3.5210   -3.4130 C.ar      1 PHE        -0.0686
     91 CE2        -1.4600    3.5350   -3.3890 C.ar      1 PHE        -0.0686
     92 CZ         -2.6470    2.8500   -3.5320 C.ar      1 PHE        -0.0687
     93 N          -4.6120    9.2250   -4.4310 N.am      1 ASP        -0.2620
     94 CA         -5.9330    9.5150   -4.9860 C.3       1 ASP         0.1423
     95 C          -5.9210    9.3130   -6.4960 C.2       1 ASP         0.2051
     96 O          -6.8370    8.7170   -7.0690 O.2       1 ASP        -0.3943
     97 CB         -6.3520   10.9520   -4.6560 C.3       1 ASP         0.0406
     98 CG         -7.6500   11.3490   -5.3310 C.2       1 ASP         0.0393
     99 OD1        -7.6000   11.8620   -6.4720 O.co2     1 ASP        -0.5688
    100 OD2        -8.7240   11.1530   -4.7260 O.co2     1 ASP        -0.5688
    101 N          -4.8660    9.8090   -7.1230 N.am      1 SER        -0.2671
    102 CA         -4.6730    9.6610   -8.5550 C.3       1 SER         0.1173
    103 C          -3.1910    9.4800   -8.8530 C.2       1 SER         0.0623
    104 O          -2.4400   10.4770   -8.7690 O.co2     1 SER        -0.5665
    105 CB         -5.2180   10.8840   -9.3010 C.3       1 SER         0.0789
    106 OG         -6.5910   11.1040   -9.0010 O.3       1 SER        -0.3910
    107 OXT        -2.7780    8.3390   -9.1490 O.co2     1 SER        -0.5665
    108 H1          2.6820   19.7027    3.9943 H         1 SER         0.2016
    109 H2          2.4127   18.6330    2.7726 H         1 SER         0.2016
    110 H3          3.7908   18.5311    3.6670 H         1 SER         0.2016
    111 H4          2.5756   17.9668    5.6331 H         1 SER         0.1122
    112 H5          0.5307   19.1184    5.3200 H         1 SER         0.0640
    113 H6          0.0946   17.3813    5.1819 H         1 SER         0.0640
    114 H7          0.2092   17.6609    2.8920 H         1 SER         0.2099
    115 H8          3.1540   15.9480    5.9724 H         1 GLN         0.1885
    116 H9          3.5852   14.1308    3.7630 H         1 GLN         0.0801
    117 H10         3.7474   13.7059    6.7787 H         1 GLN         0.0337
    118 H11         5.0916   14.1990    5.6940 H         1 GLN         0.0337
    119 H12         4.7275   12.0135    4.4517 H         1 GLN         0.0504
    120 H13         3.6318   11.5351    5.7924 H         1 GLN         0.0504
    121 H14         6.4503   10.0629    7.2591 H         1 GLN         0.1814
    122 H15         4.9196    9.8305    6.4826 H         1 GLN         0.1814
    123 H16         1.1122   14.5612    6.2374 H         1 GLU         0.1883
    124 H17        -0.2599   12.1006    5.9098 H         1 GLU         0.0801
    125 H18        -2.2249   13.2498    6.7995 H         1 GLU         0.0330
    126 H19        -1.4626   14.8457    6.4854 H         1 GLU         0.0330
    127 H20        -0.0887   12.8375    8.2664 H         1 GLU         0.0433
    128 H21        -1.4595   13.8135    8.8949 H         1 GLU         0.0433
    129 H22        -0.6029   15.2299    4.2178 H         1 LYS         0.1883
    130 H23        -2.7026   14.3546    2.4653 H         1 LYS         0.0800
    131 H24        -0.6358   16.5633    2.0559 H         1 LYS         0.0312
    132 H25        -2.1811   16.7395    2.9548 H         1 LYS         0.0312
    133 H26        -3.4735   16.4287    0.9723 H         1 LYS         0.0269
    134 H27        -2.0358   15.8958    0.0363 H         1 LYS         0.0269
    135 H28        -1.0430   18.1357    0.2706 H         1 LYS         0.0317
    136 H29        -2.4644   18.6719    1.2291 H         1 LYS         0.0317
    137 H30        -3.9345   18.3997   -0.6562 H         1 LYS         0.0813
    138 H31        -2.6487   17.5901   -1.6142 H         1 LYS         0.0813
    139 H32        -2.9231   19.8848   -2.2378 H         1 LYS         0.1994
    140 H33        -1.4303   19.6553   -1.5834 H         1 LYS         0.1994
    141 H34        -2.6086   20.3972   -0.7055 H         1 LYS         0.1994
    142 H35         0.7845   14.0662    2.4464 H         1 PHE         0.1885
    143 H36         1.1816   13.5029   -0.3214 H         1 PHE         0.0823
    144 H37         2.7328   12.3884    2.0579 H         1 PHE         0.0474
    145 H38         2.9643   14.0319    1.3708 H         1 PHE         0.0474
    146 H39         3.6766   14.2036   -1.0638 H         1 PHE         0.0557
    147 H40         3.8765   10.5626    1.1519 H         1 PHE         0.0557
    148 H41         5.2996   13.3107   -2.6815 H         1 PHE         0.0599
    149 H42         5.4940    9.6658   -0.4662 H         1 PHE         0.0599
    150 H43         6.2143   11.0384   -2.3846 H         1 PHE         0.0559
    151 H44         0.0890   11.5135    2.3985 H         1 PHE         0.1885
    152 H45         0.2568    9.0188    0.9060 H         1 PHE         0.0823
    153 H46        -1.1036    8.0883    2.7673 H         1 PHE         0.0474
    154 H47        -1.2891    9.7443    3.4383 H         1 PHE         0.0474
    155 H48         0.0768   10.2992    5.1776 H         1 PHE         0.0557
    156 H49         1.4846    7.4475    2.3374 H         1 PHE         0.0557
    157 H50         2.1273    9.9955    6.5024 H         1 PHE         0.0599
    158 H51         3.5401    7.1470    3.6532 H         1 PHE         0.0599
    159 H52         3.8660    8.4202    5.7418 H         1 PHE         0.0559
    160 H53        -1.9832   11.6380    1.2284 H         1 GLN         0.1883
    161 H54        -4.2939   10.0029    0.4057 H         1 GLN         0.0801
    162 H55        -5.5662   12.1044    0.8178 H         1 GLN         0.0337
    163 H56        -4.0213   12.9348    1.2055 H         1 GLN         0.0337
    164 H57        -3.6676   11.2388    3.0333 H         1 GLN         0.0504
    165 H58        -5.3266   10.6320    2.7074 H         1 GLN         0.0504
    166 H59        -6.3354   12.8215    5.2608 H         1 GLN         0.1814
    167 H60        -6.0626   11.1800    4.7798 H         1 GLN         0.1814
    168 H61        -2.8320   13.1085   -0.6340 H         1 GLU         0.1883
    169 H62        -4.3812   13.3591   -2.9965 H         1 GLU         0.0801
    170 H63        -1.6273   14.4720   -2.2868 H         1 GLU         0.0330
    171 H64        -3.2169   15.2406   -1.9567 H         1 GLU         0.0330
    172 H65        -2.1820   14.6144   -4.7461 H         1 GLU         0.0433
    173 H66        -1.9263   16.1828   -3.9086 H         1 GLU         0.0433
    174 H67        -1.1307   11.9921   -2.4660 H         1 LEU         0.1883
    175 H68        -0.5560   11.7107   -5.2640 H         1 LEU         0.0800
    176 H69         0.6650   10.2058   -2.9143 H         1 LEU         0.0315
    177 H70         1.1382   11.8613   -3.4262 H         1 LEU         0.0315
    178 H71         1.3737    9.3499   -5.1347 H         1 LEU         0.0298
    179 H72         2.7446   10.7919   -6.6021 H         1 LEU         0.0232
    180 H73         2.3904   12.1991   -5.5434 H         1 LEU         0.0232
    181 H74         1.0614   11.4003   -6.4502 H         1 LEU         0.0232
    182 H75         2.8965    9.3262   -3.1863 H         1 LEU         0.0232
    183 H76         3.5119   10.9477   -3.6542 H         1 LEU         0.0232
    184 H77         3.7880    9.5370   -4.7315 H         1 LEU         0.0232
    185 H78        -2.1728    9.6457   -2.8985 H         1 PHE         0.1885
    186 H79        -2.0164    7.3530   -4.7589 H         1 PHE         0.0823
    187 H80        -3.5597    7.3040   -2.1620 H         1 PHE         0.0474
    188 H81        -1.7637    7.2894   -2.1351 H         1 PHE         0.0474
    189 H82        -4.7959    5.3996   -3.0455 H         1 PHE         0.0557
    190 H83        -0.5328    5.4174   -3.0148 H         1 PHE         0.0557
    191 H84        -4.7828    2.9864   -3.5295 H         1 PHE         0.0599
    192 H85        -0.5167    3.0094   -3.4837 H         1 PHE         0.0599
    193 H86        -2.6382    1.7857   -3.7376 H         1 PHE         0.0559
    194 H87        -4.1239    9.9416   -3.9327 H         1 ASP         0.1884
    195 H88        -6.6627    8.8228   -4.5406 H         1 ASP         0.0819
    196 H89        -5.5578   11.6362   -4.9893 H         1 ASP         0.0478
    197 H90        -6.4795   11.0408   -3.5670 H         1 ASP         0.0478
    198 H91        -4.1775   10.3031   -6.5920 H         1 SER         0.1876
    199 H92        -5.2171    8.7681   -8.8965 H         1 SER         0.0749
    200 H93        -5.1096   10.7209  -10.3834 H         1 SER         0.0599
    201 H94        -4.6399   11.7715   -9.0042 H         1 SER         0.0599
    202 H95        -6.6906   11.2499   -8.0676 H         1 SER         0.2096
@<TRIPOS>BOND
     1    1    2 1  
     2    2    3 1  
     3    2    5 1  
     4    3    4 2  
     5    3    7 am 
     6    5    6 1  
     7    7    8 1  
     8    8    9 1  
     9    8   11 1  
    10    9   10 2  
    11    9   16 am 
    12   11   12 1  
    13   12   13 1  
    14   13   14 2  
    15   13   15 am 
    16   16   17 1  
    17   17   18 1  
    18   17   20 1  
    19   18   19 2  
    20   18   25 am 
    21   20   21 1  
    22   21   22 1  
    23   22   23 ar 
    24   22   24 ar 
    25   25   26 1  
    26   26   27 1  
    27   26   29 1  
    28   27   28 2  
    29   27   34 am 
    30   29   30 1  
    31   30   31 1  
    32   31   32 1  
    33   32   33 1  
    34   34   35 1  
    35   35   36 1  
    36   35   38 1  
    37   36   37 2  
    38   36   45 am 
    39   38   39 1  
    40   39   40 ar 
    41   39   41 ar 
    42   40   42 ar 
    43   41   43 ar 
    44   42   44 ar 
    45   43   44 ar 
    46   45   46 1  
    47   46   47 1  
    48   46   49 1  
    49   47   48 2  
    50   47   56 am 
    51   49   50 1  
    52   50   51 ar 
    53   50   52 ar 
    54   51   53 ar 
    55   52   54 ar 
    56   53   55 ar 
    57   54   55 ar 
    58   56   57 1  
    59   57   58 1  
    60   57   60 1  
    61   58   59 2  
    62   58   65 am 
    63   60   61 1  
    64   61   62 1  
    65   62   63 2  
    66   62   64 am 
    67   65   66 1  
    68   66   67 1  
    69   66   69 1  
    70   67   68 2  
    71   67   74 am 
    72   69   70 1  
    73   70   71 1  
    74   71   72 ar 
    75   71   73 ar 
    76   74   75 1  
    77   75   76 1  
    78   75   78 1  
    79   76   77 2  
    80   76   82 am 
    81   78   79 1  
    82   79   80 1  
    83   79   81 1  
    84   82   83 1  
    85   83   84 1  
    86   83   86 1  
    87   84   85 2  
    88   84   93 am 
    89   86   87 1  
    90   87   88 ar 
    91   87   89 ar 
    92   88   90 ar 
    93   89   91 ar 
    94   90   92 ar 
    95   91   92 ar 
    96   93   94 1  
    97   94   95 1  
    98   94   97 1  
    99   95   96 2  
   100   95  101 am 
   101   97   98 1  
   102   98   99 ar 
   103   98  100 ar 
   104  101  102 1  
   105  102  103 1  
   106  102  105 1  
   107  103  104 ar 
   108  103  107 ar 
   109  105  106 1  
   110    1  108 1  
   111    1  109 1  
   112    1  110 1  
   113    2  111 1  
   114    5  112 1  
   115    5  113 1  
   116    6  114 1  
   117    7  115 1  
   118    8  116 1  
   119   11  117 1  
   120   11  118 1  
   121   12  119 1  
   122   12  120 1  
   123   15  121 1  
   124   15  122 1  
   125   16  123 1  
   126   17  124 1  
   127   20  125 1  
   128   20  126 1  
   129   21  127 1  
   130   21  128 1  
   131   25  129 1  
   132   26  130 1  
   133   29  131 1  
   134   29  132 1  
   135   30  133 1  
   136   30  134 1  
   137   31  135 1  
   138   31  136 1  
   139   32  137 1  
   140   32  138 1  
   141   33  139 1  
   142   33  140 1  
   143   33  141 1  
   144   34  142 1  
   145   35  143 1  
   146   38  144 1  
   147   38  145 1  
   148   40  146 1  
   149   41  147 1  
   150   42  148 1  
   151   43  149 1  
   152   44  150 1  
   153   45  151 1  
   154   46  152 1  
   155   49  153 1  
   156   49  154 1  
   157   51  155 1  
   158   52  156 1  
   159   53  157 1  
   160   54  158 1  
   161   55  159 1  
   162   56  160 1  
   163   57  161 1  
   164   60  162 1  
   165   60  163 1  
   166   61  164 1  
   167   61  165 1  
   168   64  166 1  
   169   64  167 1  
   170   65  168 1  
   171   66  169 1  
   172   69  170 1  
   173   69  171 1  
   174   70  172 1  
   175   70  173 1  
   176   74  174 1  
   177   75  175 1  
   178   78  176 1  
   179   78  177 1  
   180   79  178 1  
   181   80  179 1  
   182   80  180 1  
   183   80  181 1  
   184   81  182 1  
   185   81  183 1  
   186   81  184 1  
   187   82  185 1  
   188   83  186 1  
   189   86  187 1  
   190   86  188 1  
   191   88  189 1  
   192   89  190 1  
   193   90  191 1  
   194   91  192 1  
   195   92  193 1  
   196   93  194 1  
   197   94  195 1  
   198   97  196 1  
   199   97  197 1  
   200  101  198 1  
   201  102  199 1  
   202  105  200 1  
   203  105  201 1  
   204  106  202 1  
@<TRIPOS>SUBSTRUCTURE
     1 SER         1

