3ok9_ligand
  -I-interpret- 

 82 86  0  0  0  0  0  0  0  0999 V2000
   21.0010   27.7160   14.7810 C   0  0  0  0  0
   19.6640   27.6990   14.3900 C   0  0  0  0  0
   18.8690   26.5780   14.5980 C   0  0  0  0  0
   19.3900   25.4810   15.2810 C   0  0  0  0  0
   20.7370   25.4790   15.5860 C   0  0  0  0  0
   21.5740   26.5580   15.3090 C   0  0  0  0  0
   18.4030   24.0840   15.6940 S   0  0  0  0  0
   17.3220   24.0040   14.6670 O   0  0  0  0  0
   19.3150   22.9220   15.8240 O   0  0  0  0  0
   17.7090   24.2840   17.1750 N   0  0  0  0  0
   18.6590   24.5440   18.2440 C   0  0  0  0  0
   18.3170   23.8950   19.5820 C   0  0  0  0  0
   18.2110   22.3730   19.5590 C   0  0  0  0  0
   19.3940   24.2920   20.6110 C   0  0  0  0  0
   16.4650   25.0450   17.2430 C   0  0  0  0  0
   15.3120   24.1680   17.7060 C   0  0  0  0  0
   14.1680   24.9750   17.9920 O   0  0  0  0  0
   14.9500   23.0320   16.7540 C   0  0  0  0  0
   14.0210   22.0980   17.3780 N   0  0  0  0  0
   14.2710   20.8360   17.7170 C   0  0  0  0  0
   15.3900   20.3290   17.5120 O   0  0  0  0  0
   13.2150   20.2220   18.3140 O   0  0  0  0  0
   13.4080   18.8380   18.5870 C   0  0  0  0  0
   12.8870   18.5800   19.9910 C   0  0  0  0  0
   11.4590   18.4980   19.8750 O   0  0  0  0  0
   11.1310   18.1540   18.5520 C   0  0  0  0  0
   10.3990   19.2410   17.9550 O   0  0  0  0  0
   10.9390   19.6190   16.7160 C   0  0  0  0  0
   12.0780   18.6490   16.4060 C   0  0  0  0  0
   12.4080   18.0150   17.7440 C   0  0  0  0  0
   14.2820   23.5310   15.4880 C   0  0  0  0  0
   12.6610   21.9310   14.3700 C   0  0  0  0  0
   12.3280   20.8610   13.5350 C   0  0  0  0  0
   13.3570   20.2640   12.8100 C   0  0  0  0  0
   14.6700   20.6690   13.0050 C   0  0  0  0  0
   14.9890   21.7310   13.8520 C   0  0  0  0  0
   13.9700   22.3600   14.5340 C   0  0  0  0  0
   21.7130   28.8620   14.5770 O   0  0  0  0  0
   23.0460   28.7540   15.0250 C   0  0  0  0  0
    9.9220   19.3920   15.7030 O   0  0  0  0  0
    9.9500   17.9520   15.5140 C   0  0  0  0  0
   11.4540   17.6810   15.4100 C   0  0  0  0  0
   19.2341   28.5797   13.9129 H   0  0  0  0  0
   17.8436   26.5572   14.2288 H   0  0  0  0  0
   21.1631   24.5966   16.0633 H   0  0  0  0  0
   22.6457   26.4994   15.4992 H   0  0  0  0  0
   18.6611   25.6216   18.4082 H   0  0  0  0  0
   19.6136   24.1250   17.9257 H   0  0  0  0  0
   17.3241   24.2611   19.8431 H   0  0  0  0  0
   17.4291   22.0750   18.8605 H   0  0  0  0  0
   19.1637   21.9485   19.2425 H   0  0  0  0  0
   17.9648   22.0121   20.5576 H   0  0  0  0  0
   20.3684   23.9444   20.2677 H   0  0  0  0  0
   19.4106   25.3767   20.7176 H   0  0  0  0  0
   19.1619   23.8347   21.5728 H   0  0  0  0  0
   16.2351   25.4275   16.2486 H   0  0  0  0  0
   16.5925   25.8592   17.9564 H   0  0  0  0  0
   15.6604   23.6738   18.6129 H   0  0  0  0  0
   13.4461   24.4131   18.2832 H   0  0  0  0  0
   15.8945   22.5456   16.5103 H   0  0  0  0  0
   13.0833   22.4478   17.5749 H   0  0  0  0  0
   14.4545   18.5873   18.4135 H   0  0  0  0  0
   13.1822   19.3766   20.6739 H   0  0  0  0  0
   13.3027   17.6606   20.4033 H   0  0  0  0  0
   10.5540   17.2293   18.5580 H   0  0  0  0  0
   11.2709   20.6571   16.7327 H   0  0  0  0  0
   12.9958   19.0589   15.9844 H   0  0  0  0  0
   12.8027   17.0165   17.5563 H   0  0  0  0  0
   14.9565   24.2237   14.9847 H   0  0  0  0  0
   13.3477   24.0247   15.7552 H   0  0  0  0  0
   11.8661   22.4453   14.9101 H   0  0  0  0  0
   11.3005   20.5064   13.4539 H   0  0  0  0  0
   13.1307   19.4783   12.0892 H   0  0  0  0  0
   15.4713   20.1449   12.4840 H   0  0  0  0  0
   16.0224   22.0562   13.9717 H   0  0  0  0  0
   23.0525   28.5387   16.0935 H   0  0  0  0  0
   23.5444   27.9473   14.4875 H   0  0  0  0  0
   23.5677   29.6928   14.8390 H   0  0  0  0  0
    9.3871   17.6173   14.6426 H   0  0  0  0  0
    9.4636   17.3990   16.3176 H   0  0  0  0  0
   11.7014   16.6435   15.6347 H   0  0  0  0  0
   11.8302   17.8327   14.3983 H   0  0  0  0  0
  2  1  4  0  0  0
  6  1  4  0  0  0
  1 38  1  0  0  0
  3  2  4  0  0  0
  4  3  4  0  0  0
  4  5  4  0  0  0
  7  4  1  0  0  0
  5  6  4  0  0  0
  7  8  2  0  0  0
  7  9  2  0  0  0
 10  7  1  0  0  0
 10 11  1  0  0  0
 15 10  1  0  0  0
 11 12  1  0  0  0
 12 13  1  0  0  0
 12 14  1  0  0  0
 16 15  1  0  0  0
 16 17  1  0  0  0
 18 16  1  0  0  0
 18 19  1  0  0  0
 31 18  1  0  0  0
 19 20  1  0  0  0
 20 21  2  0  0  0
 20 22  1  0  0  0
 22 23  1  0  0  0
 23 24  1  0  0  0
 23 30  1  0  0  0
 24 25  1  0  0  0
 26 25  1  0  0  0
 26 27  1  0  0  0
 30 26  1  0  0  0
 28 27  1  0  0  0
 29 28  1  0  0  0
 28 40  1  0  0  0
 30 29  1  0  0  0
 29 42  1  0  0  0
 37 31  1  0  0  0
 32 33  4  0  0  0
 32 37  4  0  0  0
 33 34  4  0  0  0
 34 35  4  0  0  0
 35 36  4  0  0  0
 36 37  4  0  0  0
 38 39  1  0  0  0
 40 41  1  0  0  0
 41 42  1  0  0  0
  2 43  1  0  0  0
  3 44  1  0  0  0
  5 45  1  0  0  0
  6 46  1  0  0  0
 11 47  1  0  0  0
 11 48  1  0  0  0
 12 49  1  0  0  0
 13 50  1  0  0  0
 13 51  1  0  0  0
 13 52  1  0  0  0
 14 53  1  0  0  0
 14 54  1  0  0  0
 14 55  1  0  0  0
 15 56  1  0  0  0
 15 57  1  0  0  0
 16 58  1  0  0  0
 17 59  1  0  0  0
 18 60  1  0  0  0
 19 61  1  0  0  0
 23 62  1  0  0  0
 24 63  1  0  0  0
 24 64  1  0  0  0
 26 65  1  0  0  0
 28 66  1  0  0  0
 29 67  1  0  0  0
 30 68  1  0  0  0
 31 69  1  0  0  0
 31 70  1  0  0  0
 32 71  1  0  0  0
 33 72  1  0  0  0
 34 73  1  0  0  0
 35 74  1  0  0  0
 36 75  1  0  0  0
 39 76  1  0  0  0
 39 77  1  0  0  0
 39 78  1  0  0  0
 41 79  1  0  0  0
 41 80  1  0  0  0
 42 81  1  0  0  0
 42 82  1  0  0  0
M  END
$$$$
