4j58_ligand
  -I-interpret- 

 40 41  0  0  0  0  0  0  0  0999 V2000
    7.8420   21.3730   19.2820 C   0  0  0  0  0
    9.1360   21.1710   18.4970 C   0  0  0  0  0
    8.5450   22.2270   17.4440 C   0  0  0  0  0
    7.4110   21.2340   17.2060 C   0  0  0  0  0
    6.7430   21.0190   18.4510 N   0  0  0  0  0
    5.5310   20.6240   18.7220 C   0  0  0  0  0
    5.1900   20.4740   19.9050 O   0  0  0  0  0
    4.6230   20.3350   17.5310 C   0  0  0  0  0
    3.4080   19.7430   18.0470 N   0  0  0  0  0
    3.0870   18.5200   17.7160 C   0  0  0  0  0
    3.7320   17.8830   16.8750 O   0  0  0  0  0
    1.9420   18.1510   18.2780 N   0  0  0  0  0
    1.2610   16.8680   18.1530 C   0  0  0  0  0
    1.1440   16.3580   19.6120 C   0  0  0  0  0
    2.1230   16.6270   20.5670 C   0  0  0  0  0
    1.9930   16.1550   21.8740 C   0  0  0  0  0
    0.8820   15.4100   22.2540 C   0  0  0  0  0
    0.7580   14.9530   23.5160 N   0  0  0  0  0
   -0.0980   15.1430   21.3000 C   0  0  0  0  0
    0.0290   15.6140   19.9950 C   0  0  0  0  0
    7.7538   22.4156   19.5876 H   0  0  0  0  0
    7.8486   20.7459   20.1735 H   0  0  0  0  0
    9.4806   20.1824   18.1937 H   0  0  0  0  0
   10.1168   21.2979   18.9554 H   0  0  0  0  0
    9.1473   22.6171   16.6235 H   0  0  0  0  0
    8.3511   23.2638   17.7190 H   0  0  0  0  0
    7.8082   20.2933   16.8246 H   0  0  0  0  0
    6.7132   21.6294   16.4678 H   0  0  0  0  0
    5.1126   19.6556   16.8333 H   0  0  0  0  0
    4.3999   21.2539   16.9888 H   0  0  0  0  0
    2.8026   20.2794   18.6684 H   0  0  0  0  0
    1.4849   18.8474   18.8667 H   0  0  0  0  0
    1.8069   16.1722   17.5159 H   0  0  0  0  0
    0.2882   16.9632   17.6706 H   0  0  0  0  0
    2.9997   17.2124   20.2900 H   0  0  0  0  0
    2.7713   16.3729   22.6053 H   0  0  0  0  0
    1.4838   15.1526   24.2043 H   0  0  0  0  0
   -0.0616   14.4076   23.7827 H   0  0  0  0  0
   -0.9749   14.5584   21.5782 H   0  0  0  0  0
   -0.7518   15.3985   19.2656 H   0  0  0  0  0
  1  2  1  0  0  0
  1  5  1  0  0  0
  2  3  1  0  0  0
  3  4  1  0  0  0
  4  5  1  0  0  0
  5  6  1  0  0  0
  6  7  2  0  0  0
  6  8  1  0  0  0
  8  9  1  0  0  0
  9 10  1  0  0  0
 10 11  2  0  0  0
 10 12  1  0  0  0
 12 13  1  0  0  0
 13 14  1  0  0  0
 14 15  4  0  0  0
 14 20  4  0  0  0
 15 16  4  0  0  0
 16 17  4  0  0  0
 17 18  1  0  0  0
 17 19  4  0  0  0
 19 20  4  0  0  0
  1 21  1  0  0  0
  1 22  1  0  0  0
  2 23  1  0  0  0
  2 24  1  0  0  0
  3 25  1  0  0  0
  3 26  1  0  0  0
  4 27  1  0  0  0
  4 28  1  0  0  0
  8 29  1  0  0  0
  8 30  1  0  0  0
  9 31  1  0  0  0
 12 32  1  0  0  0
 13 33  1  0  0  0
 13 34  1  0  0  0
 15 35  1  0  0  0
 16 36  1  0  0  0
 18 37  1  0  0  0
 18 38  1  0  0  0
 19 39  1  0  0  0
 20 40  1  0  0  0
M  END
$$$$
