5mgj_ligand
  -I-interpret- 

 26 26  0  0  0  0  0  0  0  0999 V2000
   40.8260  -38.6850   30.3100 C   0  0  0  0  0
   40.2420  -39.7550   29.4310 C   0  0  0  0  0
   38.8550  -39.7820   29.6700 O   0  0  0  0  0
   38.1540  -40.6310   28.8130 C   0  0  0  0  0
   38.7740  -41.5130   28.2690 O   0  0  0  0  0
   36.6660  -40.4150   28.5800 C   0  0  0  0  0
   36.0610  -39.1290   29.0780 C   0  0  0  0  0
   34.6400  -38.8610   28.8780 N   0  0  0  0  0
   34.0900  -37.6440   29.3520 C   0  0  0  0  0
   33.7880  -39.8270   28.1840 C   0  0  0  0  0
   32.6100  -39.5880   28.0220 O   0  0  0  0  0
   34.3780  -41.1170   27.6770 C   0  0  0  0  0
   35.8150  -41.4000   27.8760 C   0  0  0  0  0
   36.4720  -42.9060   27.2790 Cl  0  0  0  0  0
   40.3752  -37.7247   30.0596 H   0  0  0  0  0
   40.6216  -38.9225   31.3540 H   0  0  0  0  0
   41.9033  -38.6344   30.1518 H   0  0  0  0  0
   40.6887  -40.7231   29.6578 H   0  0  0  0  0
   40.4458  -39.5421   28.3816 H   0  0  0  0  0
   36.5667  -38.3517   28.5051 H   0  0  0  0  0
   36.1784  -39.1756   30.1607 H   0  0  0  0  0
   34.2285  -37.5802   30.4313 H   0  0  0  0  0
   34.5942  -36.8066   28.8696 H   0  0  0  0  0
   33.0258  -37.6124   29.1185 H   0  0  0  0  0
   34.2574  -41.0655   26.5949 H   0  0  0  0  0
   33.8658  -41.8933   28.2455 H   0  0  0  0  0
  1  2  1  0  0  0
  2  3  1  0  0  0
  3  4  1  0  0  0
  4  5  2  0  0  0
  4  6  1  0  0  0
  6  7  1  0  0  0
  6 13  2  0  0  0
  7  8  1  0  0  0
  8  9  1  0  0  0
  8 10  1  0  0  0
 10 11  2  0  0  0
 10 12  1  0  0  0
 12 13  1  0  0  0
 13 14  1  0  0  0
  1 15  1  0  0  0
  1 16  1  0  0  0
  1 17  1  0  0  0
  2 18  1  0  0  0
  2 19  1  0  0  0
  7 20  1  0  0  0
  7 21  1  0  0  0
  9 22  1  0  0  0
  9 23  1  0  0  0
  9 24  1  0  0  0
 12 25  1  0  0  0
 12 26  1  0  0  0
M  END
$$$$
