5fsm_ligand
  -I-interpret- 

 25 26  0  0  0  0  0  0  0  0999 V2000
   15.2040   17.5980    6.6480 O   0  0  0  0  0
   16.3180   17.8300    7.0980 C   0  0  0  0  0
   16.9230   16.9750    8.1710 C   0  0  0  0  0
   17.0900   18.8870    6.6870 N   0  0  0  0  0
   16.8830   19.7510    5.5790 C   0  0  0  0  0
   17.9940   20.4070    5.0400 C   0  0  0  0  0
   17.8110   21.3010    3.9860 C   0  0  0  0  0
   18.7360   22.0210    3.2340 N   0  0  0  0  0
   18.0050   22.6760    2.3680 C   0  0  0  0  0
   16.6820   22.3850    2.4250 N   0  0  0  0  0
   15.6170   22.9500    1.6050 C   0  0  0  0  0
   16.5270   21.5280    3.4950 C   0  0  0  0  0
   15.4110   20.8790    4.0120 C   0  0  0  0  0
   15.5940   20.0380    5.1010 C   0  0  0  0  0
   16.2867   17.0000    9.0556 H   0  0  0  0  0
   17.0079   15.9494    7.8118 H   0  0  0  0  0
   17.9126   17.3563    8.4228 H   0  0  0  0  0
   17.9194   19.0768    7.2496 H   0  0  0  0  0
   18.9912   20.2216    5.4391 H   0  0  0  0  0
   18.4237   23.3933    1.6621 H   0  0  0  0  0
   15.5802   24.0293    1.7527 H   0  0  0  0  0
   15.8140   22.7321    0.5553 H   0  0  0  0  0
   14.6635   22.5095    1.8961 H   0  0  0  0  0
   14.4231   21.0262    3.5755 H   0  0  0  0  0
   14.7269   19.5951    5.5910 H   0  0  0  0  0
  1  2  2  0  0  0
  2  3  1  0  0  0
  2  4  1  0  0  0
  4  5  1  0  0  0
  5  6  4  0  0  0
  5 14  4  0  0  0
  6  7  4  0  0  0
  7  8  4  0  0  0
  7 12  4  0  0  0
  8  9  4  0  0  0
  9 10  4  0  0  0
 10 11  1  0  0  0
 10 12  4  0  0  0
 12 13  4  0  0  0
 13 14  4  0  0  0
  3 15  1  0  0  0
  3 16  1  0  0  0
  3 17  1  0  0  0
  4 18  1  0  0  0
  6 19  1  0  0  0
  9 20  1  0  0  0
 11 21  1  0  0  0
 11 22  1  0  0  0
 11 23  1  0  0  0
 13 24  1  0  0  0
 14 25  1  0  0  0
M  END
$$$$
