2ph9_ligand
  -I-interpret- 

 43 46  0  0  0  0  0  0  0  0999 V2000
    6.3140   37.9710   -8.0020 C   0  0  0  0  0
    5.8590   39.1680   -8.3800 C   0  0  0  0  0
    4.8680   39.3640   -9.5210 C   0  0  0  0  0
    4.8830   38.1940  -10.5010 C   0  0  0  0  0
    4.7920   36.8620   -9.7510 C   0  0  0  0  0
    5.8740   36.6420   -8.6330 C   0  0  0  0  0
    3.4910   36.7070   -9.1420 O   0  0  0  0  0
    2.6650   35.5210   -7.0120 C   0  0  0  0  0
    3.0860   34.9210   -5.8240 C   0  0  0  0  0
    4.4410   34.8210   -5.4770 C   0  0  0  0  0
    6.9050   35.2140   -5.8770 C   0  0  0  0  0
    7.5300   34.5420   -7.0290 N   0  3  0  0  0
    8.1100   35.4970   -8.0000 C   0  0  0  0  0
    7.0670   35.7650   -9.0970 C   0  0  0  0  0
    3.6570   36.0870   -7.9330 C   0  0  0  0  0
    5.0620   35.9800   -7.5710 C   0  0  0  0  0
    5.4580   35.3410   -6.2820 C   0  0  0  0  0
    0.6040   36.6660   -6.7040 C   0  0  0  0  0
    1.3580   35.6290   -7.3370 O   0  0  0  0  0
    3.5390   39.5230   -9.0190 O   0  0  0  0  0
    8.5600   33.6220   -6.5560 C   0  0  0  0  0
    7.0445   37.9349   -7.1938 H   0  0  0  0  0
    6.2142   40.0492   -7.8457 H   0  0  0  0  0
    5.1783   40.2663  -10.0479 H   0  0  0  0  0
    5.8148   38.2184  -11.0661 H   0  0  0  0  0
    4.0267   38.2822  -11.1696 H   0  0  0  0  0
    4.9750   36.1147  -10.5231 H   0  0  0  0  0
    2.3366   34.5168   -5.1435 H   0  0  0  0  0
    4.7103   34.3203   -4.5470 H   0  0  0  0  0
    7.3628   36.1788   -5.6588 H   0  0  0  0  0
    7.0306   34.6547   -4.9499 H   0  0  0  0  0
    6.7972   34.0290   -7.5192 H   0  0  0  0  0
    9.0155   35.0789   -8.4397 H   0  0  0  0  0
    8.3711   36.4283   -7.4974 H   0  0  0  0  0
    7.5720   36.3041   -9.8985 H   0  0  0  0  0
    6.6604   34.7999   -9.3993 H   0  0  0  0  0
    0.6220   36.5191   -5.6241 H   0  0  0  0  0
    1.0432   37.6334   -6.9478 H   0  0  0  0  0
   -0.4259   36.6333   -7.0593 H   0  0  0  0  0
    3.5174   40.2571   -8.4007 H   0  0  0  0  0
    9.3176   34.1791   -6.0047 H   0  0  0  0  0
    8.1072   32.8769   -5.9018 H   0  0  0  0  0
    9.0216   33.1255   -7.4095 H   0  0  0  0  0
  1  2  2  0  0  0
  6  1  1  0  0  0
  3  2  1  0  0  0
  4  3  1  0  0  0
  3 20  1  0  0  0
  5  4  1  0  0  0
  5  6  1  0  0  0
  7  5  1  0  0  0
  6 14  1  0  0  0
  6 16  1  0  0  0
 15  7  1  0  0  0
  9  8  4  0  0  0
  8 15  4  0  0  0
  8 19  1  0  0  0
 10  9  4  0  0  0
 17 10  4  0  0  0
 11 12  1  0  0  0
 11 17  1  0  0  0
 12 13  1  0  0  0
 12 21  1  0  0  0
 13 14  1  0  0  0
 15 16  4  0  0  0
 16 17  4  0  0  0
 19 18  1  0  0  0
  1 22  1  0  0  0
  2 23  1  0  0  0
  3 24  1  0  0  0
  4 25  1  0  0  0
  4 26  1  0  0  0
  5 27  1  0  0  0
  9 28  1  0  0  0
 10 29  1  0  0  0
 11 30  1  0  0  0
 11 31  1  0  0  0
 12 32  1  0  0  0
 13 33  1  0  0  0
 13 34  1  0  0  0
 14 35  1  0  0  0
 14 36  1  0  0  0
 18 37  1  0  0  0
 18 38  1  0  0  0
 18 39  1  0  0  0
 20 40  1  0  0  0
 21 41  1  0  0  0
 21 42  1  0  0  0
 21 43  1  0  0  0
M  END
$$$$
