6gi6_ligand
  -I-interpret- 

 37 40  0  0  0  0  0  0  0  0999 V2000
  -12.9490  156.1410  161.3520 C   0  0  0  0  0
  -13.6810  154.8200  161.1930 C   0  0  0  0  0
  -13.0340  153.5940  161.4530 C   0  0  0  0  0
  -13.7250  152.3980  161.2780 C   0  0  0  0  0
  -15.0520  152.3980  160.8870 C   0  0  0  0  0
  -15.7130  153.6270  160.6420 C   0  0  0  0  0
  -15.0590  154.8220  160.7870 C   0  0  0  0  0
  -15.8320  156.1000  160.5110 C   0  0  0  0  0
  -17.8240  154.7810  159.9740 C   0  0  0  0  0
  -11.6910  153.4410  161.8070 C   0  0  0  0  0
  -10.9190  152.6930  160.9170 C   0  0  0  0  0
   -9.5630  152.4620  161.1530 C   0  0  0  0  0
   -8.9690  152.9700  162.2990 C   0  0  0  0  0
   -9.7450  153.7340  163.2140 C   0  0  0  0  0
  -11.0760  153.9650  162.9860 C   0  0  0  0  0
  -11.8050  154.7280  163.9440 C   0  0  0  0  0
  -11.1430  155.2150  165.0690 C   0  0  0  0  0
   -9.7850  154.9490  165.2530 C   0  0  0  0  0
  -17.1720  156.0340  160.1210 N   0  0  0  0  0
  -17.1040  153.5690  160.2320 N   0  0  0  0  0
   -9.1150  154.2270  164.3380 N   0  0  0  0  0
  -15.3360  157.2030  160.6120 O   0  0  0  0  0
  -12.6113  156.2460  162.3830 H   0  0  0  0  0
  -12.0889  156.1611  160.6828 H   0  0  0  0  0
  -13.6233  156.9607  161.1039 H   0  0  0  0  0
  -13.2145  151.4506  161.4511 H   0  0  0  0  0
  -15.5871  151.4559  160.7678 H   0  0  0  0  0
  -18.0803  154.7277  158.9159 H   0  0  0  0  0
  -18.6157  154.7943  160.7230 H   0  0  0  0  0
  -11.3837  152.2816  160.0210 H   0  0  0  0  0
   -8.9736  151.8852  160.4403 H   0  0  0  0  0
   -7.9133  152.7847  162.4972 H   0  0  0  0  0
  -12.8666  154.9279  163.7984 H   0  0  0  0  0
  -11.6865  155.8049  165.8070 H   0  0  0  0  0
   -9.2692  155.3257  166.1363 H   0  0  0  0  0
  -17.6876  156.8952  159.9399 H   0  0  0  0  0
  -17.5685  152.6669  160.1276 H   0  0  0  0  0
  1  2  1  0  0  0
  2  3  4  0  0  0
  2  7  4  0  0  0
  3  4  4  0  0  0
  3 10  1  0  0  0
  4  5  4  0  0  0
  5  6  4  0  0  0
  6  7  4  0  0  0
  6 20  1  0  0  0
  7  8  1  0  0  0
  8 19  1  0  0  0
  8 22  2  0  0  0
 19  9  1  0  0  0
  9 20  1  0  0  0
 10 11  4  0  0  0
 10 15  4  0  0  0
 11 12  4  0  0  0
 12 13  4  0  0  0
 13 14  4  0  0  0
 14 15  4  0  0  0
 14 21  4  0  0  0
 15 16  4  0  0  0
 16 17  4  0  0  0
 17 18  4  0  0  0
 18 21  4  0  0  0
  1 23  1  0  0  0
  1 24  1  0  0  0
  1 25  1  0  0  0
  4 26  1  0  0  0
  5 27  1  0  0  0
  9 28  1  0  0  0
  9 29  1  0  0  0
 11 30  1  0  0  0
 12 31  1  0  0  0
 13 32  1  0  0  0
 16 33  1  0  0  0
 17 34  1  0  0  0
 18 35  1  0  0  0
 19 36  1  0  0  0
 20 37  1  0  0  0
M  END
$$$$
