5dw1_ligand
  -I-interpret- 

 61 64  0  0  0  0  0  0  0  0999 V2000
   22.0430   14.3500   -5.9770 C   0  0  0  0  0
   20.7080   13.8660   -7.9200 C   0  0  0  0  0
   23.2790   14.5590   -5.4020 C   0  0  0  0  0
   24.4590   14.4830   -6.0730 C   0  0  0  0  0
   18.6720   14.2090   -3.5560 C   0  0  0  0  0
   14.6680   13.1300   -2.1520 C   0  0  0  0  0
   17.5530   14.2530   -2.7520 C   0  0  0  0  0
   16.2820   14.4240   -3.2870 C   0  0  0  0  0
   17.8630   14.1540   -1.2410 C   0  0  0  0  0
   13.8100   13.2910   -0.8760 C   0  0  0  0  0
   12.2610   14.7940    0.2100 C   0  0  0  0  0
   14.7190   14.6050   -5.3110 C   0  0  0  0  0
   17.2180   14.4720   -5.4620 C   0  0  0  0  0
   23.1970   14.0150   -8.0570 C   0  0  0  0  0
   12.0850   14.3630   -2.1630 C   0  0  0  0  0
   16.0720   14.5380   -4.6900 C   0  0  0  0  0
   24.4120   14.0210  -10.2140 C   0  0  0  0  0
   20.5190   13.4700   -9.1060 O   0  0  0  0  0
   22.0400   14.0380   -7.3690 C   0  0  0  0  0
   23.1840   13.7940   -9.4550 O   0  0  0  0  0
   24.4340   14.1830   -7.4510 C   0  0  0  0  0
   25.7200   14.6130   -5.6320 O   0  0  0  0  0
   25.8520   14.8910   -4.2190 C   0  0  0  0  0
   19.6000   13.9610   -7.1280 N   0  0  0  0  0
   19.7070   14.2980   -5.7880 C   0  0  0  0  0
   20.9110   14.4760   -5.2710 N   0  0  0  0  0
   18.4830   14.3800   -4.9620 C   0  0  0  0  0
   15.1620   14.4310   -2.4920 O   0  0  0  0  0
   13.0300   14.5140   -1.0230 N   0  3  0  0  0
   10.6850   14.5150   -1.5910 C   0  0  0  0  0
   10.9050   14.1890   -0.1290 C   0  0  0  0  0
   23.3120   14.8010   -4.3397 H   0  0  0  0  0
   19.6645   14.0496   -3.1346 H   0  0  0  0  0
   14.0730   12.7184   -2.9672 H   0  0  0  0  0
   15.4921   12.4382   -1.9777 H   0  0  0  0  0
   18.3710   13.2115   -1.0366 H   0  0  0  0  0
   18.5045   14.9850   -0.9478 H   0  0  0  0  0
   16.9313   14.1959   -0.6768 H   0  0  0  0  0
   14.4470   13.3492    0.0066 H   0  0  0  0  0
   13.1512   12.4320   -0.7490 H   0  0  0  0  0
   12.2138   15.8534    0.4619 H   0  0  0  0  0
   12.7122   14.3738    1.1088 H   0  0  0  0  0
   14.1633   13.6997   -5.0667 H   0  0  0  0  0
   14.1866   15.4747   -4.9260 H   0  0  0  0  0
   14.8210   14.6894   -6.3929 H   0  0  0  0  0
   17.1015   14.4952   -6.5455 H   0  0  0  0  0
   12.2059   13.3915   -2.6423 H   0  0  0  0  0
   12.2760   15.1149   -2.9287 H   0  0  0  0  0
   24.7205   15.0603  -10.1012 H   0  0  0  0  0
   25.1968   13.3649   -9.8376 H   0  0  0  0  0
   24.2315   13.8065  -11.2673 H   0  0  0  0  0
   25.3574   14.0862   -8.0220 H   0  0  0  0  0
   25.3425   15.8257   -3.9848 H   0  0  0  0  0
   25.4044   14.0784   -3.6468 H   0  0  0  0  0
   26.9082   14.9777   -3.9642 H   0  0  0  0  0
   18.6794   13.7812   -7.5287 H   0  0  0  0  0
   13.6696   15.2894   -1.1965 H   0  0  0  0  0
    9.9500   13.8692   -2.0714 H   0  0  0  0  0
   10.2576   15.5046   -1.7530 H   0  0  0  0  0
   10.1127   14.5959    0.4993 H   0  0  0  0  0
   10.8853   13.1144    0.0527 H   0  0  0  0  0
  1  3  4  0  0  0
  1 19  4  0  0  0
 26  1  1  0  0  0
  2 18  2  0  0  0
  2 19  1  0  0  0
 24  2  1  0  0  0
  3  4  4  0  0  0
  4 21  4  0  0  0
  4 22  1  0  0  0
  5  7  4  0  0  0
 27  5  4  0  0  0
  6 10  1  0  0  0
 28  6  1  0  0  0
  7  8  4  0  0  0
  7  9  1  0  0  0
 16  8  4  0  0  0
  8 28  1  0  0  0
 10 29  1  0  0  0
 29 11  1  0  0  0
 11 31  1  0  0  0
 16 12  1  0  0  0
 13 16  4  0  0  0
 27 13  4  0  0  0
 19 14  4  0  0  0
 14 20  1  0  0  0
 14 21  4  0  0  0
 29 15  1  0  0  0
 15 30  1  0  0  0
 20 17  1  0  0  0
 22 23  1  0  0  0
 25 24  1  0  0  0
 25 26  2  0  0  0
 25 27  1  0  0  0
 30 31  1  0  0  0
  3 32  1  0  0  0
  5 33  1  0  0  0
  6 34  1  0  0  0
  6 35  1  0  0  0
  9 36  1  0  0  0
  9 37  1  0  0  0
  9 38  1  0  0  0
 10 39  1  0  0  0
 10 40  1  0  0  0
 11 41  1  0  0  0
 11 42  1  0  0  0
 12 43  1  0  0  0
 12 44  1  0  0  0
 12 45  1  0  0  0
 13 46  1  0  0  0
 15 47  1  0  0  0
 15 48  1  0  0  0
 17 49  1  0  0  0
 17 50  1  0  0  0
 17 51  1  0  0  0
 21 52  1  0  0  0
 23 53  1  0  0  0
 23 54  1  0  0  0
 23 55  1  0  0  0
 24 56  1  0  0  0
 29 57  1  0  0  0
 30 58  1  0  0  0
 30 59  1  0  0  0
 31 60  1  0  0  0
 31 61  1  0  0  0
M  END
$$$$
