1rhm_ligand
  -I-interpret- 

 41 42  0  0  0  0  0  0  0  0999 V2000
  -44.2300   38.5980   90.0000 C   0  0  0  0  0
  -44.2130   39.4770   91.0470 C   0  0  0  0  0
  -45.3710   39.7180   91.7550 C   0  0  0  0  0
  -46.5280   39.1320   91.4680 N   0  0  0  0  0
  -46.5380   38.2710   90.4390 C   0  0  0  0  0
  -45.4200   37.9600   89.6710 C   0  0  0  0  0
  -45.4580   36.8850   88.6230 C   0  0  0  0  0
  -44.4380   36.4160   88.1170 O   0  0  0  0  0
  -46.6910   36.5090   88.2860 N   0  0  0  0  0
  -46.9760   35.4450   87.3330 C   0  0  0  0  0
  -48.1330   34.5600   87.8220 C   0  0  0  0  0
  -47.0570   35.8550   85.8100 C   0  0  0  0  0
  -47.0660   34.6830   84.9760 O   0  0  0  0  0
  -47.8760   33.9770   89.2150 C   0  0  0  0  0
  -48.8260   33.5150   89.8880 O   0  0  0  0  0
  -46.7120   33.9510   89.6400 O   0  0  0  0  0
  -42.1310   42.4560   91.8260 C   0  0  0  0  0
  -43.2250   41.6520   91.5830 C   0  0  0  0  0
  -43.0400   40.3440   91.2110 C   0  0  0  0  0
  -41.7650   39.8270   91.0750 C   0  0  0  0  0
  -40.6690   40.6280   91.3180 C   0  0  0  0  0
  -40.8560   41.9470   91.6920 C   0  0  0  0  0
  -39.7560   42.7850   91.9310 C   0  0  0  0  0
  -38.6160   42.2920   91.7780 O   0  0  0  0  0
  -39.9900   43.9690   92.2780 O   0  0  0  0  0
  -43.3219   38.4001   89.4306 H   0  0  0  0  0
  -45.3356   40.4208   92.5874 H   0  0  0  0  0
  -47.4809   37.7847   90.1890 H   0  0  0  0  0
  -47.4780   36.9925   88.7188 H   0  0  0  0  0
  -46.0749   34.8318   87.3209 H   0  0  0  0  0
  -48.2399   33.7296   87.1240 H   0  0  0  0  0
  -49.0297   35.1774   87.8756 H   0  0  0  0  0
  -46.1880   36.4631   85.5590 H   0  0  0  0  0
  -47.9751   36.4179   85.6418 H   0  0  0  0  0
  -47.1154   34.9477   84.0545 H   0  0  0  0  0
  -49.6452   33.6231   89.3993 H   0  0  0  0  0
  -42.2741   43.4946   92.1242 H   0  0  0  0  0
  -44.2329   42.0540   91.6860 H   0  0  0  0  0
  -41.6263   38.7880   90.7762 H   0  0  0  0  0
  -39.6616   40.2245   91.2161 H   0  0  0  0  0
  -40.9390   44.1057   92.3256 H   0  0  0  0  0
  2  1  4  0  0  0
  1  6  4  0  0  0
  2  3  4  0  0  0
 19  2  1  0  0  0
  3  4  4  0  0  0
  4  5  4  0  0  0
  6  5  4  0  0  0
  6  7  1  0  0  0
  7  8  2  0  0  0
  7  9  1  0  0  0
  9 10  1  0  0  0
 10 11  1  0  0  0
 10 12  1  0  0  0
 11 14  1  0  0  0
 12 13  1  0  0  0
 14 15  1  0  0  0
 14 16  2  0  0  0
 18 17  4  0  0  0
 17 22  4  0  0  0
 18 19  4  0  0  0
 19 20  4  0  0  0
 20 21  4  0  0  0
 21 22  4  0  0  0
 22 23  1  0  0  0
 23 24  2  0  0  0
 23 25  1  0  0  0
  1 26  1  0  0  0
  3 27  1  0  0  0
  5 28  1  0  0  0
  9 29  1  0  0  0
 10 30  1  0  0  0
 11 31  1  0  0  0
 11 32  1  0  0  0
 12 33  1  0  0  0
 12 34  1  0  0  0
 13 35  1  0  0  0
 15 36  1  0  0  0
 17 37  1  0  0  0
 18 38  1  0  0  0
 20 39  1  0  0  0
 21 40  1  0  0  0
 25 41  1  0  0  0
M  END
$$$$
