3vhk_ligand
  -I-interpret- 

 39 41  0  0  0  0  0  0  0  0999 V2000
  -24.2820   27.8600   12.5080 C   0  0  0  0  0
  -25.4720   28.3480   12.0210 C   0  0  0  0  0
  -24.2820   26.9950   13.5800 C   0  0  0  0  0
  -31.1760   27.3200   21.1670 C   0  0  0  0  0
  -26.6560   27.9690   12.6110 C   0  0  0  0  0
  -25.4670   26.6190   14.1710 C   0  0  0  0  0
  -31.7000   26.0610   21.3640 C   0  0  0  0  0
  -30.5310   27.6160   19.9870 C   0  0  0  0  0
  -30.9380   25.3870   19.2080 C   0  0  0  0  0
  -26.6570   27.1080   13.6850 C   0  0  0  0  0
  -31.5840   25.0920   20.3890 C   0  0  0  0  0
  -30.4170   26.6490   19.0130 C   0  0  0  0  0
  -29.5350   26.3100   15.5560 C   0  0  0  0  0
  -29.9110   26.0420   14.2570 C   0  0  0  0  0
  -27.8990   26.7340   14.2990 C   0  0  0  0  0
  -31.1370   25.5540   13.6100 C   0  0  0  0  0
  -32.1510   23.7340   20.5980 C   0  0  0  0  0
  -30.3100   26.1830   16.8010 C   0  0  0  0  0
  -28.2390   26.7550   15.5700 N   0  0  0  0  0
  -28.8640   26.3110   13.4380 O   0  0  0  0  0
  -31.5970   23.1950   21.7870 O   0  0  0  0  0
  -29.7590   26.9840   17.8400 O   0  0  0  0  0
  -23.3404   28.1572   12.0464 H   0  0  0  0  0
  -25.4773   29.0315   11.1720 H   0  0  0  0  0
  -23.3383   26.6060   13.9625 H   0  0  0  0  0
  -31.2718   28.0795   21.9430 H   0  0  0  0  0
  -27.6001   28.3534   12.2250 H   0  0  0  0  0
  -25.4622   25.9364   15.0208 H   0  0  0  0  0
  -32.2107   25.8286   22.2985 H   0  0  0  0  0
  -30.1132   28.6096   19.8248 H   0  0  0  0  0
  -30.8394   24.6274   18.4325 H   0  0  0  0  0
  -31.3833   24.5662   13.9994 H   0  0  0  0  0
  -31.9555   26.2428   13.8191 H   0  0  0  0  0
  -30.9783   25.4924   12.5334 H   0  0  0  0  0
  -31.9077   23.0939   19.7499 H   0  0  0  0  0
  -33.2359   23.7925   20.6855 H   0  0  0  0  0
  -30.2865   25.1405   17.1184 H   0  0  0  0  0
  -31.3295   26.5179   16.6096 H   0  0  0  0  0
  -31.9544   22.3165   21.9356 H   0  0  0  0  0
  2  1  4  0  0  0
  3  1  4  0  0  0
  5  2  4  0  0  0
  6  3  4  0  0  0
  4  7  4  0  0  0
  8  4  4  0  0  0
 10  5  4  0  0  0
 10  6  4  0  0  0
 11  7  4  0  0  0
 12  8  4  0  0  0
  9 11  4  0  0  0
 12  9  4  0  0  0
 15 10  1  0  0  0
 11 17  1  0  0  0
 22 12  1  0  0  0
 13 14  4  0  0  0
 18 13  1  0  0  0
 13 19  4  0  0  0
 14 16  1  0  0  0
 14 20  4  0  0  0
 19 15  4  0  0  0
 15 20  4  0  0  0
 17 21  1  0  0  0
 18 22  1  0  0  0
  1 23  1  0  0  0
  2 24  1  0  0  0
  3 25  1  0  0  0
  4 26  1  0  0  0
  5 27  1  0  0  0
  6 28  1  0  0  0
  7 29  1  0  0  0
  8 30  1  0  0  0
  9 31  1  0  0  0
 16 32  1  0  0  0
 16 33  1  0  0  0
 16 34  1  0  0  0
 17 35  1  0  0  0
 17 36  1  0  0  0
 18 37  1  0  0  0
 18 38  1  0  0  0
 21 39  1  0  0  0
M  END
$$$$
