5v5y_ligand
  -I-interpret- 

 70 74  0  0  0  0  0  0  0  0999 V2000
   24.6000    5.7300  -14.3420 C   0  0  0  0  0
   24.4740    5.2780  -12.9290 N   0  3  0  0  0
   23.1160    4.7520  -12.6350 C   0  0  0  0  0
   22.9690    4.0900  -11.2420 C   0  0  0  0  0
   24.1270    3.3510  -10.7560 N   0  0  0  0  0
   25.4260    3.9310  -11.0610 C   0  0  0  0  0
   25.5610    4.3360  -12.5390 C   0  0  0  0  0
   23.9680    2.5790   -9.6070 C   0  0  0  0  0
   22.8760    2.7790   -8.7250 C   0  0  0  0  0
   22.7170    2.0090   -7.5690 C   0  0  0  0  0
   23.6440    0.9960   -7.2340 C   0  0  0  0  0
   23.5810    0.1760   -6.1370 N   0  0  0  0  0
   22.8230    0.3270   -5.0270 C   0  0  0  0  0
   22.7820   -0.6880   -4.1220 N   0  0  0  0  0
   22.0430   -0.6210   -2.9860 C   0  0  0  0  0
   21.3070    0.5420   -2.7540 C   0  0  0  0  0
   20.4430    0.9600   -1.7140 C   0  0  0  0  0
   20.0530    0.3990   -0.6380 O   0  0  0  0  0
   20.0270    2.1910   -2.0810 N   0  0  0  0  0
   19.1860    2.9590   -1.2170 C   0  0  0  0  0
   20.1830    3.7770   -0.5390 C   0  0  0  0  0
   20.9740    3.3530    0.4660 C   0  0  0  0  0
   20.6160    2.5920   -3.2060 N   0  0  0  0  0
   21.3550    1.5720   -3.6610 C   0  0  0  0  0
   22.1040    1.4520   -4.7780 N   0  0  0  0  0
   20.3720    3.6930   -3.9750 C   0  0  0  0  0
   19.1100    4.1780   -3.8410 N   0  0  0  0  0
   18.5580    5.2170   -4.5190 C   0  0  0  0  0
   19.3620    5.8170   -5.5130 C   0  0  0  0  0
   20.6640    5.3270   -5.7440 C   0  0  0  0  0
   21.1750    4.2430   -5.0030 C   0  0  0  0  0
   17.1590    5.6460   -4.1860 C   0  0  0  0  0
   16.5750    6.7170   -5.1440 C   0  0  0  0  0
   17.0800    6.1400   -2.7170 C   0  0  0  0  0
   16.2810    4.5230   -4.2880 O   0  0  0  0  0
   24.7340    0.7880   -8.0970 C   0  0  0  0  0
   24.8900    1.5630   -9.2530 C   0  0  0  0  0
   25.5541    6.2399  -14.4753 H   0  0  0  0  0
   24.5529    4.8655  -15.0042 H   0  0  0  0  0
   23.7849    6.4144  -14.5773 H   0  0  0  0  0
   24.5946    6.1011  -12.3388 H   0  0  0  0  0
   22.9053    3.9820  -13.3772 H   0  0  0  0  0
   22.4338    5.6018  -12.6572 H   0  0  0  0  0
   22.1610    3.3642  -11.3335 H   0  0  0  0  0
   22.8074    4.9029  -10.5340 H   0  0  0  0  0
   26.1869    3.1800  -10.8482 H   0  0  0  0  0
   25.5427    4.8295  -10.4551 H   0  0  0  0  0
   26.5225    4.8289  -12.6827 H   0  0  0  0  0
   25.4901    3.4411  -13.1573 H   0  0  0  0  0
   22.1425    3.5521   -8.9539 H   0  0  0  0  0
   21.8643    2.1929   -6.9154 H   0  0  0  0  0
   24.1795   -0.6496   -6.1609 H   0  0  0  0  0
   22.0247   -1.4489   -2.2773 H   0  0  0  0  0
   18.5685    2.3607   -0.5471 H   0  0  0  0  0
   18.4164    3.5309   -1.7354 H   0  0  0  0  0
   20.2976    4.8093   -0.8696 H   0  0  0  0  0
   20.8929    2.3281    0.8281 H   0  0  0  0  0
   21.6950    4.0349    0.9169 H   0  0  0  0  0
   18.9787    6.6532   -6.0977 H   0  0  0  0  0
   21.2851    5.7944   -6.5081 H   0  0  0  0  0
   22.1642    3.8379   -5.2160 H   0  0  0  0  0
   17.1992    7.6100   -5.1124 H   0  0  0  0  0
   16.5550    6.3219   -6.1597 H   0  0  0  0  0
   15.5619    6.9691   -4.8308 H   0  0  0  0  0
   17.3732    5.3318   -2.0470 H   0  0  0  0  0
   17.7531    6.9869   -2.5831 H   0  0  0  0  0
   16.0585    6.4471   -2.4927 H   0  0  0  0  0
   15.3861    4.7975   -4.0750 H   0  0  0  0  0
   25.4660    0.0148   -7.8638 H   0  0  0  0  0
   25.7473    1.3789   -9.9005 H   0  0  0  0  0
  1  2  1  0  0  0
  2  3  1  0  0  0
  2  7  1  0  0  0
  3  4  1  0  0  0
  4  5  1  0  0  0
  5  6  1  0  0  0
  5  8  1  0  0  0
  6  7  1  0  0  0
  8  9  4  0  0  0
  8 37  4  0  0  0
  9 10  4  0  0  0
 10 11  4  0  0  0
 11 12  1  0  0  0
 11 36  4  0  0  0
 12 13  1  0  0  0
 13 14  4  0  0  0
 13 25  4  0  0  0
 14 15  4  0  0  0
 15 16  4  0  0  0
 16 17  1  0  0  0
 16 24  4  0  0  0
 17 18  2  0  0  0
 17 19  1  0  0  0
 19 20  1  0  0  0
 19 23  1  0  0  0
 20 21  1  0  0  0
 21 22  2  0  0  0
 23 24  1  0  0  0
 23 26  1  0  0  0
 24 25  4  0  0  0
 26 27  4  0  0  0
 26 31  4  0  0  0
 27 28  4  0  0  0
 28 29  4  0  0  0
 28 32  1  0  0  0
 29 30  4  0  0  0
 30 31  4  0  0  0
 32 33  1  0  0  0
 32 34  1  0  0  0
 32 35  1  0  0  0
 36 37  4  0  0  0
  1 38  1  0  0  0
  1 39  1  0  0  0
  1 40  1  0  0  0
  2 41  1  0  0  0
  3 42  1  0  0  0
  3 43  1  0  0  0
  4 44  1  0  0  0
  4 45  1  0  0  0
  6 46  1  0  0  0
  6 47  1  0  0  0
  7 48  1  0  0  0
  7 49  1  0  0  0
  9 50  1  0  0  0
 10 51  1  0  0  0
 12 52  1  0  0  0
 15 53  1  0  0  0
 20 54  1  0  0  0
 20 55  1  0  0  0
 21 56  1  0  0  0
 22 57  1  0  0  0
 22 58  1  0  0  0
 29 59  1  0  0  0
 30 60  1  0  0  0
 31 61  1  0  0  0
 33 62  1  0  0  0
 33 63  1  0  0  0
 33 64  1  0  0  0
 34 65  1  0  0  0
 34 66  1  0  0  0
 34 67  1  0  0  0
 35 68  1  0  0  0
 36 69  1  0  0  0
 37 70  1  0  0  0
M  END
$$$$
