3qfd_ligand
  -I-interpret- 

125124  0  0  0  0  0  0  0  0999 V2000
   20.2160   -7.2560   44.1390 N   0  3  0  0  0
   21.4180   -6.4200   44.4330 C   0  0  0  0  0
   22.3310   -6.3770   43.2160 C   0  0  0  0  0
   22.4340   -7.3610   42.4560 O   0  0  0  0  0
   22.1540   -6.9490   45.6140 C   0  0  0  0  0
   23.0150   -5.2480   43.0300 N   0  0  0  0  0
   23.8140   -5.0400   41.8210 C   0  0  0  0  0
   25.1710   -5.7580   41.8980 C   0  0  0  0  0
   25.5750   -6.3150   42.9590 O   0  0  0  0  0
   24.0100   -3.5140   41.5800 C   0  0  0  0  0
   25.8920   -5.7090   40.7840 N   0  0  0  0  0
   27.1950   -6.3730   40.6680 C   0  0  0  0  0
   28.3970   -5.5730   41.1250 C   0  0  0  0  0
   28.3420   -4.3680   41.3580 O   0  0  0  0  0
   29.4860   -6.3000   41.3160 N   0  0  0  0  0
   30.7880   -5.7200   41.4910 C   0  0  0  0  0
   31.6790   -6.3580   40.4150 C   0  0  0  0  0
   31.2360   -7.2240   39.6530 O   0  0  0  0  0
   31.3530   -5.9860   42.9050 C   0  0  0  0  0
   31.5410   -7.4880   43.1430 C   0  0  0  0  0
   30.4870   -5.3260   43.9760 C   0  0  0  0  0
   32.4800   -7.8240   44.3070 C   0  0  0  0  0
   32.9200   -5.9260   40.3080 N   0  0  0  0  0
   33.7620   -6.4820   39.2350 C   0  0  0  0  0
   33.5690   -5.7940   37.8980 C   0  0  0  0  0
   33.8710   -6.3580   36.8320 O   0  0  0  0  0
   33.0680   -4.5640   37.9570 N   0  0  0  0  0
   32.7420   -3.8010   36.7680 C   0  0  0  0  0
   33.9740   -2.9600   36.4090 C   0  0  0  0  0
   34.3450   -2.0220   37.1300 O   0  0  0  0  0
   31.5090   -2.8950   37.0430 C   0  0  0  0  0
   30.2880   -3.7470   37.4550 C   0  0  0  0  0
   31.2580   -1.8690   35.9130 C   0  0  0  0  0
   29.9530   -4.8770   36.5350 C   0  0  0  0  0
   34.6040   -3.3160   35.2960 N   0  0  0  0  0
   35.8680   -2.6860   34.8860 C   0  0  0  0  0
   35.6480   -1.7090   33.7620 C   0  0  0  0  0
   34.7220   -1.8420   32.9730 O   0  0  0  0  0
   36.8900   -3.7400   34.4240 C   0  0  0  0  0
   38.0040   -4.0970   35.3950 C   0  0  0  0  0
   37.4380   -4.8380   36.5970 C   0  0  0  0  0
   39.1000   -4.8940   34.6970 C   0  0  0  0  0
   36.5600   -0.7580   33.6630 N   0  0  0  0  0
   36.5610    0.1830   32.5500 C   0  0  0  0  0
   36.8330   -0.5240   31.2120 C   0  0  0  0  0
   37.5880   -1.4940   31.1500 O   0  0  0  0  0
   37.6040    1.3340   32.7910 C   0  0  0  0  0
   38.8850    0.7680   33.0650 O   0  0  0  0  0
   37.1810    2.2310   33.9830 C   0  0  0  0  0
   36.2250   -0.0070   30.1550 N   0  0  0  0  0
   36.4600   -0.4880   28.8060 C   0  0  0  0  0
   37.8480   -0.1560   28.2210 C   0  0  0  0  0
   38.6380    0.6560   28.7980 O   0  0  0  0  0
   35.3720   -0.0130   27.8390 C   0  0  0  0  0
   33.9810   -0.4260   28.3220 C   0  0  0  0  0
   35.4980    1.5180   27.5840 C   0  0  0  0  0
   38.2380   -0.7180   27.1530 O   0  0  0  0  0
   19.7287   -6.8753   43.3278 H   0  0  0  0  0
   20.5088   -8.2132   43.9429 H   0  0  0  0  0
   19.5924   -7.2485   44.9461 H   0  0  0  0  0
   21.0877   -5.4075   44.6650 H   0  0  0  0  0
   22.5076   -7.9572   45.3984 H   0  0  0  0  0
   23.0047   -6.3026   45.8298 H   0  0  0  0  0
   21.4866   -6.9731   46.4755 H   0  0  0  0  0
   22.9812   -4.5176   43.7412 H   0  0  0  0  0
   23.2736   -5.4728   40.9791 H   0  0  0  0  0
   24.5875   -3.0890   42.4010 H   0  0  0  0  0
   24.5433   -3.3612   40.6417 H   0  0  0  0  0
   23.0359   -3.0274   41.5292 H   0  0  0  0  0
   25.5281   -5.1930   39.9830 H   0  0  0  0  0
   27.3443   -6.5663   39.6057 H   0  0  0  0  0
   27.1487   -7.2488   41.3152 H   0  0  0  0  0
   29.3968   -7.3158   41.3400 H   0  0  0  0  0
   30.7453   -4.6355   41.3900 H   0  0  0  0  0
   32.3395   -5.5280   42.9759 H   0  0  0  0  0
   31.9855   -7.9047   42.2392 H   0  0  0  0  0
   30.5625   -7.9008   43.3883 H   0  0  0  0  0
   30.4603   -4.2495   43.8073 H   0  0  0  0  0
   29.4755   -5.7286   43.9225 H   0  0  0  0  0
   30.9093   -5.5305   44.9598 H   0  0  0  0  0
   33.4662   -7.4037   44.1096 H   0  0  0  0  0
   32.0807   -7.3999   45.2283 H   0  0  0  0  0
   32.5585   -8.9065   44.4080 H   0  0  0  0  0
   33.2874   -5.2250   40.9515 H   0  0  0  0  0
   33.4836   -7.5282   39.1086 H   0  0  0  0  0
   34.8023   -6.3419   39.5287 H   0  0  0  0  0
   32.9072   -4.1419   38.8715 H   0  0  0  0  0
   32.4865   -4.4592   35.9375 H   0  0  0  0  0
   31.7234   -2.2620   37.9041 H   0  0  0  0  0
   29.4272   -3.0783   37.4521 H   0  0  0  0  0
   30.5315   -4.1931   38.4193 H   0  0  0  0  0
   32.1305   -1.2240   35.8093 H   0  0  0  0  0
   31.0821   -2.3979   34.9763 H   0  0  0  0  0
   30.3851   -1.2647   36.1600 H   0  0  0  0  0
   29.7336   -4.4831   35.5426 H   0  0  0  0  0
   30.8004   -5.5601   36.4770 H   0  0  0  0  0
   29.0816   -5.4087   36.9170 H   0  0  0  0  0
   34.2004   -4.0463   34.7093 H   0  0  0  0  0
   36.2558   -2.1590   35.7578 H   0  0  0  0  0
   37.3831   -3.3124   33.5510 H   0  0  0  0  0
   36.3220   -4.6581   34.2736 H   0  0  0  0  0
   38.4619   -3.1771   35.7587 H   0  0  0  0  0
   36.7120   -4.2031   37.1048 H   0  0  0  0  0
   36.9503   -5.7532   36.2614 H   0  0  0  0  0
   38.2476   -5.0868   37.2831 H   0  0  0  0  0
   38.6775   -5.8144   34.2940 H   0  0  0  0  0
   39.5192   -4.2992   33.8854 H   0  0  0  0  0
   39.8842   -5.1362   35.4143 H   0  0  0  0  0
   37.2796   -0.6807   34.3818 H   0  0  0  0  0
   35.5662    0.6251   32.4946 H   0  0  0  0  0
   37.6471    1.9475   31.8911 H   0  0  0  0  0
   39.5202    1.4727   33.2118 H   0  0  0  0  0
   36.2097    2.6786   33.7725 H   0  0  0  0  0
   37.1150    1.6250   34.8866 H   0  0  0  0  0
   37.9220    3.0177   34.1249 H   0  0  0  0  0
   35.5660    0.7590   30.2945 H   0  0  0  0  0
   36.4253   -1.5726   28.9090 H   0  0  0  0  0
   38.2169    1.0040   29.5874 H   0  0  0  0  0
   35.5168   -0.5070   26.8782 H   0  0  0  0  0
   33.9309   -1.5124   28.3950 H   0  0  0  0  0
   33.7922    0.0143   29.3010 H   0  0  0  0  0
   33.2320   -0.0733   27.6130 H   0  0  0  0  0
   35.3909    2.0523   28.5280 H   0  0  0  0  0
   36.4751    1.7338   27.1517 H   0  0  0  0  0
   34.7160    1.8358   26.8944 H   0  0  0  0  0
  1  2  1  0  0  0
  2  3  1  0  0  0
  2  5  1  0  0  0
  3  4  2  0  0  0
  3  6  1  0  0  0
  6  7  1  0  0  0
  7  8  1  0  0  0
  7 10  1  0  0  0
  8  9  2  0  0  0
  8 11  1  0  0  0
 11 12  1  0  0  0
 12 13  1  0  0  0
 13 14  2  0  0  0
 13 15  1  0  0  0
 15 16  1  0  0  0
 16 17  1  0  0  0
 16 19  1  0  0  0
 17 18  2  0  0  0
 17 23  1  0  0  0
 19 20  1  0  0  0
 19 21  1  0  0  0
 20 22  1  0  0  0
 23 24  1  0  0  0
 24 25  1  0  0  0
 25 26  2  0  0  0
 25 27  1  0  0  0
 27 28  1  0  0  0
 28 29  1  0  0  0
 28 31  1  0  0  0
 29 30  2  0  0  0
 29 35  1  0  0  0
 31 32  1  0  0  0
 31 33  1  0  0  0
 32 34  1  0  0  0
 35 36  1  0  0  0
 36 37  1  0  0  0
 36 39  1  0  0  0
 37 38  2  0  0  0
 37 43  1  0  0  0
 39 40  1  0  0  0
 40 41  1  0  0  0
 40 42  1  0  0  0
 43 44  1  0  0  0
 44 45  1  0  0  0
 44 47  1  0  0  0
 45 46  2  0  0  0
 45 50  1  0  0  0
 47 48  1  0  0  0
 47 49  1  0  0  0
 50 51  1  0  0  0
 51 52  1  0  0  0
 51 54  1  0  0  0
 52 53  1  0  0  0
 52 57  2  0  0  0
 54 55  1  0  0  0
 54 56  1  0  0  0
  1 58  1  0  0  0
  1 59  1  0  0  0
  1 60  1  0  0  0
  2 61  1  0  0  0
  5 62  1  0  0  0
  5 63  1  0  0  0
  5 64  1  0  0  0
  6 65  1  0  0  0
  7 66  1  0  0  0
 10 67  1  0  0  0
 10 68  1  0  0  0
 10 69  1  0  0  0
 11 70  1  0  0  0
 12 71  1  0  0  0
 12 72  1  0  0  0
 15 73  1  0  0  0
 16 74  1  0  0  0
 19 75  1  0  0  0
 20 76  1  0  0  0
 20 77  1  0  0  0
 21 78  1  0  0  0
 21 79  1  0  0  0
 21 80  1  0  0  0
 22 81  1  0  0  0
 22 82  1  0  0  0
 22 83  1  0  0  0
 23 84  1  0  0  0
 24 85  1  0  0  0
 24 86  1  0  0  0
 27 87  1  0  0  0
 28 88  1  0  0  0
 31 89  1  0  0  0
 32 90  1  0  0  0
 32 91  1  0  0  0
 33 92  1  0  0  0
 33 93  1  0  0  0
 33 94  1  0  0  0
 34 95  1  0  0  0
 34 96  1  0  0  0
 34 97  1  0  0  0
 35 98  1  0  0  0
 36 99  1  0  0  0
 39100  1  0  0  0
 39101  1  0  0  0
 40102  1  0  0  0
 41103  1  0  0  0
 41104  1  0  0  0
 41105  1  0  0  0
 42106  1  0  0  0
 42107  1  0  0  0
 42108  1  0  0  0
 43109  1  0  0  0
 44110  1  0  0  0
 47111  1  0  0  0
 48112  1  0  0  0
 49113  1  0  0  0
 49114  1  0  0  0
 49115  1  0  0  0
 50116  1  0  0  0
 51117  1  0  0  0
 53118  1  0  0  0
 54119  1  0  0  0
 55120  1  0  0  0
 55121  1  0  0  0
 55122  1  0  0  0
 56123  1  0  0  0
 56124  1  0  0  0
 56125  1  0  0  0
M  END
$$$$
