2a3x_ligand
  -I-interpret- 

 58 60  0  0  0  0  0  0  0  0999 V2000
  -26.2960   74.7970   74.3430 O   0  0  0  0  0
  -25.5830   75.7710   74.6800 C   0  0  0  0  0
  -25.3380   76.0450   75.8770 O   0  0  0  0  0
  -24.9670   76.6490   73.6210 C   0  0  0  0  0
  -25.4780   76.2970   72.3280 O   0  0  0  0  0
  -25.1090   77.1840   71.2680 C   0  0  0  0  0
  -23.4630   76.3940   73.6600 C   0  0  0  0  0
  -25.2910   78.0070   73.9540 O   0  0  0  0  0
  -24.9210   78.9790   72.9750 C   0  0  0  0  0
  -25.5210   78.6060   71.6230 C   0  0  0  0  0
  -26.9400   78.6430   71.6900 O   0  0  0  0  0
  -27.5030   79.9030   71.3190 C   0  0  0  0  0
  -26.6940   80.8810   70.6710 O   0  0  0  0  0
  -28.9540   80.0060   71.2390 N   0  0  0  0  0
  -29.6110   79.8860   72.5360 C   0  0  0  0  0
  -31.0210   80.4320   72.3220 C   0  0  0  0  0
  -29.4550   79.2660   70.0880 C   0  0  0  0  0
  -30.8610   79.8130   69.8770 C   0  0  0  0  0
  -31.5300   79.7010   71.1680 N   0  0  0  0  0
  -32.9680   79.8510   70.9610 C   0  0  0  0  0
  -33.7770   78.6860   70.9020 O   0  0  0  0  0
  -33.5890   81.1240   71.1820 O   0  0  0  0  0
  -35.0110   81.0960   71.0290 C   0  0  0  0  0
  -35.7480   80.9520   72.3610 C   0  0  0  0  0
  -35.6740   82.1520   73.1370 O   0  0  0  0  0
  -35.4680   82.3750   70.3350 C   0  0  0  0  0
  -35.4000   83.5080   71.2100 O   0  0  0  0  0
  -36.0540   83.3670   72.4750 C   0  0  0  0  0
  -37.5670   83.4440   72.2660 C   0  0  0  0  0
  -35.6240   84.5020   73.3750 C   0  0  0  0  0
  -36.0600   84.5400   74.5470 O   0  0  0  0  0
  -34.8390   85.3730   72.9390 O   0  0  0  0  0
  -26.3585   74.7637   73.3856 H   0  0  0  0  0
  -25.6126   76.8800   70.3504 H   0  0  0  0  0
  -24.0293   77.1457   71.1238 H   0  0  0  0  0
  -22.9661   77.0485   72.9439 H   0  0  0  0  0
  -23.0870   76.5982   74.6625 H   0  0  0  0  0
  -23.2653   75.3537   73.4014 H   0  0  0  0  0
  -23.8347   79.0098   72.8907 H   0  0  0  0  0
  -25.2962   79.9564   73.2782 H   0  0  0  0  0
  -25.1638   79.3143   70.8754 H   0  0  0  0  0
  -29.0784   80.4393   73.3095 H   0  0  0  0  0
  -29.6280   78.8533   72.8843 H   0  0  0  0  0
  -31.0186   81.5087   72.1525 H   0  0  0  0  0
  -31.6492   80.2916   73.2016 H   0  0  0  0  0
  -29.4532   78.1893   70.2581 H   0  0  0  0  0
  -28.8255   79.3977   69.2080 H   0  0  0  0  0
  -31.3918   79.2544   69.1060 H   0  0  0  0  0
  -30.8362   80.8467   69.5321 H   0  0  0  0  0
  -35.2548   80.2194   70.4288 H   0  0  0  0  0
  -35.2808   80.1464   72.9275 H   0  0  0  0  0
  -36.7969   80.7408   72.1529 H   0  0  0  0  0
  -36.5042   82.2444   70.0231 H   0  0  0  0  0
  -34.8101   82.5579   69.4854 H   0  0  0  0  0
  -37.8913   82.6020   71.6545 H   0  0  0  0  0
  -38.0684   83.4068   73.2331 H   0  0  0  0  0
  -37.8158   84.3779   71.7620 H   0  0  0  0  0
  -36.6441   83.7925   74.6943 H   0  0  0  0  0
  1  2  1  0  0  0
  2  3  2  0  0  0
  2  4  1  0  0  0
  4  5  1  0  0  0
  4  7  1  0  0  0
  4  8  1  0  0  0
  5  6  1  0  0  0
  6 10  1  0  0  0
  8  9  1  0  0  0
  9 10  1  0  0  0
 10 11  1  0  0  0
 11 12  1  0  0  0
 12 13  2  0  0  0
 12 14  1  0  0  0
 14 15  1  0  0  0
 14 17  1  0  0  0
 15 16  1  0  0  0
 16 19  1  0  0  0
 17 18  1  0  0  0
 18 19  1  0  0  0
 19 20  1  0  0  0
 20 21  2  0  0  0
 20 22  1  0  0  0
 22 23  1  0  0  0
 23 24  1  0  0  0
 23 26  1  0  0  0
 24 25  1  0  0  0
 25 28  1  0  0  0
 26 27  1  0  0  0
 27 28  1  0  0  0
 28 29  1  0  0  0
 28 30  1  0  0  0
 30 31  1  0  0  0
 30 32  2  0  0  0
  1 33  1  0  0  0
  6 34  1  0  0  0
  6 35  1  0  0  0
  7 36  1  0  0  0
  7 37  1  0  0  0
  7 38  1  0  0  0
  9 39  1  0  0  0
  9 40  1  0  0  0
 10 41  1  0  0  0
 15 42  1  0  0  0
 15 43  1  0  0  0
 16 44  1  0  0  0
 16 45  1  0  0  0
 17 46  1  0  0  0
 17 47  1  0  0  0
 18 48  1  0  0  0
 18 49  1  0  0  0
 23 50  1  0  0  0
 24 51  1  0  0  0
 24 52  1  0  0  0
 26 53  1  0  0  0
 26 54  1  0  0  0
 29 55  1  0  0  0
 29 56  1  0  0  0
 29 57  1  0  0  0
 31 58  1  0  0  0
M  END
$$$$
