3zo2_ligand
  -I-interpret- 

 40 43  0  0  0  0  0  0  0  0999 V2000
  -32.4760   -9.9690   -0.8780 C   0  0  0  0  0
  -31.2570  -10.0290   -1.3780 N   0  0  0  0  0
  -33.4480   -9.8690   -1.8130 N   0  0  0  0  0
  -32.8200   -9.8900   -3.0260 C   0  0  0  0  0
  -33.3930   -9.8590   -4.2450 N   0  0  0  0  0
  -32.5330   -9.9900   -5.2580 C   0  0  0  0  0
  -31.4650  -10.0040   -2.7500 C   0  0  0  0  0
  -30.7050  -10.1290   -3.9540 C   0  0  0  0  0
  -31.2060  -10.1350   -5.2110 N   0  0  0  0  0
  -29.2990  -10.3130   -3.9500 N   0  0  0  0  0
  -28.4660  -10.3680   -2.7450 C   0  0  0  0  0
  -27.6480   -9.0870   -2.6500 C   0  0  0  0  0
  -26.7180   -8.8590   -3.8620 C   0  0  0  0  0
  -27.5390   -9.0240   -5.1580 C   0  0  0  0  0
  -28.4810  -10.2190   -5.1660 C   0  0  0  0  0
  -26.2030   -7.3710   -3.8200 C   0  0  0  0  0
  -25.2100   -7.1220   -2.7200 N   0  3  0  0  0
  -24.0180   -7.9840   -2.7520 C   0  0  0  0  0
  -24.4610   -9.4890   -2.7830 C   0  0  0  0  0
  -25.4950   -9.8020   -3.8690 C   0  0  0  0  0
  -32.6814   -9.9974    0.1921 H   0  0  0  0  0
  -32.9721   -9.9769   -6.2556 H   0  0  0  0  0
  -27.7982  -11.2278   -2.7983 H   0  0  0  0  0
  -29.0999  -10.4659   -1.8637 H   0  0  0  0  0
  -27.0182   -9.1652   -1.7638 H   0  0  0  0  0
  -28.3486   -8.2528   -2.6129 H   0  0  0  0  0
  -26.8259   -9.1767   -5.9681 H   0  0  0  0  0
  -28.1573   -8.1319   -5.2577 H   0  0  0  0  0
  -29.1573  -10.1031   -6.0130 H   0  0  0  0  0
  -27.8724  -11.1212   -5.2273 H   0  0  0  0  0
  -27.0642   -6.7273   -3.6409 H   0  0  0  0  0
  -25.7057   -7.1656   -4.7680 H   0  0  0  0  0
  -25.6897   -7.3151   -1.8408 H   0  0  0  0  0
  -24.8826   -6.1623   -2.8304 H   0  0  0  0  0
  -23.4138   -7.8015   -1.8633 H   0  0  0  0  0
  -23.4314   -7.7597   -3.6429 H   0  0  0  0  0
  -24.9199   -9.7144   -1.8203 H   0  0  0  0  0
  -23.5741  -10.0863   -2.9944 H   0  0  0  0  0
  -24.9991   -9.6814   -4.8321 H   0  0  0  0  0
  -25.8635  -10.8109   -3.6836 H   0  0  0  0  0
  1  2  4  0  0  0
  1  3  4  0  0  0
  2  7  4  0  0  0
  3  4  4  0  0  0
  4  5  4  0  0  0
  4  7  4  0  0  0
  5  6  4  0  0  0
  6  9  4  0  0  0
  7  8  4  0  0  0
  8  9  4  0  0  0
  8 10  1  0  0  0
 10 11  1  0  0  0
 10 15  1  0  0  0
 11 12  1  0  0  0
 12 13  1  0  0  0
 13 14  1  0  0  0
 13 16  1  0  0  0
 13 20  1  0  0  0
 14 15  1  0  0  0
 16 17  1  0  0  0
 17 18  1  0  0  0
 18 19  1  0  0  0
 19 20  1  0  0  0
  1 21  1  0  0  0
  6 22  1  0  0  0
 11 23  1  0  0  0
 11 24  1  0  0  0
 12 25  1  0  0  0
 12 26  1  0  0  0
 14 27  1  0  0  0
 14 28  1  0  0  0
 15 29  1  0  0  0
 15 30  1  0  0  0
 16 31  1  0  0  0
 16 32  1  0  0  0
 17 33  1  0  0  0
 17 34  1  0  0  0
 18 35  1  0  0  0
 18 36  1  0  0  0
 19 37  1  0  0  0
 19 38  1  0  0  0
 20 39  1  0  0  0
 20 40  1  0  0  0
M  END
$$$$
