1b6j_ligand
  -I-interpret- 

103105  0  0  0  0  0  0  0  0999 V2000
    6.0980    4.6800    9.6030 C   0  0  0  0  0
    4.1570    3.4300   10.5900 C   0  0  0  0  0
    3.7960    4.3130   11.3740 O   0  0  0  0  0
    4.8970    3.7810    9.3140 C   0  0  0  0  0
    3.9350    2.1390   10.8180 N   0  0  0  0  0
    3.2650    1.6680   12.0450 C   0  0  0  0  0
    4.0410    0.4620   12.5560 C   0  0  0  0  0
    3.9570   -0.6280   11.9920 O   0  0  0  0  0
    1.8040    1.3250   11.7710 C   0  0  0  0  0
    1.0450    2.5070   11.2100 C   0  0  0  0  0
    0.6600    3.4160   11.9450 O   0  0  0  0  0
    0.8940    2.5410    9.8930 N   0  0  0  0  0
    4.8490    0.6910   13.5920 N   0  0  0  0  0
    5.6860   -0.3610   14.1980 C   0  0  0  0  0
    7.1130    0.1920   14.3260 C   0  0  0  0  0
    7.4940    0.8960   13.0550 C   0  0  0  0  0
    7.4990    2.2910   12.9850 C   0  0  0  0  0
    7.6070    2.9550   11.7550 C   0  0  0  0  0
    7.6300    0.1790   11.8640 C   0  0  0  0  0
    7.7340    0.8310   10.6380 C   0  0  0  0  0
    7.7080    2.2200   10.5750 C   0  0  0  0  0
    7.6860    2.7860    9.2980 O   0  0  0  0  0
    7.4460    4.1620    9.0120 C   0  0  0  0  0
    5.1540   -0.6860   15.5970 C   0  0  0  0  0
    5.2480    0.4690   16.4450 O   0  0  0  0  0
    3.6990   -1.0900   15.4870 C   0  0  0  0  0
    3.5160   -2.5440   15.4480 N   0  3  0  0  0
    4.2080   -3.3990   16.4120 C   0  0  0  0  0
    5.5010   -4.0600   15.9380 C   0  0  0  0  0
    5.8130   -4.1120   14.7460 O   0  0  0  0  0
    3.1600   -4.4580   16.7160 C   0  0  0  0  0
    2.5420   -4.6660   15.3720 C   0  0  0  0  0
    2.3670   -3.2470   14.8510 C   0  0  0  0  0
    6.2670   -4.5230   16.9150 N   0  0  0  0  0
    7.5050   -5.2630   16.6770 C   0  0  0  0  0
    7.3570   -6.4010   17.6690 C   0  0  0  0  0
    7.3650   -6.1760   18.8800 O   0  0  0  0  0
    8.7830   -4.4560   17.0160 C   0  0  0  0  0
    8.9550   -3.2820   16.0500 C   0  0  0  0  0
   10.0080   -5.3640   16.9340 C   0  0  0  0  0
    9.1600   -3.6980   14.6320 C   0  0  0  0  0
    7.0850   -7.5930   17.1520 N   0  0  0  0  0
    6.9200   -8.7790   18.0020 C   0  0  0  0  0
    8.0430   -9.7860   17.7430 C   0  0  0  0  0
    8.3940  -10.0630   16.5900 O   0  0  0  0  0
    5.5280   -9.4500   17.7970 C   0  0  0  0  0
    4.4170   -8.4300   18.0070 C   0  0  0  0  0
    5.4180  -10.0870   16.4130 C   0  0  0  0  0
    8.6300  -10.3170   18.8160 N   0  0  0  0  0
    5.8947    5.6452    9.1392 H   0  0  0  0  0
    6.2165    4.7180   10.6859 H   0  0  0  0  0
    5.2541    2.8598    8.8537 H   0  0  0  0  0
    4.2150    4.3132    8.6508 H   0  0  0  0  0
    4.2367    1.4545   10.1245 H   0  0  0  0  0
    3.2581    2.4510   12.8033 H   0  0  0  0  0
    1.3380    1.0343   12.7125 H   0  0  0  0  0
    1.7731    0.5189   11.0380 H   0  0  0  0  0
    0.4437    3.3429    9.4518 H   0  0  0  0  0
    1.2282    1.7653    9.3212 H   0  0  0  0  0
    4.8897    1.6329   13.9813 H   0  0  0  0  0
    5.6711   -1.2622   13.5850 H   0  0  0  0  0
    7.8058   -0.6297   14.5076 H   0  0  0  0  0
    7.1565    0.8953   15.1576 H   0  0  0  0  0
    7.4175    2.8735   13.9027 H   0  0  0  0  0
    7.6120    4.0445   11.7215 H   0  0  0  0  0
    7.6552   -0.9103   11.8948 H   0  0  0  0  0
    7.8364    0.2491    9.7220 H   0  0  0  0  0
    8.2515    4.7410    9.4638 H   0  0  0  0  0
    7.3987    4.2732    7.9287 H   0  0  0  0  0
    5.7459   -1.4955   16.0241 H   0  0  0  0  0
    4.9118    0.2521   17.3177 H   0  0  0  0  0
    3.3072   -0.6786   14.5567 H   0  0  0  0  0
    3.1794   -0.7111   16.3671 H   0  0  0  0  0
    4.0592   -2.3353   14.6103 H   0  0  0  0  0
    4.5543   -2.8020   17.2556 H   0  0  0  0  0
    2.4451   -4.1552   17.4811 H   0  0  0  0  0
    3.5746   -5.3681   17.1495 H   0  0  0  0  0
    1.6026   -5.2167   15.4202 H   0  0  0  0  0
    3.1559   -5.2835   14.7163 H   0  0  0  0  0
    2.3506   -3.1907   13.7626 H   0  0  0  0  0
    1.4081   -2.8069   15.1246 H   0  0  0  0  0
    5.9791   -4.3551   17.8790 H   0  0  0  0  0
    7.6257   -5.5429   15.6305 H   0  0  0  0  0
    8.6826   -4.0658   18.0288 H   0  0  0  0  0
    9.8434   -2.7319   16.3602 H   0  0  0  0  0
    8.0394   -2.6918   16.0876 H   0  0  0  0  0
    9.8999   -6.1829   17.6452 H   0  0  0  0  0
   10.0934   -5.7665   15.9247 H   0  0  0  0  0
   10.9020   -4.7884   17.1738 H   0  0  0  0  0
   10.0578   -4.3120   14.5610 H   0  0  0  0  0
    8.2975   -4.2730   14.2951 H   0  0  0  0  0
    9.2740   -2.8119   14.0076 H   0  0  0  0  0
    6.9884   -7.6873   16.1410 H   0  0  0  0  0
    6.9752   -8.4480   19.0390 H   0  0  0  0  0
    5.4219  -10.2437   18.5365 H   0  0  0  0  0
    4.4768   -8.0330   19.0204 H   0  0  0  0  0
    4.5313   -7.6173   17.2897 H   0  0  0  0  0
    3.4504   -8.9122   17.8608 H   0  0  0  0  0
    5.5499   -9.3200   15.6499 H   0  0  0  0  0
    6.1904  -10.8481   16.3023 H   0  0  0  0  0
    4.4355  -10.5459   16.3027 H   0  0  0  0  0
    9.3985  -10.9779   18.7022 H   0  0  0  0  0
    8.3105  -10.0623   19.7506 H   0  0  0  0  0
  1 23  1  0  0  0
  1  4  1  0  0  0
  4  2  1  0  0  0
  2  5  1  0  0  0
  2  3  2  0  0  0
  5  6  1  0  0  0
  6  9  1  0  0  0
  6  7  1  0  0  0
  7 13  1  0  0  0
  7  8  2  0  0  0
 13 14  1  0  0  0
 14 24  1  0  0  0
 14 15  1  0  0  0
 15 16  1  0  0  0
 16 19  4  0  0  0
 16 17  4  0  0  0
 17 18  4  0  0  0
 18 21  4  0  0  0
 21 22  1  0  0  0
 21 20  4  0  0  0
 19 20  4  0  0  0
 23 22  1  0  0  0
 24 26  1  0  0  0
 24 25  1  0  0  0
 26 27  1  0  0  0
 27 33  1  0  0  0
 27 28  1  0  0  0
 28 31  1  0  0  0
 28 29  1  0  0  0
 29 34  1  0  0  0
 29 30  2  0  0  0
 34 35  1  0  0  0
 35 38  1  0  0  0
 35 36  1  0  0  0
 36 42  1  0  0  0
 36 37  2  0  0  0
 42 43  1  0  0  0
 43 46  1  0  0  0
 43 44  1  0  0  0
 44 49  1  0  0  0
 44 45  2  0  0  0
 46 48  1  0  0  0
 46 47  1  0  0  0
 38 40  1  0  0  0
 38 39  1  0  0  0
 39 41  1  0  0  0
 31 32  1  0  0  0
 33 32  1  0  0  0
  9 10  1  0  0  0
 10 12  1  0  0  0
 10 11  2  0  0  0
  1 50  1  0  0  0
  1 51  1  0  0  0
  4 52  1  0  0  0
  4 53  1  0  0  0
  5 54  1  0  0  0
  6 55  1  0  0  0
  9 56  1  0  0  0
  9 57  1  0  0  0
 12 58  1  0  0  0
 12 59  1  0  0  0
 13 60  1  0  0  0
 14 61  1  0  0  0
 15 62  1  0  0  0
 15 63  1  0  0  0
 17 64  1  0  0  0
 18 65  1  0  0  0
 19 66  1  0  0  0
 20 67  1  0  0  0
 23 68  1  0  0  0
 23 69  1  0  0  0
 24 70  1  0  0  0
 25 71  1  0  0  0
 26 72  1  0  0  0
 26 73  1  0  0  0
 27 74  1  0  0  0
 28 75  1  0  0  0
 31 76  1  0  0  0
 31 77  1  0  0  0
 32 78  1  0  0  0
 32 79  1  0  0  0
 33 80  1  0  0  0
 33 81  1  0  0  0
 34 82  1  0  0  0
 35 83  1  0  0  0
 38 84  1  0  0  0
 39 85  1  0  0  0
 39 86  1  0  0  0
 40 87  1  0  0  0
 40 88  1  0  0  0
 40 89  1  0  0  0
 41 90  1  0  0  0
 41 91  1  0  0  0
 41 92  1  0  0  0
 42 93  1  0  0  0
 43 94  1  0  0  0
 46 95  1  0  0  0
 47 96  1  0  0  0
 47 97  1  0  0  0
 47 98  1  0  0  0
 48 99  1  0  0  0
 48100  1  0  0  0
 48101  1  0  0  0
 49102  1  0  0  0
 49103  1  0  0  0
M  END
$$$$
