### 
### Created by X-TOOL on Mon Sep 10 21:12:48 2018
### 

@<TRIPOS>MOLECULE
1j80_ligand
  241   242     1     0     0
SMALL
GAST_HUCK


@<TRIPOS>ATOM
      1 N         -13.4510    8.2800   19.7300 N.4       1 LYS         0.2379
      2 CA        -14.7080    7.4920   19.8870 C.3       1 LYS         0.0650
      3 C         -14.4930    6.0280   19.5030 C.2       1 LYS         0.2267
      4 O         -14.3510    5.1710   20.3790 O.2       1 LYS        -0.3907
      5 CB        -15.8270    8.0890   19.0160 C.3       1 LYS         0.0080
      6 CG        -16.0800    9.5790   19.2240 C.3       1 LYS        -0.0410
      7 CD        -16.9830   10.1670   18.1300 C.3       1 LYS        -0.0123
      8 CE        -16.1760   10.9030   17.0670 C.3       1 LYS        -0.0354
      9 NZ        -17.0210   11.6130   16.0570 N.4       1 LYS         0.2185
     10 N         -14.4510    5.7430   18.1990 N.am      1 GLU        -0.2609
     11 CA        -14.2760    4.3710   17.7250 C.3       1 GLU         0.1326
     12 C         -12.8420    3.8580   17.6740 C.2       1 GLU         0.2041
     13 O         -11.9960    4.4010   16.9640 O.2       1 GLU        -0.3944
     14 CB        -14.9090    4.1860   16.3450 C.3       1 GLU        -0.0008
     15 CG        -14.8170    2.7500   15.8550 C.3       1 GLU         0.0044
     16 CD        -15.6370    2.4870   14.6110 C.2       1 GLU         0.0350
     17 OE1       -15.2720    3.0120   13.5370 O.co2     1 GLU        -0.5690
     18 OE2       -16.6460    1.7520   14.7100 O.co2     1 GLU        -0.5690
     19 N         -12.5890    2.7880   18.4210 N.am      1 THR        -0.2613
     20 CA        -11.2800    2.1540   18.4820 C.3       1 THR         0.1565
     21 C         -11.1050    1.1770   17.3100 C.2       1 THR         0.2065
     22 O         -12.0620    0.8810   16.5920 O.2       1 THR        -0.3943
     23 CB        -11.1260    1.3880   19.7920 C.3       1 THR         0.0924
     24 OG1       -11.9250    0.2020   19.7450 O.3       1 THR        -0.3874
     25 CG2       -11.5920    2.2440   20.9550 C.3       1 THR        -0.0346
     26 N          -9.8870    0.6760   17.1210 N.am      1 ALA        -0.2639
     27 CA         -9.6010   -0.2500   16.0280 C.3       1 ALA         0.1282
     28 C         -10.3340   -1.5790   16.1600 C.2       1 ALA         0.2036
     29 O         -10.7980   -2.1380   15.1690 O.2       1 ALA        -0.3944
     30 CB         -8.1070   -0.4940   15.9310 C.3       1 ALA        -0.0244
     31 N         -10.4280   -2.0920   17.3810 N.am      1 ALA        -0.2640
     32 CA        -11.1180   -3.3520   17.6030 C.3       1 ALA         0.1282
     33 C         -12.6250   -3.1620   17.4050 C.2       1 ALA         0.2036
     34 O         -13.3020   -4.0360   16.8680 O.2       1 ALA        -0.3944
     35 CB        -10.8230   -3.8710   19.0010 C.3       1 ALA        -0.0244
     36 N         -13.1410   -2.0130   17.8360 N.am      1 ALA        -0.2640
     37 CA        -14.5600   -1.7010   17.6820 C.3       1 ALA         0.1282
     38 C         -14.8660   -1.5910   16.1870 C.2       1 ALA         0.2036
     39 O         -15.8760   -2.1020   15.7070 O.2       1 ALA        -0.3944
     40 CB        -14.8960   -0.3750   18.3910 C.3       1 ALA        -0.0244
     41 N         -13.9830   -0.9180   15.4570 N.am      1 LYS        -0.2637
     42 CA        -14.1350   -0.7380   14.0170 C.3       1 LYS         0.1310
     43 C         -14.1390   -2.0780   13.2800 C.2       1 LYS         0.2040
     44 O         -14.8930   -2.2690   12.3260 O.2       1 LYS        -0.3944
     45 CB        -13.0010    0.1340   13.4930 C.3       1 LYS        -0.0122
     46 CG        -13.4420    1.1400   12.4640 C.3       1 LYS        -0.0440
     47 CD        -13.0440    0.6800   11.0880 C.3       1 LYS        -0.0124
     48 CE        -11.7950    1.4020   10.6110 C.3       1 LYS        -0.0354
     49 NZ        -10.7140    1.4020   11.6480 N.4       1 LYS         0.2185
     50 N         -13.2880   -3.0040   13.7120 N.am      1 PHE        -0.2619
     51 CA        -13.2230   -4.3260   13.0920 C.3       1 PHE         0.1404
     52 C         -14.5720   -5.0190   13.3010 C.2       1 PHE         0.2060
     53 O         -15.1320   -5.6160   12.3800 O.2       1 PHE        -0.3942
     54 CB        -12.0950   -5.1580   13.7280 C.3       1 PHE         0.0214
     55 CG        -12.0880   -6.6140   13.3120 C.ar      1 PHE        -0.0386
     56 CD1       -11.2760   -7.0510   12.2690 C.ar      1 PHE        -0.0601
     57 CD2       -12.8870   -7.5490   13.9730 C.ar      1 PHE        -0.0601
     58 CE1       -11.2590   -8.4020   11.8890 C.ar      1 PHE        -0.0686
     59 CE2       -12.8760   -8.9010   13.5970 C.ar      1 PHE        -0.0686
     60 CZ        -12.0600   -9.3250   12.5530 C.ar      1 PHE        -0.0687
     61 N         -15.0970   -4.9330   14.5200 N.am      1 GLU        -0.2635
     62 CA        -16.3790   -5.5590   14.8350 C.3       1 GLU         0.1325
     63 C         -17.5250   -5.0520   13.9640 C.2       1 GLU         0.2040
     64 O         -18.2870   -5.8470   13.4120 O.2       1 GLU        -0.3944
     65 CB        -16.7190   -5.3530   16.3120 C.3       1 GLU        -0.0008
     66 CG        -15.9890   -6.3380   17.2440 C.3       1 GLU         0.0044
     67 CD        -15.9580   -5.8980   18.7070 C.2       1 GLU         0.0350
     68 OE1       -15.4410   -6.6690   19.5430 O.co2     1 GLU        -0.5690
     69 OE2       -16.4420   -4.7950   19.0280 O.co2     1 GLU        -0.5690
     70 N         -17.6430   -3.7330   13.8550 N.am      1 ARG        -0.2637
     71 CA        -18.6900   -3.1110   13.0590 C.3       1 ARG         0.1311
     72 C         -18.5650   -3.4440   11.5760 C.2       1 ARG         0.2039
     73 O         -19.5590   -3.6570   10.8860 O.2       1 ARG        -0.3944
     74 CB        -18.6460   -1.5840   13.2200 C.3       1 ARG        -0.0092
     75 CG        -19.6430   -0.8560   12.3310 C.3       1 ARG        -0.0156
     76 CD        -19.6620    0.6430   12.5880 C.3       1 ARG         0.0627
     77 NE        -18.3530    1.2420   12.3580 N.pl3     1 ARG        -0.2723
     78 CZ        -17.9330    1.7300   11.1910 C.cat     1 ARG         0.2882
     79 NH1       -16.7180    2.2500   11.0970 N.pl3     1 ARG        -0.2849
     80 NH2       -18.7220    1.7090   10.1150 N.pl3     1 ARG        -0.2849
     81 N         -17.3330   -3.4850   11.0920 N.am      1 GLN        -0.2636
     82 CA        -17.0840   -3.7540    9.6870 C.3       1 GLN         0.1330
     83 C         -17.0930   -5.2140    9.2640 C.2       1 GLN         0.2041
     84 O         -17.4500   -5.5150    8.1270 O.2       1 GLN        -0.3944
     85 CB        -15.7310   -3.1890    9.2810 C.3       1 GLN         0.0045
     86 CG        -15.6190   -1.6910    9.2600 C.3       1 GLN         0.0412
     87 CD        -14.3610   -1.2480    8.5340 C.2       1 GLN         0.1737
     88 OE1       -13.2450   -1.6200    8.9100 O.2       1 GLN        -0.3973
     89 NE2       -14.5370   -0.4590    7.4820 N.am      1 GLN        -0.3009
     90 N         -16.7060   -6.1240   10.1550 N.am      1 HIS        -0.2625
     91 CA        -16.6080   -7.5270    9.7720 C.3       1 HIS         0.1369
     92 C         -17.4230   -8.5690   10.5100 C.2       1 HIS         0.2054
     93 O         -17.4910   -9.7080   10.0610 O.2       1 HIS        -0.3942
     94 CB        -15.1430   -7.9580    9.8230 C.3       1 HIS         0.0145
     95 CG        -14.2200   -7.0660    9.0540 C.2       1 HIS        -0.0027
     96 ND1       -14.2340   -6.9850    7.6800 N.2       1 HIS        -0.3252
     97 CD2       -13.2280   -6.2410    9.4670 C.2       1 HIS         0.0291
     98 CE1       -13.2910   -6.1510    7.2770 C.2       1 HIS         0.0907
     99 NE2       -12.6640   -5.6890    8.3430 N.pl3     1 HIS        -0.2752
    100 N         -18.0380   -8.2070   11.6280 N.am      1 MET        -0.2636
    101 CA        -18.7860   -9.1970   12.3910 C.3       1 MET         0.1317
    102 C         -20.2640   -9.2890   12.0890 C.2       1 MET         0.2040
    103 O         -20.9700   -8.2920   12.1020 O.2       1 MET        -0.3944
    104 CB        -18.6090   -8.9470   13.8860 C.3       1 MET        -0.0034
    105 CG        -17.2020   -9.2010   14.3690 C.3       1 MET        -0.0024
    106 SD        -16.6490  -10.8990   14.0020 S.3       1 MET        -0.1639
    107 CE        -18.1490  -11.8750   14.4160 C.3       1 MET        -0.0181
    108 N         -20.7380  -10.4950   11.8180 N.am      1 ASP        -0.2622
    109 CA        -22.1550  -10.6880   11.5770 C.3       1 ASP         0.1423
    110 C         -22.5550  -12.0770   12.0310 C.2       1 ASP         0.2057
    111 O         -22.9850  -12.9060   11.2310 O.2       1 ASP        -0.3943
    112 CB        -22.5140  -10.5010   10.1030 C.3       1 ASP         0.0406
    113 CG        -24.0060  -10.6310    9.8640 C.2       1 ASP         0.0393
    114 OD1       -24.7830  -10.2030   10.7400 O.co2     1 ASP        -0.5688
    115 OD2       -24.4070  -11.1700    8.8090 O.co2     1 ASP        -0.5688
    116 N         -22.4050  -12.3110   13.3320 N.am      1 SER        -0.2615
    117 CA        -22.7380  -13.5920   13.9410 C.3       1 SER         0.1536
    118 C         -24.1670  -14.0080   13.6310 C.2       1 SER         0.2015
    119 O         -24.3900  -14.9850   12.9110 O.2       1 SER        -0.3947
    120 CB        -22.5490  -13.5120   15.4550 C.3       1 SER         0.0843
    121 OG        -22.0270  -12.2520   15.8380 O.3       1 SER        -0.3903
    122 N         -25.1260  -13.2630   14.1800 N.am      1 NH2        -0.2989
    123 H1        -13.6211    9.2391   19.9893 H         1 LYS         0.2015
    124 H2        -13.1473    8.2404   18.7697 H         1 LYS         0.2015
    125 H3        -12.7353    7.8930   20.3250 H         1 LYS         0.2015
    126 H4        -15.0176    7.5371   20.9416 H         1 LYS         0.1098
    127 H5        -16.7591    7.5499   19.2410 H         1 LYS         0.0346
    128 H6        -15.5585    7.9325   17.9608 H         1 LYS         0.0346
    129 H7        -15.1158   10.1082   19.2111 H         1 LYS         0.0270
    130 H8        -16.5649    9.7240   20.2007 H         1 LYS         0.0270
    131 H9        -17.6899   10.8718   18.5921 H         1 LYS         0.0317
    132 H10       -17.5411    9.3491   17.6508 H         1 LYS         0.0317
    133 H11       -15.5460   10.1712   16.5402 H         1 LYS         0.0813
    134 H12       -15.5362   11.6445   17.5678 H         1 LYS         0.0813
    135 H13       -16.4265   12.0760   15.3875 H         1 LYS         0.1994
    136 H14       -17.5984   12.2958   16.5223 H         1 LYS         0.1994
    137 H15       -17.6073   10.9456   15.5807 H         1 LYS         0.1994
    138 H16       -14.5411    6.4834   17.5329 H         1 GLU         0.1885
    139 H17       -14.8185    3.7274   18.4331 H         1 GLU         0.0801
    140 H18       -14.3898    4.8383   15.6275 H         1 GLU         0.0330
    141 H19       -15.9694    4.4732   16.4010 H         1 GLU         0.0330
    142 H20       -15.1738    2.0848   16.6551 H         1 GLU         0.0433
    143 H21       -13.7637    2.5240   15.6327 H         1 GLU         0.0433
    144 H22       -13.3323    2.4006   18.9663 H         1 THR         0.1884
    145 H23       -10.5038    2.9313   18.4238 H         1 THR         0.0826
    146 H24       -10.0695    1.1174   19.9350 H         1 THR         0.0639
    147 H25       -11.8294   -0.2754   20.5607 H         1 THR         0.2101
    148 H26       -11.4764    1.6819   21.8934 H         1 THR         0.0257
    149 H27       -12.6503    2.5090   20.8143 H         1 THR         0.0257
    150 H28       -10.9871    3.1616   21.0004 H         1 THR         0.0257
    151 H29        -9.1493    0.9398   17.7424 H         1 ALA         0.1883
    152 H30        -9.9350    0.2243   15.0934 H         1 ALA         0.0797
    153 H31        -7.9023   -1.1919   15.1058 H         1 ALA         0.0277
    154 H32        -7.7440   -0.9261   16.8752 H         1 ALA         0.0277
    155 H33        -7.5913    0.4590   15.7416 H         1 ALA         0.0277
    156 H34       -10.0204   -1.6072   18.1549 H         1 ALA         0.1883
    157 H35       -10.7559   -4.0885   16.8706 H         1 ALA         0.0797
    158 H36       -11.3500   -4.8238   19.1571 H         1 ALA         0.0277
    159 H37       -11.1655   -3.1364   19.7447 H         1 ALA         0.0277
    160 H38        -9.7401   -4.0284   19.1128 H         1 ALA         0.0277
    161 H39       -12.5412   -1.3454   18.2771 H         1 ALA         0.1883
    162 H40       -15.1635   -2.5082   18.1227 H         1 ALA         0.0797
    163 H41       -15.9663   -0.1536   18.2665 H         1 ALA         0.0277
    164 H42       -14.2999    0.4377   17.9504 H         1 ALA         0.0277
    165 H43       -14.6618   -0.4624   19.4622 H         1 ALA         0.0277
    166 H44       -13.1855   -0.5205   15.9109 H         1 LYS         0.1883
    167 H45       -15.0926   -0.2314   13.8262 H         1 LYS         0.0800
    168 H46       -12.2416   -0.5190   13.0381 H         1 LYS         0.0312
    169 H47       -12.5579    0.6757   14.3416 H         1 LYS         0.0312
    170 H48       -12.9665    2.1091   12.6754 H         1 LYS         0.0269
    171 H49       -14.5355    1.2506   12.5085 H         1 LYS         0.0269
    172 H50       -13.8673    0.8855   10.3881 H         1 LYS         0.0317
    173 H51       -12.8461   -0.4017   11.1138 H         1 LYS         0.0317
    174 H52       -12.0567    2.4432   10.3714 H         1 LYS         0.0813
    175 H53       -11.4191    0.9010    9.7067 H         1 LYS         0.0813
    176 H54        -9.9067    1.8893   11.2918 H         1 LYS         0.1994
    177 H55       -10.4617    0.4518   11.8704 H         1 LYS         0.1994
    178 H56       -11.0460    1.8650   12.4795 H         1 LYS         0.1994
    179 H57       -12.6799   -2.7915   14.4769 H         1 PHE         0.1885
    180 H58       -13.0278   -4.2178   12.0149 H         1 PHE         0.0823
    181 H59       -12.2067   -5.1121   14.8213 H         1 PHE         0.0474
    182 H60       -11.1320   -4.7119   13.4388 H         1 PHE         0.0474
    183 H61       -10.6493   -6.3392   11.7440 H         1 PHE         0.0557
    184 H62       -13.5247   -7.2261   14.7879 H         1 PHE         0.0557
    185 H63       -10.6199   -8.7269   11.0759 H         1 PHE         0.0599
    186 H64       -13.5028   -9.6144   14.1196 H         1 PHE         0.0599
    187 H65       -12.0486  -10.3683   12.2589 H         1 PHE         0.0559
    188 H66       -14.6062   -4.4317   15.2326 H         1 GLU         0.1883
    189 H67       -16.2748   -6.6389   14.6533 H         1 GLU         0.0801
    190 H68       -17.8031   -5.4852   16.4433 H         1 GLU         0.0330
    191 H69       -16.4375   -4.3284   16.5963 H         1 GLU         0.0330
    192 H70       -14.9522   -6.4442   16.8922 H         1 GLU         0.0433
    193 H71       -16.4975   -7.3116   17.1858 H         1 GLU         0.0433
    194 H72       -16.9901   -3.1481   14.3363 H         1 ARG         0.1883
    195 H73       -19.6612   -3.4805   13.4200 H         1 ARG         0.0800
    196 H74       -17.6337   -1.2354   12.9676 H         1 ARG         0.0313
    197 H75       -18.8681   -1.3370   14.2686 H         1 ARG         0.0313
    198 H76       -20.6480   -1.2600   12.5226 H         1 ARG         0.0301
    199 H77       -19.3719   -1.0307   11.2793 H         1 ARG         0.0301
    200 H78       -19.9587    0.8228   13.6318 H         1 ARG         0.0689
    201 H79       -20.3930    1.1120   11.9130 H         1 ARG         0.0689
    202 H80       -17.7045    1.2918   13.1567 H         1 ARG         0.2642
    203 H81       -16.3880    2.6286   10.1977 H         1 ARG         0.2615
    204 H82       -16.1034    2.2756   11.9232 H         1 ARG         0.2615
    205 H83       -19.6682    1.3069   10.1780 H         1 ARG         0.2615
    206 H84       -18.3848    2.0949    9.2215 H         1 ARG         0.2615
    207 H85       -16.5594   -3.3277   11.7059 H         1 GLN         0.1883
    208 H86       -17.8710   -3.2382    9.1173 H         1 GLN         0.0801
    209 H87       -15.5029   -3.5571    8.2698 H         1 GLN         0.0337
    210 H88       -14.9809   -3.5720    9.9886 H         1 GLN         0.0337
    211 H89       -15.5870   -1.3184   10.2945 H         1 GLN         0.0504
    212 H90       -16.4968   -1.2721    8.7463 H         1 GLN         0.0504
    213 H91       -13.7465   -0.1342    6.9628 H         1 GLN         0.1814
    214 H92       -15.4602   -0.1891    7.2083 H         1 GLN         0.1814
    215 H93       -16.4821   -5.8447   11.0887 H         1 HIS         0.1885
    216 H94       -16.9401   -7.5720    8.7243 H         1 HIS         0.0817
    217 H95       -15.0666   -8.9743    9.4091 H         1 HIS         0.0420
    218 H96       -14.8208   -7.9652   10.8747 H         1 HIS         0.0420
    219 H97       -12.9329   -6.0510   10.4979 H         1 HIS         0.0729
    220 H98       -13.0694   -5.8899    6.2433 H         1 HIS         0.1199
    221 H99       -11.8788   -5.0224    8.3333 H         1 HIS         0.2361
    222 H100      -17.9885   -7.2599   11.9453 H         1 MET         0.1883
    223 H101      -18.3478  -10.1773   12.1526 H         1 MET         0.0800
    224 H102      -19.2923   -9.6117   14.4349 H         1 MET         0.0320
    225 H103      -18.8676   -7.8991   14.0982 H         1 MET         0.0320
    226 H104      -17.1663   -9.0435   15.4571 H         1 MET         0.0378
    227 H105      -16.5230   -8.4916   13.8733 H         1 MET         0.0378
    228 H106      -17.9527  -12.9425   14.2373 H         1 MET         0.0340
    229 H107      -18.9869  -11.5455   13.7840 H         1 MET         0.0340
    230 H108      -18.4057  -11.7216   15.4746 H         1 MET         0.0340
    231 H109      -20.1158  -11.2769   11.7793 H         1 ASP         0.1884
    232 H110      -22.7132   -9.9459   12.1666 H         1 ASP         0.0819
    233 H111      -21.9908  -11.2654    9.5097 H         1 ASP         0.0478
    234 H112      -22.1881   -9.5008    9.7816 H         1 ASP         0.0478
    235 H113      -22.0501  -11.5796   13.9143 H         1 SER         0.1884
    236 H114      -22.0570  -14.3558   13.5376 H         1 SER         0.0823
    237 H115      -21.8515  -14.3012   15.7722 H         1 SER         0.0606
    238 H116      -23.5213  -13.6625   15.9469 H         1 SER         0.0606
    239 H117      -21.9193  -12.2286   16.7816 H         1 SER         0.2097
    240 H118      -26.0872  -13.4841   14.0149 H         1 NH2         0.1815
    241 H119      -24.8844  -12.4829   14.7571 H         1 NH2         0.1815
@<TRIPOS>BOND
     1    1    2 1  
     2    2    3 1  
     3    2    5 1  
     4    3    4 2  
     5    3   10 am 
     6    5    6 1  
     7    6    7 1  
     8    7    8 1  
     9    8    9 1  
    10   10   11 1  
    11   11   12 1  
    12   11   14 1  
    13   12   13 2  
    14   12   19 am 
    15   14   15 1  
    16   15   16 1  
    17   16   17 ar 
    18   16   18 ar 
    19   19   20 1  
    20   20   21 1  
    21   20   23 1  
    22   21   22 2  
    23   21   26 am 
    24   23   24 1  
    25   23   25 1  
    26   26   27 1  
    27   27   28 1  
    28   27   30 1  
    29   28   29 2  
    30   28   31 am 
    31   31   32 1  
    32   32   33 1  
    33   32   35 1  
    34   33   34 2  
    35   33   36 am 
    36   36   37 1  
    37   37   38 1  
    38   37   40 1  
    39   38   39 2  
    40   38   41 am 
    41   41   42 1  
    42   42   43 1  
    43   42   45 1  
    44   43   44 2  
    45   43   50 am 
    46   45   46 1  
    47   46   47 1  
    48   47   48 1  
    49   48   49 1  
    50   50   51 1  
    51   51   52 1  
    52   51   54 1  
    53   52   53 2  
    54   52   61 am 
    55   54   55 1  
    56   55   56 ar 
    57   55   57 ar 
    58   56   58 ar 
    59   57   59 ar 
    60   58   60 ar 
    61   59   60 ar 
    62   61   62 1  
    63   62   63 1  
    64   62   65 1  
    65   63   64 2  
    66   63   70 am 
    67   65   66 1  
    68   66   67 1  
    69   67   68 ar 
    70   67   69 ar 
    71   70   71 1  
    72   71   72 1  
    73   71   74 1  
    74   72   73 2  
    75   72   81 am 
    76   74   75 1  
    77   75   76 1  
    78   76   77 1  
    79   77   78 ar 
    80   78   79 ar 
    81   78   80 ar 
    82   81   82 1  
    83   82   83 1  
    84   82   85 1  
    85   83   84 2  
    86   83   90 am 
    87   85   86 1  
    88   86   87 1  
    89   87   88 2  
    90   87   89 am 
    91   90   91 1  
    92   91   92 1  
    93   91   94 1  
    94   92   93 2  
    95   92  100 am 
    96   94   95 1  
    97   95   96 1  
    98   95   97 2  
    99   96   98 2  
   100   97   99 1  
   101   98   99 1  
   102  100  101 1  
   103  101  102 1  
   104  101  104 1  
   105  102  103 2  
   106  102  108 am 
   107  104  105 1  
   108  105  106 1  
   109  106  107 1  
   110  108  109 1  
   111  109  110 1  
   112  109  112 1  
   113  110  111 2  
   114  110  116 am 
   115  112  113 1  
   116  113  114 ar 
   117  113  115 ar 
   118  116  117 1  
   119  117  118 1  
   120  117  120 1  
   121  118  119 2  
   122  118  122 am 
   123  120  121 1  
   124    1  123 1  
   125    1  124 1  
   126    1  125 1  
   127    2  126 1  
   128    5  127 1  
   129    5  128 1  
   130    6  129 1  
   131    6  130 1  
   132    7  131 1  
   133    7  132 1  
   134    8  133 1  
   135    8  134 1  
   136    9  135 1  
   137    9  136 1  
   138    9  137 1  
   139   10  138 1  
   140   11  139 1  
   141   14  140 1  
   142   14  141 1  
   143   15  142 1  
   144   15  143 1  
   145   19  144 1  
   146   20  145 1  
   147   23  146 1  
   148   24  147 1  
   149   25  148 1  
   150   25  149 1  
   151   25  150 1  
   152   26  151 1  
   153   27  152 1  
   154   30  153 1  
   155   30  154 1  
   156   30  155 1  
   157   31  156 1  
   158   32  157 1  
   159   35  158 1  
   160   35  159 1  
   161   35  160 1  
   162   36  161 1  
   163   37  162 1  
   164   40  163 1  
   165   40  164 1  
   166   40  165 1  
   167   41  166 1  
   168   42  167 1  
   169   45  168 1  
   170   45  169 1  
   171   46  170 1  
   172   46  171 1  
   173   47  172 1  
   174   47  173 1  
   175   48  174 1  
   176   48  175 1  
   177   49  176 1  
   178   49  177 1  
   179   49  178 1  
   180   50  179 1  
   181   51  180 1  
   182   54  181 1  
   183   54  182 1  
   184   56  183 1  
   185   57  184 1  
   186   58  185 1  
   187   59  186 1  
   188   60  187 1  
   189   61  188 1  
   190   62  189 1  
   191   65  190 1  
   192   65  191 1  
   193   66  192 1  
   194   66  193 1  
   195   70  194 1  
   196   71  195 1  
   197   74  196 1  
   198   74  197 1  
   199   75  198 1  
   200   75  199 1  
   201   76  200 1  
   202   76  201 1  
   203   77  202 1  
   204   79  203 1  
   205   79  204 1  
   206   80  205 1  
   207   80  206 1  
   208   81  207 1  
   209   82  208 1  
   210   85  209 1  
   211   85  210 1  
   212   86  211 1  
   213   86  212 1  
   214   89  213 1  
   215   89  214 1  
   216   90  215 1  
   217   91  216 1  
   218   94  217 1  
   219   94  218 1  
   220   97  219 1  
   221   98  220 1  
   222   99  221 1  
   223  100  222 1  
   224  101  223 1  
   225  104  224 1  
   226  104  225 1  
   227  105  226 1  
   228  105  227 1  
   229  107  228 1  
   230  107  229 1  
   231  107  230 1  
   232  108  231 1  
   233  109  232 1  
   234  112  233 1  
   235  112  234 1  
   236  116  235 1  
   237  117  236 1  
   238  120  237 1  
   239  120  238 1  
   240  121  239 1  
   241  122  240 1  
   242  122  241 1  
@<TRIPOS>SUBSTRUCTURE
     1 LYS         1

