1j80_ligand
  -I-interpret- 

242243  0  0  0  0  0  0  0  0999 V2000
  -13.4510    8.2800   19.7300 N   0  3  0  0  0
  -14.7080    7.4920   19.8870 C   0  0  0  0  0
  -14.4930    6.0280   19.5030 C   0  0  0  0  0
  -14.3510    5.1710   20.3790 O   0  0  0  0  0
  -15.8270    8.0890   19.0160 C   0  0  0  0  0
  -16.0800    9.5790   19.2240 C   0  0  0  0  0
  -16.9830   10.1670   18.1300 C   0  0  0  0  0
  -16.1760   10.9030   17.0670 C   0  0  0  0  0
  -17.0210   11.6130   16.0570 N   0  3  0  0  0
  -14.4510    5.7430   18.1990 N   0  0  0  0  0
  -14.2760    4.3710   17.7250 C   0  0  0  0  0
  -12.8420    3.8580   17.6740 C   0  0  0  0  0
  -11.9960    4.4010   16.9640 O   0  0  0  0  0
  -14.9090    4.1860   16.3450 C   0  0  0  0  0
  -14.8170    2.7500   15.8550 C   0  0  0  0  0
  -15.6370    2.4870   14.6110 C   0  0  0  0  0
  -15.2720    3.0120   13.5370 O   0  0  0  0  0
  -16.6460    1.7520   14.7100 O   0  0  0  0  0
  -12.5890    2.7880   18.4210 N   0  0  0  0  0
  -11.2800    2.1540   18.4820 C   0  0  0  0  0
  -11.1050    1.1770   17.3100 C   0  0  0  0  0
  -12.0620    0.8810   16.5920 O   0  0  0  0  0
  -11.1260    1.3880   19.7920 C   0  0  0  0  0
  -11.9250    0.2020   19.7450 O   0  0  0  0  0
  -11.5920    2.2440   20.9550 C   0  0  0  0  0
   -9.8870    0.6760   17.1210 N   0  0  0  0  0
   -9.6010   -0.2500   16.0280 C   0  0  0  0  0
  -10.3340   -1.5790   16.1600 C   0  0  0  0  0
  -10.7980   -2.1380   15.1690 O   0  0  0  0  0
   -8.1070   -0.4940   15.9310 C   0  0  0  0  0
  -10.4280   -2.0920   17.3810 N   0  0  0  0  0
  -11.1180   -3.3520   17.6030 C   0  0  0  0  0
  -12.6250   -3.1620   17.4050 C   0  0  0  0  0
  -13.3020   -4.0360   16.8680 O   0  0  0  0  0
  -10.8230   -3.8710   19.0010 C   0  0  0  0  0
  -13.1410   -2.0130   17.8360 N   0  0  0  0  0
  -14.5600   -1.7010   17.6820 C   0  0  0  0  0
  -14.8660   -1.5910   16.1870 C   0  0  0  0  0
  -15.8760   -2.1020   15.7070 O   0  0  0  0  0
  -14.8960   -0.3750   18.3910 C   0  0  0  0  0
  -13.9830   -0.9180   15.4570 N   0  0  0  0  0
  -14.1350   -0.7380   14.0170 C   0  0  0  0  0
  -14.1390   -2.0780   13.2800 C   0  0  0  0  0
  -14.8930   -2.2690   12.3260 O   0  0  0  0  0
  -13.0010    0.1340   13.4930 C   0  0  0  0  0
  -13.4420    1.1400   12.4640 C   0  0  0  0  0
  -13.0440    0.6800   11.0880 C   0  0  0  0  0
  -11.7950    1.4020   10.6110 C   0  0  0  0  0
  -10.7140    1.4020   11.6480 N   0  3  0  0  0
  -13.2880   -3.0040   13.7120 N   0  0  0  0  0
  -13.2230   -4.3260   13.0920 C   0  0  0  0  0
  -14.5720   -5.0190   13.3010 C   0  0  0  0  0
  -15.1320   -5.6160   12.3800 O   0  0  0  0  0
  -12.0950   -5.1580   13.7280 C   0  0  0  0  0
  -12.0880   -6.6140   13.3120 C   0  0  0  0  0
  -11.2760   -7.0510   12.2690 C   0  0  0  0  0
  -12.8870   -7.5490   13.9730 C   0  0  0  0  0
  -11.2590   -8.4020   11.8890 C   0  0  0  0  0
  -12.8760   -8.9010   13.5970 C   0  0  0  0  0
  -12.0600   -9.3250   12.5530 C   0  0  0  0  0
  -15.0970   -4.9330   14.5200 N   0  0  0  0  0
  -16.3790   -5.5590   14.8350 C   0  0  0  0  0
  -17.5250   -5.0520   13.9640 C   0  0  0  0  0
  -18.2870   -5.8470   13.4120 O   0  0  0  0  0
  -16.7190   -5.3530   16.3120 C   0  0  0  0  0
  -15.9890   -6.3380   17.2440 C   0  0  0  0  0
  -15.9580   -5.8980   18.7070 C   0  0  0  0  0
  -15.4410   -6.6690   19.5430 O   0  0  0  0  0
  -16.4420   -4.7950   19.0280 O   0  0  0  0  0
  -17.6430   -3.7330   13.8550 N   0  0  0  0  0
  -18.6900   -3.1110   13.0590 C   0  0  0  0  0
  -18.5650   -3.4440   11.5760 C   0  0  0  0  0
  -19.5590   -3.6570   10.8860 O   0  0  0  0  0
  -18.6460   -1.5840   13.2200 C   0  0  0  0  0
  -19.6430   -0.8560   12.3310 C   0  0  0  0  0
  -19.6620    0.6430   12.5880 C   0  0  0  0  0
  -18.3530    1.2420   12.3580 N   0  0  0  0  0
  -17.9330    1.7300   11.1910 C   0  0  0  0  0
  -16.7180    2.2500   11.0970 N   0  0  0  0  0
  -18.7220    1.7090   10.1150 N   0  0  0  0  0
  -17.3330   -3.4850   11.0920 N   0  0  0  0  0
  -17.0840   -3.7540    9.6870 C   0  0  0  0  0
  -17.0930   -5.2140    9.2640 C   0  0  0  0  0
  -17.4500   -5.5150    8.1270 O   0  0  0  0  0
  -15.7310   -3.1890    9.2810 C   0  0  0  0  0
  -15.6190   -1.6910    9.2600 C   0  0  0  0  0
  -14.3610   -1.2480    8.5340 C   0  0  0  0  0
  -13.2450   -1.6200    8.9100 O   0  0  0  0  0
  -14.5370   -0.4590    7.4820 N   0  0  0  0  0
  -16.7060   -6.1240   10.1550 N   0  0  0  0  0
  -16.6080   -7.5270    9.7720 C   0  0  0  0  0
  -17.4230   -8.5690   10.5100 C   0  0  0  0  0
  -17.4910   -9.7080   10.0610 O   0  0  0  0  0
  -15.1430   -7.9580    9.8230 C   0  0  0  0  0
  -14.2200   -7.0660    9.0540 C   0  0  0  0  0
  -14.2340   -6.9850    7.6800 N   0  0  0  0  0
  -13.2280   -6.2410    9.4670 C   0  0  0  0  0
  -13.2910   -6.1510    7.2770 C   0  0  0  0  0
  -12.6640   -5.6890    8.3430 N   0  0  0  0  0
  -18.0380   -8.2070   11.6280 N   0  0  0  0  0
  -18.7860   -9.1970   12.3910 C   0  0  0  0  0
  -20.2640   -9.2890   12.0890 C   0  0  0  0  0
  -20.9700   -8.2920   12.1020 O   0  0  0  0  0
  -18.6090   -8.9470   13.8860 C   0  0  0  0  0
  -17.2020   -9.2010   14.3690 C   0  0  0  0  0
  -16.6490  -10.8990   14.0020 S   0  0  0  0  0
  -18.1490  -11.8750   14.4160 C   0  0  0  0  0
  -20.7380  -10.4950   11.8180 N   0  0  0  0  0
  -22.1550  -10.6880   11.5770 C   0  0  0  0  0
  -22.5550  -12.0770   12.0310 C   0  0  0  0  0
  -22.9850  -12.9060   11.2310 O   0  0  0  0  0
  -22.5140  -10.5010   10.1030 C   0  0  0  0  0
  -24.0060  -10.6310    9.8640 C   0  0  0  0  0
  -24.7830  -10.2030   10.7400 O   0  0  0  0  0
  -24.4070  -11.1700    8.8090 O   0  0  0  0  0
  -22.4050  -12.3110   13.3320 N   0  0  0  0  0
  -22.7380  -13.5920   13.9410 C   0  0  0  0  0
  -24.1670  -14.0080   13.6310 C   0  0  0  0  0
  -24.3900  -14.9850   12.9110 O   0  0  0  0  0
  -22.5490  -13.5120   15.4550 C   0  0  0  0  0
  -22.0270  -12.2520   15.8380 O   0  0  0  0  0
  -25.1260  -13.2630   14.1800 N   0  0  0  0  0
  -12.7203    7.8719   20.3130 H   0  0  0  0  0
  -13.1587    8.2605   18.7530 H   0  0  0  0  0
  -13.6177    9.2445   20.0171 H   0  0  0  0  0
  -14.9991    7.5391   20.9364 H   0  0  0  0  0
  -16.7474    7.5724   19.2883 H   0  0  0  0  0
  -15.5186    7.9640   17.9780 H   0  0  0  0  0
  -15.1210   10.0959   19.1888 H   0  0  0  0  0
  -16.5788    9.7093   20.1844 H   0  0  0  0  0
  -17.6668   10.8773   18.5946 H   0  0  0  0  0
  -17.5173    9.3477   17.6490 H   0  0  0  0  0
  -15.5846   10.1593   16.5330 H   0  0  0  0  0
  -15.5746   11.6558   17.5767 H   0  0  0  0  0
  -16.4184   12.0811   15.3801 H   0  0  0  0  0
  -17.6139   10.9367   15.5758 H   0  0  0  0  0
  -17.6048   12.3035   16.5290 H   0  0  0  0  0
  -14.5429    6.4982   17.5196 H   0  0  0  0  0
  -14.7818    3.7742   18.4841 H   0  0  0  0  0
  -14.3713    4.8190   15.6391 H   0  0  0  0  0
  -15.9637    4.4509   16.4188 H   0  0  0  0  0
  -15.2036    2.1072   16.6458 H   0  0  0  0  0
  -13.7736    2.5526   15.6090 H   0  0  0  0  0
  -16.7393    1.4593   15.6195 H   0  0  0  0  0
  -13.3472    2.3929   18.9772 H   0  0  0  0  0
  -10.5208    2.9338   18.4223 H   0  0  0  0  0
  -10.0758    1.1300   19.9281 H   0  0  0  0  0
  -11.8284   -0.2805   20.5693 H   0  0  0  0  0
  -10.9919    3.1529   20.9989 H   0  0  0  0  0
  -12.6407    2.5059   20.8144 H   0  0  0  0  0
  -11.4770    1.6859   21.8842 H   0  0  0  0  0
   -9.1345    0.9451   17.7548 H   0  0  0  0  0
   -9.9654    0.2225   15.1158 H   0  0  0  0  0
   -7.5972    0.4510   15.7434 H   0  0  0  0  0
   -7.7485   -0.9221   16.8671 H   0  0  0  0  0
   -7.9055   -1.1856   15.1130 H   0  0  0  0  0
  -10.0123   -1.5975   18.1703 H   0  0  0  0  0
  -10.7614   -4.0870   16.8813 H   0  0  0  0  0
   -9.7497   -4.0265   19.1105 H   0  0  0  0  0
  -11.1628   -3.1423   19.7369 H   0  0  0  0  0
  -11.3457   -4.8151   19.1545 H   0  0  0  0  0
  -12.5292   -1.3321   18.2859 H   0  0  0  0  0
  -15.1653   -2.4877   18.1324 H   0  0  0  0  0
  -14.6635   -0.4629   19.4523 H   0  0  0  0  0
  -14.3047    0.4294   17.9536 H   0  0  0  0  0
  -15.9567   -0.1568   18.2670 H   0  0  0  0  0
  -13.1695   -0.5126   15.9199 H   0  0  0  0  0
  -15.0942   -0.2536   13.8344 H   0  0  0  0  0
  -12.2751   -0.5248   13.0164 H   0  0  0  0  0
  -12.5962    0.6881   14.3399 H   0  0  0  0  0
  -12.9655    2.0979   12.6728 H   0  0  0  0  0
  -14.5262    1.2440   12.5069 H   0  0  0  0  0
  -13.8587    0.8983   10.3976 H   0  0  0  0  0
  -12.8369   -0.3896   11.1237 H   0  0  0  0  0
  -12.0612    2.4371   10.3972 H   0  0  0  0  0
  -11.4194    0.8848    9.7281 H   0  0  0  0  0
   -9.8977    1.8953   11.2865 H   0  0  0  0  0
  -11.0512    1.8707   12.4889 H   0  0  0  0  0
  -10.4596    0.4400   11.8723 H   0  0  0  0  0
  -12.6678   -2.7872   14.4922 H   0  0  0  0  0
  -13.0122   -4.2290   12.0270 H   0  0  0  0  0
  -12.2456   -5.1324   14.8072 H   0  0  0  0  0
  -11.1506   -4.7247   13.3986 H   0  0  0  0  0
  -10.6458   -6.3353   11.7411 H   0  0  0  0  0
  -13.5282   -7.2243   14.7925 H   0  0  0  0  0
  -10.6164   -8.7287   11.0714 H   0  0  0  0  0
  -13.5063   -9.6184   14.1225 H   0  0  0  0  0
  -12.0485  -10.3741   12.2573 H   0  0  0  0  0
  -14.5964   -4.4216   15.2469 H   0  0  0  0  0
  -16.2653   -6.6220   14.6221 H   0  0  0  0  0
  -17.7900   -5.5169   16.4310 H   0  0  0  0  0
  -16.4069   -4.3452   16.5859 H   0  0  0  0  0
  -14.9558   -6.4024   16.9027 H   0  0  0  0  0
  -16.5276   -7.2847   17.2014 H   0  0  0  0  0
  -15.1300   -7.4604   19.0973 H   0  0  0  0  0
  -16.9771   -3.1364   14.3460 H   0  0  0  0  0
  -19.6370   -3.5082   13.4245 H   0  0  0  0  0
  -17.6475   -1.2515   12.9361 H   0  0  0  0  0
  -18.8989   -1.3545   14.2551 H   0  0  0  0  0
  -20.6368   -1.2480   12.5473 H   0  0  0  0  0
  -19.3499   -1.0167   11.2935 H   0  0  0  0  0
  -19.9403    0.8111   13.6284 H   0  0  0  0  0
  -20.3761    1.1013   11.9038 H   0  0  0  0  0
  -17.7108    1.2913   13.1489 H   0  0  0  0  0
  -16.1094    2.2754   11.9152 H   0  0  0  0  0
  -18.3881    2.0911    9.2302 H   0  0  0  0  0
  -19.6590    1.3108   10.1773 H   0  0  0  0  0
  -16.5439   -3.3246   11.7181 H   0  0  0  0  0
  -17.9265   -3.2761    9.1870 H   0  0  0  0  0
  -15.5557   -3.5223    8.2581 H   0  0  0  0  0
  -15.0182   -3.5377   10.0282 H   0  0  0  0  0
  -15.5747   -1.3297   10.2874 H   0  0  0  0  0
  -16.4850   -1.2834    8.7385 H   0  0  0  0  0
  -13.7312   -0.1345    6.9474 H   0  0  0  0  0
  -15.4781   -0.1769    7.2079 H   0  0  0  0  0
  -16.4776   -5.8391   11.1074 H   0  0  0  0  0
  -17.0564   -7.5176    8.7785 H   0  0  0  0  0
  -15.0817   -8.9501    9.3756 H   0  0  0  0  0
  -14.8315   -7.9232   10.8670 H   0  0  0  0  0
  -12.9326   -6.0508   10.4988 H   0  0  0  0  0
  -13.0692   -5.8896    6.2423 H   0  0  0  0  0
  -17.9875   -7.2410   11.9516 H   0  0  0  0  0
  -18.3612  -10.1511   12.0789 H   0  0  0  0  0
  -19.2691   -9.6336   14.4160 H   0  0  0  0  0
  -18.8387   -7.8984   14.0749 H   0  0  0  0  0
  -17.1829   -9.0628   15.4500 H   0  0  0  0  0
  -16.5355   -8.5075   13.8562 H   0  0  0  0  0
  -18.4023  -11.7221   15.4651 H   0  0  0  0  0
  -18.9784  -11.5475   13.7892 H   0  0  0  0  0
  -17.9533  -12.9325   14.2385 H   0  0  0  0  0
  -20.1034  -11.2925   11.7785 H   0  0  0  0  0
  -22.7000   -9.9342   12.1451 H   0  0  0  0  0
  -22.0067  -11.2746    9.5267 H   0  0  0  0  0
  -22.2050   -9.5006    9.8000 H   0  0  0  0  0
  -23.6517  -11.4261    8.2747 H   0  0  0  0  0
  -22.0430  -11.5650   13.9259 H   0  0  0  0  0
  -22.0681  -14.3420   13.5204 H   0  0  0  0  0
  -21.8468  -14.2878   15.7603 H   0  0  0  0  0
  -23.5180  -13.6486   15.9351 H   0  0  0  0  0
  -21.9182  -12.2284   16.7915 H   0  0  0  0  0
  -26.1064  -13.4896   14.0130 H   0  0  0  0  0
  -24.8796  -12.4662   14.7672 H   0  0  0  0  0
  1  2  1  0  0  0
  2  3  1  0  0  0
  2  5  1  0  0  0
  3  4  2  0  0  0
  3 10  1  0  0  0
  5  6  1  0  0  0
  6  7  1  0  0  0
  7  8  1  0  0  0
  8  9  1  0  0  0
 10 11  1  0  0  0
 11 12  1  0  0  0
 11 14  1  0  0  0
 12 13  2  0  0  0
 12 19  1  0  0  0
 14 15  1  0  0  0
 15 16  1  0  0  0
 16 17  2  0  0  0
 16 18  1  0  0  0
 19 20  1  0  0  0
 20 21  1  0  0  0
 20 23  1  0  0  0
 21 22  2  0  0  0
 21 26  1  0  0  0
 23 24  1  0  0  0
 23 25  1  0  0  0
 26 27  1  0  0  0
 27 28  1  0  0  0
 27 30  1  0  0  0
 28 29  2  0  0  0
 28 31  1  0  0  0
 31 32  1  0  0  0
 32 33  1  0  0  0
 32 35  1  0  0  0
 33 34  2  0  0  0
 33 36  1  0  0  0
 36 37  1  0  0  0
 37 38  1  0  0  0
 37 40  1  0  0  0
 38 39  2  0  0  0
 38 41  1  0  0  0
 41 42  1  0  0  0
 42 43  1  0  0  0
 42 45  1  0  0  0
 43 44  2  0  0  0
 43 50  1  0  0  0
 45 46  1  0  0  0
 46 47  1  0  0  0
 47 48  1  0  0  0
 48 49  1  0  0  0
 50 51  1  0  0  0
 51 52  1  0  0  0
 51 54  1  0  0  0
 52 53  2  0  0  0
 52 61  1  0  0  0
 54 55  1  0  0  0
 55 56  4  0  0  0
 55 57  4  0  0  0
 56 58  4  0  0  0
 57 59  4  0  0  0
 58 60  4  0  0  0
 59 60  4  0  0  0
 61 62  1  0  0  0
 62 63  1  0  0  0
 62 65  1  0  0  0
 63 64  2  0  0  0
 63 70  1  0  0  0
 65 66  1  0  0  0
 66 67  1  0  0  0
 67 68  1  0  0  0
 67 69  2  0  0  0
 70 71  1  0  0  0
 71 72  1  0  0  0
 71 74  1  0  0  0
 72 73  2  0  0  0
 72 81  1  0  0  0
 74 75  1  0  0  0
 75 76  1  0  0  0
 76 77  1  0  0  0
 77 78  1  0  0  0
 78 79  2  0  0  0
 78 80  1  0  0  0
 81 82  1  0  0  0
 82 83  1  0  0  0
 82 85  1  0  0  0
 83 84  2  0  0  0
 83 90  1  0  0  0
 85 86  1  0  0  0
 86 87  1  0  0  0
 87 88  2  0  0  0
 87 89  1  0  0  0
 90 91  1  0  0  0
 91 92  1  0  0  0
 91 94  1  0  0  0
 92 93  2  0  0  0
 92100  1  0  0  0
 94 95  1  0  0  0
 95 96  4  0  0  0
 95 97  4  0  0  0
 96 98  4  0  0  0
 97 99  4  0  0  0
 98 99  4  0  0  0
100101  1  0  0  0
101102  1  0  0  0
101104  1  0  0  0
102103  2  0  0  0
102108  1  0  0  0
104105  1  0  0  0
105106  1  0  0  0
106107  1  0  0  0
108109  1  0  0  0
109110  1  0  0  0
109112  1  0  0  0
110111  2  0  0  0
110116  1  0  0  0
112113  1  0  0  0
113114  2  0  0  0
113115  1  0  0  0
116117  1  0  0  0
117118  1  0  0  0
117120  1  0  0  0
118119  2  0  0  0
118122  1  0  0  0
120121  1  0  0  0
  1123  1  0  0  0
  1124  1  0  0  0
  1125  1  0  0  0
  2126  1  0  0  0
  5127  1  0  0  0
  5128  1  0  0  0
  6129  1  0  0  0
  6130  1  0  0  0
  7131  1  0  0  0
  7132  1  0  0  0
  8133  1  0  0  0
  8134  1  0  0  0
  9135  1  0  0  0
  9136  1  0  0  0
  9137  1  0  0  0
 10138  1  0  0  0
 11139  1  0  0  0
 14140  1  0  0  0
 14141  1  0  0  0
 15142  1  0  0  0
 15143  1  0  0  0
 18144  1  0  0  0
 19145  1  0  0  0
 20146  1  0  0  0
 23147  1  0  0  0
 24148  1  0  0  0
 25149  1  0  0  0
 25150  1  0  0  0
 25151  1  0  0  0
 26152  1  0  0  0
 27153  1  0  0  0
 30154  1  0  0  0
 30155  1  0  0  0
 30156  1  0  0  0
 31157  1  0  0  0
 32158  1  0  0  0
 35159  1  0  0  0
 35160  1  0  0  0
 35161  1  0  0  0
 36162  1  0  0  0
 37163  1  0  0  0
 40164  1  0  0  0
 40165  1  0  0  0
 40166  1  0  0  0
 41167  1  0  0  0
 42168  1  0  0  0
 45169  1  0  0  0
 45170  1  0  0  0
 46171  1  0  0  0
 46172  1  0  0  0
 47173  1  0  0  0
 47174  1  0  0  0
 48175  1  0  0  0
 48176  1  0  0  0
 49177  1  0  0  0
 49178  1  0  0  0
 49179  1  0  0  0
 50180  1  0  0  0
 51181  1  0  0  0
 54182  1  0  0  0
 54183  1  0  0  0
 56184  1  0  0  0
 57185  1  0  0  0
 58186  1  0  0  0
 59187  1  0  0  0
 60188  1  0  0  0
 61189  1  0  0  0
 62190  1  0  0  0
 65191  1  0  0  0
 65192  1  0  0  0
 66193  1  0  0  0
 66194  1  0  0  0
 68195  1  0  0  0
 70196  1  0  0  0
 71197  1  0  0  0
 74198  1  0  0  0
 74199  1  0  0  0
 75200  1  0  0  0
 75201  1  0  0  0
 76202  1  0  0  0
 76203  1  0  0  0
 77204  1  0  0  0
 79205  1  0  0  0
 80206  1  0  0  0
 80207  1  0  0  0
 81208  1  0  0  0
 82209  1  0  0  0
 85210  1  0  0  0
 85211  1  0  0  0
 86212  1  0  0  0
 86213  1  0  0  0
 89214  1  0  0  0
 89215  1  0  0  0
 90216  1  0  0  0
 91217  1  0  0  0
 94218  1  0  0  0
 94219  1  0  0  0
 97220  1  0  0  0
 98221  1  0  0  0
100222  1  0  0  0
101223  1  0  0  0
104224  1  0  0  0
104225  1  0  0  0
105226  1  0  0  0
105227  1  0  0  0
107228  1  0  0  0
107229  1  0  0  0
107230  1  0  0  0
108231  1  0  0  0
109232  1  0  0  0
112233  1  0  0  0
112234  1  0  0  0
115235  1  0  0  0
116236  1  0  0  0
117237  1  0  0  0
120238  1  0  0  0
120239  1  0  0  0
121240  1  0  0  0
122241  1  0  0  0
122242  1  0  0  0
M  END
$$$$
