6fty_ligand
  -I-interpret- 

 50 54  0  0  0  0  0  0  0  0999 V2000
    9.5800   11.7410    2.4730 C   0  0  0  0  0
    7.5440   10.9620    0.4420 C   0  0  0  0  0
    7.8890   10.0010    1.6380 C   0  0  0  0  0
    6.6650    9.1930    2.0640 C   0  0  0  0  0
    3.0710    9.6260    2.2570 C   0  0  0  0  0
    1.8450    9.0370    2.6350 C   0  0  0  0  0
    1.7200    7.6400    2.6420 C   0  0  0  0  0
    4.1910    8.8530    1.8760 C   0  0  0  0  0
    4.0070    7.4670    1.8340 C   0  0  0  0  0
    2.8170    6.8740    2.2200 C   0  0  0  0  0
    4.1140    5.1780    1.6660 C   0  0  0  0  0
    4.8660    6.2820    1.4930 C   0  0  0  0  0
    4.6170    3.7980    1.4490 C   0  0  0  0  0
    9.0860    9.0880    1.2010 C   0  0  0  0  0
   10.3140    9.9630    0.7990 C   0  0  0  0  0
    9.9380   10.9190   -0.3760 C   0  0  0  0  0
    8.7670   11.8560    0.0600 C   0  0  0  0  0
    8.3510   10.8640    2.8560 C   0  0  0  0  0
   10.7500   10.8140    2.0340 C   0  0  0  0  0
    9.1940   12.6880    1.3050 C   0  0  0  0  0
    5.4300    9.4790    1.5340 N   0  0  0  0  0
    6.8600    8.3120    2.8920 O   0  0  0  0  0
    8.3820   12.7870   -1.0290 N   0  3  0  0  0
    2.9250    5.5320    2.0870 N   0  0  0  0  0
    5.7550    3.5300    0.8050 N   0  0  0  0  0
    3.9890    2.8660    1.9030 O   0  0  0  0  0
    9.8907   12.3378    3.3306 H   0  0  0  0  0
    6.7216   11.6104    0.7444 H   0  0  0  0  0
    7.2740   10.3560   -0.4229 H   0  0  0  0  0
    3.1566   10.7126    2.2591 H   0  0  0  0  0
    1.0003    9.6643    2.9198 H   0  0  0  0  0
    0.7955    7.1624    2.9665 H   0  0  0  0  0
    5.9054    6.3106    1.1661 H   0  0  0  0  0
    8.7813    8.4866    0.3445 H   0  0  0  0  0
    9.3653    8.4434    2.0344 H   0  0  0  0  0
   11.1285    9.3139    0.4776 H   0  0  0  0  0
    9.6255   10.3275   -1.2366 H   0  0  0  0  0
   10.8051   11.5242   -0.6403 H   0  0  0  0  0
    7.5317   11.5169    3.1569 H   0  0  0  0  0
    8.6326   10.1994    3.6728 H   0  0  0  0  0
   11.0114   10.1485    2.8567 H   0  0  0  0  0
   11.6125   11.4240    1.7656 H   0  0  0  0  0
   10.0545   13.3045    1.0451 H   0  0  0  0  0
    8.3614   13.3188    1.6163 H   0  0  0  0  0
    5.3935   10.2116    0.8253 H   0  0  0  0  0
    7.6171   13.3823   -0.7112 H   0  0  0  0  0
    9.1837   13.3659   -1.2791 H   0  0  0  0  0
    8.0814   12.2506   -1.8428 H   0  0  0  0  0
    6.0708    2.5650    0.7076 H   0  0  0  0  0
    6.3088    4.2902    0.4103 H   0  0  0  0  0
 18  1  1  0  0  0
  1 19  1  0  0  0
  1 20  1  0  0  0
  3  2  1  0  0  0
  2 17  1  0  0  0
  4  3  1  0  0  0
  3 14  1  0  0  0
  3 18  1  0  0  0
 21  4  1  0  0  0
  4 22  2  0  0  0
  5  6  4  0  0  0
  8  5  4  0  0  0
  6  7  4  0  0  0
  7 10  4  0  0  0
  8  9  4  0  0  0
  8 21  1  0  0  0
  9 10  4  0  0  0
  9 12  4  0  0  0
 10 24  4  0  0  0
 12 11  4  0  0  0
 11 13  1  0  0  0
 11 24  4  0  0  0
 13 25  1  0  0  0
 13 26  2  0  0  0
 14 15  1  0  0  0
 15 16  1  0  0  0
 15 19  1  0  0  0
 16 17  1  0  0  0
 17 20  1  0  0  0
 17 23  1  0  0  0
  1 27  1  0  0  0
  2 28  1  0  0  0
  2 29  1  0  0  0
  5 30  1  0  0  0
  6 31  1  0  0  0
  7 32  1  0  0  0
 12 33  1  0  0  0
 14 34  1  0  0  0
 14 35  1  0  0  0
 15 36  1  0  0  0
 16 37  1  0  0  0
 16 38  1  0  0  0
 18 39  1  0  0  0
 18 40  1  0  0  0
 19 41  1  0  0  0
 19 42  1  0  0  0
 20 43  1  0  0  0
 20 44  1  0  0  0
 21 45  1  0  0  0
 23 46  1  0  0  0
 23 47  1  0  0  0
 23 48  1  0  0  0
 25 49  1  0  0  0
 25 50  1  0  0  0
M  END
$$$$
