5wh6_ligand
  -I-interpret- 

 42 43  0  0  0  0  0  0  0  0999 V2000
    6.4810   -2.7510   61.4450 C   0  0  0  0  0
    3.6780   -3.8880   58.8290 O   0  0  0  0  0
    4.6520   -3.1050   58.2760 C   0  0  0  0  0
    4.6080   -2.7090   56.9430 C   0  0  0  0  0
    5.6060   -1.9050   56.4140 C   0  0  0  0  0
    6.6660   -1.5140   57.2440 C   0  0  0  0  0
    6.7070   -1.9180   58.5790 C   0  0  0  0  0
    2.5460   -4.3330   58.0870 C   0  0  0  0  0
    2.5690   -6.6570   58.4510 C   0  0  0  0  0
    2.8920   -5.6240   57.3880 C   0  0  0  0  0
    7.1600   -1.5420   53.1960 C   0  0  0  0  0
    8.2220   -0.7820   52.4010 C   0  0  0  0  0
    6.4270   -1.3940   61.5710 F   0  0  0  0  0
    7.7560   -3.1320   61.1460 F   0  0  0  0  0
    5.6190   -3.1830   60.3950 O   0  0  0  0  0
    5.6870   -2.7230   59.0970 C   0  0  0  0  0
    1.5690   -6.0890   59.3000 O   0  0  0  0  0
    1.4420   -4.6940   59.0620 C   0  0  0  0  0
    5.4680   -1.5030   54.9680 C   0  0  0  0  0
    4.5050   -1.8910   54.3190 O   0  0  0  0  0
    6.4850   -0.6590   54.2430 C   0  0  0  0  0
    7.7480   -2.7960   53.8370 C   0  0  0  0  0
    6.1643   -3.2007   62.3861 H   0  0  0  0  0
    3.7824   -3.0334   56.3095 H   0  0  0  0  0
    7.4645   -0.8895   56.8433 H   0  0  0  0  0
    7.5334   -1.6065   59.2179 H   0  0  0  0  0
    2.2502   -3.5516   57.3870 H   0  0  0  0  0
    3.4608   -6.9109   59.0240 H   0  0  0  0  0
    2.2076   -7.5784   57.9944 H   0  0  0  0  0
    3.9264   -5.6656   57.0469 H   0  0  0  0  0
    2.3397   -5.7732   56.4602 H   0  0  0  0  0
    6.3895   -1.8485   52.4885 H   0  0  0  0  0
    7.7567    0.0594   51.8875 H   0  0  0  0  0
    8.9897   -0.4143   53.0818 H   0  0  0  0  0
    8.6741   -1.4512   51.6689 H   0  0  0  0  0
    0.4607   -4.4512   58.6542 H   0  0  0  0  0
    1.5323   -4.1261   59.9880 H   0  0  0  0  0
    6.0000    0.1923   53.7654 H   0  0  0  0  0
    7.2235   -0.2697   54.9438 H   0  0  0  0  0
    8.1379   -3.4517   53.0585 H   0  0  0  0  0
    8.5548   -2.5128   54.5130 H   0  0  0  0  0
    6.9698   -3.3159   54.3957 H   0  0  0  0  0
  1 13  1  0  0  0
  1 14  1  0  0  0
 15  1  1  0  0  0
  3  2  1  0  0  0
  2  8  1  0  0  0
  4  3  4  0  0  0
  3 16  4  0  0  0
  5  4  4  0  0  0
  5  6  4  0  0  0
 19  5  1  0  0  0
  6  7  4  0  0  0
  7 16  4  0  0  0
  8 10  1  0  0  0
  8 18  1  0  0  0
 10  9  1  0  0  0
 17  9  1  0  0  0
 11 12  1  0  0  0
 21 11  1  0  0  0
 11 22  1  0  0  0
 16 15  1  0  0  0
 18 17  1  0  0  0
 19 20  2  0  0  0
 19 21  1  0  0  0
  1 23  1  0  0  0
  4 24  1  0  0  0
  6 25  1  0  0  0
  7 26  1  0  0  0
  8 27  1  0  0  0
  9 28  1  0  0  0
  9 29  1  0  0  0
 10 30  1  0  0  0
 10 31  1  0  0  0
 11 32  1  0  0  0
 12 33  1  0  0  0
 12 34  1  0  0  0
 12 35  1  0  0  0
 18 36  1  0  0  0
 18 37  1  0  0  0
 21 38  1  0  0  0
 21 39  1  0  0  0
 22 40  1  0  0  0
 22 41  1  0  0  0
 22 42  1  0  0  0
M  END
$$$$
