4jmg_ligand
  -I-interpret- 

135135  0  0  0  0  0  0  0  0999 V2000
   35.6100  -10.6600   13.0170 N   0  3  0  0  0
   34.6940  -10.3420   14.1050 C   0  0  0  0  0
   33.9680   -9.0260   13.8150 C   0  0  0  0  0
   32.7460   -8.9490   13.9140 O   0  0  0  0  0
   35.4240  -10.2750   15.4610 C   0  0  0  0  0
   34.4350  -10.0440   16.5690 C   0  0  0  0  0
   36.1970  -11.5620   15.7130 C   0  0  0  0  0
   34.7290   -8.0050   13.4350 N   0  0  0  0  0
   34.1900   -6.7160   13.0180 C   0  0  0  0  0
   34.7850   -6.3370   11.6680 C   0  0  0  0  0
   35.9160   -6.7210   11.3570 O   0  0  0  0  0
   34.4990   -5.5920   14.0130 C   0  0  0  0  0
   33.9520   -5.8020   15.4170 C   0  0  0  0  0
   34.7580   -6.2920   16.4320 C   0  0  0  0  0
   32.6270   -5.5100   15.7240 C   0  0  0  0  0
   34.2600   -6.4900   17.7130 C   0  0  0  0  0
   32.1190   -5.6980   17.0010 C   0  0  0  0  0
   32.9380   -6.2030   17.9990 C   0  0  0  0  0
   32.5390   -6.3890   19.2490 O   0  0  0  0  0
   31.1740   -7.0760   19.7750 P   0  0  0  0  0
   31.5450   -8.0920   20.7940 O   0  0  0  0  0
   30.4400   -7.6890   18.5860 O   0  0  0  0  0
   30.3270   -6.0010   20.4460 O   0  0  0  0  0
   34.0560   -5.5610   10.8770 N   0  0  0  0  0
   34.5250   -5.1930    9.5460 C   0  0  0  0  0
   35.6340   -4.1330    9.5330 C   0  0  0  0  0
   36.4890   -4.1390    8.6400 O   0  0  0  0  0
   33.3530   -4.7150    8.6850 C   0  0  0  0  0
   32.2090   -5.7150    8.5780 C   0  0  0  0  0
   32.6580   -7.0300    7.9760 C   0  0  0  0  0
   33.2350   -7.0110    6.8650 O   0  0  0  0  0
   32.4520   -8.0810    8.6220 O   0  0  0  0  0
   35.6210   -3.2370   10.5210 N   0  0  0  0  0
   36.4600   -2.0360   10.4930 C   0  0  0  0  0
   37.7320   -2.1120   11.3260 C   0  0  0  0  0
   38.5830   -1.2190   11.2400 O   0  0  0  0  0
   35.6470   -0.7920   10.8750 C   0  0  0  0  0
   35.0110   -0.8950   12.2610 C   0  0  0  0  0
   34.5890   -1.9760   12.7050 O   0  0  0  0  0
   34.9540    0.2350   12.9550 N   0  0  0  0  0
   37.8710   -3.1980   12.0820 N   0  0  0  0  0
   39.0730   -3.4400   12.8890 C   0  0  0  0  0
   39.4860   -4.8980   12.7500 C   0  0  0  0  0
   38.6670   -5.7420   12.3840 O   0  0  0  0  0
   38.8610   -3.0840   14.3900 C   0  0  0  0  0
   38.7430   -1.5790   14.5640 C   0  0  0  0  0
   37.6260   -3.7900   14.9520 C   0  0  0  0  0
   40.7650   -5.1880   12.9760 N   0  0  0  0  0
   41.2400   -6.5650   12.9830 C   0  0  0  0  0
   41.8010   -6.9440   14.3450 C   0  0  0  0  0
   42.0920   -6.0760   15.1590 O   0  0  0  0  0
   41.9270   -8.2410   14.6030 N   0  0  0  0  0
   42.4570   -8.7330   15.8720 C   0  0  0  0  0
   43.9720   -8.7310   15.8530 C   0  0  0  0  0
   44.5750   -9.3840   15.0050 O   0  0  0  0  0
   41.9730  -10.1580   16.1290 C   0  0  0  0  0
   40.5280  -10.3360   16.5790 C   0  0  0  0  0
   40.1480  -11.8180   16.6050 C   0  0  0  0  0
   40.3360   -9.7110   17.9500 C   0  0  0  0  0
   44.5940   -8.0160   16.7880 N   0  0  0  0  0
   46.0480   -8.0430   16.9220 C   0  0  0  0  0
   46.5150   -9.4550   17.2440 C   0  0  0  0  0
   45.9570  -10.1060   18.1280 O   0  0  0  0  0
   46.5090   -7.1010   18.0360 C   0  0  0  0  0
   46.6630   -5.6390   17.6290 C   0  0  0  0  0
   48.0170   -5.3020   16.4720 S   0  0  0  0  0
   48.1310   -3.5360   16.7230 C   0  0  0  0  0
   47.4758   -9.9598   16.6040 O   0  0  0  0  0
   35.0931  -10.6957   12.1384 H   0  0  0  0  0
   36.3308   -9.9406   12.9598 H   0  0  0  0  0
   36.0449  -11.5655   13.1940 H   0  0  0  0  0
   33.9589  -11.1441   14.1710 H   0  0  0  0  0
   36.1290   -9.4441   15.4350 H   0  0  0  0  0
   33.7368  -10.8800   16.6112 H   0  0  0  0  0
   34.9661   -9.9642   17.5175 H   0  0  0  0  0
   33.8874   -9.1209   16.3789 H   0  0  0  0  0
   36.7305  -11.4843   16.6603 H   0  0  0  0  0
   35.5013  -12.4001   15.7540 H   0  0  0  0  0
   36.9107  -11.7199   14.9045 H   0  0  0  0  0
   35.7414   -8.1294   13.4350 H   0  0  0  0  0
   33.1070   -6.8265   12.9629 H   0  0  0  0  0
   34.0255   -4.6905   13.6240 H   0  0  0  0  0
   35.5841   -5.5436   14.1037 H   0  0  0  0  0
   35.8015   -6.5262   16.2212 H   0  0  0  0  0
   31.9724   -5.1243   14.9425 H   0  0  0  0  0
   34.9139   -6.8733   18.4963 H   0  0  0  0  0
   31.0803   -5.4497   17.2188 H   0  0  0  0  0
   30.2210   -6.9985   17.9560 H   0  0  0  0  0
   30.0807   -5.3379   19.7970 H   0  0  0  0  0
   33.1536   -5.2164   11.2046 H   0  0  0  0  0
   34.9653   -6.1005    9.1330 H   0  0  0  0  0
   33.7374   -4.5568    7.6774 H   0  0  0  0  0
   32.9527   -3.8173    9.1561 H   0  0  0  0  0
   31.4431   -5.2881    7.9306 H   0  0  0  0  0
   31.8331   -5.9110    9.5822 H   0  0  0  0  0
   33.2875   -6.1062    6.5484 H   0  0  0  0  0
   35.0078   -3.3927   11.3211 H   0  0  0  0  0
   36.7983   -1.9614    9.4595 H   0  0  0  0  0
   34.8420   -0.6858   10.1478 H   0  0  0  0  0
   36.3281    0.0590   10.8851 H   0  0  0  0  0
   34.5515    0.2381   13.8922 H   0  0  0  0  0
   35.3126    1.1002   12.5511 H   0  0  0  0  0
   37.1174   -3.8851   12.1014 H   0  0  0  0  0
   39.8627   -2.7878   12.5161 H   0  0  0  0  0
   39.7296   -3.4321   14.9490 H   0  0  0  0  0
   39.6563   -1.1009   14.2100 H   0  0  0  0  0
   37.8931   -1.2134   13.9877 H   0  0  0  0  0
   38.5952   -1.3470   15.6187 H   0  0  0  0  0
   36.7447   -3.4795   14.3908 H   0  0  0  0  0
   37.7537   -4.8688   14.8628 H   0  0  0  0  0
   37.5026   -3.5230   16.0016 H   0  0  0  0  0
   41.4262   -4.4306   13.1478 H   0  0  0  0  0
   42.0312   -6.6647   12.2399 H   0  0  0  0  0
   40.4022   -7.2240   12.7553 H   0  0  0  0  0
   41.6444   -8.9153   13.8917 H   0  0  0  0  0
   42.1019   -8.0726   16.6631 H   0  0  0  0  0
   42.5853  -10.5338   16.9487 H   0  0  0  0  0
   42.0487  -10.6722   15.1709 H   0  0  0  0  0
   39.8736   -9.8336   15.8666 H   0  0  0  0  0
   40.2606  -12.2382   15.6056 H   0  0  0  0  0
   40.8013  -12.3472   17.2988 H   0  0  0  0  0
   39.1124  -11.9206   16.9291 H   0  0  0  0  0
   40.9996  -10.1967   18.6655 H   0  0  0  0  0
   40.5701   -8.6477   17.8992 H   0  0  0  0  0
   39.3010   -9.8417   18.2658 H   0  0  0  0  0
   44.0441   -7.4378   17.4234 H   0  0  0  0  0
   46.4800   -7.7154   15.9764 H   0  0  0  0  0
   47.4954   -7.4444   18.3476 H   0  0  0  0  0
   45.7409   -7.1312   18.8088 H   0  0  0  0  0
   46.8818   -5.0810   18.5394 H   0  0  0  0  0
   45.7400   -5.3549   17.1235 H   0  0  0  0  0
   47.1801   -3.0712   16.4625 H   0  0  0  0  0
   48.3616   -3.3331   17.7688 H   0  0  0  0  0
   48.9205   -3.1306   16.0902 H   0  0  0  0  0
   47.7953   -9.3269   15.9567 H   0  0  0  0  0
  1  2  1  0  0  0
  2  3  1  0  0  0
  2  5  1  0  0  0
  3  4  2  0  0  0
  3  8  1  0  0  0
  5  6  1  0  0  0
  5  7  1  0  0  0
  8  9  1  0  0  0
  9 10  1  0  0  0
  9 12  1  0  0  0
 10 11  2  0  0  0
 10 24  1  0  0  0
 12 13  1  0  0  0
 13 14  4  0  0  0
 13 15  4  0  0  0
 14 16  4  0  0  0
 15 17  4  0  0  0
 16 18  4  0  0  0
 17 18  4  0  0  0
 18 19  1  0  0  0
 19 20  1  0  0  0
 20 21  2  0  0  0
 20 22  1  0  0  0
 20 23  1  0  0  0
 24 25  1  0  0  0
 25 26  1  0  0  0
 25 28  1  0  0  0
 26 27  2  0  0  0
 26 33  1  0  0  0
 28 29  1  0  0  0
 29 30  1  0  0  0
 30 31  1  0  0  0
 30 32  2  0  0  0
 33 34  1  0  0  0
 34 35  1  0  0  0
 34 37  1  0  0  0
 35 36  2  0  0  0
 35 41  1  0  0  0
 37 38  1  0  0  0
 38 39  2  0  0  0
 38 40  1  0  0  0
 41 42  1  0  0  0
 42 43  1  0  0  0
 42 45  1  0  0  0
 43 44  2  0  0  0
 43 48  1  0  0  0
 45 46  1  0  0  0
 45 47  1  0  0  0
 48 49  1  0  0  0
 49 50  1  0  0  0
 50 51  2  0  0  0
 50 52  1  0  0  0
 52 53  1  0  0  0
 53 54  1  0  0  0
 53 56  1  0  0  0
 54 55  2  0  0  0
 54 60  1  0  0  0
 56 57  1  0  0  0
 57 58  1  0  0  0
 57 59  1  0  0  0
 60 61  1  0  0  0
 61 62  1  0  0  0
 61 64  1  0  0  0
 62 63  2  0  0  0
 64 65  1  0  0  0
 65 66  1  0  0  0
 66 67  1  0  0  0
 62 68  1  0  0  0
  1 69  1  0  0  0
  1 70  1  0  0  0
  1 71  1  0  0  0
  2 72  1  0  0  0
  5 73  1  0  0  0
  6 74  1  0  0  0
  6 75  1  0  0  0
  6 76  1  0  0  0
  7 77  1  0  0  0
  7 78  1  0  0  0
  7 79  1  0  0  0
  8 80  1  0  0  0
  9 81  1  0  0  0
 12 82  1  0  0  0
 12 83  1  0  0  0
 14 84  1  0  0  0
 15 85  1  0  0  0
 16 86  1  0  0  0
 17 87  1  0  0  0
 22 88  1  0  0  0
 23 89  1  0  0  0
 24 90  1  0  0  0
 25 91  1  0  0  0
 28 92  1  0  0  0
 28 93  1  0  0  0
 29 94  1  0  0  0
 29 95  1  0  0  0
 31 96  1  0  0  0
 33 97  1  0  0  0
 34 98  1  0  0  0
 37 99  1  0  0  0
 37100  1  0  0  0
 40101  1  0  0  0
 40102  1  0  0  0
 41103  1  0  0  0
 42104  1  0  0  0
 45105  1  0  0  0
 46106  1  0  0  0
 46107  1  0  0  0
 46108  1  0  0  0
 47109  1  0  0  0
 47110  1  0  0  0
 47111  1  0  0  0
 48112  1  0  0  0
 49113  1  0  0  0
 49114  1  0  0  0
 52115  1  0  0  0
 53116  1  0  0  0
 56117  1  0  0  0
 56118  1  0  0  0
 57119  1  0  0  0
 58120  1  0  0  0
 58121  1  0  0  0
 58122  1  0  0  0
 59123  1  0  0  0
 59124  1  0  0  0
 59125  1  0  0  0
 60126  1  0  0  0
 61127  1  0  0  0
 64128  1  0  0  0
 64129  1  0  0  0
 65130  1  0  0  0
 65131  1  0  0  0
 67132  1  0  0  0
 67133  1  0  0  0
 67134  1  0  0  0
 68135  1  0  0  0
M  END
$$$$
