### 
### Created by X-TOOL on Mon Sep 10 21:13:17 2018
### 

@<TRIPOS>MOLECULE
4jmg_ligand
  131   131     1     0     0
SMALL
GAST_HUCK


@<TRIPOS>ATOM
      1 N          35.6100  -10.6600   13.0170 N.4       1 VAL         0.2381
      2 CA         34.6940  -10.3420   14.1050 C.3       1 VAL         0.0673
      3 C          33.9680   -9.0260   13.8150 C.2       1 VAL         0.2272
      4 O          32.7460   -8.9490   13.9140 O.2       1 VAL        -0.3907
      5 CB         35.4240  -10.2750   15.4610 C.3       1 VAL         0.0139
      6 CG1        34.4350  -10.0440   16.5690 C.3       1 VAL        -0.0553
      7 CG2        36.1970  -11.5620   15.7130 C.3       1 VAL        -0.0553
      8 N          34.7290   -8.0050   13.4350 N.am      1 PTR        -0.2580
      9 CA         34.1900   -6.7160   13.0180 C.3       1 PTR         0.1470
     10 C          34.7850   -6.3370   11.6680 C.2       1 PTR         0.2074
     11 O          35.9160   -6.7210   11.3570 O.2       1 PTR        -0.3941
     12 CB         34.4990   -5.5920   14.0130 C.3       1 PTR         0.0400
     13 CG         33.9520   -5.8020   15.4170 C.ar      1 PTR        -0.0004
     14 CD1        34.7580   -6.2920   16.4320 C.ar      1 PTR        -0.0239
     15 CD2        32.6270   -5.5100   15.7240 C.ar      1 PTR        -0.0239
     16 CE1        34.2600   -6.4900   17.7130 C.ar      1 PTR         0.0115
     17 CE2        32.1190   -5.6980   17.0010 C.ar      1 PTR         0.0115
     18 CZ         32.9380   -6.2030   17.9990 C.ar      1 PTR         0.1728
     19 OH         32.5390   -6.3890   19.2490 O.3       1 PTR        -0.2040
     20 P          31.1740   -7.0760   19.7750 P.3       1 PTR         0.1348
     21 O1P        31.5450   -8.0920   20.7940 O.co2     1 PTR        -0.6653
     22 O2P        30.4400   -7.6890   18.5860 O.co2     1 PTR        -0.6653
     23 O3P        30.3270   -6.0010   20.4460 O.co2     1 PTR        -0.6653
     24 N          34.0560   -5.5610   10.8770 N.am      1 GLU        -0.2634
     25 CA         34.5250   -5.1930    9.5460 C.3       1 GLU         0.1325
     26 C          35.6340   -4.1330    9.5330 C.2       1 GLU         0.2041
     27 O          36.4890   -4.1390    8.6400 O.2       1 GLU        -0.3944
     28 CB         33.3530   -4.7150    8.6850 C.3       1 GLU        -0.0008
     29 CG         32.2090   -5.7150    8.5780 C.3       1 GLU         0.0044
     30 CD         32.6580   -7.0300    7.9760 C.2       1 GLU         0.0350
     31 OE1        33.2350   -7.0110    6.8650 O.co2     1 GLU        -0.5690
     32 OE2        32.4520   -8.0810    8.6220 O.co2     1 GLU        -0.5690
     33 N          35.6210   -3.2370   10.5210 N.am      1 ASN        -0.2616
     34 CA         36.4600   -2.0360   10.4930 C.3       1 ASN         0.1476
     35 C          37.7320   -2.1120   11.3260 C.2       1 ASN         0.2063
     36 O          38.5830   -1.2190   11.2400 O.2       1 ASN        -0.3942
     37 CB         35.6470   -0.7920   10.8750 C.3       1 ASN         0.0773
     38 CG         35.0110   -0.8950   12.2610 C.2       1 ASN         0.1780
     39 OD1        34.5890   -1.9760   12.7050 O.2       1 ASN        -0.3970
     40 ND2        34.9540    0.2350   12.9550 N.am      1 ASN        -0.3007
     41 N          37.8710   -3.1980   12.0820 N.am      1 VAL        -0.2633
     42 CA         39.0730   -3.4400   12.8890 C.3       1 VAL         0.1332
     43 C          39.4860   -4.8980   12.7500 C.2       1 VAL         0.2039
     44 O          38.6670   -5.7420   12.3840 O.2       1 VAL        -0.3944
     45 CB         38.8610   -3.0840   14.3900 C.3       1 VAL        -0.0063
     46 CG1        38.7430   -1.5790   14.5640 C.3       1 VAL        -0.0584
     47 CG2        37.6260   -3.7900   14.9520 C.3       1 VAL        -0.0584
     48 N          40.7650   -5.1880   12.9760 N.am      1 GLY        -0.2664
     49 CA         41.2400   -6.5650   12.9830 C.3       1 GLY         0.1201
     50 C          41.8010   -6.9440   14.3450 C.2       1 GLY         0.2007
     51 O          42.0920   -6.0760   15.1590 O.2       1 GLY        -0.3947
     52 N          41.9270   -8.2410   14.6030 N.am      1 LEU        -0.2640
     53 CA         42.4570   -8.7330   15.8720 C.3       1 LEU         0.1312
     54 C          43.9720   -8.7310   15.8530 C.2       1 LEU         0.2034
     55 O          44.5750   -9.3840   15.0050 O.2       1 LEU        -0.3944
     56 CB         41.9730  -10.1580   16.1290 C.3       1 LEU        -0.0101
     57 CG         40.5280  -10.3360   16.5790 C.3       1 LEU        -0.0425
     58 CD1        40.1480  -11.8180   16.6050 C.3       1 LEU        -0.0625
     59 CD2        40.3360   -9.7110   17.9500 C.3       1 LEU        -0.0625
     60 N          44.5940   -8.0160   16.7880 N.am      1 MET        -0.2670
     61 CA         46.0480   -8.0430   16.9220 C.3       1 MET         0.1233
     62 C          46.5150   -9.4550   17.2440 C.2       1 MET         0.2150
     63 O          45.9570  -10.1060   18.1280 O.co2     1 MET        -0.4120
     64 CB         46.5090   -7.1010   18.0360 C.3       1 MET        -0.0065
     65 CG         46.6630   -5.6390   17.6290 C.3       1 MET        -0.0029
     66 SD         48.0170   -5.3020   16.4720 S.3       1 MET        -0.1639
     67 CE         48.1310   -3.5360   16.7230 C.3       1 MET        -0.0181
     68 H          35.1002  -10.6955   12.1481 H         1 VAL         0.2015
     69 H          36.0404  -11.5547   13.1908 H         1 VAL         0.2015
     70 H          36.3229   -9.9497   12.9594 H         1 VAL         0.2015
     71 H          33.9431  -11.1437   14.1638 H         1 VAL         0.1101
     72 H          36.1340   -9.4351   15.4386 H         1 VAL         0.0376
     73 H          34.9664   -9.9980   17.5310 H         1 VAL         0.0236
     74 H          33.7088  -10.8699   16.5904 H         1 VAL         0.0236
     75 H          33.9061   -9.0951   16.3965 H         1 VAL         0.0236
     76 H          36.9177  -11.7225   14.8976 H         1 VAL         0.0236
     77 H          35.4960  -12.4086   15.7546 H         1 VAL         0.0236
     78 H          36.7360  -11.4849   16.6688 H         1 VAL         0.0236
     79 H          35.7215   -8.1269   13.4350 H         1 PTR         0.1887
     80 H          33.0982   -6.8098   12.9219 H         1 PTR         0.0840
     81 H          34.0708   -4.6594   13.6169 H         1 PTR         0.0584
     82 H          35.5921   -5.4921   14.0850 H         1 PTR         0.0584
     83 H          35.7957   -6.5249   16.2223 H         1 PTR         0.0703
     84 H          31.9760   -5.1264   14.9468 H         1 PTR         0.0703
     85 H          34.9103   -6.8711   18.4920 H         1 PTR         0.0736
     86 H          31.0860   -5.4511   17.2176 H         1 PTR         0.0736
     87 H          33.1713   -5.2231   11.1982 H         1 GLU         0.1883
     88 H          34.9381   -6.1027    9.0858 H         1 GLU         0.0801
     89 H          33.7296   -4.5118    7.6716 H         1 GLU         0.0330
     90 H          32.9593   -3.7860    9.1231 H         1 GLU         0.0330
     91 H          31.4200   -5.2852    7.9434 H         1 GLU         0.0433
     92 H          31.8076   -5.9042    9.5845 H         1 GLU         0.0433
     93 H          35.0198   -3.3897   11.3054 H         1 ASN         0.1885
     94 H          36.7804   -1.9082    9.4485 H         1 ASN         0.0826
     95 H          34.8475   -0.6543   10.1321 H         1 ASN         0.0551
     96 H          36.3155    0.0814   10.8604 H         1 ASN         0.0551
     97 H          34.5503    0.2401   13.8699 H         1 ASN         0.1814
     98 H          35.3147    1.0813   12.5630 H         1 ASN         0.1814
     99 H          37.1322   -3.8716   12.1011 H         1 VAL         0.1883
    100 H          39.8827   -2.8057   12.4992 H         1 VAL         0.0802
    101 H          39.7402   -3.4295   14.9536 H         1 VAL         0.0343
    102 H          38.5938   -1.3435   15.6281 H         1 VAL         0.0234
    103 H          37.8856   -1.2088   13.9828 H         1 VAL         0.0234
    104 H          39.6642   -1.0953   14.2071 H         1 VAL         0.0234
    105 H          37.7313   -4.8765   14.8163 H         1 VAL         0.0234
    106 H          36.7293   -3.4393   14.4201 H         1 VAL         0.0234
    107 H          37.5292   -3.5620   16.0237 H         1 VAL         0.0234
    108 H          41.4132   -4.4454   13.1445 H         1 GLY         0.1881
    109 H          42.0298   -6.6764   12.2256 H         1 GLY         0.0763
    110 H          40.4022   -7.2353   12.7405 H         1 GLY         0.0763
    111 H          41.6500   -8.9021   13.9057 H         1 LEU         0.1883
    112 H          42.1047   -8.0784   16.6828 H         1 LEU         0.0800
    113 H          42.6173  -10.5900   16.9089 H         1 LEU         0.0315
    114 H          42.0997  -10.7234   15.1940 H         1 LEU         0.0315
    115 H          39.8712   -9.8207   15.8627 H         1 LEU         0.0298
    116 H          39.1030  -11.9229   16.9320 H         1 LEU         0.0232
    117 H          40.8066  -12.3532   17.3049 H         1 LEU         0.0232
    118 H          40.2612  -12.2433   15.5969 H         1 LEU         0.0232
    119 H          40.6141   -8.6475   17.9103 H         1 LEU         0.0232
    120 H          40.9730  -10.2294   18.6818 H         1 LEU         0.0232
    121 H          39.2820   -9.8034   18.2508 H         1 LEU         0.0232
    122 H          44.0549   -7.4492   17.4110 H         1 MET         0.1876
    123 H          46.4980   -7.7213   15.9712 H         1 MET         0.0751
    124 O1         47.4758   -9.9598   16.6040 O.co2     1 MET        -0.4120
    125 H          47.4838   -7.4570   18.4008 H         1 MET         0.0314
    126 H          45.7718   -7.1514   18.8509 H         1 MET         0.0314
    127 H          46.8383   -5.0482   18.5401 H         1 MET         0.0378
    128 H          45.7233   -5.3157   17.1574 H         1 MET         0.0378
    129 H          48.9275   -3.1257   16.0849 H         1 MET         0.0340
    130 H          48.3638   -3.3299   17.7781 H         1 MET         0.0340
    131 H          47.1720   -3.0656   16.4604 H         1 MET         0.0340
@<TRIPOS>BOND
     1    1    2 1  
     2    2    3 1  
     3    2    5 1  
     4    3    4 2  
     5    3    8 am 
     6    5    6 1  
     7    5    7 1  
     8    8    9 1  
     9    9   10 1  
    10    9   12 1  
    11   10   11 2  
    12   10   24 am 
    13   12   13 1  
    14   13   14 ar 
    15   13   15 ar 
    16   14   16 ar 
    17   15   17 ar 
    18   16   18 ar 
    19   17   18 ar 
    20   18   19 1  
    21   19   20 1  
    22   20   21 ar 
    23   20   22 ar 
    24   20   23 ar 
    25   24   25 1  
    26   25   26 1  
    27   25   28 1  
    28   26   27 2  
    29   26   33 am 
    30   28   29 1  
    31   29   30 1  
    32   30   31 ar 
    33   30   32 ar 
    34   33   34 1  
    35   34   35 1  
    36   34   37 1  
    37   35   36 2  
    38   35   41 am 
    39   37   38 1  
    40   38   39 2  
    41   38   40 am 
    42   41   42 1  
    43   42   43 1  
    44   42   45 1  
    45   43   44 2  
    46   43   48 am 
    47   45   46 1  
    48   45   47 1  
    49   48   49 1  
    50   49   50 1  
    51   50   51 2  
    52   50   52 am 
    53   52   53 1  
    54   53   54 1  
    55   53   56 1  
    56   54   55 2  
    57   54   60 am 
    58   56   57 1  
    59   57   58 1  
    60   57   59 1  
    61   60   61 1  
    62   61   62 1  
    63   61   64 1  
    64   62   63 ar 
    65   64   65 1  
    66   65   66 1  
    67   66   67 1  
    68    1   68 1  
    69    1   69 1  
    70    1   70 1  
    71    2   71 1  
    72    5   72 1  
    73    6   73 1  
    74    6   74 1  
    75    6   75 1  
    76    7   76 1  
    77    7   77 1  
    78    7   78 1  
    79    8   79 1  
    80    9   80 1  
    81   12   81 1  
    82   12   82 1  
    83   14   83 1  
    84   15   84 1  
    85   16   85 1  
    86   17   86 1  
    87   24   87 1  
    88   25   88 1  
    89   28   89 1  
    90   28   90 1  
    91   29   91 1  
    92   29   92 1  
    93   33   93 1  
    94   34   94 1  
    95   37   95 1  
    96   37   96 1  
    97   40   97 1  
    98   40   98 1  
    99   41   99 1  
   100   42  100 1  
   101   45  101 1  
   102   46  102 1  
   103   46  103 1  
   104   46  104 1  
   105   47  105 1  
   106   47  106 1  
   107   47  107 1  
   108   48  108 1  
   109   49  109 1  
   110   49  110 1  
   111   52  111 1  
   112   53  112 1  
   113   56  113 1  
   114   56  114 1  
   115   57  115 1  
   116   58  116 1  
   117   58  117 1  
   118   58  118 1  
   119   59  119 1  
   120   59  120 1  
   121   59  121 1  
   122   60  122 1  
   123   61  123 1  
   124   62  124 ar 
   125   64  125 1  
   126   64  126 1  
   127   65  127 1  
   128   65  128 1  
   129   67  129 1  
   130   67  130 1  
   131   67  131 1  
@<TRIPOS>SUBSTRUCTURE
     1 VAL         1

