### 
### Created by X-TOOL on Mon Sep 10 21:12:57 2018
### 

@<TRIPOS>MOLECULE
2pj7_ligand
   56    57     1     0     0
SMALL
GAST_HUCK


@<TRIPOS>ATOM
      1 C35        37.2300   15.1860   66.6110 C.ar      1 235        -0.0351
      2 C36        38.2480   14.6620   67.4490 C.ar      1 235        -0.0599
      3 C37        38.8750   13.4330   67.1150 C.ar      1 235        -0.0616
      4 C38        38.4810   12.7310   65.9460 C.ar      1 235        -0.0599
      5 C39        37.4620   13.2550   65.1090 C.ar      1 235        -0.0351
      6 C34        36.8360   14.4820   65.4390 C.ar      1 235         0.1082
      7 S32        35.5540   15.1160   64.4230 S.o2      1 235         0.0698
      8 O33        35.3940   16.5210   64.6840 O.2       1 235        -0.1502
      9 O32        34.2800   14.4000   64.7500 O.2       1 235        -0.1502
     10 N31        35.9210   14.8990   62.8200 N.am      1 235        -0.2274
     11 C27        34.9680   14.6850   61.7940 C.3       1 235         0.1043
     12 C28        34.8830   15.9040   60.8280 C.3       1 235        -0.0107
     13 C30        36.2390   16.3130   60.2520 C.3       1 235        -0.0594
     14 C29        34.2530   17.1110   61.5340 C.3       1 235        -0.0594
     15 P24        35.3140   13.0850   60.9520 P.3       1 235         0.0106
     16 O25        34.3560   12.9700   59.8270 O.co2     1 235        -0.6177
     17 O26        35.2040   12.0790   62.0410 O.co2     1 235        -0.6177
     18 C15        36.9960   12.9580   60.2460 C.3       1 235         0.0387
     19 C1         37.4150   11.4940   59.9560 C.3       1 235         0.0592
     20 C2         37.6140   10.6570   61.2440 C.2       1 235         0.0508
     21 O14        37.3410    9.4440   61.1640 O.co2     1 235        -0.5660
     22 O13        38.0610   11.2440   62.2600 O.co2     1 235        -0.5660
     23 C3         38.7380   11.4520   59.1610 C.ar      1 235        -0.0322
     24 C8         38.8040   10.6690   57.9880 C.ar      1 235        -0.0522
     25 C4         39.9140   12.1050   59.6440 C.ar      1 235        -0.0653
     26 C5         41.1400   11.9570   58.9560 C.ar      1 235        -0.0748
     27 C6         41.1990   11.1650   57.7830 C.ar      1 235        -0.0621
     28 C7         40.0320   10.5220   57.3000 C.ar      1 235        -0.0052
     29 C9         40.0960    9.6560   56.0420 C.3       1 235        -0.0032
     30 N10        40.2620    8.2470   56.4340 N.4       1 235         0.2307
     31 H1         36.7512   16.1250   66.8643 H         1 235         0.0637
     32 H2         38.5463   15.1989   68.3422 H         1 235         0.0618
     33 H3         39.6542   13.0309   67.7523 H         1 235         0.0618
     34 H4         38.9597   11.7922   65.6920 H         1 235         0.0618
     35 H5         37.1627   12.7164   64.2172 H         1 235         0.0637
     36 H6         36.8860   14.9209   62.5587 H         1 235         0.1693
     37 H7         33.9817   14.5914   62.2719 H         1 235         0.0720
     38 H8         34.2334   15.6164   59.9882 H         1 235         0.0330
     39 H9         36.1076   17.1752   59.5817 H         1 235         0.0233
     40 H10        36.6664   15.4714   59.6873 H         1 235         0.0233
     41 H11        36.9185   16.5867   61.0726 H         1 235         0.0233
     42 H12        33.2766   16.8233   61.9509 H         1 235         0.0233
     43 H13        34.1164   17.9286   60.8109 H         1 235         0.0233
     44 H14        34.9141   17.4467   62.3466 H         1 235         0.0233
     45 H15        37.7108   13.3936   60.9596 H         1 235         0.0508
     46 H16        37.0260   13.5255   59.3042 H         1 235         0.0508
     47 H17        36.6211   11.0270   59.3546 H         1 235         0.0638
     48 H18        37.9123   10.1794   57.6136 H         1 235         0.0499
     49 H19        39.8658   12.7146   60.5391 H         1 235         0.0502
     50 H20        42.0329   12.4484   59.3252 H         1 235         0.0582
     51 H21        42.1382   11.0506   57.2540 H         1 235         0.0503
     52 H22        40.9496    9.9688   55.4227 H         1 235         0.0978
     53 H23        39.1648    9.7711   55.4680 H         1 235         0.0978
     54 H24        40.3048    7.6712   55.6078 H         1 235         0.2008
     55 H25        39.4797    7.9618   57.0020 H         1 235         0.2008
     56 H26        41.1152    8.1430   56.9606 H         1 235         0.2008
@<TRIPOS>BOND
     1    1    2 ar 
     2    1    6 ar 
     3    2    3 ar 
     4    3    4 ar 
     5    4    5 ar 
     6    5    6 ar 
     7    6    7 1  
     8    7    8 2  
     9    7    9 2  
    10    7   10 am 
    11   10   11 1  
    12   11   12 1  
    13   11   15 1  
    14   12   13 1  
    15   12   14 1  
    16   15   16 ar 
    17   15   17 ar 
    18   15   18 1  
    19   18   19 1  
    20   19   20 1  
    21   19   23 1  
    22   20   21 ar 
    23   20   22 ar 
    24   23   24 ar 
    25   23   25 ar 
    26   24   28 ar 
    27   25   26 ar 
    28   26   27 ar 
    29   27   28 ar 
    30   28   29 1  
    31   29   30 1  
    32    1   31 1  
    33    2   32 1  
    34    3   33 1  
    35    4   34 1  
    36    5   35 1  
    37   10   36 1  
    38   11   37 1  
    39   12   38 1  
    40   13   39 1  
    41   13   40 1  
    42   13   41 1  
    43   14   42 1  
    44   14   43 1  
    45   14   44 1  
    46   18   45 1  
    47   18   46 1  
    48   19   47 1  
    49   24   48 1  
    50   25   49 1  
    51   26   50 1  
    52   27   51 1  
    53   29   52 1  
    54   29   53 1  
    55   30   54 1  
    56   30   55 1  
    57   30   56 1  
@<TRIPOS>SUBSTRUCTURE
     1 235         1

