2pj7_ligand
  -I-interpret- 

 58 59  0  0  0  0  0  0  0  0999 V2000
   37.2300   15.1860   66.6110 C   0  0  0  0  0
   38.2480   14.6620   67.4490 C   0  0  0  0  0
   38.8750   13.4330   67.1150 C   0  0  0  0  0
   38.4810   12.7310   65.9460 C   0  0  0  0  0
   37.4620   13.2550   65.1090 C   0  0  0  0  0
   36.8360   14.4820   65.4390 C   0  0  0  0  0
   35.5540   15.1160   64.4230 S   0  0  0  0  0
   35.3940   16.5210   64.6840 O   0  0  0  0  0
   34.2800   14.4000   64.7500 O   0  0  0  0  0
   35.9210   14.8990   62.8200 N   0  0  0  0  0
   34.9680   14.6850   61.7940 C   0  0  0  0  0
   34.8830   15.9040   60.8280 C   0  0  0  0  0
   36.2390   16.3130   60.2520 C   0  0  0  0  0
   34.2530   17.1110   61.5340 C   0  0  0  0  0
   35.3140   13.0850   60.9520 P   0  0  0  0  0
   34.3560   12.9700   59.8270 O   0  0  0  0  0
   35.2040   12.0790   62.0410 O   0  0  0  0  0
   36.9960   12.9580   60.2460 C   0  0  0  0  0
   37.4150   11.4940   59.9560 C   0  0  0  0  0
   37.6140   10.6570   61.2440 C   0  0  0  0  0
   37.3410    9.4440   61.1640 O   0  0  0  0  0
   38.0610   11.2440   62.2600 O   0  0  0  0  0
   38.7380   11.4520   59.1610 C   0  0  0  0  0
   38.8040   10.6690   57.9880 C   0  0  0  0  0
   39.9140   12.1050   59.6440 C   0  0  0  0  0
   41.1400   11.9570   58.9560 C   0  0  0  0  0
   41.1990   11.1650   57.7830 C   0  0  0  0  0
   40.0320   10.5220   57.3000 C   0  0  0  0  0
   40.0960    9.6560   56.0420 C   0  0  0  0  0
   40.2620    8.2470   56.4340 N   0  3  0  0  0
   36.7486   16.1302   66.8657 H   0  0  0  0  0
   38.5479   15.2019   68.3472 H   0  0  0  0  0
   39.6585   13.0287   67.7559 H   0  0  0  0  0
   38.9624   11.7870   65.6906 H   0  0  0  0  0
   37.1610   12.7134   64.2122 H   0  0  0  0  0
   36.9053   14.9213   62.5534 H   0  0  0  0  0
   33.9723   14.6054   62.2303 H   0  0  0  0  0
   34.2559   15.5827   59.9964 H   0  0  0  0  0
   36.9113   16.5839   61.0661 H   0  0  0  0  0
   36.6615   15.4782   59.6927 H   0  0  0  0  0
   36.1075   17.1674   59.5880 H   0  0  0  0  0
   33.2474   16.8522   61.8656 H   0  0  0  0  0
   34.8618   17.3849   62.3956 H   0  0  0  0  0
   34.2036   17.9507   60.8408 H   0  0  0  0  0
   35.8722   12.2558   62.7072 H   0  0  0  0  0
   37.6960   13.3682   60.9739 H   0  0  0  0  0
   37.0040   13.5015   59.3012 H   0  0  0  0  0
   36.5967   11.0627   59.3794 H   0  0  0  0  0
   38.1866   12.1747   62.0611 H   0  0  0  0  0
   37.9073   10.1767   57.6115 H   0  0  0  0  0
   39.8655   12.7179   60.5440 H   0  0  0  0  0
   42.0378   12.4511   59.3272 H   0  0  0  0  0
   42.1434   11.0499   57.2511 H   0  0  0  0  0
   40.9398    9.9667   55.4259 H   0  0  0  0  0
   39.1749    9.7712   55.4707 H   0  0  0  0  0
   40.3052    7.6654   55.5972 H   0  0  0  0  0
   41.1256    8.1430   56.9667 H   0  0  0  0  0
   39.4699    7.9596   57.0087 H   0  0  0  0  0
  1  2  4  0  0  0
  1  6  4  0  0  0
  2  3  4  0  0  0
  3  4  4  0  0  0
  4  5  4  0  0  0
  5  6  4  0  0  0
  6  7  1  0  0  0
  7  8  2  0  0  0
  7  9  2  0  0  0
  7 10  1  0  0  0
 10 11  1  0  0  0
 11 12  1  0  0  0
 11 15  1  0  0  0
 12 13  1  0  0  0
 12 14  1  0  0  0
 15 16  2  0  0  0
 15 17  1  0  0  0
 15 18  1  0  0  0
 18 19  1  0  0  0
 19 20  1  0  0  0
 19 23  1  0  0  0
 20 21  2  0  0  0
 20 22  1  0  0  0
 23 24  4  0  0  0
 23 25  4  0  0  0
 24 28  4  0  0  0
 25 26  4  0  0  0
 26 27  4  0  0  0
 27 28  4  0  0  0
 28 29  1  0  0  0
 29 30  1  0  0  0
  1 31  1  0  0  0
  2 32  1  0  0  0
  3 33  1  0  0  0
  4 34  1  0  0  0
  5 35  1  0  0  0
 10 36  1  0  0  0
 11 37  1  0  0  0
 12 38  1  0  0  0
 13 39  1  0  0  0
 13 40  1  0  0  0
 13 41  1  0  0  0
 14 42  1  0  0  0
 14 43  1  0  0  0
 14 44  1  0  0  0
 17 45  1  0  0  0
 18 46  1  0  0  0
 18 47  1  0  0  0
 19 48  1  0  0  0
 22 49  1  0  0  0
 24 50  1  0  0  0
 25 51  1  0  0  0
 26 52  1  0  0  0
 27 53  1  0  0  0
 29 54  1  0  0  0
 29 55  1  0  0  0
 30 56  1  0  0  0
 30 57  1  0  0  0
 30 58  1  0  0  0
M  END
$$$$
