2qrq_ligand
  -I-interpret- 

 41 43  0  0  0  0  0  0  0  0999 V2000
   36.1830   24.3820   30.5880 C   0  0  0  0  0
   36.8720   24.8340   31.7180 C   0  0  0  0  0
   36.1690   25.1700   32.8760 C   0  0  0  0  0
   36.9190   25.6700   34.1180 C   0  0  0  0  0
   34.7840   25.0400   32.9140 C   0  0  0  0  0
   34.0970   24.5900   31.7840 C   0  0  0  0  0
   34.7930   24.2510   30.6210 C   0  0  0  0  0
   34.0920   23.8180   29.4920 C   0  0  0  0  0
   34.6730   23.1140   28.2650 C   0  0  0  0  0
   32.7880   23.9840   29.2900 N   0  0  0  0  0
   32.3570   23.4600   28.0260 O   0  0  0  0  0
   33.4330   22.6820   27.4820 C   0  0  0  0  0
   33.1850   21.2790   27.7170 O   0  0  0  0  0
   31.9990   20.7720   27.0420 C   0  0  0  0  0
   31.8590   19.3100   27.4690 C   0  0  0  0  0
   32.9300   18.5450   26.9100 O   0  0  0  0  0
   32.1420   20.9370   25.5180 C   0  0  0  0  0
   30.9640   20.4610   24.8430 O   0  0  0  0  0
   32.4090   22.4070   25.1530 C   0  0  0  0  0
   32.6890   22.5110   23.7530 O   0  0  0  0  0
   33.5950   22.9670   25.9670 C   0  0  0  0  0
   33.7220   24.3740   25.7390 O   0  0  0  0  0
   36.7318   24.1316   29.6801 H   0  0  0  0  0
   37.9580   24.9239   31.6944 H   0  0  0  0  0
   37.6200   24.9043   34.4503 H   0  0  0  0  0
   37.4644   26.5805   33.8695 H   0  0  0  0  0
   36.2035   25.8791   34.9132 H   0  0  0  0  0
   34.2366   25.2887   33.8232 H   0  0  0  0  0
   33.0108   24.5028   31.8098 H   0  0  0  0  0
   35.3141   22.2732   28.5299 H   0  0  0  0  0
   35.3301   23.7610   27.6838 H   0  0  0  0  0
   31.0993   21.3237   27.3144 H   0  0  0  0  0
   30.9071   18.9170   27.1120 H   0  0  0  0  0
   31.8948   19.2443   28.5564 H   0  0  0  0  0
   32.8408   17.6277   27.1788 H   0  0  0  0  0
   32.9933   20.3398   25.1911 H   0  0  0  0  0
   31.0724   20.5722   23.8957 H   0  0  0  0  0
   31.5209   22.9917   25.3927 H   0  0  0  0  0
   32.8552   23.4294   23.5284 H   0  0  0  0  0
   34.5010   22.4625   25.6311 H   0  0  0  0  0
   33.8215   24.5369   24.7982 H   0  0  0  0  0
  1  2  4  0  0  0
  1  7  4  0  0  0
  2  3  4  0  0  0
  3  4  1  0  0  0
  3  5  4  0  0  0
  5  6  4  0  0  0
  6  7  4  0  0  0
  7  8  1  0  0  0
  8  9  1  0  0  0
  8 10  2  0  0  0
  9 12  1  0  0  0
 10 11  1  0  0  0
 11 12  1  0  0  0
 12 13  1  0  0  0
 12 21  1  0  0  0
 13 14  1  0  0  0
 14 15  1  0  0  0
 14 17  1  0  0  0
 15 16  1  0  0  0
 17 18  1  0  0  0
 17 19  1  0  0  0
 19 20  1  0  0  0
 19 21  1  0  0  0
 21 22  1  0  0  0
  1 23  1  0  0  0
  2 24  1  0  0  0
  4 25  1  0  0  0
  4 26  1  0  0  0
  4 27  1  0  0  0
  5 28  1  0  0  0
  6 29  1  0  0  0
  9 30  1  0  0  0
  9 31  1  0  0  0
 14 32  1  0  0  0
 15 33  1  0  0  0
 15 34  1  0  0  0
 16 35  1  0  0  0
 17 36  1  0  0  0
 18 37  1  0  0  0
 19 38  1  0  0  0
 20 39  1  0  0  0
 21 40  1  0  0  0
 22 41  1  0  0  0
M  END
$$$$
