3c49_ligand
  -I-interpret- 

 50 53  0  0  0  0  0  0  0  0999 V2000
   23.8820   -4.0580    9.6090 C   0  0  0  0  0
   24.1480   -2.9670   10.6680 C   0  0  0  0  0
   24.1360   -1.5330   10.1480 C   0  0  0  0  0
   23.0770   -0.7550    9.4790 N   0  3  0  0  0
   22.6230   -1.3810    8.2200 C   0  0  0  0  0
   21.9520   -2.7220    8.4070 C   0  0  0  0  0
   22.5630   -3.8850    9.0150 N   0  0  0  0  0
   21.6680   -4.8580    9.2120 C   0  0  0  0  0
   20.5070   -4.7510    8.8080 O   0  0  0  0  0
   22.0380   -6.1120   10.0290 C   0  0  0  0  0
   20.9950   -6.4750   10.8740 C   0  0  0  0  0
   23.2850   -6.6960   10.2880 C   0  0  0  0  0
   24.3570   -6.4070    9.5260 F   0  0  0  0  0
   23.3890   -7.7910   11.1450 C   0  0  0  0  0
   22.3070   -8.1890   11.9100 C   0  0  0  0  0
   21.1030   -7.5260   11.7730 C   0  0  0  0  0
   19.9190   -7.9680   12.6340 C   0  0  0  0  0
   18.6070   -7.2990   12.2330 C   0  0  0  0  0
   17.6740   -7.9730   11.4690 C   0  0  0  0  0
   17.9390   -9.2680   11.0440 C   0  0  0  0  0
   17.0030   -9.9400   10.2700 C   0  0  0  0  0
   15.8080   -9.3160    9.9290 C   0  0  0  0  0
   15.5490   -8.0180   10.3590 C   0  0  0  0  0
   16.4890   -7.3500   11.1310 C   0  0  0  0  0
   16.2820   -6.0580   11.5870 C   0  0  0  0  0
   15.2440   -5.4520   11.3190 O   0  0  0  0  0
   17.2880   -5.4570   12.3630 N   0  0  0  0  0
   18.3380   -6.0460   12.6460 N   0  0  0  0  0
   23.9276   -5.0353   10.0895 H   0  0  0  0  0
   24.6354   -3.9805    8.8251 H   0  0  0  0  0
   25.1500   -3.1485   11.0568 H   0  0  0  0  0
   23.3424   -3.0397   11.3986 H   0  0  0  0  0
   24.8474   -1.6254    9.3273 H   0  0  0  0  0
   24.1989   -0.9910   11.0916 H   0  0  0  0  0
   23.4571    0.1643    9.2537 H   0  0  0  0  0
   22.2778   -0.7040   10.1107 H   0  0  0  0  0
   23.5068   -1.5450    7.6035 H   0  0  0  0  0
   21.8882   -0.7115    7.7728 H   0  0  0  0  0
   21.8040   -3.0509    7.3784 H   0  0  0  0  0
   21.1559   -2.4847    9.1127 H   0  0  0  0  0
   20.0611   -5.9148   10.8285 H   0  0  0  0  0
   24.3297   -8.3375   11.2128 H   0  0  0  0  0
   22.4036   -9.0165   12.6129 H   0  0  0  0  0
   20.1342   -7.6856   13.6645 H   0  0  0  0  0
   19.7968   -9.0432   12.5035 H   0  0  0  0  0
   18.8760   -9.7538   11.3164 H   0  0  0  0  0
   17.2045  -10.9558    9.9299 H   0  0  0  0  0
   15.0722   -9.8449    9.3233 H   0  0  0  0  0
   14.6127   -7.5286   10.0908 H   0  0  0  0  0
   17.1478   -4.5057   12.7033 H   0  0  0  0  0
  1  2  1  0  0  0
  1  7  1  0  0  0
  2  3  1  0  0  0
  3  4  1  0  0  0
  4  5  1  0  0  0
  5  6  1  0  0  0
  6  7  1  0  0  0
  7  8  1  0  0  0
  8  9  2  0  0  0
  8 10  1  0  0  0
 10 11  4  0  0  0
 10 12  4  0  0  0
 11 16  4  0  0  0
 12 13  1  0  0  0
 12 14  4  0  0  0
 14 15  4  0  0  0
 15 16  4  0  0  0
 16 17  1  0  0  0
 17 18  1  0  0  0
 18 19  1  0  0  0
 18 28  2  0  0  0
 19 20  4  0  0  0
 19 24  4  0  0  0
 20 21  4  0  0  0
 21 22  4  0  0  0
 22 23  4  0  0  0
 23 24  4  0  0  0
 24 25  1  0  0  0
 25 26  2  0  0  0
 25 27  1  0  0  0
 27 28  1  0  0  0
  1 29  1  0  0  0
  1 30  1  0  0  0
  2 31  1  0  0  0
  2 32  1  0  0  0
  3 33  1  0  0  0
  3 34  1  0  0  0
  4 35  1  0  0  0
  4 36  1  0  0  0
  5 37  1  0  0  0
  5 38  1  0  0  0
  6 39  1  0  0  0
  6 40  1  0  0  0
 11 41  1  0  0  0
 14 42  1  0  0  0
 15 43  1  0  0  0
 17 44  1  0  0  0
 17 45  1  0  0  0
 20 46  1  0  0  0
 21 47  1  0  0  0
 22 48  1  0  0  0
 23 49  1  0  0  0
 27 50  1  0  0  0
M  END
$$$$
