### 
### Created by X-TOOL on Mon Sep 10 21:13:03 2018
### 

@<TRIPOS>MOLECULE
2xdm_ligand
   36    35     1     0     0
SMALL
GAST_HUCK


@<TRIPOS>ATOM
      1 O1         63.8440   20.0370   34.5000 O.2       1 BO8        -0.3996
      2 C1         63.5790   20.1770   33.3060 C.2       1 BO8         0.1477
      3 N          62.5850   20.9420   32.8580 N.am      1 BO8        -0.4384
      4 CA         61.8080   21.5930   33.7270 C.3       1 BO8        -0.2293
      5 B          61.7630   23.0560   33.4660 B         1 BO8         3.0000
      6 OB1        61.4530   23.3040   31.9900 O.3       1 BO8        -0.8710
      7 OB2        63.0980   23.7490   33.7820 O.3       1 BO8        -0.8710
      8 CB         60.4230   20.9350   33.7040 C.3       1 BO8        -0.1731
      9 CA1        64.3860   19.4540   32.2510 C.3       1 BO8         0.0348
     10 CB1        63.4880   18.3390   31.7210 C.3       1 BO8        -0.0359
     11 CG1        64.2720   17.2760   30.9570 C.3       1 BO8        -0.0443
     12 CD1        63.3480   16.0990   30.6480 C.3       1 BO8         0.0025
     13 CE1        63.7840   15.2540   29.4570 C.3       1 BO8         0.0283
     14 NZ1        62.7830   14.2250   29.3150 N.4       1 BO8         0.2327
     15 CZ1        63.8290   16.0420   28.1750 C.2       1 BO8         0.0844
     16 O          64.9400   16.3830   27.7220 O.co2     1 BO8        -0.5643
     17 OH1        62.7610   16.3240   27.5870 O.co2     1 BO8        -0.5643
     18 H          62.4181   21.0301   31.8556 H         1 BO8         0.1459
     19 H          62.2270   21.5127   34.7300 H         1 BO8        -0.1825
     20 H          62.1573   22.9375   31.4503 H         1 BO8        -0.1290
     21 H          63.3188   23.6096   34.7058 H         1 BO8        -0.1290
     22 H          59.7939   21.3885   34.4700 H         1 BO8        -0.0100
     23 H          59.9683   21.0825   32.7244 H         1 BO8        -0.0100
     24 H          60.5258   19.8680   33.9014 H         1 BO8        -0.0100
     25 H          65.3089   19.0514   32.6684 H         1 BO8         0.0501
     26 H          64.6859   20.1316   31.4516 H         1 BO8         0.0501
     27 H          62.7661   18.7837   31.0360 H         1 BO8         0.0290
     28 H          63.0086   17.8576   32.5734 H         1 BO8         0.0290
     29 H          65.1116   16.9340   31.5621 H         1 BO8         0.0270
     30 H          64.6516   17.6983   30.0266 H         1 BO8         0.0270
     31 H          62.3701   16.5146   30.4051 H         1 BO8         0.0339
     32 H          63.3549   15.4481   31.5223 H         1 BO8         0.0339
     33 H          64.7880   14.8688   29.6351 H         1 BO8         0.1024
     34 H          63.0242   13.6241   28.5269 H         1 BO8         0.2010
     35 H          62.7454   13.6687   30.1691 H         1 BO8         0.2010
     36 H          61.8741   14.6571   29.1489 H         1 BO8         0.2010
@<TRIPOS>BOND
     1    1    2 2  
     2    2    3 am 
     3    2    9 1  
     4    3    4 1  
     5    4    5 1  
     6    4    8 1  
     7    5    6 1  
     8    5    7 1  
     9    9   10 1  
    10   10   11 1  
    11   11   12 1  
    12   12   13 1  
    13   13   14 1  
    14   13   15 1  
    15   15   16 ar 
    16   15   17 ar 
    17    3   18 1  
    18    4   19 1  
    19    6   20 1  
    20    7   21 1  
    21    8   22 1  
    22    8   23 1  
    23    8   24 1  
    24    9   25 1  
    25    9   26 1  
    26   10   27 1  
    27   10   28 1  
    28   11   29 1  
    29   11   30 1  
    30   12   31 1  
    31   12   32 1  
    32   13   33 1  
    33   14   34 1  
    34   14   35 1  
    35   14   36 1  
@<TRIPOS>SUBSTRUCTURE
     1 BO8         1

