2xdm_ligand
  -I-interpret- 

 37 36  0  0  0  0  0  0  0  0999 V2000
   63.8440   20.0370   34.5000 O   0  0  0  0  0
   63.5790   20.1770   33.3060 C   0  0  0  0  0
   62.5850   20.9420   32.8580 N   0  0  0  0  0
   61.8080   21.5930   33.7270 C   0  0  0  0  0
   61.7630   23.0560   33.4660 B   0  0  0  0  0
   61.4530   23.3040   31.9900 O   0  0  0  0  0
   63.0980   23.7490   33.7820 O   0  0  0  0  0
   60.4230   20.9350   33.7040 C   0  0  0  0  0
   64.3860   19.4540   32.2510 C   0  0  0  0  0
   63.4880   18.3390   31.7210 C   0  0  0  0  0
   64.2720   17.2760   30.9570 C   0  0  0  0  0
   63.3480   16.0990   30.6480 C   0  0  0  0  0
   63.7840   15.2540   29.4570 C   0  0  0  0  0
   62.7830   14.2250   29.3150 N   0  3  0  0  0
   63.8290   16.0420   28.1750 C   0  0  0  0  0
   64.9400   16.3830   27.7220 O   0  0  0  0  0
   62.7610   16.3240   27.5870 O   0  0  0  0  0
   62.4181   21.0301   31.8556 H   0  0  0  0  0
   62.2270   21.5127   34.7300 H   0  0  0  0  0
   60.6215   22.8811   31.7634 H   0  0  0  0  0
   63.3188   23.6096   34.7058 H   0  0  0  0  0
   59.7939   21.3885   34.4700 H   0  0  0  0  0
   59.9683   21.0825   32.7244 H   0  0  0  0  0
   60.5258   19.8680   33.9014 H   0  0  0  0  0
   65.3089   19.0514   32.6684 H   0  0  0  0  0
   64.6859   20.1316   31.4516 H   0  0  0  0  0
   62.7661   18.7837   31.0360 H   0  0  0  0  0
   63.0086   17.8576   32.5734 H   0  0  0  0  0
   65.1116   16.9340   31.5621 H   0  0  0  0  0
   64.6516   17.6983   30.0266 H   0  0  0  0  0
   62.3701   16.5146   30.4051 H   0  0  0  0  0
   63.3549   15.4481   31.5223 H   0  0  0  0  0
   64.7880   14.8688   29.6351 H   0  0  0  0  0
   63.0242   13.6241   28.5269 H   0  0  0  0  0
   62.7454   13.6687   30.1691 H   0  0  0  0  0
   61.8741   14.6571   29.1489 H   0  0  0  0  0
   62.0196   15.9775   28.0889 H   0  0  0  0  0
  1  2  2  0  0  0
  2  3  1  0  0  0
  2  9  1  0  0  0
  3  4  1  0  0  0
  4  5  1  0  0  0
  4  8  1  0  0  0
  5  6  1  0  0  0
  5  7  1  0  0  0
  9 10  1  0  0  0
 10 11  1  0  0  0
 11 12  1  0  0  0
 12 13  1  0  0  0
 13 14  1  0  0  0
 13 15  1  0  0  0
 15 16  2  0  0  0
 15 17  1  0  0  0
  3 18  1  0  0  0
  4 19  1  0  0  0
  6 20  1  0  0  0
  7 21  1  0  0  0
  8 22  1  0  0  0
  8 23  1  0  0  0
  8 24  1  0  0  0
  9 25  1  0  0  0
  9 26  1  0  0  0
 10 27  1  0  0  0
 10 28  1  0  0  0
 11 29  1  0  0  0
 11 30  1  0  0  0
 12 31  1  0  0  0
 12 32  1  0  0  0
 13 33  1  0  0  0
 14 34  1  0  0  0
 14 35  1  0  0  0
 14 36  1  0  0  0
 17 37  1  0  0  0
M  END
$$$$
