4jjs_ligand
  -I-interpret- 

 61 63  0  0  0  0  0  0  0  0999 V2000
  -27.0710   47.3740   55.3270 C   0  0  0  0  0
  -27.4580   47.7690   53.8720 C   0  0  0  0  0
  -28.1150   49.1690   53.7900 C   0  0  0  0  0
  -27.2200   50.2250   54.4610 C   0  0  0  0  0
  -26.8680   49.8560   55.9130 C   0  0  0  0  0
  -26.1780   48.4640   55.9750 C   0  0  0  0  0
  -25.8670   48.1260   57.4560 C   0  0  0  0  0
  -26.7700   47.7270   58.1870 O   0  0  0  0  0
  -24.2470   47.9710   59.3850 C   0  0  0  0  0
  -24.5320   48.2980   57.9310 N   0  0  0  0  0
  -23.4460   48.7730   57.0930 C   0  0  0  0  0
  -22.6080   47.9020   56.2760 C   0  0  0  0  0
  -21.5620   48.4760   55.5010 C   0  0  0  0  0
  -21.3380   49.8580   55.5280 C   0  0  0  0  0
  -22.1700   50.7180   56.3250 C   0  0  0  0  0
  -23.2030   50.1850   57.0980 C   0  0  0  0  0
  -22.8110   46.4450   56.2150 C   0  0  0  0  0
  -21.6420   45.7530   56.0390 O   0  0  0  0  0
  -23.8840   45.8660   56.3000 O   0  0  0  0  0
  -20.2890   50.3140   54.7550 O   0  0  0  0  0
  -19.4290   51.2720   55.2960 C   0  0  0  0  0
  -18.8310   51.1060   56.5970 C   0  0  0  0  0
  -17.9650   52.1010   57.1220 C   0  0  0  0  0
  -17.6680   53.2580   56.3550 C   0  0  0  0  0
  -18.2490   53.4330   55.0590 C   0  0  0  0  0
  -19.1350   52.4310   54.5050 C   0  0  0  0  0
  -19.7560   52.6000   53.1140 C   0  0  0  0  0
  -28.3700   49.6040   52.3320 C   0  0  0  0  0
  -22.9310   47.1980   59.7020 C   0  0  0  0  0
  -24.2860   49.2430   60.2430 C   0  0  0  0  0
  -19.4010   53.7750   52.4950 F   0  0  0  0  0
  -19.3660   51.6320   52.2650 F   0  0  0  0  0
  -21.1200   52.5250   53.0860 F   0  0  0  0  0
  -26.5169   46.4357   55.3007 H   0  0  0  0  0
  -27.9817   47.2696   55.9167 H   0  0  0  0  0
  -28.1792   47.0380   53.5064 H   0  0  0  0  0
  -26.5454   47.7912   53.2764 H   0  0  0  0  0
  -29.0710   49.0957   54.3084 H   0  0  0  0  0
  -27.7639   51.1695   54.4748 H   0  0  0  0  0
  -26.2912   50.2901   53.8943 H   0  0  0  0  0
  -27.7859   49.8205   56.4998 H   0  0  0  0  0
  -26.1845   50.6059   56.3112 H   0  0  0  0  0
  -25.2467   48.4930   55.4093 H   0  0  0  0  0
  -25.0480   47.2749   59.6337 H   0  0  0  0  0
  -20.9317   47.8366   54.8830 H   0  0  0  0  0
  -21.9930   51.7935   56.3257 H   0  0  0  0  0
  -23.8246   50.8429   57.7053 H   0  0  0  0  0
  -20.9090   46.3713   55.9950 H   0  0  0  0  0
  -19.0450   50.2111   57.1813 H   0  0  0  0  0
  -17.5286   51.9766   58.1131 H   0  0  0  0  0
  -16.9947   54.0162   56.7548 H   0  0  0  0  0
  -18.0221   54.3301   54.4829 H   0  0  0  0  0
  -28.8669   50.5741   52.3253 H   0  0  0  0  0
  -27.4190   49.6778   51.8046 H   0  0  0  0  0
  -29.0037   48.8663   51.8397 H   0  0  0  0  0
  -22.9417   46.2380   59.1859 H   0  0  0  0  0
  -22.0764   47.7842   59.3640 H   0  0  0  0  0
  -22.8579   47.0332   60.7770 H   0  0  0  0  0
  -23.5331   49.9449   59.8843 H   0  0  0  0  0
  -25.2735   49.6988   60.1701 H   0  0  0  0  0
  -24.0790   48.9855   61.2817 H   0  0  0  0  0
  1  2  1  0  0  0
  1  6  1  0  0  0
  2  3  1  0  0  0
  3  4  1  0  0  0
  3 28  1  0  0  0
  4  5  1  0  0  0
  5  6  1  0  0  0
  6  7  1  0  0  0
  7  8  2  0  0  0
  7 10  1  0  0  0
 10  9  1  0  0  0
  9 29  1  0  0  0
  9 30  1  0  0  0
 10 11  1  0  0  0
 11 12  4  0  0  0
 11 16  4  0  0  0
 12 13  4  0  0  0
 12 17  1  0  0  0
 13 14  4  0  0  0
 14 15  4  0  0  0
 14 20  1  0  0  0
 15 16  4  0  0  0
 17 18  1  0  0  0
 17 19  2  0  0  0
 20 21  1  0  0  0
 21 22  4  0  0  0
 21 26  4  0  0  0
 22 23  4  0  0  0
 23 24  4  0  0  0
 24 25  4  0  0  0
 25 26  4  0  0  0
 26 27  1  0  0  0
 27 31  1  0  0  0
 27 32  1  0  0  0
 27 33  1  0  0  0
  1 34  1  0  0  0
  1 35  1  0  0  0
  2 36  1  0  0  0
  2 37  1  0  0  0
  3 38  1  0  0  0
  4 39  1  0  0  0
  4 40  1  0  0  0
  5 41  1  0  0  0
  5 42  1  0  0  0
  6 43  1  0  0  0
  9 44  1  0  0  0
 13 45  1  0  0  0
 15 46  1  0  0  0
 16 47  1  0  0  0
 18 48  1  0  0  0
 22 49  1  0  0  0
 23 50  1  0  0  0
 24 51  1  0  0  0
 25 52  1  0  0  0
 28 53  1  0  0  0
 28 54  1  0  0  0
 28 55  1  0  0  0
 29 56  1  0  0  0
 29 57  1  0  0  0
 29 58  1  0  0  0
 30 59  1  0  0  0
 30 60  1  0  0  0
 30 61  1  0  0  0
M  END
$$$$
