5qaz_ligand
  -I-interpret- 

 28 30  0  0  0  0  0  0  0  0999 V2000
   99.2620  245.2160    4.4890 N   0  0  0  0  0
   95.8970  253.3960    5.5280 C   0  0  0  0  0
   96.8460  254.2100    5.6660 O   0  0  0  0  0
   95.9660  252.1130    6.3190 C   0  0  0  0  0
  100.5510  245.5110    4.8500 C   0  0  0  0  0
  100.5950  246.7230    5.4590 C   0  0  0  0  0
   99.2500  247.2260    5.4860 C   0  0  0  0  0
   98.6430  248.3830    5.9730 C   0  0  0  0  0
   96.5150  250.9670    5.7500 C   0  0  0  0  0
   95.5150  252.0660    7.6340 C   0  0  0  0  0
   95.6080  250.8910    8.3600 C   0  0  0  0  0
   96.1550  249.7570    7.7860 C   0  0  0  0  0
   96.6250  249.7780    6.4720 C   0  0  0  0  0
   97.2640  248.5750    5.8650 C   0  0  0  0  0
   96.4970  247.5850    5.2330 C   0  0  0  0  0
   97.0710  246.4240    4.7360 C   0  0  0  0  0
   98.4440  246.2540    4.8700 C   0  0  0  0  0
   94.8960  253.5870    4.7810 O   0  0  0  0  0
  101.4130  244.8675    4.6740 H   0  0  0  0  0
  101.4818  247.2198    5.8525 H   0  0  0  0  0
   99.2553  249.1507    6.4461 H   0  0  0  0  0
   96.8663  250.9993    4.7187 H   0  0  0  0  0
   95.0872  252.9568    8.0941 H   0  0  0  0  0
   95.2487  250.8590    9.3886 H   0  0  0  0  0
   96.2196  248.8368    8.3667 H   0  0  0  0  0
   95.4219  247.7318    5.1297 H   0  0  0  0  0
   96.4595  245.6627    4.2516 H   0  0  0  0  0
   94.3065  252.8315    4.8384 H   0  0  0  0  0
  1  5  4  0  0  0
 17  1  4  0  0  0
  2  3  2  0  0  0
  4  2  1  0  0  0
  2 18  1  0  0  0
  9  4  4  0  0  0
  4 10  4  0  0  0
  6  5  4  0  0  0
  7  6  4  0  0  0
  8  7  4  0  0  0
  7 17  4  0  0  0
 14  8  4  0  0  0
 13  9  4  0  0  0
 11 10  4  0  0  0
 12 11  4  0  0  0
 13 12  4  0  0  0
 13 14  1  0  0  0
 14 15  4  0  0  0
 15 16  4  0  0  0
 16 17  4  0  0  0
  5 19  1  0  0  0
  6 20  1  0  0  0
  8 21  1  0  0  0
  9 22  1  0  0  0
 10 23  1  0  0  0
 11 24  1  0  0  0
 12 25  1  0  0  0
 15 26  1  0  0  0
 16 27  1  0  0  0
 18 28  1  0  0  0
M  END
$$$$
