5trk_ligand
  -I-interpret- 

 50 52  0  0  0  0  0  0  0  0999 V2000
   23.9970    0.9160   17.3980 N   0  0  0  0  0
   23.6580   -0.4750   19.4430 C   0  0  0  0  0
   23.8950   -0.4220   17.9490 C   0  0  0  0  0
   24.1300    7.6200   14.8000 C   0  0  0  0  0
   24.1030    8.7170   13.7870 C   0  0  0  0  0
   24.5930    8.4990   12.5110 C   0  0  0  0  0
   24.3040    9.3780   11.4830 C   0  0  0  0  0
   23.5400   10.4920   11.7450 C   0  0  0  0  0
   23.0080    1.4800   16.6830 C   0  0  0  0  0
   21.5640    5.9630   10.3930 C   0  0  0  0  0
   23.1080   11.5690   10.4440 Cl  0  0  0  0  0
   23.3210    2.7540   15.9680 C   0  0  0  0  0
   22.7130    3.0080   14.7370 C   0  0  0  0  0
   22.8670    4.2480   14.1250 C   0  0  0  0  0
   23.6040    5.2530   14.7810 C   0  0  0  0  0
   24.2050    4.9990   16.0050 C   0  0  0  0  0
   24.0970    3.7440   16.5690 C   0  0  0  0  0
   22.3800    4.5280   12.8230 N   0  0  0  0  0
   21.0850    4.5040   12.4110 C   0  0  0  0  0
   20.8070    4.9780   11.0180 C   0  0  0  0  0
   20.1670    4.1140   13.1230 O   0  0  0  0  0
   21.8790    1.0010   16.5990 O   0  0  0  0  0
   24.0900   -1.6260   19.9890 O   0  0  0  0  0
   23.1410    0.4180   20.0860 O   0  0  0  0  0
   23.6860    6.4390   14.1060 O   0  0  0  0  0
   23.0900   10.7570   13.0090 C   0  0  0  0  0
   23.3920    9.8780   14.0290 C   0  0  0  0  0
   21.2520    6.3730    9.1080 C   0  0  0  0  0
   20.1830    5.8230    8.4380 C   0  0  0  0  0
   19.4090    4.8760    9.0540 C   0  0  0  0  0
   19.7180    4.4430   10.3320 C   0  0  0  0  0
   24.8515    1.4492   17.5591 H   0  0  0  0  0
   24.8486   -0.9156   17.7615 H   0  0  0  0  0
   23.0355   -0.8956   17.4746 H   0  0  0  0  0
   23.4867    7.8475   15.6500 H   0  0  0  0  0
   25.1291    7.4858   15.2147 H   0  0  0  0  0
   25.2136    7.6248   12.3141 H   0  0  0  0  0
   24.6774    9.1903   10.4763 H   0  0  0  0  0
   22.4066    6.4142   10.9171 H   0  0  0  0  0
   22.1167    2.2335   14.2546 H   0  0  0  0  0
   24.7589    5.7853   16.5180 H   0  0  0  0  0
   24.6254    3.5240   17.4966 H   0  0  0  0  0
   23.0767    4.7740   12.1198 H   0  0  0  0  0
   24.4619   -2.1847   19.3026 H   0  0  0  0  0
   22.5000   11.6516   13.2083 H   0  0  0  0  0
   23.0641   10.1030   15.0439 H   0  0  0  0  0
   21.8582    7.1380    8.6228 H   0  0  0  0  0
   19.9533    6.1400    7.4207 H   0  0  0  0  0
   18.5449    4.4609    8.5352 H   0  0  0  0  0
   19.1043    3.6770   10.8060 H   0  0  0  0  0
  1  3  1  0  0  0
  9  1  1  0  0  0
  3  2  1  0  0  0
  2 23  1  0  0  0
  2 24  2  0  0  0
  4  5  1  0  0  0
 25  4  1  0  0  0
  5  6  4  0  0  0
  5 27  4  0  0  0
  6  7  4  0  0  0
  7  8  4  0  0  0
  8 11  1  0  0  0
  8 26  4  0  0  0
 12  9  1  0  0  0
  9 22  2  0  0  0
 20 10  4  0  0  0
 10 28  4  0  0  0
 13 12  4  0  0  0
 12 17  4  0  0  0
 14 13  4  0  0  0
 14 15  4  0  0  0
 18 14  1  0  0  0
 15 16  4  0  0  0
 15 25  1  0  0  0
 16 17  4  0  0  0
 19 18  1  0  0  0
 19 20  1  0  0  0
 19 21  2  0  0  0
 20 31  4  0  0  0
 26 27  4  0  0  0
 28 29  4  0  0  0
 29 30  4  0  0  0
 30 31  4  0  0  0
  1 32  1  0  0  0
  3 33  1  0  0  0
  3 34  1  0  0  0
  4 35  1  0  0  0
  4 36  1  0  0  0
  6 37  1  0  0  0
  7 38  1  0  0  0
 10 39  1  0  0  0
 13 40  1  0  0  0
 16 41  1  0  0  0
 17 42  1  0  0  0
 18 43  1  0  0  0
 23 44  1  0  0  0
 26 45  1  0  0  0
 27 46  1  0  0  0
 28 47  1  0  0  0
 29 48  1  0  0  0
 30 49  1  0  0  0
 31 50  1  0  0  0
M  END
$$$$
