3ind_ligand
  -I-interpret- 

 49 53  0  0  0  0  0  0  0  0999 V2000
   16.2590   -4.1920   17.5680 C   0  0  0  0  0
   15.6120   -5.3650   16.9990 N   0  0  0  0  0
   14.8100   -6.3140   18.9480 O   0  0  0  0  0
   14.9550   -6.3110   17.7370 C   0  0  0  0  0
   15.0090   -6.8570   15.4540 N   0  0  0  0  0
   14.4230   -7.3640   16.7410 C   0  0  0  0  0
   16.3190   -5.0360   14.7640 N   0  0  0  0  0
   15.5610   -5.7040   15.6830 C   0  0  0  0  0
   14.9610   -8.7820   17.0190 C   0  0  0  0  0
   15.3160   -9.6540   15.9770 C   0  0  0  0  0
   15.8020  -10.9400   16.2310 C   0  0  0  0  0
   15.9450  -11.3890   17.5410 C   0  0  0  0  0
   15.6010  -10.5490   18.5930 C   0  0  0  0  0
   15.1140   -9.2630   18.3350 C   0  0  0  0  0
   12.8390   -7.2930   16.6110 C   0  0  0  0  0
   12.1320   -7.9440   17.8470 C   0  0  0  0  0
   10.5990   -7.8510   17.7390 C   0  0  0  0  0
   10.1800   -6.3760   17.6670 C   0  0  0  0  0
   10.8200   -5.7120   16.4390 C   0  0  0  0  0
   12.3510   -5.8080   16.5460 C   0  0  0  0  0
   10.3670   -6.4330   15.1620 C   0  0  0  0  0
   10.7720   -7.9110   15.2290 C   0  0  0  0  0
   10.1360   -8.5670   16.4630 C   0  0  0  0  0
   12.3050   -8.0130   15.3360 C   0  0  0  0  0
   17.3222   -4.2130   17.3286 H   0  0  0  0  0
   15.8089   -3.2916   17.1499 H   0  0  0  0  0
   16.1288   -4.1959   18.6502 H   0  0  0  0  0
   14.9785   -7.3364   14.5542 H   0  0  0  0  0
   16.9300   -4.2758   15.0626 H   0  0  0  0  0
   15.2100   -9.3200   14.9449 H   0  0  0  0  0
   16.0699  -11.5933   15.4006 H   0  0  0  0  0
   16.3238  -12.3915   17.7398 H   0  0  0  0  0
   15.7108  -10.8927   19.6216 H   0  0  0  0  0
   14.8465   -8.6177   19.1717 H   0  0  0  0  0
   12.4465   -7.4100   18.7437 H   0  0  0  0  0
   12.4106   -8.9970   17.8873 H   0  0  0  0  0
   10.1443   -8.3196   18.6118 H   0  0  0  0  0
   10.5134   -5.8625   18.5688 H   0  0  0  0  0
    9.0948   -6.3134   17.5857 H   0  0  0  0  0
   10.5126   -4.6670   16.3987 H   0  0  0  0  0
   12.7854   -5.3438   15.6606 H   0  0  0  0  0
   12.6619   -5.3056   17.4620 H   0  0  0  0  0
   10.8413   -5.9680   14.2978 H   0  0  0  0  0
    9.2832   -6.3598   15.0717 H   0  0  0  0  0
   10.4280   -8.4209   14.3292 H   0  0  0  0  0
    9.0510   -8.4957   16.3866 H   0  0  0  0  0
   10.4406   -9.6125   16.5091 H   0  0  0  0  0
   12.5772   -9.0668   15.3956 H   0  0  0  0  0
   12.7444   -7.5349   14.4605 H   0  0  0  0  0
  1  2  1  0  0  0
  2  4  1  0  0  0
  2  8  4  0  0  0
  4  3  2  0  0  0
  4  6  1  0  0  0
  6  5  1  0  0  0
  5  8  1  0  0  0
  6  9  1  0  0  0
  6 15  1  0  0  0
  8  7  2  0  0  0
  9 10  4  0  0  0
  9 14  4  0  0  0
 10 11  4  0  0  0
 11 12  4  0  0  0
 12 13  4  0  0  0
 13 14  4  0  0  0
 15 16  1  0  0  0
 15 20  1  0  0  0
 15 24  1  0  0  0
 16 17  1  0  0  0
 17 18  1  0  0  0
 17 23  1  0  0  0
 18 19  1  0  0  0
 19 20  1  0  0  0
 19 21  1  0  0  0
 21 22  1  0  0  0
 22 23  1  0  0  0
 22 24  1  0  0  0
  1 25  1  0  0  0
  1 26  1  0  0  0
  1 27  1  0  0  0
  5 28  1  0  0  0
  7 29  1  0  0  0
 10 30  1  0  0  0
 11 31  1  0  0  0
 12 32  1  0  0  0
 13 33  1  0  0  0
 14 34  1  0  0  0
 16 35  1  0  0  0
 16 36  1  0  0  0
 17 37  1  0  0  0
 18 38  1  0  0  0
 18 39  1  0  0  0
 19 40  1  0  0  0
 20 41  1  0  0  0
 20 42  1  0  0  0
 21 43  1  0  0  0
 21 44  1  0  0  0
 22 45  1  0  0  0
 23 46  1  0  0  0
 23 47  1  0  0  0
 24 48  1  0  0  0
 24 49  1  0  0  0
M  END
$$$$
