4z1q_ligand
  -I-interpret- 

 51 55  0  0  0  0  0  0  0  0999 V2000
  -19.5400  -63.2340  136.5830 C   0  0  0  0  0
  -20.3370  -64.0030  135.7350 C   0  0  0  0  0
  -21.7130  -64.0300  135.9400 C   0  0  0  0  0
  -22.4110  -64.7710  135.0900 N   0  0  0  0  0
  -22.2850  -63.3710  136.9810 N   0  0  0  0  0
  -21.4900  -62.5980  137.8820 C   0  0  0  0  0
  -20.0990  -62.5360  137.6820 C   0  0  0  0  0
  -19.2250  -61.8060  138.5210 C   0  0  0  0  0
  -17.9490  -61.4750  138.0270 C   0  0  0  0  0
  -17.0350  -60.7560  138.8310 C   0  0  0  0  0
  -19.5820  -61.4650  139.8280 C   0  0  0  0  0
  -18.6790  -60.7350  140.6480 C   0  0  0  0  0
  -17.3950  -60.3740  140.1380 C   0  0  0  0  0
  -16.4980  -59.7140  140.9320 N   0  0  0  0  0
  -16.5500  -58.6700  141.7070 C   0  0  0  0  0
  -17.8700  -57.9790  141.9030 C   0  0  0  0  0
  -15.3400  -58.4140  142.2860 N   0  0  0  0  0
  -14.5680  -59.2760  141.8150 N   0  0  0  0  0
  -15.1990  -60.0670  140.9900 C   0  0  0  0  0
  -14.6290  -61.1870  140.2620 C   0  0  0  0  0
  -13.2330  -61.5890  140.8310 C   0  0  0  0  0
  -14.5140  -60.8710  138.8040 C   0  0  0  0  0
  -15.8100  -60.4160  138.2590 N   0  0  0  0  0
  -15.7690  -59.7870  137.0540 C   0  0  0  0  0
  -16.8920  -59.1030  136.5170 C   0  0  0  0  0
  -16.8090  -58.4580  135.2890 C   0  0  0  0  0
  -15.6360  -58.4740  134.5330 C   0  0  0  0  0
  -15.5700  -57.6740  132.9830 Cl  0  0  0  0  0
  -14.5510  -59.1910  135.0180 C   0  0  0  0  0
  -14.5830  -59.8300  136.2540 C   0  0  0  0  0
  -18.4680  -63.1689  136.3969 H   0  0  0  0  0
  -19.8881  -64.5749  134.9229 H   0  0  0  0  0
  -21.9341  -65.2766  134.3435 H   0  0  0  0  0
  -23.4247  -64.8353  135.1828 H   0  0  0  0  0
  -21.9542  -62.0646  138.7115 H   0  0  0  0  0
  -17.6640  -61.7749  137.0186 H   0  0  0  0  0
  -20.5555  -61.7595  140.2200 H   0  0  0  0  0
  -18.9653  -60.4522  141.6610 H   0  0  0  0  0
  -18.2409  -57.6270  140.9404 H   0  0  0  0  0
  -18.5847  -58.6794  142.3351 H   0  0  0  0  0
  -17.7385  -57.1311  142.5752 H   0  0  0  0  0
  -15.3049  -62.0327  140.3886 H   0  0  0  0  0
  -12.5516  -60.7421  140.7504 H   0  0  0  0  0
  -13.3373  -61.8747  141.8777 H   0  0  0  0  0
  -12.8383  -62.4301  140.2611 H   0  0  0  0  0
  -14.2077  -61.7724  138.2732 H   0  0  0  0  0
  -13.7806  -60.0750  138.6747 H   0  0  0  0  0
  -17.8287  -59.0838  137.0740 H   0  0  0  0  0
  -17.6809  -57.9269  134.9071 H   0  0  0  0  0
  -13.6468  -59.2555  134.4127 H   0  0  0  0  0
  -13.7034  -60.3641  136.6133 H   0  0  0  0  0
  1  2  4  0  0  0
  1  7  4  0  0  0
  2  3  4  0  0  0
  3  4  1  0  0  0
  3  5  4  0  0  0
  5  6  4  0  0  0
  6  7  4  0  0  0
  7  8  1  0  0  0
  8  9  4  0  0  0
  8 11  4  0  0  0
  9 10  4  0  0  0
 10 13  4  0  0  0
 10 23  1  0  0  0
 11 12  4  0  0  0
 12 13  4  0  0  0
 13 14  1  0  0  0
 14 15  4  0  0  0
 14 19  4  0  0  0
 15 16  1  0  0  0
 15 17  4  0  0  0
 17 18  4  0  0  0
 18 19  4  0  0  0
 19 20  1  0  0  0
 20 21  1  0  0  0
 20 22  1  0  0  0
 22 23  1  0  0  0
 23 24  1  0  0  0
 24 25  4  0  0  0
 24 30  4  0  0  0
 25 26  4  0  0  0
 26 27  4  0  0  0
 27 28  1  0  0  0
 27 29  4  0  0  0
 29 30  4  0  0  0
  1 31  1  0  0  0
  2 32  1  0  0  0
  4 33  1  0  0  0
  4 34  1  0  0  0
  6 35  1  0  0  0
  9 36  1  0  0  0
 11 37  1  0  0  0
 12 38  1  0  0  0
 16 39  1  0  0  0
 16 40  1  0  0  0
 16 41  1  0  0  0
 20 42  1  0  0  0
 21 43  1  0  0  0
 21 44  1  0  0  0
 21 45  1  0  0  0
 22 46  1  0  0  0
 22 47  1  0  0  0
 25 48  1  0  0  0
 26 49  1  0  0  0
 29 50  1  0  0  0
 30 51  1  0  0  0
M  END
$$$$
