6di1_ligand
  -I-interpret- 

 36 37  0  0  0  0  0  0  0  0999 V2000
  -14.7320   -6.7100   -1.7980 C   0  0  0  0  0
  -16.1300   -5.7140   -0.2400 C   0  0  0  0  0
  -16.9950   -5.4500   -1.2900 C   0  0  0  0  0
  -16.6240   -5.8100   -2.5950 C   0  0  0  0  0
  -11.8950  -13.4210   -0.3060 C   0  0  0  0  0
  -11.8600  -12.3360   -1.2350 C   0  0  0  0  0
  -11.4550  -10.9660   -1.0910 C   0  0  0  0  0
  -10.4420  -10.7120   -0.3820 O   0  0  0  0  0
  -12.0480  -10.0060   -1.8140 N   0  0  0  0  0
  -11.5880   -8.6060   -1.7840 C   0  0  0  0  0
  -12.6290   -7.7210   -1.0130 C   0  0  0  0  0
  -11.6340   -8.0630   -3.2430 C   0  0  0  0  0
  -13.1640   -7.7580   -3.4790 C   0  0  0  0  0
  -13.6030   -7.3460   -2.0710 N   0  0  0  0  0
  -14.9400   -6.3480   -0.5320 N   0  0  0  0  0
  -16.3730   -5.4470    1.0320 N   0  0  0  0  0
  -15.4420   -6.4360   -2.8000 N   0  0  0  0  0
  -18.3440   -4.7470   -1.1040 C   0  0  0  0  0
  -18.4690   -4.1450   -0.0580 O   0  0  0  0  0
  -19.2020   -4.8400   -2.0830 N   0  0  0  0  0
  -17.2817   -5.5874   -3.4352 H   0  0  0  0  0
  -11.5720  -13.2675    0.7237 H   0  0  0  0  0
  -12.2447  -14.4022   -0.6269 H   0  0  0  0  0
  -12.2036  -12.5958   -2.2362 H   0  0  0  0  0
  -12.8430  -10.2520   -2.4038 H   0  0  0  0  0
  -10.5995   -8.5695   -1.3260 H   0  0  0  0  0
  -12.1726   -6.8545   -0.5345 H   0  0  0  0  0
  -13.0943   -8.2477   -0.1798 H   0  0  0  0  0
  -11.2353   -8.7755   -3.9651 H   0  0  0  0  0
  -11.0079   -7.1812   -3.3789 H   0  0  0  0  0
  -13.7232   -8.6008   -3.8854 H   0  0  0  0  0
  -13.3493   -6.9978   -4.2379 H   0  0  0  0  0
  -17.2554   -5.0126    1.3024 H   0  0  0  0  0
  -15.6781   -5.6754    1.7428 H   0  0  0  0  0
  -20.1048   -4.3699   -2.0164 H   0  0  0  0  0
  -18.9698   -5.3828   -2.9148 H   0  0  0  0  0
 14  1  1  0  0  0
  1 15  4  0  0  0
  1 17  4  0  0  0
  2  3  4  0  0  0
 15  2  4  0  0  0
  2 16  1  0  0  0
  4  3  4  0  0  0
  3 18  1  0  0  0
 17  4  4  0  0  0
  6  5  2  0  0  0
  7  6  1  0  0  0
  7  8  2  0  0  0
  9  7  1  0  0  0
 10  9  1  0  0  0
 11 10  1  0  0  0
 10 12  1  0  0  0
 11 14  1  0  0  0
 12 13  1  0  0  0
 13 14  1  0  0  0
 18 19  2  0  0  0
 18 20  1  0  0  0
  4 21  1  0  0  0
  5 22  1  0  0  0
  5 23  1  0  0  0
  6 24  1  0  0  0
  9 25  1  0  0  0
 10 26  1  0  0  0
 11 27  1  0  0  0
 11 28  1  0  0  0
 12 29  1  0  0  0
 12 30  1  0  0  0
 13 31  1  0  0  0
 13 32  1  0  0  0
 16 33  1  0  0  0
 16 34  1  0  0  0
 20 35  1  0  0  0
 20 36  1  0  0  0
M  END
$$$$
