### 
### Created by X-TOOL on Mon Sep 10 21:13:29 2018
### 

@<TRIPOS>MOLECULE
5a3r_ligand
   61    65     1     0     0
SMALL
GAST_HUCK


@<TRIPOS>ATOM
      1 N1          1.1950    0.8840   14.1120 N.ar      1 DL5        -0.2698
      2 C2          2.4910    1.2310   13.8100 C.ar      1 DL5         0.0533
      3 N3          2.8320    2.5350   13.5290 N.ar      1 DL5        -0.2714
      4 C4          1.9240    3.6040   13.5230 C.ar      1 DL5         0.1613
      5 C5          0.5990    3.2870   13.8250 C.ar      1 DL5         0.1045
      6 C6          0.2140    1.9280   14.1220 C.ar      1 DL5         0.1298
      7 N6         -1.0750    1.6540   14.4120 N.pl3     1 DL5        -0.3152
      8 N7         -0.1690    4.3820   13.7870 N.2       1 DL5        -0.2958
      9 C8          0.6540    5.3350   13.4740 C.2       1 DL5         0.1123
     10 N9          1.9480    4.9540   13.2920 N.pl3     1 DL5        -0.1920
     11 PA         -0.5740    7.7650   10.2820 P.3       1 DL5         0.2952
     12 PB         -2.9680    6.5500   11.7680 P.3       1 DL5         0.1787
     13 PG         -4.0910    3.7210   11.8100 P.3       1 DL5         0.0781
     14 C01        -3.2920    5.0290   12.6920 C.3       1 DL5         0.1130
     15 C1'         3.1880    5.7270   12.9320 C.3       1 DL5         0.1996
     16 O1A         0.2030    7.4670    8.9340 O.co2     1 DL5        -0.6125
     17 O1B        -2.6800    7.5910   12.6860 O.co2     1 DL5        -0.6143
     18 C1F         5.7510    6.4060   10.7640 C.3       1 DL5         0.2110
     19 O1G        -5.0340    4.2270   10.6220 O.co2     1 DL5        -0.5611
     20 C2'         3.6490    5.6650   11.4440 C.3       1 DL5         0.1251
     21 O2'         5.0270    5.1960   11.3890 O.3       1 DL5        -0.4054
     22 O2A        -1.4710    8.9840   10.2500 O.co2     1 DL5        -0.6125
     23 O2B        -4.1540    6.8530   11.1130 O.co2     1 DL5        -0.6143
     24 C2F         6.4410    5.8040    9.4970 C.2       1 DL5         0.2069
     25 N2F         5.7140    5.1810    8.4020 N.2       1 DL5         0.3015
     26 O2F         6.2370    4.7130    7.4350 O.2       1 DL5         0.1726
     27 O2G        -5.0450    3.0200   12.8830 O.co2     1 DL5        -0.5611
     28 C3'         3.5160    7.1370   10.8490 C.3       1 DL5         0.1010
     29 O3'         4.8390    7.5900   10.4400 O.3       1 DL5        -0.4077
     30 O3A        -1.5920    6.5800   10.7430 O.3       1 DL5        -0.1584
     31 C3F         7.8450    5.8250    9.3490 C.2       1 DL5         0.0587
     32 O3F         4.4930    5.0930    8.3980 O.2       1 DL5         0.1726
     33 O3G        -3.2010    2.7270   11.2370 O.co2     1 DL5        -0.5611
     34 C4'         3.0080    8.0440   11.8570 C.3       1 DL5         0.1175
     35 O4'         2.8740    7.0860   12.9810 O.3       1 DL5        -0.3365
     36 C4F         8.7890    6.3480   10.2260 C.2       1 DL5         0.2783
     37 N4F        10.1210    6.3470   10.0470 N.2       1 DL5         0.3272
     38 O4F        10.9190    6.8210   10.8490 O.2       1 DL5         0.1744
     39 C5'         1.5360    8.7050   11.7470 C.3       1 DL5         0.1127
     40 O5'         0.5380    7.6740   11.5180 O.3       1 DL5        -0.2475
     41 C5F         8.2640    6.9290   11.4110 C.2       1 DL5         0.0740
     42 O5F        10.6320    5.8650    9.0550 O.2       1 DL5         0.1744
     43 C6F         6.7990    7.0190   11.7650 C.3       1 DL5         0.2630
     44 N6F         6.5920    7.6760   13.0670 N.2       1 DL5         0.3140
     45 O6F         7.5750    8.0850   13.7200 O.2       1 DL5         0.1908
     46 O7F         5.5590    7.8830   13.6030 O.2       1 DL5         0.1908
     47 H1          3.2574    0.4646   13.7929 H         1 DL5         0.0996
     48 H2         -1.7738    2.4106   14.4169 H         1 DL5         0.1820
     49 H3         -1.3601    0.6882   14.6284 H         1 DL5         0.1820
     50 H4          0.3314    6.3693   13.3644 H         1 DL5         0.1349
     51 H5         -3.9281    5.2894   13.5508 H         1 DL5         0.0680
     52 H6         -2.3263    4.6462   13.0537 H         1 DL5         0.0680
     53 H7          4.0041    5.4460   13.6139 H         1 DL5         0.0995
     54 H8          3.0066    4.9756   10.8765 H         1 DL5         0.0661
     55 H9          2.8366    7.1272    9.9839 H         1 DL5         0.0633
     56 H10         8.2363    5.3770    8.4368 H         1 DL5         0.1304
     57 H11         3.7427    8.8415   12.0418 H         1 DL5         0.0650
     58 H12         1.5198    9.4184   10.9099 H         1 DL5         0.0648
     59 H13         1.3041    9.2333   12.6836 H         1 DL5         0.0648
     60 H14         8.9766    7.3435   12.1226 H         1 DL5         0.1572
     61 H15         6.6848    7.9875   11.2562 H         1 DL5         0.0988
@<TRIPOS>BOND
     1    2    1 ar 
     2    6    1 ar 
     3    3    2 ar 
     4    4    3 ar 
     5    4    5 ar 
     6   10    4 1  
     7    5    6 ar 
     8    8    5 1  
     9    6    7 1  
    10    9    8 2  
    11   10    9 1  
    12   15   10 1  
    13   11   16 ar 
    14   11   22 ar 
    15   11   30 1  
    16   40   11 1  
    17   12   14 1  
    18   12   17 ar 
    19   12   23 ar 
    20   30   12 1  
    21   14   13 1  
    22   13   19 ar 
    23   13   27 ar 
    24   13   33 ar 
    25   15   20 1  
    26   35   15 1  
    27   18   21 1  
    28   18   24 1  
    29   29   18 1  
    30   18   43 1  
    31   20   21 1  
    32   28   20 1  
    33   24   25 1  
    34   24   31 2  
    35   25   26 2  
    36   25   32 2  
    37   28   29 1  
    38   34   28 1  
    39   31   36 1  
    40   34   35 1  
    41   39   34 1  
    42   36   37 1  
    43   36   41 2  
    44   37   38 2  
    45   37   42 2  
    46   39   40 1  
    47   41   43 1  
    48   43   44 1  
    49   44   45 2  
    50   44   46 2  
    51    2   47 1  
    52    7   48 1  
    53    7   49 1  
    54    9   50 1  
    55   14   51 1  
    56   14   52 1  
    57   15   53 1  
    58   20   54 1  
    59   28   55 1  
    60   31   56 1  
    61   34   57 1  
    62   39   58 1  
    63   39   59 1  
    64   41   60 1  
    65   43   61 1  
@<TRIPOS>SUBSTRUCTURE
     1 DL5         1

