5a3r_ligand
  -I-interpret- 

 65 69  0  0  0  0  0  0  0  0999 V2000
    1.1950    0.8840   14.1120 N   0  0  0  0  0
    2.4910    1.2310   13.8100 C   0  0  0  0  0
    2.8320    2.5350   13.5290 N   0  0  0  0  0
    1.9240    3.6040   13.5230 C   0  0  0  0  0
    0.5990    3.2870   13.8250 C   0  0  0  0  0
    0.2140    1.9280   14.1220 C   0  0  0  0  0
   -1.0750    1.6540   14.4120 N   0  0  0  0  0
   -0.1690    4.3820   13.7870 N   0  0  0  0  0
    0.6540    5.3350   13.4740 C   0  0  0  0  0
    1.9480    4.9540   13.2920 N   0  0  0  0  0
   -0.5740    7.7650   10.2820 P   0  0  0  0  0
   -2.9680    6.5500   11.7680 P   0  0  0  0  0
   -4.0910    3.7210   11.8100 P   0  0  0  0  0
   -3.2920    5.0290   12.6920 C   0  0  0  0  0
    3.1880    5.7270   12.9320 C   0  0  0  0  0
    0.2030    7.4670    8.9340 O   0  0  0  0  0
   -2.6800    7.5910   12.6860 O   0  0  0  0  0
    5.7510    6.4060   10.7640 C   0  0  0  0  0
   -5.0340    4.2270   10.6220 O   0  0  0  0  0
    3.6490    5.6650   11.4440 C   0  0  0  0  0
    5.0270    5.1960   11.3890 O   0  0  0  0  0
   -1.4710    8.9840   10.2500 O   0  0  0  0  0
   -4.1540    6.8530   11.1130 O   0  0  0  0  0
    6.4410    5.8040    9.4970 C   0  0  0  0  0
    5.7140    5.1810    8.4020 N   0  0  0  0  0
    6.2370    4.7130    7.4350 O   0  0  0  0  0
   -5.0450    3.0200   12.8830 O   0  0  0  0  0
    3.5160    7.1370   10.8490 C   0  0  0  0  0
    4.8390    7.5900   10.4400 O   0  0  0  0  0
   -1.5920    6.5800   10.7430 O   0  0  0  0  0
    7.8450    5.8250    9.3490 C   0  0  0  0  0
    4.4930    5.0930    8.3980 O   0  0  0  0  0
   -3.2010    2.7270   11.2370 O   0  0  0  0  0
    3.0080    8.0440   11.8570 C   0  0  0  0  0
    2.8740    7.0860   12.9810 O   0  0  0  0  0
    8.7890    6.3480   10.2260 C   0  0  0  0  0
   10.1210    6.3470   10.0470 N   0  0  0  0  0
   10.9190    6.8210   10.8490 O   0  0  0  0  0
    1.5360    8.7050   11.7470 C   0  0  0  0  0
    0.5380    7.6740   11.5180 O   0  0  0  0  0
    8.2640    6.9290   11.4110 C   0  0  0  0  0
   10.6320    5.8650    9.0550 O   0  0  0  0  0
    6.7990    7.0190   11.7650 C   0  0  0  0  0
    6.5920    7.6760   13.0670 N   0  0  0  0  0
    7.5750    8.0850   13.7200 O   0  0  0  0  0
    5.5590    7.8830   13.6030 O   0  0  0  0  0
    3.2616    0.4603   13.7928 H   0  0  0  0  0
   -1.3573    0.6976   14.6263 H   0  0  0  0  0
   -1.7670    2.4033   14.4169 H   0  0  0  0  0
    0.3311    6.3703   13.3643 H   0  0  0  0  0
   -3.9704    5.3060   13.4989 H   0  0  0  0  0
   -2.3163    4.6417   12.9855 H   0  0  0  0  0
    3.9355    5.3099   13.6069 H   0  0  0  0  0
    0.7439    6.6816    9.0446 H   0  0  0  0  0
   -1.8610    7.3930   13.1460 H   0  0  0  0  0
   -5.6423    4.8894   10.9578 H   0  0  0  0  0
    3.0397    4.9752   10.8600 H   0  0  0  0  0
   -5.6341    3.6761   13.2627 H   0  0  0  0  0
    2.8289    7.1226   10.0030 H   0  0  0  0  0
    8.2367    5.3766    8.4360 H   0  0  0  0  0
    3.6632    8.9151   11.8632 H   0  0  0  0  0
    1.5217    9.4066   10.9129 H   0  0  0  0  0
    1.3069    9.2223   12.6787 H   0  0  0  0  0
    8.9772    7.3439   12.1232 H   0  0  0  0  0
    5.7128    7.0398   11.6767 H   0  0  0  0  0
  2  1  4  0  0  0
  6  1  4  0  0  0
  3  2  4  0  0  0
  4  3  4  0  0  0
  4  5  4  0  0  0
 10  4  4  0  0  0
  5  6  4  0  0  0
  8  5  4  0  0  0
  6  7  1  0  0  0
  9  8  4  0  0  0
 10  9  4  0  0  0
 15 10  1  0  0  0
 11 16  1  0  0  0
 11 22  2  0  0  0
 11 30  1  0  0  0
 40 11  1  0  0  0
 12 14  1  0  0  0
 12 17  1  0  0  0
 12 23  2  0  0  0
 30 12  1  0  0  0
 14 13  1  0  0  0
 13 19  1  0  0  0
 13 27  1  0  0  0
 13 33  2  0  0  0
 15 20  1  0  0  0
 35 15  1  0  0  0
 18 21  1  0  0  0
 18 24  1  0  0  0
 29 18  1  0  0  0
 18 43  1  0  0  0
 20 21  1  0  0  0
 28 20  1  0  0  0
 24 25  1  0  0  0
 24 31  2  0  0  0
 25 26  2  0  0  0
 25 32  2  0  0  0
 28 29  1  0  0  0
 34 28  1  0  0  0
 31 36  1  0  0  0
 34 35  1  0  0  0
 39 34  1  0  0  0
 36 37  1  0  0  0
 36 41  2  0  0  0
 37 38  2  0  0  0
 37 42  2  0  0  0
 39 40  1  0  0  0
 41 43  1  0  0  0
 43 44  1  0  0  0
 44 45  2  0  0  0
 44 46  2  0  0  0
  2 47  1  0  0  0
  7 48  1  0  0  0
  7 49  1  0  0  0
  9 50  1  0  0  0
 14 51  1  0  0  0
 14 52  1  0  0  0
 15 53  1  0  0  0
 16 54  1  0  0  0
 17 55  1  0  0  0
 19 56  1  0  0  0
 20 57  1  0  0  0
 27 58  1  0  0  0
 28 59  1  0  0  0
 31 60  1  0  0  0
 34 61  1  0  0  0
 39 62  1  0  0  0
 39 63  1  0  0  0
 41 64  1  0  0  0
 43 65  1  0  0  0
M  END
$$$$
