### 
### Created by X-TOOL on Mon Aug  2 16:17:05 2021
### 

@<TRIPOS>MOLECULE
6iiw_ligand
  101   100     1     0     0
SMALL
GAST_HUCK


@<TRIPOS>ATOM
      1 N          -6.9470  -15.7220  -12.9730 N.4       1 VAL         0.2381
      2 CA         -7.2560  -14.6190  -12.0710 C.3       1 VAL         0.0673
      3 C          -8.6050  -14.0250  -12.4360 C.2       1 VAL         0.2270
      4 O          -9.0560  -14.1220  -13.5740 O.2       1 VAL        -0.3907
      5 CB         -6.1660  -13.5360  -12.0940 C.3       1 VAL         0.0139
      6 CG1        -4.8100  -14.1360  -11.7740 C.3       1 VAL        -0.0553
      7 CG2        -6.1380  -12.8400  -13.4370 C.3       1 VAL        -0.0553
      8 N          -9.2740  -13.4570  -11.4340 N.am      1 VAL        -0.2610
      9 CA        -10.5180  -12.7370  -11.6640 C.3       1 VAL         0.1312
     10 C         -10.2000  -11.3110  -12.0850 C.2       1 VAL         0.2040
     11 O          -9.2860  -10.6870  -11.5460 O.2       1 VAL        -0.3944
     12 CB        -11.3720  -12.7080  -10.3920 C.3       1 VAL        -0.0092
     13 CG        -11.8210  -14.0730   -9.9160 C.3       1 VAL        -0.0156
     14 CD        -12.4690  -13.9910   -8.5370 C.3       1 VAL         0.0627
     15 NE        -11.5840  -13.3680   -7.5600 N.pl3     1 VAL        -0.2723
     16 CZ        -11.8820  -12.2750   -6.8630 C.cat     1 VAL         0.2882
     17 NH1       -11.0050  -11.7870   -6.0020 N.pl3     1 VAL        -0.2849
     18 NH2       -13.0550  -11.6720   -7.0210 N.pl3     1 VAL        -0.2849
     19 N         -10.9550  -10.7910  -13.0500 N.am      1 VAL        -0.2613
     20 CA        -10.8730   -9.3760  -13.3840 C.3       1 VAL         0.1565
     21 C         -12.2150   -8.7150  -13.1110 C.2       1 VAL         0.2065
     22 O         -13.2330   -9.3790  -12.9120 O.2       1 VAL        -0.3943
     23 CB        -10.4760   -9.1400  -14.8520 C.3       1 VAL         0.0924
     24 OG1       -11.5630   -9.4980  -15.7140 O.3       1 VAL        -0.3874
     25 CG2        -9.2690   -9.9780  -15.2250 C.3       1 VAL        -0.0346
     26 N         -12.2020   -7.3830  -13.0980 N.am      1 VAL        -0.2637
     27 CA        -13.4450   -6.6490  -12.9090 C.3       1 VAL         0.1310
     28 C         -14.4390   -6.9430  -14.0230 C.2       1 VAL         0.2039
     29 O         -15.6480   -6.8140  -13.8090 O.2       1 VAL        -0.3944
     30 CB        -13.1530   -5.1510  -12.8270 C.3       1 VAL        -0.0122
     31 CG        -14.3770   -4.2880  -12.5690 C.3       1 VAL        -0.0440
     32 CD        -14.9600   -4.5150  -11.1810 C.3       1 VAL        -0.0124
     33 CE        -14.1130   -3.8760  -10.1040 C.3       1 VAL        -0.0354
     34 NZ        -14.8360   -3.8540   -8.8110 N.4       1 VAL         0.2185
     35 N         -13.9580   -7.3560  -15.1980 N.am      1 VAL        -0.2640
     36 CA        -14.8460   -7.6880  -16.3060 C.3       1 VAL         0.1282
     37 C         -15.6650   -8.9500  -16.0650 C.2       1 VAL         0.2031
     38 O         -16.6250   -9.1950  -16.8070 O.2       1 VAL        -0.3944
     39 CB        -14.0390   -7.8500  -17.5990 C.3       1 VAL        -0.0244
     40 N         -15.3140   -9.7540  -15.0660 N.am      1 VAL        -0.2679
     41 CA        -16.0060  -11.0150  -14.8170 C.3       1 VAL         0.1057
     42 C         -17.2970  -10.8240  -14.0120 C.2       1 VAL         0.0618
     43 O         -17.4140   -9.9050  -13.1940 O.co2     1 VAL        -0.5665
     44 CB        -15.0710  -11.9940  -14.0950 C.3       1 VAL         0.0351
     45 CG        -13.8430  -12.3540  -14.9230 C.2       1 VAL         0.0387
     46 OD1       -13.9510  -12.4320  -16.1700 O.co2     1 VAL        -0.5688
     47 OD2       -12.7710  -12.5810  -14.3270 O.co2     1 VAL        -0.5688
     48 OXT       -18.2620  -11.5830  -14.1550 O.co2     1 VAL        -0.5665
     49 H1         -7.6836  -16.4087  -12.9287 H         1 VAL         0.2015
     50 H2         -6.0750  -16.1465  -12.6983 H         1 VAL         0.2015
     51 H3         -6.8688  -15.3735  -13.9156 H         1 VAL         0.2015
     52 H4         -7.3166  -15.0187  -11.0480 H         1 VAL         0.1101
     53 H5         -6.4041  -12.7891  -11.3224 H         1 VAL         0.0376
     54 H6         -4.0451  -13.3458  -11.7956 H         1 VAL         0.0236
     55 H7         -4.5638  -14.9050  -12.5210 H         1 VAL         0.0236
     56 H8         -4.8377  -14.5922  -10.7735 H         1 VAL         0.0236
     57 H9         -7.1292  -12.4128  -13.6493 H         1 VAL         0.0236
     58 H10        -5.8761  -13.5659  -14.2208 H         1 VAL         0.0236
     59 H11        -5.3884  -12.0352  -13.4174 H         1 VAL         0.0236
     60 H12        -8.9139  -13.5267  -10.5037 H         1 VAL         0.1884
     61 H13       -11.0815  -13.2380  -12.4649 H         1 VAL         0.0800
     62 H14       -12.2670  -12.1003  -10.5909 H         1 VAL         0.0313
     63 H15       -10.7817  -12.2400   -9.5905 H         1 VAL         0.0313
     64 H16       -10.9477  -14.7397   -9.8629 H         1 VAL         0.0301
     65 H17       -12.5504  -14.4805  -10.6315 H         1 VAL         0.0301
     66 H18       -12.7144  -15.0081   -8.1976 H         1 VAL         0.0689
     67 H19       -13.3916  -13.3968   -8.6117 H         1 VAL         0.0689
     68 H20       -10.6650  -13.8042   -7.3985 H         1 VAL         0.2642
     69 H21       -11.2314  -10.9409   -5.4601 H         1 VAL         0.2615
     70 H22       -10.0955  -12.2530   -5.8733 H         1 VAL         0.2615
     71 H23       -13.7415  -12.0483   -7.6904 H         1 VAL         0.2615
     72 H24       -13.2781  -10.8282   -6.4741 H         1 VAL         0.2615
     73 H25       -11.5874  -11.3803  -13.5527 H         1 VAL         0.1884
     74 H26       -10.1099   -8.9129  -12.7412 H         1 VAL         0.0826
     75 H27       -10.2348   -8.0758  -14.9904 H         1 VAL         0.0639
     76 H28       -11.3110   -9.3498  -16.6178 H         1 VAL         0.2101
     77 H29        -9.0048   -9.7926  -16.2766 H         1 VAL         0.0257
     78 H30        -9.5061  -11.0435  -15.0889 H         1 VAL         0.0257
     79 H31        -8.4203   -9.7060  -14.5803 H         1 VAL         0.0257
     80 H32       -11.3410   -6.8887  -13.2177 H         1 VAL         0.1883
     81 H33       -13.8937   -6.9688  -11.9570 H         1 VAL         0.0800
     82 H34       -12.7035   -4.8350  -13.7800 H         1 VAL         0.0312
     83 H35       -12.4356   -4.9841  -12.0100 H         1 VAL         0.0312
     84 H36       -15.1446   -4.5290  -13.3191 H         1 VAL         0.0269
     85 H37       -14.0908   -3.2302  -12.6640 H         1 VAL         0.0269
     86 H38       -15.0188   -5.5971  -10.9923 H         1 VAL         0.0317
     87 H39       -15.9700   -4.0808  -11.1438 H         1 VAL         0.0317
     88 H40       -13.8712   -2.8445  -10.3997 H         1 VAL         0.0813
     89 H41       -13.1829   -4.4516   -9.9875 H         1 VAL         0.0813
     90 H42       -14.2546   -3.4248   -8.1083 H         1 VAL         0.1994
     91 H43       -15.0572   -4.7975   -8.5336 H         1 VAL         0.1994
     92 H44       -15.6880   -3.3247   -8.9114 H         1 VAL         0.1994
     93 H45       -12.9691   -7.4393  -15.3207 H         1 VAL         0.1883
     94 H46       -15.5471   -6.8502  -16.4349 H         1 VAL         0.0797
     95 H47       -14.7190   -8.1000  -18.4267 H         1 VAL         0.0277
     96 H48       -13.3026   -8.6573  -17.4729 H         1 VAL         0.0277
     97 H49       -13.5164   -6.9089  -17.8254 H         1 VAL         0.0277
     98 H50       -14.5565   -9.4881  -14.4698 H         1 VAL         0.1876
     99 H51       -16.2768  -11.4497  -15.7905 H         1 VAL         0.0745
    100 H52       -15.6292  -12.9158  -13.8744 H         1 VAL         0.0471
    101 H53       -14.7377  -11.5329  -13.1536 H         1 VAL         0.0471
@<TRIPOS>BOND
     1    1    2 1  
     2    2    3 1  
     3    2    5 1  
     4    3    4 2  
     5    3    8 am 
     6    5    6 1  
     7    5    7 1  
     8    8    9 1  
     9    9   10 1  
    10    9   12 1  
    11   10   11 2  
    12   10   19 am 
    13   12   13 1  
    14   13   14 1  
    15   14   15 1  
    16   15   16 ar 
    17   16   17 ar 
    18   16   18 ar 
    19   19   20 1  
    20   20   21 1  
    21   20   23 1  
    22   21   22 2  
    23   21   26 am 
    24   23   24 1  
    25   23   25 1  
    26   26   27 1  
    27   27   28 1  
    28   27   30 1  
    29   28   29 2  
    30   28   35 am 
    31   30   31 1  
    32   31   32 1  
    33   32   33 1  
    34   33   34 1  
    35   35   36 1  
    36   36   37 1  
    37   36   39 1  
    38   37   38 2  
    39   37   40 am 
    40   40   41 1  
    41   41   42 1  
    42   41   44 1  
    43   42   43 ar 
    44   42   48 ar 
    45   44   45 1  
    46   45   46 ar 
    47   45   47 ar 
    48    1   49 1  
    49    1   50 1  
    50    1   51 1  
    51    2   52 1  
    52    5   53 1  
    53    6   54 1  
    54    6   55 1  
    55    6   56 1  
    56    7   57 1  
    57    7   58 1  
    58    7   59 1  
    59    8   60 1  
    60    9   61 1  
    61   12   62 1  
    62   12   63 1  
    63   13   64 1  
    64   13   65 1  
    65   14   66 1  
    66   14   67 1  
    67   15   68 1  
    68   17   69 1  
    69   17   70 1  
    70   18   71 1  
    71   18   72 1  
    72   19   73 1  
    73   20   74 1  
    74   23   75 1  
    75   24   76 1  
    76   25   77 1  
    77   25   78 1  
    78   25   79 1  
    79   26   80 1  
    80   27   81 1  
    81   30   82 1  
    82   30   83 1  
    83   31   84 1  
    84   31   85 1  
    85   32   86 1  
    86   32   87 1  
    87   33   88 1  
    88   33   89 1  
    89   34   90 1  
    90   34   91 1  
    91   34   92 1  
    92   35   93 1  
    93   36   94 1  
    94   39   95 1  
    95   39   96 1  
    96   39   97 1  
    97   40   98 1  
    98   41   99 1  
    99   44  100 1  
   100   44  101 1  
@<TRIPOS>SUBSTRUCTURE
     1 VAL         1

