6iiw_ligand
  -I-interpret- 

102101  0  0  0  0  0  0  0  0999 V2000
   -6.9470  -15.7220  -12.9730 N   0  3  0  0  0
   -7.2560  -14.6190  -12.0710 C   0  0  0  0  0
   -8.6050  -14.0250  -12.4360 C   0  0  0  0  0
   -9.0560  -14.1220  -13.5740 O   0  0  0  0  0
   -6.1660  -13.5360  -12.0940 C   0  0  0  0  0
   -4.8100  -14.1360  -11.7740 C   0  0  0  0  0
   -6.1380  -12.8400  -13.4370 C   0  0  0  0  0
   -9.2740  -13.4570  -11.4340 N   0  0  0  0  0
  -10.5180  -12.7370  -11.6640 C   0  0  0  0  0
  -10.2000  -11.3110  -12.0850 C   0  0  0  0  0
   -9.2860  -10.6870  -11.5460 O   0  0  0  0  0
  -11.3720  -12.7080  -10.3920 C   0  0  0  0  0
  -11.8210  -14.0730   -9.9160 C   0  0  0  0  0
  -12.4690  -13.9910   -8.5370 C   0  0  0  0  0
  -11.5840  -13.3680   -7.5600 N   0  0  0  0  0
  -11.8820  -12.2750   -6.8630 C   0  0  0  0  0
  -11.0050  -11.7870   -6.0020 N   0  0  0  0  0
  -13.0550  -11.6720   -7.0210 N   0  0  0  0  0
  -10.9550  -10.7910  -13.0500 N   0  0  0  0  0
  -10.8730   -9.3760  -13.3840 C   0  0  0  0  0
  -12.2150   -8.7150  -13.1110 C   0  0  0  0  0
  -13.2330   -9.3790  -12.9120 O   0  0  0  0  0
  -10.4760   -9.1400  -14.8520 C   0  0  0  0  0
  -11.5630   -9.4980  -15.7140 O   0  0  0  0  0
   -9.2690   -9.9780  -15.2250 C   0  0  0  0  0
  -12.2020   -7.3830  -13.0980 N   0  0  0  0  0
  -13.4450   -6.6490  -12.9090 C   0  0  0  0  0
  -14.4390   -6.9430  -14.0230 C   0  0  0  0  0
  -15.6480   -6.8140  -13.8090 O   0  0  0  0  0
  -13.1530   -5.1510  -12.8270 C   0  0  0  0  0
  -14.3770   -4.2880  -12.5690 C   0  0  0  0  0
  -14.9600   -4.5150  -11.1810 C   0  0  0  0  0
  -14.1130   -3.8760  -10.1040 C   0  0  0  0  0
  -14.8360   -3.8540   -8.8110 N   0  3  0  0  0
  -13.9580   -7.3560  -15.1980 N   0  0  0  0  0
  -14.8460   -7.6880  -16.3060 C   0  0  0  0  0
  -15.6650   -8.9500  -16.0650 C   0  0  0  0  0
  -16.6250   -9.1950  -16.8070 O   0  0  0  0  0
  -14.0390   -7.8500  -17.5990 C   0  0  0  0  0
  -15.3140   -9.7540  -15.0660 N   0  0  0  0  0
  -16.0060  -11.0150  -14.8170 C   0  0  0  0  0
  -17.2970  -10.8240  -14.0120 C   0  0  0  0  0
  -17.4140   -9.9050  -13.1940 O   0  0  0  0  0
  -15.0710  -11.9940  -14.0950 C   0  0  0  0  0
  -13.8430  -12.3540  -14.9230 C   0  0  0  0  0
  -13.9510  -12.4320  -16.1700 O   0  0  0  0  0
  -12.7710  -12.5810  -14.3270 O   0  0  0  0  0
  -18.2620  -11.5830  -14.1550 O   0  0  0  0  0
   -7.6930  -16.4161  -12.9274 H   0  0  0  0  0
   -6.8681  -15.3681  -13.9264 H   0  0  0  0  0
   -6.0645  -16.1507  -12.6941 H   0  0  0  0  0
   -7.2942  -15.0133  -11.0555 H   0  0  0  0  0
   -6.4008  -12.7959  -11.3290 H   0  0  0  0  0
   -4.5447  -14.8619  -12.5427 H   0  0  0  0  0
   -4.0613  -13.3444  -11.7462 H   0  0  0  0  0
   -4.8531  -14.6314  -10.8040 H   0  0  0  0  0
   -5.3949  -12.0428  -13.4162 H   0  0  0  0  0
   -5.8784  -13.5603  -14.2128 H   0  0  0  0  0
   -7.1206  -12.4171  -13.6462 H   0  0  0  0  0
   -8.9067  -13.5281  -10.4851 H   0  0  0  0  0
  -11.0768  -13.2469  -12.4487 H   0  0  0  0  0
  -12.2707  -12.1351  -10.6206 H   0  0  0  0  0
  -10.7575  -12.2774   -9.6014 H   0  0  0  0  0
  -10.9487  -14.7235   -9.8524 H   0  0  0  0  0
  -12.5537  -14.4640  -10.6220 H   0  0  0  0  0
  -12.6910  -15.0041   -8.2016 H   0  0  0  0  0
  -13.3715  -13.3851   -8.6177 H   0  0  0  0  0
  -10.6739  -13.8000   -7.4000 H   0  0  0  0  0
  -10.1044  -12.2485   -5.8745 H   0  0  0  0  0
  -13.2759  -10.8364   -6.4794 H   0  0  0  0  0
  -13.7348  -12.0446   -7.6839 H   0  0  0  0  0
  -11.6001  -11.3921  -13.5628 H   0  0  0  0  0
  -10.0941   -8.9371  -12.7605 H   0  0  0  0  0
  -10.2325   -8.0840  -14.9693 H   0  0  0  0  0
  -11.3083   -9.3483  -16.6274 H   0  0  0  0  0
   -8.4288   -9.7075  -14.5854 H   0  0  0  0  0
   -9.5052  -11.0335  -15.0897 H   0  0  0  0  0
   -9.0082   -9.7934  -16.2671 H   0  0  0  0  0
  -11.3238   -6.8788  -13.2201 H   0  0  0  0  0
  -13.8983   -6.9763  -11.9733 H   0  0  0  0  0
  -12.7465   -4.8503  -13.7926 H   0  0  0  0  0
  -12.4733   -5.0024  -11.9879 H   0  0  0  0  0
  -15.1382   -4.5516  -13.3033 H   0  0  0  0  0
  -14.0764   -3.2429  -12.6433 H   0  0  0  0  0
  -14.9960   -5.5886  -10.9962 H   0  0  0  0  0
  -15.9521   -4.0646  -11.1486 H   0  0  0  0  0
  -13.8854   -2.8511  -10.3972 H   0  0  0  0  0
  -13.1980   -4.4563   -9.9855 H   0  0  0  0  0
  -14.2468   -3.4195   -8.1007 H   0  0  0  0  0
  -15.6979   -3.3182   -8.9138 H   0  0  0  0  0
  -15.0593   -4.8092   -8.5314 H   0  0  0  0  0
  -12.9493   -7.4410  -15.3231 H   0  0  0  0  0
  -15.5480   -6.8588  -16.3934 H   0  0  0  0  0
  -13.5216   -6.9169  -17.8222 H   0  0  0  0  0
  -13.3097   -8.6501  -17.4727 H   0  0  0  0  0
  -14.7138   -8.0977  -18.4183 H   0  0  0  0  0
  -14.5413   -9.4827  -14.4579 H   0  0  0  0  0
  -16.2896  -11.4263  -15.7858 H   0  0  0  0  0
  -15.6283  -12.9116  -13.9066 H   0  0  0  0  0
  -14.7277  -11.5144  -13.1784 H   0  0  0  0  0
  -14.8518  -12.2205  -16.4259 H   0  0  0  0  0
  -18.0489  -12.2493  -14.8124 H   0  0  0  0  0
  1  2  1  0  0  0
  2  3  1  0  0  0
  2  5  1  0  0  0
  3  4  2  0  0  0
  3  8  1  0  0  0
  5  6  1  0  0  0
  5  7  1  0  0  0
  8  9  1  0  0  0
  9 10  1  0  0  0
  9 12  1  0  0  0
 10 11  2  0  0  0
 10 19  1  0  0  0
 12 13  1  0  0  0
 13 14  1  0  0  0
 14 15  1  0  0  0
 15 16  1  0  0  0
 16 17  2  0  0  0
 16 18  1  0  0  0
 19 20  1  0  0  0
 20 21  1  0  0  0
 20 23  1  0  0  0
 21 22  2  0  0  0
 21 26  1  0  0  0
 23 24  1  0  0  0
 23 25  1  0  0  0
 26 27  1  0  0  0
 27 28  1  0  0  0
 27 30  1  0  0  0
 28 29  2  0  0  0
 28 35  1  0  0  0
 30 31  1  0  0  0
 31 32  1  0  0  0
 32 33  1  0  0  0
 33 34  1  0  0  0
 35 36  1  0  0  0
 36 37  1  0  0  0
 36 39  1  0  0  0
 37 38  2  0  0  0
 37 40  1  0  0  0
 40 41  1  0  0  0
 41 42  1  0  0  0
 41 44  1  0  0  0
 42 43  2  0  0  0
 42 48  1  0  0  0
 44 45  1  0  0  0
 45 46  1  0  0  0
 45 47  2  0  0  0
  1 49  1  0  0  0
  1 50  1  0  0  0
  1 51  1  0  0  0
  2 52  1  0  0  0
  5 53  1  0  0  0
  6 54  1  0  0  0
  6 55  1  0  0  0
  6 56  1  0  0  0
  7 57  1  0  0  0
  7 58  1  0  0  0
  7 59  1  0  0  0
  8 60  1  0  0  0
  9 61  1  0  0  0
 12 62  1  0  0  0
 12 63  1  0  0  0
 13 64  1  0  0  0
 13 65  1  0  0  0
 14 66  1  0  0  0
 14 67  1  0  0  0
 15 68  1  0  0  0
 17 69  1  0  0  0
 18 70  1  0  0  0
 18 71  1  0  0  0
 19 72  1  0  0  0
 20 73  1  0  0  0
 23 74  1  0  0  0
 24 75  1  0  0  0
 25 76  1  0  0  0
 25 77  1  0  0  0
 25 78  1  0  0  0
 26 79  1  0  0  0
 27 80  1  0  0  0
 30 81  1  0  0  0
 30 82  1  0  0  0
 31 83  1  0  0  0
 31 84  1  0  0  0
 32 85  1  0  0  0
 32 86  1  0  0  0
 33 87  1  0  0  0
 33 88  1  0  0  0
 34 89  1  0  0  0
 34 90  1  0  0  0
 34 91  1  0  0  0
 35 92  1  0  0  0
 36 93  1  0  0  0
 39 94  1  0  0  0
 39 95  1  0  0  0
 39 96  1  0  0  0
 40 97  1  0  0  0
 41 98  1  0  0  0
 44 99  1  0  0  0
 44100  1  0  0  0
 46101  1  0  0  0
 48102  1  0  0  0
M  END
$$$$
