4pnr_ligand
  -I-interpret- 

 21 23  0  0  0  0  0  0  0  0999 V2000
   24.8800   47.9260   -0.3760 C   0  0  0  0  0
   23.7760   48.5900   -1.0390 C   0  0  0  0  0
   23.5920   49.9940   -0.9320 C   0  0  0  0  0
   24.4610   50.7950   -0.1880 C   0  0  0  0  0
   25.6630   50.1670    0.4240 C   0  0  0  0  0
   25.8320   48.7860    0.2780 C   0  0  0  0  0
   25.7010   44.2570   -0.1200 C   0  0  0  0  0
   25.8470   45.5430    0.1600 C   0  0  0  0  0
   24.8710   46.4580   -0.3820 C   0  0  0  0  0
   23.9250   45.7490   -1.1200 C   0  0  0  0  0
   22.9610   46.4170   -1.8280 N   0  0  0  0  0
   24.2750   44.0050   -1.1300 S   0  0  0  0  0
   22.7480   47.7690   -1.7740 C   0  0  0  0  0
   21.8780   48.2280   -2.4570 O   0  0  0  0  0
   22.7498   50.4590   -1.4444 H   0  0  0  0  0
   24.2627   51.8589   -0.0583 H   0  0  0  0  0
   26.3913   50.7660    0.9707 H   0  0  0  0  0
   26.7376   48.3344    0.6831 H   0  0  0  0  0
   26.3670   43.4659    0.2244 H   0  0  0  0  0
   26.6731   45.8973    0.7766 H   0  0  0  0  0
   22.3578   45.8674   -2.4400 H   0  0  0  0  0
  1  2  4  0  0  0
  1  6  4  0  0  0
  9  1  1  0  0  0
  2  3  4  0  0  0
  2 13  1  0  0  0
  3  4  4  0  0  0
  5  4  4  0  0  0
  6  5  4  0  0  0
  8  7  4  0  0  0
  7 12  4  0  0  0
  8  9  4  0  0  0
  9 10  4  0  0  0
 10 11  1  0  0  0
 10 12  4  0  0  0
 11 13  1  0  0  0
 13 14  2  0  0  0
  3 15  1  0  0  0
  4 16  1  0  0  0
  5 17  1  0  0  0
  6 18  1  0  0  0
  7 19  1  0  0  0
  8 20  1  0  0  0
 11 21  1  0  0  0
M  END
$$$$
