4d0w_ligand
  -I-interpret- 

 36 38  0  0  0  0  0  0  0  0999 V2000
   32.0990   -9.1610    3.2170 C   0  0  0  0  0
   32.8050   -8.1840    2.5110 C   0  0  0  0  0
   33.8890   -8.5240    1.7790 N   0  0  0  0  0
   34.3510   -9.8530    1.7770 C   0  0  0  0  0
   35.4370  -10.1670    1.0330 N   0  0  0  0  0
   33.6990  -10.8010    2.5050 N   0  0  0  0  0
   32.5290  -10.4930    3.2120 C   0  0  0  0  0
   31.8680  -11.4990    3.8500 C   0  0  0  0  0
   32.3460  -12.7750    3.8300 N   0  0  0  0  0
   30.6370  -11.4790    4.4830 C   0  0  0  0  0
   30.3560  -12.7630    4.9150 C   0  0  0  0  0
   29.1480  -13.2080    5.5680 C   0  0  0  0  0
   28.1020  -12.5520    5.6870 O   0  0  0  0  0
   29.0150  -14.4320    5.9520 N   0  0  0  0  0
   31.4250  -13.5400    4.5120 C   0  0  0  0  0
   31.6550  -14.8910    4.6000 C   0  0  0  0  0
   32.3030  -15.4880    5.7010 C   0  0  0  0  0
   32.6070  -16.8470    5.7480 C   0  0  0  0  0
   33.4580  -17.5610    7.1580 Cl  0  0  0  0  0
   32.3390  -17.7630    4.7460 C   0  0  0  0  0
   31.7160  -17.1790    3.6410 C   0  0  0  0  0
   31.3870  -15.8070    3.5600 C   0  0  0  0  0
   30.8340  -15.4160    2.3290 C   0  0  0  0  0
   31.2056   -8.8837    3.7766 H   0  0  0  0  0
   32.4806   -7.1442    2.5506 H   0  0  0  0  0
   35.9064   -9.4454    0.4859 H   0  0  0  0  0
   35.7861  -11.1253    1.0194 H   0  0  0  0  0
   30.0004  -10.6045    4.6176 H   0  0  0  0  0
   28.1166  -14.7607    6.3059 H   0  0  0  0  0
   29.8082  -15.0713    5.9018 H   0  0  0  0  0
   32.5771  -14.8611    6.5495 H   0  0  0  0  0
   32.5866  -18.8225    4.8119 H   0  0  0  0  0
   31.4695  -17.8177    2.7928 H   0  0  0  0  0
   29.8596  -14.9581    2.4990 H   0  0  0  0  0
   31.4959  -14.6965    1.8469 H   0  0  0  0  0
   30.7190  -16.2911    1.6894 H   0  0  0  0  0
  1  2  4  0  0  0
  1  7  4  0  0  0
  2  3  4  0  0  0
  3  4  4  0  0  0
  4  5  1  0  0  0
  4  6  4  0  0  0
  6  7  4  0  0  0
  7  8  1  0  0  0
  8  9  4  0  0  0
  8 10  4  0  0  0
  9 15  4  0  0  0
 10 11  4  0  0  0
 11 12  1  0  0  0
 11 15  4  0  0  0
 12 13  2  0  0  0
 12 14  1  0  0  0
 15 16  1  0  0  0
 16 17  4  0  0  0
 16 22  4  0  0  0
 17 18  4  0  0  0
 18 19  1  0  0  0
 18 20  4  0  0  0
 20 21  4  0  0  0
 21 22  4  0  0  0
 22 23  1  0  0  0
  1 24  1  0  0  0
  2 25  1  0  0  0
  5 26  1  0  0  0
  5 27  1  0  0  0
 10 28  1  0  0  0
 14 29  1  0  0  0
 14 30  1  0  0  0
 17 31  1  0  0  0
 20 32  1  0  0  0
 21 33  1  0  0  0
 23 34  1  0  0  0
 23 35  1  0  0  0
 23 36  1  0  0  0
M  END
$$$$
