3axk_ligand
  -I-interpret- 

 78 82  0  0  0  0  0  0  0  0999 V2000
   31.0580   25.3080  -20.7640 P   0  0  0  0  0
   31.4210   23.8730  -20.6470 O   0  0  0  0  0
   32.1060   26.3320  -20.9540 O   0  0  0  0  0
   30.1050   25.6090  -19.5270 O   0  0  0  0  0
   29.5750   26.9380  -19.3560 C   0  0  0  0  0
   28.5180   26.8440  -18.2910 C   0  0  0  0  0
   27.6180   25.7300  -18.5670 O   0  0  0  0  0
   28.9930   26.5980  -16.8750 C   0  0  0  0  0
   29.4450   27.8190  -16.3340 O   0  0  0  0  0
   27.6780   26.1370  -16.2310 C   0  0  0  0  0
   26.7780   27.2140  -16.0220 O   0  0  0  0  0
   27.1060   25.2330  -17.3270 C   0  0  0  0  0
   27.4000   23.8050  -17.1640 N   0  0  0  0  0
   28.1100   22.9920  -18.0350 C   0  0  0  0  0
   28.3180   21.7820  -17.5500 N   0  0  0  0  0
   27.4870   21.7280  -16.4650 C   0  0  0  0  0
   27.2900   20.7350  -15.4670 C   0  0  0  0  0
   27.9820   19.5890  -15.4760 N   0  0  0  0  0
   26.4520   21.0400  -14.4270 N   0  0  0  0  0
   25.9290   22.2870  -14.3000 C   0  0  0  0  0
   26.0570   23.3070  -15.1850 N   0  0  0  0  0
   26.8770   22.9650  -16.2340 C   0  0  0  0  0
   29.9770   25.4030  -21.9620 O   0  0  0  0  0
   29.4520   24.5100  -23.1490 P   0  0  0  0  0
   28.7260   23.3320  -22.5830 O   0  0  0  0  0
   28.7310   25.4180  -24.0750 O   0  0  0  0  0
   30.7580   24.0560  -23.9450 O   0  0  0  0  0
   31.0280   22.6850  -24.2710 C   0  0  0  0  0
   30.6010   22.3760  -25.6780 C   0  0  0  0  0
   31.0910   21.0850  -26.1100 O   0  0  0  0  0
   29.1000   22.3700  -26.0010 C   0  0  0  0  0
   28.7920   22.9490  -27.2590 O   0  0  0  0  0
   28.7620   20.8890  -25.8740 C   0  0  0  0  0
   27.5600   20.6380  -26.5830 O   0  0  0  0  0
   30.0090   20.3180  -26.5890 C   0  0  0  0  0
   30.3060   18.8640  -26.3650 N   0  0  0  0  0
   31.3890   18.3620  -27.0740 C   0  0  0  0  0
   31.1970   17.2780  -27.9470 C   0  0  0  0  0
   32.3680   16.5450  -28.5320 C   0  0  0  0  0
   32.7890   15.5320  -27.9650 O   0  0  0  0  0
   33.0020   17.1220  -29.5600 N   0  0  0  0  0
   29.9180   16.6330  -27.9590 C   0  0  0  0  0
   28.9890   16.9320  -26.9360 C   0  0  0  0  0
   29.2740   17.9670  -26.0400 C   0  0  0  0  0
   26.6770   28.0950  -14.6720 P   0  0  0  0  0
   28.0480   28.6440  -14.3380 O   0  0  0  0  0
   25.6600   29.1190  -15.0970 O   0  0  0  0  0
   26.1560   27.1640  -13.6000 O   0  0  0  0  0
   30.6240   23.3511  -20.5287 H   0  0  0  0  0
   29.1554   27.3133  -20.2894 H   0  0  0  0  0
   30.3600   27.6362  -19.0654 H   0  0  0  0  0
   28.0605   27.8324  -18.3343 H   0  0  0  0  0
   29.8150   25.8937  -16.7471 H   0  0  0  0  0
   30.2665   28.0724  -16.7612 H   0  0  0  0  0
   27.8272   25.6739  -15.2556 H   0  0  0  0  0
   26.0178   25.2747  -17.2803 H   0  0  0  0  0
   28.4589   23.3174  -19.0151 H   0  0  0  0  0
   28.6682   19.4134  -16.2099 H   0  0  0  0  0
   27.8230   18.8915  -14.7489 H   0  0  0  0  0
   25.3497   22.4878  -13.3988 H   0  0  0  0  0
   29.3157   22.8411  -22.0060 H   0  0  0  0  0
   30.4711   22.0451  -23.5865 H   0  0  0  0  0
   32.0998   22.5076  -24.1824 H   0  0  0  0  0
   31.0373   23.2253  -26.2038 H   0  0  0  0  0
   28.4991   22.9941  -25.3395 H   0  0  0  0  0
   27.8433   22.9153  -27.4018 H   0  0  0  0  0
   28.5901   20.4834  -24.8770 H   0  0  0  0  0
   27.3356   19.7074  -26.5109 H   0  0  0  0  0
   29.8296   20.3808  -27.6623 H   0  0  0  0  0
   32.3780   18.8043  -26.9546 H   0  0  0  0  0
   33.8745   16.7251  -29.9087 H   0  0  0  0  0
   32.6126   17.9586  -29.9946 H   0  0  0  0  0
   30.1376   15.5723  -27.8372 H   0  0  0  0  0
   29.4414   16.9724  -28.8786 H   0  0  0  0  0
   28.0633   16.3635  -26.8470 H   0  0  0  0  0
   28.7103   18.0753  -25.1134 H   0  0  0  0  0
   28.6260   27.9225  -14.0792 H   0  0  0  0  0
   26.8404   26.5330  -13.3655 H   0  0  0  0  0
  1  2  1  0  0  0
  1  3  2  0  0  0
  1  4  1  0  0  0
  1 23  1  0  0  0
  4  5  1  0  0  0
  5  6  1  0  0  0
  6  7  1  0  0  0
  6  8  1  0  0  0
  7 12  1  0  0  0
  8  9  1  0  0  0
  8 10  1  0  0  0
 10 11  1  0  0  0
 10 12  1  0  0  0
 11 45  1  0  0  0
 12 13  1  0  0  0
 13 14  4  0  0  0
 13 22  4  0  0  0
 14 15  4  0  0  0
 15 16  4  0  0  0
 16 17  4  0  0  0
 16 22  4  0  0  0
 17 18  1  0  0  0
 17 19  4  0  0  0
 19 20  4  0  0  0
 20 21  4  0  0  0
 21 22  4  0  0  0
 23 24  1  0  0  0
 24 25  1  0  0  0
 24 26  2  0  0  0
 24 27  1  0  0  0
 27 28  1  0  0  0
 28 29  1  0  0  0
 29 30  1  0  0  0
 29 31  1  0  0  0
 30 35  1  0  0  0
 31 32  1  0  0  0
 31 33  1  0  0  0
 33 34  1  0  0  0
 33 35  1  0  0  0
 35 36  1  0  0  0
 36 37  1  0  0  0
 36 44  1  0  0  0
 37 38  2  0  0  0
 38 39  1  0  0  0
 38 42  1  0  0  0
 39 40  2  0  0  0
 39 41  1  0  0  0
 42 43  1  0  0  0
 43 44  2  0  0  0
 45 46  1  0  0  0
 45 47  2  0  0  0
 45 48  1  0  0  0
  2 49  1  0  0  0
  5 50  1  0  0  0
  5 51  1  0  0  0
  6 52  1  0  0  0
  8 53  1  0  0  0
  9 54  1  0  0  0
 10 55  1  0  0  0
 12 56  1  0  0  0
 14 57  1  0  0  0
 18 58  1  0  0  0
 18 59  1  0  0  0
 20 60  1  0  0  0
 25 61  1  0  0  0
 28 62  1  0  0  0
 28 63  1  0  0  0
 29 64  1  0  0  0
 31 65  1  0  0  0
 32 66  1  0  0  0
 33 67  1  0  0  0
 34 68  1  0  0  0
 35 69  1  0  0  0
 37 70  1  0  0  0
 41 71  1  0  0  0
 41 72  1  0  0  0
 42 73  1  0  0  0
 42 74  1  0  0  0
 43 75  1  0  0  0
 44 76  1  0  0  0
 46 77  1  0  0  0
 48 78  1  0  0  0
M  END
$$$$
