### 
### Created by X-TOOL on Sun Sep  9 21:51:47 2018
### 

@<TRIPOS>MOLECULE
3axk_ligand
   74    78     1     0     0
SMALL
GAST_HUCK


@<TRIPOS>ATOM
      1 P1         31.0580   25.3080  -20.7640 P.3       1 NON         0.2972
      2 O1         31.4210   23.8730  -20.6470 O.co2     1 NON        -0.6127
      3 O2         32.1060   26.3320  -20.9540 O.co2     1 NON        -0.6127
      4 O3         30.1050   25.6090  -19.5270 O.3       1 NON        -0.2476
      5 C1         29.5750   26.9380  -19.3560 C.3       1 NON         0.1128
      6 C2         28.5180   26.8440  -18.2910 C.3       1 NON         0.1192
      7 O4         27.6180   25.7300  -18.5670 O.3       1 NON        -0.3361
      8 C3         28.9930   26.5980  -16.8750 C.3       1 NON         0.1196
      9 O5         29.4450   27.8190  -16.3340 O.3       1 NON        -0.3860
     10 C4         27.6780   26.1370  -16.2310 C.3       1 NON         0.1722
     11 O6         26.7780   27.2140  -16.0220 O.3       1 NON        -0.2647
     12 C5         27.1060   25.2330  -17.3270 C.3       1 NON         0.2057
     13 N1         27.4000   23.8050  -17.1640 N.pl3     1 NON        -0.1916
     14 C6         28.1100   22.9920  -18.0350 C.2       1 NON         0.1123
     15 N2         28.3180   21.7820  -17.5500 N.2       1 NON        -0.2958
     16 C7         27.4870   21.7280  -16.4650 C.ar      1 NON         0.1045
     17 C8         27.2900   20.7350  -15.4670 C.ar      1 NON         0.1298
     18 N3         27.9820   19.5890  -15.4760 N.pl3     1 NON        -0.3152
     19 N4         26.4520   21.0400  -14.4270 N.ar      1 NON        -0.2698
     20 C9         25.9290   22.2870  -14.3000 C.ar      1 NON         0.0533
     21 N5         26.0570   23.3070  -15.1850 N.ar      1 NON        -0.2714
     22 C10        26.8770   22.9650  -16.2340 C.ar      1 NON         0.1613
     23 O7         29.9770   25.4030  -21.9620 O.3       1 NON        -0.1319
     24 P2         29.4520   24.5100  -23.1490 P.3       1 NON         0.2972
     25 O8         28.7260   23.3320  -22.5830 O.co2     1 NON        -0.6127
     26 O9         28.7310   25.4180  -24.0750 O.co2     1 NON        -0.6127
     27 O10        30.7580   24.0560  -23.9450 O.3       1 NON        -0.2476
     28 C11        31.0280   22.6850  -24.2710 C.3       1 NON         0.1128
     29 C12        30.6010   22.3760  -25.6780 C.3       1 NON         0.1185
     30 O11        31.0910   21.0850  -26.1100 O.3       1 NON        -0.3397
     31 C13        29.1000   22.3700  -26.0010 C.3       1 NON         0.1146
     32 O12        28.7920   22.9490  -27.2590 O.3       1 NON        -0.3864
     33 C14        28.7620   20.8890  -25.8740 C.3       1 NON         0.1347
     34 O13        27.5600   20.6380  -26.5830 O.3       1 NON        -0.3840
     35 C15        30.0090   20.3180  -26.5890 C.3       1 NON         0.1845
     36 N6         30.3060   18.8640  -26.3650 N.pl3     1 NON        -0.2499
     37 C16        31.3890   18.3620  -27.0740 C.2       1 NON         0.0396
     38 C17        31.1970   17.2780  -27.9470 C.2       1 NON         0.0299
     39 C18        32.3680   16.5450  -28.5320 C.2       1 NON         0.1716
     40 O14        32.7890   15.5320  -27.9650 O.2       1 NON        -0.4080
     41 N7         33.0020   17.1220  -29.5600 N.am      1 NON        -0.3073
     42 C19        29.9180   16.6330  -27.9590 C.3       1 NON        -0.0184
     43 C20        28.9890   16.9320  -26.9360 C.2       1 NON        -0.0795
     44 C21        29.2740   17.9670  -26.0400 C.2       1 NON         0.0125
     45 P3         26.6770   28.0950  -14.6720 P.3       1 NON         0.2015
     46 O15        28.0480   28.6440  -14.3380 O.co2     1 NON        -0.5537
     47 O16        25.6600   29.1190  -15.0970 O.co2     1 NON        -0.5537
     48 O17        26.1560   27.1640  -13.6000 O.co2     1 NON        -0.5537
     49 H          29.1339   27.2951  -20.2983 H         1 NON         0.0648
     50 H          30.3721   27.6270  -19.0400 H         1 NON         0.0648
     51 H          27.9547   27.7886  -18.3078 H         1 NON         0.0651
     52 H          29.7797   25.8318  -16.8120 H         1 NON         0.0651
     53 H          30.1605   28.1527  -16.8625 H         1 NON         0.2100
     54 H          27.8534   25.5971  -15.2888 H         1 NON         0.0732
     55 H          26.0114   25.3421  -17.3245 H         1 NON         0.1000
     56 H          28.4586   23.3171  -19.0142 H         1 NON         0.1349
     57 H          27.8214   18.8847  -14.7418 H         1 NON         0.1820
     58 H          28.6750   19.4116  -16.2171 H         1 NON         0.1820
     59 H          25.3529   22.4867  -13.4037 H         1 NON         0.0996
     60 H          30.4773   22.0340  -23.5761 H         1 NON         0.0648
     61 H          32.1073   22.4968  -24.1724 H         1 NON         0.0648
     62 H          31.0620   23.1508  -26.3082 H         1 NON         0.0651
     63 H          28.5511   22.9391  -25.2363 H         1 NON         0.0648
     64 H          27.8532   22.9157  -27.4003 H         1 NON         0.2100
     65 H          28.6765   20.5452  -24.8326 H         1 NON         0.0672
     66 H          27.6795   20.8661  -27.4974 H         1 NON         0.2101
     67 H          29.8893   20.4715  -27.6716 H         1 NON         0.0946
     68 H          32.3771   18.8039  -26.9547 H         1 NON         0.1020
     69 H          33.7878   16.6688  -29.9808 H         1 NON         0.1788
     70 H          32.6898   18.0063  -29.9072 H         1 NON         0.1788
     71 H          30.1032   15.5494  -27.9193 H         1 NON         0.0398
     72 H          29.4375   16.8881  -28.9151 H         1 NON         0.0398
     73 H          28.0641   16.3640  -26.8471 H         1 NON         0.0345
     74 H          28.7108   18.0752  -25.1142 H         1 NON         0.0814
@<TRIPOS>BOND
     1    1    2 ar 
     2    1    3 ar 
     3    1    4 1  
     4    1   23 1  
     5    4    5 1  
     6    5    6 1  
     7    5   49 1  
     8    5   50 1  
     9    6    7 1  
    10    6    8 1  
    11    6   51 1  
    12    7   12 1  
    13    8    9 1  
    14    8   10 1  
    15    8   52 1  
    16    9   53 1  
    17   10   11 1  
    18   10   12 1  
    19   10   54 1  
    20   11   45 1  
    21   12   13 1  
    22   12   55 1  
    23   13   14 1  
    24   13   22 1  
    25   14   15 2  
    26   14   56 1  
    27   15   16 1  
    28   16   17 ar 
    29   16   22 ar 
    30   17   18 1  
    31   17   19 ar 
    32   18   57 1  
    33   18   58 1  
    34   19   20 ar 
    35   20   21 ar 
    36   20   59 1  
    37   21   22 ar 
    38   23   24 1  
    39   24   25 ar 
    40   24   26 ar 
    41   24   27 1  
    42   27   28 1  
    43   28   29 1  
    44   28   60 1  
    45   28   61 1  
    46   29   30 1  
    47   29   31 1  
    48   29   62 1  
    49   30   35 1  
    50   31   32 1  
    51   31   33 1  
    52   31   63 1  
    53   32   64 1  
    54   33   34 1  
    55   33   35 1  
    56   33   65 1  
    57   34   66 1  
    58   35   36 1  
    59   35   67 1  
    60   36   37 1  
    61   36   44 1  
    62   37   38 2  
    63   37   68 1  
    64   38   39 1  
    65   38   42 1  
    66   39   40 2  
    67   39   41 am 
    68   41   69 1  
    69   41   70 1  
    70   42   43 1  
    71   42   71 1  
    72   43   44 2  
    73   42   72 1  
    74   43   73 1  
    75   45   46 ar 
    76   45   47 ar 
    77   45   48 ar 
    78   44   74 1  
@<TRIPOS>SUBSTRUCTURE
     1 NON         1

