4zei_ligand
  -I-interpret- 

 25 25  0  0  0  0  0  0  0  0999 V2000
  -17.4160  -25.4000   20.4820 O   0  0  0  0  0
  -16.9090  -26.8400   20.1720 P   0  0  0  0  0
  -18.0530  -27.8500   20.3410 O   0  0  0  0  0
  -15.7720  -27.1370   21.1450 O   0  0  0  0  0
  -16.3660  -26.8670   18.6770 O   0  0  0  0  0
  -16.0840  -28.0300   17.8800 C   0  0  0  0  0
  -14.6780  -28.2700   17.8580 C   0  0  0  0  0
  -14.1430  -28.6540   19.1900 O   0  0  0  0  0
  -14.2270  -29.2210   16.9040 C   0  0  0  0  0
  -14.5700  -30.5410   17.3340 O   0  0  0  0  0
  -14.8030  -29.0240   15.5130 C   0  0  0  0  0
  -16.1690  -28.7470   15.5360 O   0  0  0  0  0
  -16.5550  -27.7510   16.4610 C   0  0  0  0  0
  -17.8960  -27.5320   16.3590 O   0  0  0  0  0
  -18.1350  -25.1797   19.8852 H   0  0  0  0  0
  -18.7551  -27.6434   19.7198 H   0  0  0  0  0
  -16.5909  -28.9005   18.2963 H   0  0  0  0  0
  -14.2849  -27.3007   17.5514 H   0  0  0  0  0
  -14.4392  -28.0202   19.8474 H   0  0  0  0  0
  -13.1483  -29.0784   16.8393 H   0  0  0  0  0
  -14.2623  -31.1779   16.6849 H   0  0  0  0  0
  -14.6563  -29.9482   14.9540 H   0  0  0  0  0
  -14.2951  -28.1750   15.0555 H   0  0  0  0  0
  -16.0437  -26.8239   16.2017 H   0  0  0  0  0
  -18.1573  -26.8552   16.9877 H   0  0  0  0  0
  1  2  1  0  0  0
  2  3  1  0  0  0
  2  4  2  0  0  0
  2  5  1  0  0  0
  5  6  1  0  0  0
  6  7  1  0  0  0
  6 13  1  0  0  0
  7  8  1  0  0  0
  7  9  1  0  0  0
  9 10  1  0  0  0
  9 11  1  0  0  0
 11 12  1  0  0  0
 12 13  1  0  0  0
 13 14  1  0  0  0
  1 15  1  0  0  0
  3 16  1  0  0  0
  6 17  1  0  0  0
  7 18  1  0  0  0
  8 19  1  0  0  0
  9 20  1  0  0  0
 10 21  1  0  0  0
 11 22  1  0  0  0
 11 23  1  0  0  0
 13 24  1  0  0  0
 14 25  1  0  0  0
M  END
$$$$
