3pb8_ligand
  -I-interpret- 

 21 21  0  0  0  0  0  0  0  0999 V2000
  -18.3450  -14.9810   18.6880 C   0  0  0  0  0
  -18.8750  -15.7380   17.8180 O   0  0  0  0  0
  -18.3810  -15.2390   20.2340 C   0  0  0  0  0
  -17.7070  -13.8830   18.3250 N   0  0  0  0  0
  -17.5180  -13.6490   16.9360 C   0  0  0  0  0
  -18.5570  -12.6130   16.3630 C   0  0  0  0  0
  -18.4420  -12.6120   14.8300 C   0  0  0  0  0
  -18.6660  -13.6240   13.9610 C   0  0  0  0  0
  -18.0020  -11.5980   14.0870 N   0  0  0  0  0
  -18.0250  -11.9410   12.8340 C   0  0  0  0  0
  -18.4060  -13.2110   12.7010 N   0  0  0  0  0
  -19.4168  -15.2670   20.5724 H   0  0  0  0  0
  -17.8999  -16.1922   20.4533 H   0  0  0  0  0
  -17.8513  -14.4366   20.7474 H   0  0  0  0  0
  -17.3603  -13.2227   19.0208 H   0  0  0  0  0
  -17.6548  -14.5940   16.4103 H   0  0  0  0  0
  -16.5172  -13.2415   16.7929 H   0  0  0  0  0
  -18.3472  -11.6176   16.7544 H   0  0  0  0  0
  -19.5673  -12.8922   16.6620 H   0  0  0  0  0
  -19.0053  -14.6227   14.2359 H   0  0  0  0  0
  -17.7680  -11.2808   12.0056 H   0  0  0  0  0
  1  2  2  0  0  0
  1  3  1  0  0  0
  1  4  1  0  0  0
  4  5  1  0  0  0
  5  6  1  0  0  0
  6  7  1  0  0  0
  7  8  4  0  0  0
  7  9  4  0  0  0
  8 11  4  0  0  0
  9 10  4  0  0  0
 10 11  4  0  0  0
  3 12  1  0  0  0
  3 13  1  0  0  0
  3 14  1  0  0  0
  4 15  1  0  0  0
  5 16  1  0  0  0
  5 17  1  0  0  0
  6 18  1  0  0  0
  6 19  1  0  0  0
  8 20  1  0  0  0
 10 21  1  0  0  0
M  END
$$$$
