5fh7_ligand
  -I-interpret- 

 32 34  0  0  0  0  0  0  0  0999 V2000
   12.7200    7.4780   29.7930 C   0  0  0  0  0
   12.7730    6.6800   28.5100 C   0  0  0  0  0
   11.4470    4.6300   27.8100 C   0  0  0  0  0
   10.5790    3.6060   28.2600 C   0  0  0  0  0
   11.9010    4.6900   26.4920 C   0  0  0  0  0
   11.4840    3.7530   25.5820 C   0  0  0  0  0
   10.6150    2.7570   25.9610 C   0  0  0  0  0
   10.1490    2.7080   27.2660 C   0  0  0  0  0
   10.2080    3.5600   29.7040 C   0  0  0  0  0
   11.4410    5.5320   30.0660 C   0  0  0  0  0
   11.8480    5.5640   28.7550 N   0  0  0  0  0
   10.6510    4.5900   30.5260 N   0  0  0  0  0
   11.9780    6.6260   30.7770 C   0  0  0  0  0
    8.9310    1.5140   27.5760 Cl  0  0  0  0  0
    9.6260    2.5720   30.2090 O   0  0  0  0  0
   11.8060    6.8070   32.1050 C   0  0  0  0  0
   12.1480    7.7920   32.9300 N   0  3  0  0  0
   12.7790    9.0680   32.4990 C   0  0  0  0  0
   11.8780    7.7370   34.3470 C   0  0  0  0  0
   13.1364    8.4702   29.9666 H   0  0  0  0  0
   13.3592    6.8841   27.6140 H   0  0  0  0  0
   12.5862    5.4806   26.1862 H   0  0  0  0  0
   11.8429    3.7978   24.5537 H   0  0  0  0  0
   10.2933    2.0080   25.2374 H   0  0  0  0  0
   10.3573    4.6141   31.5025 H   0  0  0  0  0
   11.2851    5.9849   32.5958 H   0  0  0  0  0
   13.7277    8.8545   32.0066 H   0  0  0  0  0
   12.1156    9.5835   31.8045 H   0  0  0  0  0
   12.9545    9.6978   33.3711 H   0  0  0  0  0
   10.8035    7.6486   34.5077 H   0  0  0  0  0
   12.3835    6.8731   34.7786 H   0  0  0  0  0
   12.2438    8.6479   34.8209 H   0  0  0  0  0
  2  1  4  0  0  0
  1 13  4  0  0  0
 11  2  4  0  0  0
  3  4  4  0  0  0
  3  5  4  0  0  0
  3 11  1  0  0  0
  4  8  4  0  0  0
  4  9  1  0  0  0
  5  6  4  0  0  0
  6  7  4  0  0  0
  7  8  4  0  0  0
  8 14  1  0  0  0
  9 12  1  0  0  0
  9 15  2  0  0  0
 11 10  4  0  0  0
 10 12  1  0  0  0
 10 13  4  0  0  0
 13 16  1  0  0  0
 16 17  2  0  0  0
 17 18  1  0  0  0
 17 19  1  0  0  0
  1 20  1  0  0  0
  2 21  1  0  0  0
  5 22  1  0  0  0
  6 23  1  0  0  0
  7 24  1  0  0  0
 12 25  1  0  0  0
 16 26  1  0  0  0
 18 27  1  0  0  0
 18 28  1  0  0  0
 18 29  1  0  0  0
 19 30  1  0  0  0
 19 31  1  0  0  0
 19 32  1  0  0  0
M  END
$$$$
