4efg_ligand
  -I-interpret- 

 50 50  0  0  0  0  0  0  0  0999 V2000
   -7.5700    1.7800   -8.2210 C   0  0  0  0  0
   -8.3630    1.9770   -6.9400 C   0  0  0  0  0
   -8.0700    3.3500   -6.3410 C   0  0  0  0  0
   -8.3810    4.5000   -7.2970 C   0  0  0  0  0
   -7.8610    4.2600   -8.7110 C   0  0  0  0  0
   -7.5660    3.0110   -9.1390 C   0  0  0  0  0
   -7.2070    2.8840  -10.5730 C   0  0  0  0  0
   -6.0350    2.3350  -10.9350 C   0  0  0  0  0
   -5.6330    2.2000  -12.3540 C   0  0  0  0  0
   -4.7060    1.2680  -12.6580 C   0  0  0  0  0
   -4.2400    1.0340  -14.0300 C   0  0  0  0  0
   -3.1830    0.2370  -14.1640 C   0  0  0  0  0
   -2.7290   -0.0390  -15.5230 C   0  0  0  0  0
   -1.9370   -1.0640  -15.7340 C   0  0  0  0  0
   -1.5470   -1.2830  -17.1630 C   0  0  0  0  0
   -8.0980    0.5230   -8.9170 C   0  0  0  0  0
   -6.1540    1.4450   -7.7700 C   0  0  0  0  0
   -7.6860    5.4770   -9.6070 C   0  0  0  0  0
   -6.2210    3.0940  -13.4200 C   0  0  0  0  0
   -3.1820    0.7970  -16.6840 C   0  0  0  0  0
   -8.0771    1.2076   -6.2228 H   0  0  0  0  0
   -9.4270    1.9072   -7.1660 H   0  0  0  0  0
   -7.0055    3.3901   -6.1101 H   0  0  0  0  0
   -8.7033    3.4697   -5.4620 H   0  0  0  0  0
   -7.8905    5.3935   -6.9109 H   0  0  0  0  0
   -9.4650    4.5986   -7.3550 H   0  0  0  0  0
   -7.8982    3.2382  -11.3377 H   0  0  0  0  0
   -5.3582    1.9774  -10.1590 H   0  0  0  0  0
   -4.2865    0.6649  -11.8528 H   0  0  0  0  0
   -4.7320    1.4875  -14.8905 H   0  0  0  0  0
   -2.6788   -0.1906  -13.2974 H   0  0  0  0  0
   -1.5884   -1.7091  -14.9275 H   0  0  0  0  0
   -2.4425   -1.4530  -17.7607 H   0  0  0  0  0
   -1.0226   -0.4025  -17.5342 H   0  0  0  0  0
   -0.8930   -2.1524  -17.2307 H   0  0  0  0  0
   -7.4589    0.2843   -9.7671 H   0  0  0  0  0
   -8.0943   -0.3092   -8.2131 H   0  0  0  0  0
   -9.1155    0.7020   -9.2646 H   0  0  0  0  0
   -6.1831    0.5973   -7.0854 H   0  0  0  0  0
   -5.5477    1.1909   -8.6394 H   0  0  0  0  0
   -5.7216    2.3080   -7.2636 H   0  0  0  0  0
   -6.6409    5.5596   -9.9054 H   0  0  0  0  0
   -8.3106    5.3668  -10.4934 H   0  0  0  0  0
   -7.9815    6.3734   -9.0619 H   0  0  0  0  0
   -5.4242    3.6731  -13.8869 H   0  0  0  0  0
   -6.7162    2.4815  -14.1735 H   0  0  0  0  0
   -6.9454    3.7703  -12.9662 H   0  0  0  0  0
   -2.3127    1.2269  -17.1816 H   0  0  0  0  0
   -3.7326    0.1721  -17.3871 H   0  0  0  0  0
   -3.8286    1.5971  -16.3236 H   0  0  0  0  0
  1  2  1  0  0  0
  1  6  1  0  0  0
  1 16  1  0  0  0
  1 17  1  0  0  0
  2  3  1  0  0  0
  3  4  1  0  0  0
  4  5  1  0  0  0
  5  6  2  0  0  0
  5 18  1  0  0  0
  6  7  1  0  0  0
  7  8  2  0  0  0
  8  9  1  0  0  0
  9 10  2  0  0  0
  9 19  1  0  0  0
 10 11  1  0  0  0
 11 12  2  0  0  0
 12 13  1  0  0  0
 13 14  2  0  0  0
 13 20  1  0  0  0
 14 15  1  0  0  0
  2 21  1  0  0  0
  2 22  1  0  0  0
  3 23  1  0  0  0
  3 24  1  0  0  0
  4 25  1  0  0  0
  4 26  1  0  0  0
  7 27  1  0  0  0
  8 28  1  0  0  0
 10 29  1  0  0  0
 11 30  1  0  0  0
 12 31  1  0  0  0
 14 32  1  0  0  0
 15 33  1  0  0  0
 15 34  1  0  0  0
 15 35  1  0  0  0
 16 36  1  0  0  0
 16 37  1  0  0  0
 16 38  1  0  0  0
 17 39  1  0  0  0
 17 40  1  0  0  0
 17 41  1  0  0  0
 18 42  1  0  0  0
 18 43  1  0  0  0
 18 44  1  0  0  0
 19 45  1  0  0  0
 19 46  1  0  0  0
 19 47  1  0  0  0
 20 48  1  0  0  0
 20 49  1  0  0  0
 20 50  1  0  0  0
M  END
$$$$
