4qmq_ligand
  -I-interpret- 

 59 63  0  0  0  0  0  0  0  0999 V2000
   27.6810    2.2550  131.6040 C   0  0  0  0  0
   27.0400    0.9570  131.6590 O   0  0  0  0  0
   27.8840   -0.0120  132.0980 C   0  0  0  0  0
   26.9540   -1.2550  132.5360 C   0  0  0  0  0
   26.2730   -0.8470  133.7200 O   0  0  0  0  0
   25.6360   -1.8790  134.4570 C   0  0  0  0  0
   25.6020   -3.2010  133.9440 C   0  0  0  0  0
   24.9830   -4.1870  134.6980 C   0  0  0  0  0
   24.3970   -3.8880  135.8970 C   0  0  0  0  0
   24.4260   -2.5160  136.4180 C   0  0  0  0  0
   25.0180   -1.5570  135.7070 C   0  0  0  0  0
   23.8430   -5.0910  136.3840 N   0  0  0  0  0
   24.0960   -6.0730  135.5300 C   0  0  0  0  0
   24.7810   -5.5300  134.4820 N   0  0  0  0  0
   23.1780   -5.2710  137.6100 C   0  0  0  0  0
   22.7000   -4.1950  138.2880 N   0  0  0  0  0
   22.0850   -4.3190  139.5080 C   0  0  0  0  0
   21.9570   -5.5400  140.1000 C   0  0  0  0  0
   21.3310   -5.6540  141.3950 C   0  0  0  0  0
   20.8470   -4.5160  142.0200 C   0  0  0  0  0
   20.9650   -3.2610  141.4130 C   0  0  0  0  0
   21.5860   -3.1490  140.1540 C   0  0  0  0  0
   21.7040   -1.8870  139.4700 N   0  0  0  0  0
   20.8620   -1.7840  138.2810 C   0  0  0  0  0
   21.1790   -0.5490  137.4430 C   0  0  0  0  0
   20.9940    0.6790  138.2720 C   0  0  0  0  0
   21.8210    0.6540  139.4710 C   0  0  0  0  0
   21.6800   -0.6520  140.2710 C   0  0  0  0  0
   21.3360    1.8340  137.4360 N   0  3  0  0  0
   22.4970   -6.7540  139.4030 C   0  0  0  0  0
   23.1180   -6.5660  138.1500 C   0  0  0  0  0
   28.0262    2.5308  132.6004 H   0  0  0  0  0
   28.5309    2.2105  130.9230 H   0  0  0  0  0
   26.9665    2.9968  131.2473 H   0  0  0  0  0
   28.4867    0.3415  132.9346 H   0  0  0  0  0
   28.5872   -0.3034  131.3178 H   0  0  0  0  0
   27.5523   -2.1482  132.7158 H   0  0  0  0  0
   26.2480   -1.5137  131.7469 H   0  0  0  0  0
   26.0519   -3.4366  132.9795 H   0  0  0  0  0
   23.9669   -2.2835  137.3789 H   0  0  0  0  0
   25.0315   -0.5314  136.0760 H   0  0  0  0  0
   23.8103   -7.1187  135.6437 H   0  0  0  0  0
   21.2396   -6.6271  141.8775 H   0  0  0  0  0
   20.3688   -4.5995  142.9959 H   0  0  0  0  0
   20.5777   -2.3731  141.9128 H   0  0  0  0  0
   19.8253   -1.7095  138.6095 H   0  0  0  0  0
   21.0438   -2.6639  137.6639 H   0  0  0  0  0
   20.5081   -0.5114  136.5848 H   0  0  0  0  0
   22.2115   -0.6008  137.0974 H   0  0  0  0  0
   19.9594    0.7370  138.6102 H   0  0  0  0  0
   21.4991    1.4735  140.1136 H   0  0  0  0  0
   22.8616    0.7414  139.1586 H   0  0  0  0  0
   22.5365   -0.6998  140.9435 H   0  0  0  0  0
   20.7058   -0.6154  140.7585 H   0  0  0  0  0
   21.2188    2.6906  137.9772 H   0  0  0  0  0
   22.3053    1.7546  137.1286 H   0  0  0  0  0
   20.7210    1.8575  136.6226 H   0  0  0  0  0
   22.4126   -7.7452  139.8484 H   0  0  0  0  0
   23.5440   -7.4117  137.6102 H   0  0  0  0  0
  1  2  1  0  0  0
  2  3  1  0  0  0
  3  4  1  0  0  0
  4  5  1  0  0  0
  5  6  1  0  0  0
  6  7  4  0  0  0
  6 11  4  0  0  0
  7  8  4  0  0  0
  8  9  4  0  0  0
  8 14  4  0  0  0
  9 10  4  0  0  0
  9 12  4  0  0  0
 10 11  4  0  0  0
 12 13  4  0  0  0
 12 15  1  0  0  0
 13 14  4  0  0  0
 15 16  4  0  0  0
 15 31  4  0  0  0
 16 17  4  0  0  0
 17 18  4  0  0  0
 17 22  4  0  0  0
 18 19  4  0  0  0
 18 30  4  0  0  0
 19 20  4  0  0  0
 20 21  4  0  0  0
 21 22  4  0  0  0
 22 23  1  0  0  0
 23 24  1  0  0  0
 23 28  1  0  0  0
 24 25  1  0  0  0
 25 26  1  0  0  0
 26 27  1  0  0  0
 26 29  1  0  0  0
 27 28  1  0  0  0
 30 31  4  0  0  0
  1 32  1  0  0  0
  1 33  1  0  0  0
  1 34  1  0  0  0
  3 35  1  0  0  0
  3 36  1  0  0  0
  4 37  1  0  0  0
  4 38  1  0  0  0
  7 39  1  0  0  0
 10 40  1  0  0  0
 11 41  1  0  0  0
 13 42  1  0  0  0
 19 43  1  0  0  0
 20 44  1  0  0  0
 21 45  1  0  0  0
 24 46  1  0  0  0
 24 47  1  0  0  0
 25 48  1  0  0  0
 25 49  1  0  0  0
 26 50  1  0  0  0
 27 51  1  0  0  0
 27 52  1  0  0  0
 28 53  1  0  0  0
 28 54  1  0  0  0
 29 55  1  0  0  0
 29 56  1  0  0  0
 29 57  1  0  0  0
 30 58  1  0  0  0
 31 59  1  0  0  0
M  END
$$$$
