6cer_ligand
  -I-interpret- 

 45 46  0  0  0  0  0  0  0  0999 V2000
  -21.0580   13.2580   34.6120 N   0  0  0  0  0
  -20.4480   12.0470   34.5990 C   0  0  0  0  0
  -19.0030   11.9490   35.0110 C   0  0  0  0  0
  -21.1060   10.9250   34.2250 N   0  0  0  0  0
  -22.4000   10.9860   33.8510 C   0  0  0  0  0
  -23.0660    9.8680   33.4750 N   0  0  0  0  0
  -23.0750   12.3040   33.8620 C   0  0  0  0  0
  -22.3400   13.4120   34.2570 C   0  0  0  0  0
  -24.5240   12.4390   33.4540 C   0  0  0  0  0
  -24.6600   12.1320   32.0310 N   0  3  0  0  0
  -24.7280   10.8710   31.5550 C   0  0  0  0  0
  -24.8890   10.7370   29.8210 S   0  0  0  0  0
  -24.8620   12.4660   29.7390 C   0  0  0  0  0
  -24.7270   13.0830   31.0810 C   0  0  0  0  0
  -24.6740   14.5650   31.3440 C   0  0  0  0  0
  -24.9770   13.0420   28.3480 C   0  0  0  0  0
  -26.4490   13.2000   27.9830 C   0  0  0  0  0
  -26.9630   11.9490   27.5320 O   0  0  0  0  0
  -27.2270   11.6910   25.9640 P   0  0  0  0  0
  -26.1000   12.6030   25.2630 O   0  0  0  0  0
  -28.5810   12.2600   25.6130 O   0  0  0  0  0
  -26.9170   10.2440   25.6650 O   0  0  0  0  0
  -24.6700   11.9760   24.8720 P   0  0  0  0  0
  -24.8790   11.4310   23.4800 O   0  0  0  0  0
  -23.7250   13.1520   24.9460 O   0  0  0  0  0
  -24.4350   10.9200   25.9260 O   0  0  0  0  0
  -18.3954   12.5673   34.3503 H   0  0  0  0  0
  -18.8949   12.2976   36.0381 H   0  0  0  0  0
  -18.6764   10.9114   34.9418 H   0  0  0  0  0
  -22.5887    8.9666   33.4726 H   0  0  0  0  0
  -24.0448    9.9276   33.1942 H   0  0  0  0  0
  -22.8017   14.3991   34.2783 H   0  0  0  0  0
  -24.8603   13.4591   33.6395 H   0  0  0  0  0
  -25.1314   11.7451   34.0352 H   0  0  0  0  0
  -24.6855    9.9981   32.2064 H   0  0  0  0  0
  -25.5041   14.8478   31.9913 H   0  0  0  0  0
  -23.7310   14.8128   31.8312 H   0  0  0  0  0
  -24.7487   15.1033   30.3991 H   0  0  0  0  0
  -24.4963   12.3710   27.6361 H   0  0  0  0  0
  -24.4885   14.0159   28.3166 H   0  0  0  0  0
  -26.5495   13.9414   27.1904 H   0  0  0  0  0
  -27.0078   13.5280   28.8595 H   0  0  0  0  0
  -28.6137   13.1852   25.8671 H   0  0  0  0  0
  -23.6447   13.4396   25.8584 H   0  0  0  0  0
  -24.3116   11.3428   26.7790 H   0  0  0  0  0
  1  2  4  0  0  0
  1  8  4  0  0  0
  2  3  1  0  0  0
  2  4  4  0  0  0
  4  5  4  0  0  0
  5  6  1  0  0  0
  5  7  4  0  0  0
  7  8  4  0  0  0
  7  9  1  0  0  0
  9 10  1  0  0  0
 10 11  4  0  0  0
 10 14  4  0  0  0
 11 12  4  0  0  0
 12 13  4  0  0  0
 13 14  4  0  0  0
 13 16  1  0  0  0
 14 15  1  0  0  0
 16 17  1  0  0  0
 17 18  1  0  0  0
 18 19  1  0  0  0
 19 20  1  0  0  0
 19 21  1  0  0  0
 19 22  2  0  0  0
 20 23  1  0  0  0
 23 24  2  0  0  0
 23 25  1  0  0  0
 23 26  1  0  0  0
  3 27  1  0  0  0
  3 28  1  0  0  0
  3 29  1  0  0  0
  6 30  1  0  0  0
  6 31  1  0  0  0
  8 32  1  0  0  0
  9 33  1  0  0  0
  9 34  1  0  0  0
 11 35  1  0  0  0
 15 36  1  0  0  0
 15 37  1  0  0  0
 15 38  1  0  0  0
 16 39  1  0  0  0
 16 40  1  0  0  0
 17 41  1  0  0  0
 17 42  1  0  0  0
 21 43  1  0  0  0
 25 44  1  0  0  0
 26 45  1  0  0  0
M  END
$$$$
