### 
### Created by X-TOOL on Wed Jan  1 15:39:36 2020
### 

@<TRIPOS>MOLECULE
6cer_ligand
   42    43     1     0     0
SMALL
GAST_HUCK


@<TRIPOS>ATOM
      1 N1'       -21.0580   13.2580   34.6120 N.ar      1 TDP        -0.2938
      2 C2'       -20.4480   12.0470   34.5990 C.ar      1 TDP         0.0758
      3 C2A       -19.0030   11.9490   35.0110 C.3       1 TDP        -0.0029
      4 N3'       -21.1060   10.9250   34.2250 N.ar      1 TDP        -0.2610
      5 C4'       -22.4000   10.9860   33.8510 C.ar      1 TDP         0.1223
      6 N4'       -23.0660    9.8680   33.4750 N.pl3     1 TDP        -0.3187
      7 C5'       -23.0750   12.3040   33.8620 C.ar      1 TDP         0.0328
      8 C6'       -22.3400   13.4120   34.2570 C.ar      1 TDP         0.0074
      9 C35       -24.5240   12.4390   33.4540 C.3       1 TDP         0.0562
     10 N3        -24.6600   12.1320   32.0310 N.2       1 TDP        -0.2745
     11 C2        -24.7280   10.8710   31.5550 C.2       1 TDP         0.1352
     12 S1        -24.8890   10.7370   29.8210 S.3       1 TDP         0.1156
     13 C5        -24.8620   12.4660   29.7390 C.2       1 TDP         0.1730
     14 C4        -24.7270   13.0830   31.0810 C.2       1 TDP         0.1309
     15 C4A       -24.6740   14.5650   31.3440 C.3       1 TDP         0.0228
     16 C5A       -24.9770   13.0420   28.3480 C.3       1 TDP         0.0829
     17 C5B       -26.4490   13.2000   27.9830 C.3       1 TDP         0.1135
     18 O5G       -26.9630   11.9490   27.5320 O.3       1 TDP        -0.2401
     19 P1        -27.2270   11.6910   25.9640 P.3       1 TDP         0.3279
     20 O11       -26.1000   12.6030   25.2630 O.3       1 TDP        -0.1548
     21 O12       -28.5810   12.2600   25.6130 O.co2     1 TDP        -0.5556
     22 O13       -26.9170   10.2440   25.6650 O.co2     1 TDP        -0.5556
     23 P2        -24.6700   11.9760   24.8720 P.3       1 TDP         0.2069
     24 O21       -24.8790   11.4310   23.4800 O.co2     1 TDP        -0.5891
     25 O22       -23.7250   13.1520   24.9460 O.co2     1 TDP        -0.5891
     26 O23       -24.4350   10.9200   25.9260 O.co2     1 TDP        -0.5891
     27 H1        -18.6302   12.9481   35.2810 H         1 TDP         0.0449
     28 H2        -18.4097   11.5497   34.1752 H         1 TDP         0.0449
     29 H3        -18.9136   11.2777   35.8778 H         1 TDP         0.0449
     30 H4        -24.0544    9.9282   33.1915 H         1 TDP         0.1789
     31 H5        -22.5840    8.9577   33.4726 H         1 TDP         0.1789
     32 H6        -22.7992   14.3937   34.2781 H         1 TDP         0.0791
     33 H7        -24.8633   13.4685   33.6411 H         1 TDP         0.0563
     34 H8        -25.1369   11.7387   34.0404 H         1 TDP         0.0563
     35 H9        -24.6855    9.9989   32.2058 H         1 TDP         0.1655
     36 H10       -24.7493   15.1094   30.3911 H         1 TDP         0.0599
     37 H11       -23.7227   14.8164   31.8357 H         1 TDP         0.0599
     38 H12       -25.5113   14.8517   31.9972 H         1 TDP         0.0599
     39 H13       -24.4918   12.3649   27.6296 H         1 TDP         0.0773
     40 H14       -24.4839   14.0248   28.3162 H         1 TDP         0.0773
     41 H15       -26.5503   13.9480   27.1829 H         1 TDP         0.0687
     42 H16       -27.0129   13.5307   28.8677 H         1 TDP         0.0687
@<TRIPOS>BOND
     1    1    2 ar 
     2    1    8 ar 
     3    2    3 1  
     4    2    4 ar 
     5    4    5 ar 
     6    5    6 1  
     7    5    7 ar 
     8    7    8 ar 
     9    7    9 1  
    10    9   10 1  
    11   10   11 2  
    12   10   14 1  
    13   11   12 1  
    14   12   13 1  
    15   13   14 2  
    16   13   16 1  
    17   14   15 1  
    18   16   17 1  
    19   17   18 1  
    20   18   19 1  
    21   19   20 1  
    22   19   21 ar 
    23   19   22 ar 
    24   20   23 1  
    25   23   24 ar 
    26   23   25 ar 
    27   23   26 ar 
    28    3   27 1  
    29    3   28 1  
    30    3   29 1  
    31    6   30 1  
    32    6   31 1  
    33    8   32 1  
    34    9   33 1  
    35    9   34 1  
    36   11   35 1  
    37   15   36 1  
    38   15   37 1  
    39   15   38 1  
    40   16   39 1  
    41   16   40 1  
    42   17   41 1  
    43   17   42 1  
@<TRIPOS>SUBSTRUCTURE
     1 TDP         1

