4hnp_ligand
  -I-interpret- 

 86 85  0  0  0  0  0  0  0  0999 V2000
   58.0560 -134.6970   33.9240 C   0  0  0  0  0
   59.1620 -135.3690   34.7070 C   0  0  0  0  0
   59.0140 -136.5110   35.1240 O   0  0  0  0  0
   56.8290 -134.5740   34.8200 C   0  0  0  0  0
   55.8660 -133.5070   34.3200 C   0  0  0  0  0
   54.4290 -133.8370   34.7120 C   0  0  0  0  0
   53.4490 -133.3010   33.6880 C   0  0  0  0  0
   60.2600 -134.6370   34.8990 N   0  0  0  0  0
   61.4310 -135.0910   35.6330 C   0  0  0  0  0
   61.1110 -135.2220   37.0990 C   0  0  0  0  0
   60.5320 -134.3120   37.6690 O   0  0  0  0  0
   62.5780 -134.1070   35.3990 C   0  0  0  0  0
   63.0620 -134.1630   33.9560 C   0  0  0  0  0
   63.7470 -134.3290   36.3490 C   0  0  0  0  0
   62.4700 -136.5670   39.9600 C   0  0  0  0  0
   58.1100 -138.4350   38.8450 C   0  0  0  0  0
   59.4880 -138.2570   38.2460 C   0  0  0  0  0
   61.4770 -136.3520   37.7100 N   0  0  0  0  0
   57.9440 -139.2210   39.7660 O   0  0  0  0  0
   57.1130 -137.7160   38.3150 N   0  0  0  0  0
   56.9870 -136.2790   38.5280 C   0  0  0  0  0
   56.0670 -138.3110   37.4820 C   0  0  0  0  0
   61.2190 -136.6060   39.1220 C   0  0  0  0  0
   60.5140 -137.9470   39.3320 C   0  0  0  0  0
   63.5720 -136.7460   39.4560 O   0  0  0  0  0
   62.2900 -136.3320   41.2600 N   0  0  0  0  0
   63.3740 -136.2510   42.2250 C   0  0  0  0  0
   63.2910 -137.4020   43.2410 C   0  0  0  0  0
   62.0880 -137.2420   44.0150 O   0  0  0  0  0
   63.2450 -138.7470   42.5260 C   0  0  0  0  0
   64.3580 -139.1740   41.6090 C   0  0  0  0  0
   62.2280 -139.5750   42.7010 C   0  0  0  0  0
   63.3180 -134.8760   42.8950 C   0  0  0  0  0
   64.3220 -133.8330   42.4020 C   0  0  0  0  0
   64.7250 -133.9680   40.9370 C   0  0  0  0  0
   63.7790 -132.4330   42.6620 C   0  0  0  0  0
   57.8130 -135.2901   33.0424 H   0  0  0  0  0
   58.3794 -133.7076   33.6007 H   0  0  0  0  0
   57.1621 -134.2927   35.8190 H   0  0  0  0  0
   56.3083 -135.5316   34.8198 H   0  0  0  0  0
   55.9294 -133.4618   33.2328 H   0  0  0  0  0
   56.1396 -132.5522   34.7690 H   0  0  0  0  0
   54.2149 -133.3749   35.6757 H   0  0  0  0  0
   54.3213 -134.9204   34.7649 H   0  0  0  0  0
   53.5530 -132.2181   33.6195 H   0  0  0  0  0
   53.6585 -133.7496   32.7169 H   0  0  0  0  0
   52.4330 -133.5511   33.9936 H   0  0  0  0  0
   60.2801 -133.6964   34.5051 H   0  0  0  0  0
   61.7340 -136.0751   35.2753 H   0  0  0  0  0
   62.1751 -133.1151   35.6037 H   0  0  0  0  0
   63.4139 -135.1698   33.7310 H   0  0  0  0  0
   62.2397 -133.9064   33.2881 H   0  0  0  0  0
   63.8775 -133.4528   33.8198 H   0  0  0  0  0
   63.4063 -134.2066   37.3771 H   0  0  0  0  0
   64.1384 -135.3371   36.2121 H   0  0  0  0  0
   64.5302 -133.6017   36.1355 H   0  0  0  0  0
   59.4604 -137.4264   37.5407 H   0  0  0  0  0
   59.7754 -139.1808   37.7440 H   0  0  0  0  0
   61.9577 -137.0679   37.1651 H   0  0  0  0  0
   56.8868 -136.0785   39.5947 H   0  0  0  0  0
   57.8752 -135.7769   38.1445 H   0  0  0  0  0
   56.1052 -135.9112   38.0034 H   0  0  0  0  0
   56.5210 -138.7709   36.6042 H   0  0  0  0  0
   55.5342 -139.0689   38.0563 H   0  0  0  0  0
   55.3695 -137.5348   37.1673 H   0  0  0  0  0
   60.5659 -135.7976   39.4506 H   0  0  0  0  0
   61.2728 -138.7291   39.3052 H   0  0  0  0  0
   59.9857 -137.8991   40.2842 H   0  0  0  0  0
   61.3362 -136.2015   41.5970 H   0  0  0  0  0
   64.3364 -136.3592   41.7248 H   0  0  0  0  0
   64.1714 -137.3773   43.8832 H   0  0  0  0  0
   62.0231 -137.9550   44.6545 H   0  0  0  0  0
   64.8046 -140.0942   41.9857 H   0  0  0  0  0
   63.9581 -139.3453   40.6096 H   0  0  0  0  0
   65.1151 -138.3909   41.5695 H   0  0  0  0  0
   61.4081 -139.2987   43.3639 H   0  0  0  0  0
   62.2101 -140.5335   42.1822 H   0  0  0  0  0
   63.5501 -135.0438   43.9467 H   0  0  0  0  0
   62.3304 -134.4723   42.6718 H   0  0  0  0  0
   65.2338 -134.0135   42.9713 H   0  0  0  0  0
   65.1831 -134.9438   40.7760 H   0  0  0  0  0
   63.8401 -133.8723   40.3078 H   0  0  0  0  0
   65.4387 -133.1839   40.6841 H   0  0  0  0  0
   62.8356 -132.3062   42.1310 H   0  0  0  0  0
   63.6160 -132.3008   43.7316 H   0  0  0  0  0
   64.4984 -131.6943   42.3088 H   0  0  0  0  0
  2  1  1  0  0  0
  1  4  1  0  0  0
  2  3  2  0  0  0
  8  2  1  0  0  0
  4  5  1  0  0  0
  5  6  1  0  0  0
  6  7  1  0  0  0
  9  8  1  0  0  0
 10  9  1  0  0  0
  9 12  1  0  0  0
 10 11  2  0  0  0
 18 10  1  0  0  0
 12 13  1  0  0  0
 12 14  1  0  0  0
 23 15  1  0  0  0
 15 25  2  0  0  0
 15 26  1  0  0  0
 17 16  1  0  0  0
 16 19  2  0  0  0
 16 20  1  0  0  0
 24 17  1  0  0  0
 23 18  1  0  0  0
 20 21  1  0  0  0
 20 22  1  0  0  0
 23 24  1  0  0  0
 26 27  1  0  0  0
 27 28  1  0  0  0
 27 33  1  0  0  0
 28 29  1  0  0  0
 28 30  1  0  0  0
 30 31  1  0  0  0
 30 32  2  0  0  0
 33 34  1  0  0  0
 34 35  1  0  0  0
 34 36  1  0  0  0
  1 37  1  0  0  0
  1 38  1  0  0  0
  4 39  1  0  0  0
  4 40  1  0  0  0
  5 41  1  0  0  0
  5 42  1  0  0  0
  6 43  1  0  0  0
  6 44  1  0  0  0
  7 45  1  0  0  0
  7 46  1  0  0  0
  7 47  1  0  0  0
  8 48  1  0  0  0
  9 49  1  0  0  0
 12 50  1  0  0  0
 13 51  1  0  0  0
 13 52  1  0  0  0
 13 53  1  0  0  0
 14 54  1  0  0  0
 14 55  1  0  0  0
 14 56  1  0  0  0
 17 57  1  0  0  0
 17 58  1  0  0  0
 18 59  1  0  0  0
 21 60  1  0  0  0
 21 61  1  0  0  0
 21 62  1  0  0  0
 22 63  1  0  0  0
 22 64  1  0  0  0
 22 65  1  0  0  0
 23 66  1  0  0  0
 24 67  1  0  0  0
 24 68  1  0  0  0
 26 69  1  0  0  0
 27 70  1  0  0  0
 28 71  1  0  0  0
 29 72  1  0  0  0
 31 73  1  0  0  0
 31 74  1  0  0  0
 31 75  1  0  0  0
 32 76  1  0  0  0
 32 77  1  0  0  0
 33 78  1  0  0  0
 33 79  1  0  0  0
 34 80  1  0  0  0
 35 81  1  0  0  0
 35 82  1  0  0  0
 35 83  1  0  0  0
 36 84  1  0  0  0
 36 85  1  0  0  0
 36 86  1  0  0  0
M  END
$$$$
