### 
### Created by X-TOOL on Mon Sep 10 21:13:12 2018
### 

@<TRIPOS>MOLECULE
4k5m_ligand
   28    27     1     0     0
SMALL
GAST_HUCK


@<TRIPOS>ATOM
      1 N1         13.7330    9.4610   17.6570 N.pl3     1 1OV        -0.2849
      2 C1         12.9130   10.4020   17.9970 C.cat     1 1OV         0.2882
      3 N2         11.9430   10.2700   18.9570 N.pl3     1 1OV        -0.2849
      4 N3         13.0150   11.5640   17.3060 N.pl3     1 1OV        -0.2723
      5 C2         12.0990   11.9070   16.2390 C.3       1 1OV         0.0628
      6 C3         12.7270   12.7170   15.1090 C.3       1 1OV        -0.0133
      7 C4         12.7310   11.7710   13.8540 C.3       1 1OV         0.0092
      8 C5         12.5630   12.6330   12.5740 C.3       1 1OV         0.0443
      9 N4         11.1290   12.8320   12.1320 N.4       1 1OV         0.2328
     10 P          13.4040   11.7750   11.2130 P.3       1 1OV         0.1102
     11 O1         13.1330   12.6790    9.9740 O.co2     1 1OV        -0.5586
     12 O3         14.9540   11.5600   11.4480 O.co2     1 1OV        -0.5586
     13 O2         12.5150   10.4830   10.8800 O.co2     1 1OV        -0.5586
     14 H1         13.7062    8.5537   18.1439 H         1 1OV         0.2615
     15 H2         14.4127    9.6190   16.8994 H         1 1OV         0.2615
     16 H3         11.3241   11.0636   19.1763 H         1 1OV         0.2615
     17 H4         11.8332    9.3773   19.4589 H         1 1OV         0.2615
     18 H5         13.7682   12.2236   17.5480 H         1 1OV         0.2642
     19 H6         11.2750   12.4958   16.6682 H         1 1OV         0.0689
     20 H7         11.7004   10.9741   15.8138 H         1 1OV         0.0689
     21 H8         13.7545   13.0085   15.3720 H         1 1OV         0.0301
     22 H9         12.1304   13.6187   14.9068 H         1 1OV         0.0301
     23 H10        11.8993   11.0549   13.9287 H         1 1OV         0.0336
     24 H11        13.6837   11.2230   13.8077 H         1 1OV         0.0336
     25 H12        13.0231   13.6168   12.7485 H         1 1OV         0.1049
     26 H13        10.6165   13.3076   12.8581 H         1 1OV         0.2011
     27 H14        10.7048   11.9352   11.9537 H         1 1OV         0.2011
     28 H15        11.1107   13.3858   11.2900 H         1 1OV         0.2011
@<TRIPOS>BOND
     1    1    2 ar 
     2    2    3 ar 
     3    2    4 ar 
     4    4    5 1  
     5    5    6 1  
     6    6    7 1  
     7    7    8 1  
     8    8    9 1  
     9    8   10 1  
    10   10   11 ar 
    11   10   12 ar 
    12   10   13 ar 
    13    1   14 1  
    14    1   15 1  
    15    3   16 1  
    16    3   17 1  
    17    4   18 1  
    18    5   19 1  
    19    5   20 1  
    20    6   21 1  
    21    6   22 1  
    22    7   23 1  
    23    7   24 1  
    24    8   25 1  
    25    9   26 1  
    26    9   27 1  
    27    9   28 1  
@<TRIPOS>SUBSTRUCTURE
     1 1OV         1

