4k5m_ligand
  -I-interpret- 

 29 28  0  0  0  0  0  0  0  0999 V2000
   13.7330    9.4610   17.6570 N   0  0  0  0  0
   12.9130   10.4020   17.9970 C   0  0  0  0  0
   11.9430   10.2700   18.9570 N   0  0  0  0  0
   13.0150   11.5640   17.3060 N   0  0  0  0  0
   12.0990   11.9070   16.2390 C   0  0  0  0  0
   12.7270   12.7170   15.1090 C   0  0  0  0  0
   12.7310   11.7710   13.8540 C   0  0  0  0  0
   12.5630   12.6330   12.5740 C   0  0  0  0  0
   11.1290   12.8320   12.1320 N   0  3  0  0  0
   13.4040   11.7750   11.2130 P   0  0  0  0  0
   13.1330   12.6790    9.9740 O   0  0  0  0  0
   14.9540   11.5600   11.4480 O   0  0  0  0  0
   12.5150   10.4830   10.8800 O   0  0  0  0  0
   14.4061    9.6175   16.9068 H   0  0  0  0  0
   11.8343    9.3859   19.4540 H   0  0  0  0  0
   11.3301   11.0559   19.1742 H   0  0  0  0  0
   13.7609   12.2172   17.5456 H   0  0  0  0  0
   11.3129   12.5225   16.6765 H   0  0  0  0  0
   11.7466   10.9711   15.8054 H   0  0  0  0  0
   13.7362   13.0390   15.3657 H   0  0  0  0  0
   12.1637   13.6298   14.9153 H   0  0  0  0  0
   11.9104   11.0573   13.9279 H   0  0  0  0  0
   13.6723   11.2233   13.8084 H   0  0  0  0  0
   12.9743   13.6140   12.8116 H   0  0  0  0  0
   10.6115   13.3133   12.8675 H   0  0  0  0  0
   11.1118   13.3924   11.2799 H   0  0  0  0  0
   10.7009   11.9239   11.9518 H   0  0  0  0  0
   15.0853   11.0002   12.2167 H   0  0  0  0  0
   12.6049    9.8426   11.5895 H   0  0  0  0  0
  1  2  2  0  0  0
  2  3  1  0  0  0
  2  4  1  0  0  0
  4  5  1  0  0  0
  5  6  1  0  0  0
  6  7  1  0  0  0
  7  8  1  0  0  0
  8  9  1  0  0  0
  8 10  1  0  0  0
 10 11  2  0  0  0
 10 12  1  0  0  0
 10 13  1  0  0  0
  1 14  1  0  0  0
  3 15  1  0  0  0
  3 16  1  0  0  0
  4 17  1  0  0  0
  5 18  1  0  0  0
  5 19  1  0  0  0
  6 20  1  0  0  0
  6 21  1  0  0  0
  7 22  1  0  0  0
  7 23  1  0  0  0
  8 24  1  0  0  0
  9 25  1  0  0  0
  9 26  1  0  0  0
  9 27  1  0  0  0
 12 28  1  0  0  0
 13 29  1  0  0  0
M  END
$$$$
