1v3x_ligand
  -I-interpret- 

 60 64  0  0  0  0  0  0  0  0999 V2000
    9.7770    0.3270   16.8850 C   0  0  0  0  0
    8.8880    1.4080   17.3350 N   0  3  0  0  0
    8.1500    1.0110   18.5780 C   0  0  0  0  0
    9.5380    2.7670   17.3910 C   0  0  0  0  0
    8.5460    3.9030   17.7650 C   0  0  0  0  0
    7.5950    3.5130   18.8950 C   0  0  0  0  0
    7.4390    2.1940   19.2350 C   0  0  0  0  0
    6.8460    4.3850   19.6390 N   0  0  0  0  0
    6.1340    3.6760   20.5460 C   0  0  0  0  0
    6.3410    1.9780   20.5220 S   0  0  0  0  0
    5.1500    4.2030   21.5870 C   0  0  0  0  0
    4.6270    3.3610   22.3410 O   0  0  0  0  0
    4.8500    5.5250   21.6730 N   0  0  0  0  0
    4.0740    6.0250   22.8560 C   0  0  0  0  0
    5.0210    6.8520   23.7360 C   0  0  0  0  0
    5.5400    6.5710   20.8060 C   0  0  0  0  0
    4.5900    7.5120   19.9910 C   0  0  0  0  0
    4.9300    8.6030   19.5210 O   0  0  0  0  0
    3.3390    7.1600   19.7830 N   0  0  0  0  0
    6.4650    7.4040   21.7340 C   0  0  0  0  0
    5.6690    7.8790   22.8930 N   0  0  0  0  0
    6.1310    9.3630   23.5960 S   0  0  0  0  0
    5.3340    9.6380   24.9390 O   0  0  0  0  0
    6.0510   10.4380   22.4280 O   0  0  0  0  0
    7.8130    9.0440   24.0090 C   0  0  0  0  0
    8.8150    9.4950   23.1520 C   0  0  0  0  0
   10.1500    9.2170   23.4840 C   0  0  0  0  0
   10.4690    8.4910   24.6490 C   0  0  0  0  0
   11.7970    8.2070   24.9810 C   0  0  0  0  0
    9.4070    7.9940   25.5200 C   0  0  0  0  0
    8.0820    8.2960   25.1740 C   0  0  0  0  0
    9.7420    7.2870   26.6790 C   0  0  0  0  0
   11.0830    7.0300   26.9910 C   0  0  0  0  0
   12.1070    7.4830   26.1370 C   0  0  0  0  0
   13.8160    7.1700   26.4730 Cl  0  0  0  0  0
   10.1374    0.5491   15.8806 H   0  0  0  0  0
   10.6237    0.2471   17.5668 H   0  0  0  0  0
    9.2267   -0.6138   16.8752 H   0  0  0  0  0
    8.1833    1.5358   16.6087 H   0  0  0  0  0
    8.8750    0.6153   19.2893 H   0  0  0  0  0
    7.3954    0.2744   18.3020 H   0  0  0  0  0
    9.9332    2.9860   16.3990 H   0  0  0  0  0
   10.3087    2.7338   18.1611 H   0  0  0  0  0
    7.9436    4.1227   16.8836 H   0  0  0  0  0
    9.1312    4.7585   18.1025 H   0  0  0  0  0
    3.6732    5.1850   23.4233 H   0  0  0  0  0
    3.2385    6.6408   22.5230 H   0  0  0  0  0
    5.7770    6.2041   24.1797 H   0  0  0  0  0
    4.4599    7.3300   24.5389 H   0  0  0  0  0
    6.0928    6.0334   20.0356 H   0  0  0  0  0
    2.7159    7.7760   19.2608 H   0  0  0  0  0
    2.9925    6.2712   20.1440 H   0  0  0  0  0
    6.8694    8.2559   21.1873 H   0  0  0  0  0
    7.2946    6.7880   22.0810 H   0  0  0  0  0
    8.5682   10.0496   22.2467 H   0  0  0  0  0
   10.9505    9.5672   22.8323 H   0  0  0  0  0
   12.6005    8.5539   24.3312 H   0  0  0  0  0
    7.2615    7.9532   25.8043 H   0  0  0  0  0
    8.9541    6.9335   27.3442 H   0  0  0  0  0
   11.3345    6.4782   27.8967 H   0  0  0  0  0
  1  2  1  0  0  0
  2  3  1  0  0  0
  2  4  1  0  0  0
  3  7  1  0  0  0
  4  5  1  0  0  0
  5  6  1  0  0  0
  6  7  4  0  0  0
  6  8  4  0  0  0
  7 10  4  0  0  0
  8  9  4  0  0  0
  9 10  4  0  0  0
  9 11  1  0  0  0
 11 12  2  0  0  0
 11 13  1  0  0  0
 13 14  1  0  0  0
 13 16  1  0  0  0
 14 15  1  0  0  0
 15 21  1  0  0  0
 16 17  1  0  0  0
 16 20  1  0  0  0
 17 18  2  0  0  0
 17 19  1  0  0  0
 20 21  1  0  0  0
 21 22  1  0  0  0
 22 23  2  0  0  0
 22 24  2  0  0  0
 22 25  1  0  0  0
 25 26  4  0  0  0
 25 31  4  0  0  0
 26 27  4  0  0  0
 27 28  4  0  0  0
 28 29  4  0  0  0
 28 30  4  0  0  0
 29 34  4  0  0  0
 30 31  4  0  0  0
 30 32  4  0  0  0
 32 33  4  0  0  0
 33 34  4  0  0  0
 34 35  1  0  0  0
  1 36  1  0  0  0
  1 37  1  0  0  0
  1 38  1  0  0  0
  2 39  1  0  0  0
  3 40  1  0  0  0
  3 41  1  0  0  0
  4 42  1  0  0  0
  4 43  1  0  0  0
  5 44  1  0  0  0
  5 45  1  0  0  0
 14 46  1  0  0  0
 14 47  1  0  0  0
 15 48  1  0  0  0
 15 49  1  0  0  0
 16 50  1  0  0  0
 19 51  1  0  0  0
 19 52  1  0  0  0
 20 53  1  0  0  0
 20 54  1  0  0  0
 26 55  1  0  0  0
 27 56  1  0  0  0
 29 57  1  0  0  0
 31 58  1  0  0  0
 32 59  1  0  0  0
 33 60  1  0  0  0
M  END
$$$$
