3ov1_ligand
  -I-interpret- 

 60 61  0  0  0  0  0  0  0  0999 V2000
  -13.6590   13.3310   -2.4890 C   0  0  0  0  0
  -14.1780   12.2070   -2.5230 O   0  0  0  0  0
  -13.7790   14.2530   -3.6690 C   0  0  0  0  0
  -12.9990   13.8210   -1.4770 N   0  0  0  0  0
  -12.7650   12.9410   -0.2770 C   0  0  0  0  0
  -13.1440   13.6920    1.0160 C   0  0  0  0  0
  -12.8720   14.8890    1.1720 O   0  0  0  0  0
  -11.2870   12.5730   -0.1190 C   0  0  0  0  0
  -10.8580   11.8380   -1.4220 C   0  0  0  0  0
  -10.3740   12.5930   -2.4720 C   0  0  0  0  0
  -11.0310   10.4590   -1.5710 C   0  0  0  0  0
  -10.0200   12.0200   -3.6690 C   0  0  0  0  0
  -10.7120    9.9050   -2.8250 C   0  0  0  0  0
  -10.2140   10.6580   -3.8910 C   0  0  0  0  0
   -9.8950   10.1540   -5.1580 O   0  0  0  0  0
  -10.2270    8.6340   -5.6580 P   0  0  0  0  0
  -10.0090    8.8150   -7.1890 O   0  0  0  0  0
   -9.1790    7.7540   -5.0650 O   0  0  0  0  0
  -11.6280    8.4060   -5.4010 O   0  0  0  0  0
  -15.5160   14.3000    3.1210 C   0  0  0  0  0
  -15.3340   13.0410    3.9310 C   0  0  0  0  0
  -14.1810   13.6370    3.1400 C   0  0  0  0  0
  -13.0700   14.1400    4.0390 C   0  0  0  0  0
  -13.2960   15.0480    4.8690 O   0  0  0  0  0
  -13.7640   12.9400    1.9640 N   0  0  0  0  0
  -11.8530   13.5910    3.8970 N   0  0  0  0  0
  -10.7050   14.0510    4.6390 C   0  0  0  0  0
   -9.7330   14.7920    3.6830 C   0  0  0  0  0
   -8.5470   14.9650    4.0270 O   0  0  0  0  0
  -10.0330   12.8660    5.3610 C   0  0  0  0  0
   -9.5220   11.7930    4.3970 C   0  0  0  0  0
   -9.9510   11.7660    3.2500 O   0  0  0  0  0
   -8.5970   10.9420    4.8900 N   0  0  0  0  0
  -10.2100   15.2760    2.5260 N   0  0  0  0  0
  -13.3296   13.7823   -4.5434 H   0  0  0  0  0
  -14.8320   14.4555   -3.8646 H   0  0  0  0  0
  -13.2621   15.1878   -3.4521 H   0  0  0  0  0
  -12.6489   14.7788   -1.4974 H   0  0  0  0  0
  -13.3711   12.0485   -0.4325 H   0  0  0  0  0
  -11.1403   11.9325    0.7507 H   0  0  0  0  0
  -10.6821   13.4663    0.0364 H   0  0  0  0  0
  -10.2703   13.6709   -2.3478 H   0  0  0  0  0
  -11.3969    9.8398   -0.7520 H   0  0  0  0  0
   -9.5826   12.6372   -4.4537 H   0  0  0  0  0
  -10.8610    8.8352   -2.9716 H   0  0  0  0  0
   -9.0771    8.9669   -7.3626 H   0  0  0  0  0
   -8.3122    8.0571   -5.3451 H   0  0  0  0  0
  -15.9256   15.3005    3.2601 H   0  0  0  0  0
  -16.2142   14.6942    2.3826 H   0  0  0  0  0
  -15.8218   12.0779    4.0812 H   0  0  0  0  0
  -15.5415   12.6667    4.9335 H   0  0  0  0  0
  -13.9219   11.9395    1.8433 H   0  0  0  0  0
  -11.7360   12.8198    3.2398 H   0  0  0  0  0
  -11.0141   14.7591    5.4078 H   0  0  0  0  0
  -10.7789   12.4042    6.0078 H   0  0  0  0  0
   -9.1760   13.2543    5.9112 H   0  0  0  0  0
   -8.2058   10.2127    4.2938 H   0  0  0  0  0
   -8.2893   11.0284    5.8586 H   0  0  0  0  0
   -9.5976   15.8011    1.9017 H   0  0  0  0  0
  -11.1850   15.1188    2.2707 H   0  0  0  0  0
  1  2  2  0  0  0
  1  3  1  0  0  0
  4  1  1  0  0  0
  5  4  1  0  0  0
  6  5  1  0  0  0
  5  8  1  0  0  0
  6  7  2  0  0  0
 25  6  1  0  0  0
  8  9  1  0  0  0
  9 10  4  0  0  0
  9 11  4  0  0  0
 10 12  4  0  0  0
 11 13  4  0  0  0
 12 14  4  0  0  0
 13 14  4  0  0  0
 14 15  1  0  0  0
 15 16  1  0  0  0
 16 17  1  0  0  0
 16 18  1  0  0  0
 16 19  2  0  0  0
 21 20  1  0  0  0
 22 20  1  0  0  0
 22 21  1  0  0  0
 22 23  1  0  0  0
 22 25  1  0  0  0
 23 24  2  0  0  0
 23 26  1  0  0  0
 26 27  1  0  0  0
 27 28  1  0  0  0
 27 30  1  0  0  0
 28 29  2  0  0  0
 28 34  1  0  0  0
 30 31  1  0  0  0
 31 32  2  0  0  0
 31 33  1  0  0  0
  3 35  1  0  0  0
  3 36  1  0  0  0
  3 37  1  0  0  0
  4 38  1  0  0  0
  5 39  1  0  0  0
  8 40  1  0  0  0
  8 41  1  0  0  0
 10 42  1  0  0  0
 11 43  1  0  0  0
 12 44  1  0  0  0
 13 45  1  0  0  0
 17 46  1  0  0  0
 18 47  1  0  0  0
 20 48  1  0  0  0
 20 49  1  0  0  0
 21 50  1  0  0  0
 21 51  1  0  0  0
 25 52  1  0  0  0
 26 53  1  0  0  0
 27 54  1  0  0  0
 30 55  1  0  0  0
 30 56  1  0  0  0
 33 57  1  0  0  0
 33 58  1  0  0  0
 34 59  1  0  0  0
 34 60  1  0  0  0
M  END
$$$$
