6en6_ligand
  -I-interpret- 

 60 61  0  0  0  0  0  0  0  0999 V2000
   -2.1230   29.6480   -0.3650 C   0  0  0  0  0
   -1.6910   28.7440   -1.5120 C   0  0  0  0  0
   -2.1780   28.2060   -3.9040 C   0  0  0  0  0
   -0.7030   28.6010   -4.2620 C   0  0  0  0  0
   -3.2810   28.6360   -4.9700 C   0  0  0  0  0
   -4.3830   27.7850   -5.0420 C   0  0  0  0  0
   -3.8290   26.5770   -5.8750 C   0  0  0  0  0
   -2.8300   27.2550   -6.8840 C   0  0  0  0  0
   -2.2160   29.6540   -7.1970 C   0  0  0  0  0
   -1.6750   29.3580   -8.6760 C   0  0  0  0  0
   -0.1020   29.7330   -8.6700 C   0  0  0  0  0
    0.6190   29.2420   -9.9480 C   0  0  0  0  0
   -1.6500   27.2620   -1.0840 C   0  0  0  0  0
    0.6040   27.5070    0.0470 C   0  0  0  0  0
    1.6270   26.4420    0.5710 C   0  0  0  0  0
    0.7770   25.1880    0.9330 C   0  0  0  0  0
   -0.3900   25.2850    0.1870 C   0  0  0  0  0
   -1.6300   25.0740    1.0580 C   0  0  0  0  0
   -2.6270   28.9260   -2.6810 N   0  3  0  0  0
   -2.7050   28.5360   -6.4400 N   0  0  0  0  0
   -2.4570   30.1370   -9.6320 N   0  3  0  0  0
   -0.4760   26.7940   -0.3410 N   0  0  0  0  0
   -0.2860   29.8060   -4.2420 O   0  0  0  0  0
    0.1370   27.6900   -4.5260 O   0  0  0  0  0
   -2.1660   30.7440   -6.7090 O   0  0  0  0  0
    0.6460   27.9770  -10.1420 O   0  0  0  0  0
    1.1550   30.0860  -10.7570 O   0  0  0  0  0
   -2.5500   26.4770   -1.3080 O   0  0  0  0  0
   -2.0820   26.0520    1.7230 O   0  0  0  0  0
   -2.2120   23.9660    1.1330 O   0  0  0  0  0
   -3.1194   29.3583   -0.0312 H   0  0  0  0  0
   -1.4183   29.5473    0.4605 H   0  0  0  0  0
   -2.1394   30.6831   -0.7062 H   0  0  0  0  0
   -0.6805   29.0275   -1.8063 H   0  0  0  0  0
   -2.1202   27.1206   -3.8222 H   0  0  0  0  0
   -3.5629   29.6358   -4.6397 H   0  0  0  0  0
   -5.2542   28.2540   -5.4994 H   0  0  0  0  0
   -4.7583   27.4902   -4.0620 H   0  0  0  0  0
   -4.6186   26.0198   -6.3792 H   0  0  0  0  0
   -3.3465   25.8250   -5.2507 H   0  0  0  0  0
   -3.1981   27.2145   -7.9092 H   0  0  0  0  0
   -1.8700   26.7397   -6.9133 H   0  0  0  0  0
   -1.7843   28.3154   -8.9745 H   0  0  0  0  0
    0.3600   29.2463   -7.8110 H   0  0  0  0  0
   -0.0116   30.8183   -8.6246 H   0  0  0  0  0
    1.0167   28.0935   -0.7738 H   0  0  0  0  0
    0.3510   28.2365    0.8163 H   0  0  0  0  0
    2.1799   26.8116    1.4346 H   0  0  0  0  0
    2.3805   26.2091   -0.1814 H   0  0  0  0  0
    0.5601   25.1542    2.0007 H   0  0  0  0  0
    1.3152   24.2681    0.7043 H   0  0  0  0  0
   -0.3658   24.5362   -0.6047 H   0  0  0  0  0
   -2.6592   29.9215   -2.9009 H   0  0  0  0  0
   -3.5354   28.5469   -2.4134 H   0  0  0  0  0
   -2.1180   29.9535  -10.5763 H   0  0  0  0  0
   -3.4390   29.8697   -9.5641 H   0  0  0  0  0
   -2.3583   31.1301   -9.4210 H   0  0  0  0  0
   -1.0161   30.3926   -4.0312 H   0  0  0  0  0
    1.0202   30.9764  -10.4243 H   0  0  0  0  0
   -1.5355   26.8252    1.5644 H   0  0  0  0  0
  2  1  1  0  0  0
 13  2  1  0  0  0
  2 19  1  0  0  0
  3  4  1  0  0  0
  3  5  1  0  0  0
 19  3  1  0  0  0
  4 23  1  0  0  0
  4 24  2  0  0  0
  5  6  1  0  0  0
  5 20  1  0  0  0
  6  7  1  0  0  0
  8  7  1  0  0  0
 20  8  1  0  0  0
  9 10  1  0  0  0
 20  9  1  0  0  0
  9 25  2  0  0  0
 10 11  1  0  0  0
 10 21  1  0  0  0
 11 12  1  0  0  0
 12 26  2  0  0  0
 12 27  1  0  0  0
 22 13  1  0  0  0
 13 28  2  0  0  0
 14 15  1  0  0  0
 14 22  1  0  0  0
 15 16  1  0  0  0
 16 17  1  0  0  0
 17 18  1  0  0  0
 17 22  1  0  0  0
 18 29  1  0  0  0
 18 30  2  0  0  0
  1 31  1  0  0  0
  1 32  1  0  0  0
  1 33  1  0  0  0
  2 34  1  0  0  0
  3 35  1  0  0  0
  5 36  1  0  0  0
  6 37  1  0  0  0
  6 38  1  0  0  0
  7 39  1  0  0  0
  7 40  1  0  0  0
  8 41  1  0  0  0
  8 42  1  0  0  0
 10 43  1  0  0  0
 11 44  1  0  0  0
 11 45  1  0  0  0
 14 46  1  0  0  0
 14 47  1  0  0  0
 15 48  1  0  0  0
 15 49  1  0  0  0
 16 50  1  0  0  0
 16 51  1  0  0  0
 17 52  1  0  0  0
 19 53  1  0  0  0
 19 54  1  0  0  0
 21 55  1  0  0  0
 21 56  1  0  0  0
 21 57  1  0  0  0
 23 58  1  0  0  0
 27 59  1  0  0  0
 29 60  1  0  0  0
M  END
$$$$
