4z1j_ligand
  -I-interpret- 

 38 40  0  0  0  0  0  0  0  0999 V2000
   18.6380   11.1480   11.6990 C   0  0  0  0  0
   18.5440    9.9870   12.4930 C   0  0  0  0  0
   16.3930    7.2090   13.0610 C   0  0  0  0  0
   16.1480    6.0820   14.0040 C   0  0  0  0  0
   17.8630    8.7660   11.8870 C   0  0  0  0  0
   18.7110    7.6220   13.8490 C   0  0  0  0  0
   18.9580    8.8490   14.6960 C   0  0  0  0  0
   19.0420   10.0220   13.8310 C   0  0  0  0  0
   15.4060    7.5740   12.3780 O   0  0  0  0  0
   16.9990    4.9470   14.0180 C   0  0  0  0  0
   16.6790    3.8920   14.8830 C   0  0  0  0  0
   15.0400    6.1380   14.8220 C   0  0  0  0  0
   14.7470    5.0770   15.6480 C   0  0  0  0  0
   15.5550    3.9210   15.7300 C   0  0  0  0  0
   15.1130    2.6380   16.7860 S   0  0  0  0  0
   15.6950    1.2800   16.1550 N   0  0  0  0  0
   13.6400    2.6720   16.7860 O   0  0  0  0  0
   15.7510    2.8730   18.0340 O   0  0  0  0  0
   17.6270    7.7680   12.9110 N   0  0  0  0  0
   19.6650   11.1630   14.3780 C   0  0  0  0  0
   19.7610   12.3090   13.5780 C   0  0  0  0  0
   19.2480   12.2900   12.2550 C   0  0  0  0  0
   18.2488   11.1619   10.6810 H   0  0  0  0  0
   18.5073    8.3426   11.1165 H   0  0  0  0  0
   16.9090    9.0666   11.4538 H   0  0  0  0  0
   18.4468    6.8092   14.5255 H   0  0  0  0  0
   19.6170    7.4394   13.2712 H   0  0  0  0  0
   19.8925    8.7321   15.2447 H   0  0  0  0  0
   18.1389    8.9751   15.4040 H   0  0  0  0  0
   17.8770    4.8970   13.3741 H   0  0  0  0  0
   17.3256    3.0147   14.9007 H   0  0  0  0  0
   14.3984    7.0192   14.8147 H   0  0  0  0  0
   13.8513    5.1309   16.2668 H   0  0  0  0  0
   15.0565    0.5626   15.8114 H   0  0  0  0  0
   16.7031    1.1352   16.0980 H   0  0  0  0  0
   20.0603   11.1534   15.3937 H   0  0  0  0  0
   20.2282   13.2123   13.9704 H   0  0  0  0  0
   19.3287   13.1911   11.6471 H   0  0  0  0  0
  2  1  4  0  0  0
  1 22  4  0  0  0
  5  2  1  0  0  0
  2  8  4  0  0  0
  3  4  1  0  0  0
  3  9  2  0  0  0
 19  3  1  0  0  0
  4 10  4  0  0  0
  4 12  4  0  0  0
 19  5  1  0  0  0
  6  7  1  0  0  0
  6 19  1  0  0  0
  7  8  1  0  0  0
  8 20  4  0  0  0
 10 11  4  0  0  0
 11 14  4  0  0  0
 12 13  4  0  0  0
 13 14  4  0  0  0
 14 15  1  0  0  0
 15 16  1  0  0  0
 15 17  2  0  0  0
 15 18  2  0  0  0
 20 21  4  0  0  0
 21 22  4  0  0  0
  1 23  1  0  0  0
  5 24  1  0  0  0
  5 25  1  0  0  0
  6 26  1  0  0  0
  6 27  1  0  0  0
  7 28  1  0  0  0
  7 29  1  0  0  0
 10 30  1  0  0  0
 11 31  1  0  0  0
 12 32  1  0  0  0
 13 33  1  0  0  0
 16 34  1  0  0  0
 16 35  1  0  0  0
 20 36  1  0  0  0
 21 37  1  0  0  0
 22 38  1  0  0  0
M  END
$$$$
