2oc7_ligand
  -I-interpret- 

 88 91  0  0  0  0  0  0  0  0999 V2000
  192.7250  -10.6490   49.1130 C   0  0  0  0  0
  193.3580  -11.4910   49.7560 O   0  0  0  0  0
  191.3810  -10.5690   48.9730 O   0  0  0  0  0
  190.4070  -11.2010   49.8190 C   0  0  0  0  0
  190.6910  -11.2060   51.3550 C   0  0  0  0  0
  189.0400  -10.4330   49.5490 C   0  0  0  0  0
  190.3320  -12.6770   49.4030 C   0  0  0  0  0
  193.3190   -9.7090   48.3960 N   0  0  0  0  0
  194.7620   -9.5400   48.3790 C   0  0  0  0  0
  195.1750   -8.7490   47.1390 C   0  0  0  0  0
  196.6720   -8.4660   47.1090 C   0  0  0  0  0
  194.7380   -9.4450   45.8480 C   0  0  0  0  0
  197.0680   -7.6600   45.8650 C   0  0  0  0  0
  195.0970   -8.6450   44.6050 C   0  0  0  0  0
  196.5990   -8.3410   44.5730 C   0  0  0  0  0
  195.1180   -8.7110   49.6160 C   0  0  0  0  0
  194.6500   -7.5760   49.7710 O   0  0  0  0  0
  195.8910   -9.2890   50.5460 N   0  0  0  0  0
  196.4960  -10.6250   50.4700 C   0  0  0  0  0
  196.2880   -8.5810   51.7640 C   0  0  0  0  0
  196.7040   -9.6880   52.6660 C   0  0  0  0  0
  197.2860  -10.7080   51.7900 C   0  0  0  0  0
  196.7240  -11.7030   52.6760 O   0  0  0  0  0
  195.8440  -10.7350   53.3100 C   0  0  0  0  0
  195.8740  -10.8610   54.7700 C   0  0  0  0  0
  194.3810  -10.6980   52.9800 C   0  0  0  0  0
  197.3900   -7.5800   51.4400 C   0  0  0  0  0
  198.4760   -7.9590   50.9950 O   0  0  0  0  0
  197.1140   -6.3000   51.6690 N   0  0  0  0  0
  198.0890   -5.2560   51.3720 C   0  0  0  0  0
  197.4180   -4.1460   50.5450 C   0  0  0  0  0
  196.7120   -4.6860   49.2610 C   0  0  0  0  0
  197.5840   -5.0330   48.0550 C   0  0  0  0  0
  195.8900   -3.7370   48.3940 C   0  0  0  0  0
  196.5200   -4.4000   47.1650 C   0  0  0  0  0
  199.1910   -5.7930   53.4620 O   0  0  0  0  0
  198.8370   -4.7080   52.6190 C   0  0  0  0  0
  200.1230   -2.9080   51.7860 O   0  0  0  0  0
  201.3000   -4.7280   52.4260 N   0  0  0  0  0
  200.1640   -4.0530   52.2470 C   0  0  0  0  0
  189.8816  -11.7223   51.8712 H   0  0  0  0  0
  191.6327  -11.7201   51.5474 H   0  0  0  0  0
  190.7561  -10.1791   51.7145 H   0  0  0  0  0
  188.8050  -10.4751   48.4855 H   0  0  0  0  0
  188.2401  -10.9066   50.1182 H   0  0  0  0  0
  189.1417   -9.3930   49.8590 H   0  0  0  0  0
  189.5450  -13.1736   49.9706 H   0  0  0  0  0
  190.1099  -12.7421   48.3379 H   0  0  0  0  0
  191.2880  -13.1595   49.6063 H   0  0  0  0  0
  192.7435   -9.0807   47.8353 H   0  0  0  0  0
  195.2648  -10.5071   48.3708 H   0  0  0  0  0
  194.6564   -7.7923   47.2017 H   0  0  0  0  0
  197.2026   -9.4179   47.0866 H   0  0  0  0  0
  196.9309   -7.8843   47.9937 H   0  0  0  0  0
  193.6539   -9.5553   45.8756 H   0  0  0  0  0
  195.2536  -10.4037   45.7916 H   0  0  0  0  0
  198.1550   -7.5838   45.8374 H   0  0  0  0  0
  196.5956   -6.6796   45.9269 H   0  0  0  0  0
  194.5468   -7.7041   44.6199 H   0  0  0  0  0
  194.8363   -9.2288   43.7222 H   0  0  0  0  0
  197.1376   -9.2826   44.4662 H   0  0  0  0  0
  196.7952   -7.6672   43.7390 H   0  0  0  0  0
  197.1220  -10.7611   49.5881 H   0  0  0  0  0
  195.7601  -11.4218   50.3616 H   0  0  0  0  0
  195.5110   -7.9747   52.2295 H   0  0  0  0  0
  197.1518   -9.0495   53.4276 H   0  0  0  0  0
  198.3366  -10.7581   51.5038 H   0  0  0  0  0
  196.8886  -11.0951   55.0924 H   0  0  0  0  0
  195.5558   -9.9212   55.2211 H   0  0  0  0  0
  195.1999  -11.6601   55.0784 H   0  0  0  0  0
  193.9643   -9.7393   53.2887 H   0  0  0  0  0
  194.2489  -10.8239   51.9054 H   0  0  0  0  0
  193.8705  -11.5041   53.5070 H   0  0  0  0  0
  196.2067   -6.0438   52.0583 H   0  0  0  0  0
  198.8805   -5.7116   50.7770 H   0  0  0  0  0
  198.1954   -3.4502   50.2294 H   0  0  0  0  0
  196.6579   -3.6783   51.1708 H   0  0  0  0  0
  196.2019   -5.4668   49.8252 H   0  0  0  0  0
  197.9261   -6.0536   47.8835 H   0  0  0  0  0
  198.6245   -4.7124   48.0025 H   0  0  0  0  0
  195.9366   -2.6577   48.5387 H   0  0  0  0  0
  194.8079   -3.6667   48.5044 H   0  0  0  0  0
  195.9128   -5.0256   46.5108 H   0  0  0  0  0
  196.8148   -3.7936   46.3086 H   0  0  0  0  0
  199.6536   -5.4592   54.2341 H   0  0  0  0  0
  198.1695   -3.9879   53.0922 H   0  0  0  0  0
  202.1920   -4.3000   52.1780 H   0  0  0  0  0
  201.2769   -5.6723   52.8109 H   0  0  0  0  0
  1  2  2  0  0  0
  1  3  1  0  0  0
  1  8  1  0  0  0
  3  4  1  0  0  0
  4  5  1  0  0  0
  4  6  1  0  0  0
  4  7  1  0  0  0
  8  9  1  0  0  0
  9 10  1  0  0  0
  9 16  1  0  0  0
 10 11  1  0  0  0
 10 12  1  0  0  0
 11 13  1  0  0  0
 12 14  1  0  0  0
 13 15  1  0  0  0
 14 15  1  0  0  0
 16 17  2  0  0  0
 16 18  1  0  0  0
 18 19  1  0  0  0
 18 20  1  0  0  0
 19 22  1  0  0  0
 20 21  1  0  0  0
 20 27  1  0  0  0
 21 22  1  0  0  0
 21 24  1  0  0  0
 22 23  1  0  0  0
 23 24  1  0  0  0
 24 25  1  0  0  0
 24 26  1  0  0  0
 27 28  2  0  0  0
 27 29  1  0  0  0
 29 30  1  0  0  0
 30 31  1  0  0  0
 30 37  1  0  0  0
 31 32  1  0  0  0
 32 33  1  0  0  0
 32 34  1  0  0  0
 33 35  1  0  0  0
 34 35  1  0  0  0
 37 36  1  0  0  0
 37 40  1  0  0  0
 40 38  2  0  0  0
 40 39  1  0  0  0
  5 41  1  0  0  0
  5 42  1  0  0  0
  5 43  1  0  0  0
  6 44  1  0  0  0
  6 45  1  0  0  0
  6 46  1  0  0  0
  7 47  1  0  0  0
  7 48  1  0  0  0
  7 49  1  0  0  0
  8 50  1  0  0  0
  9 51  1  0  0  0
 10 52  1  0  0  0
 11 53  1  0  0  0
 11 54  1  0  0  0
 12 55  1  0  0  0
 12 56  1  0  0  0
 13 57  1  0  0  0
 13 58  1  0  0  0
 14 59  1  0  0  0
 14 60  1  0  0  0
 15 61  1  0  0  0
 15 62  1  0  0  0
 19 63  1  0  0  0
 19 64  1  0  0  0
 20 65  1  0  0  0
 21 66  1  0  0  0
 22 67  1  0  0  0
 25 68  1  0  0  0
 25 69  1  0  0  0
 25 70  1  0  0  0
 26 71  1  0  0  0
 26 72  1  0  0  0
 26 73  1  0  0  0
 29 74  1  0  0  0
 30 75  1  0  0  0
 31 76  1  0  0  0
 31 77  1  0  0  0
 32 78  1  0  0  0
 33 79  1  0  0  0
 33 80  1  0  0  0
 34 81  1  0  0  0
 34 82  1  0  0  0
 35 83  1  0  0  0
 35 84  1  0  0  0
 36 85  1  0  0  0
 37 86  1  0  0  0
 39 87  1  0  0  0
 39 88  1  0  0  0
M  END
$$$$
