2wap_ligand
  -I-interpret- 

 45 47  0  0  0  0  0  0  0  0999 V2000
  -12.5720  -11.4210   -4.6340 O   0  0  0  0  0
  -13.5160  -11.2030   -3.8770 C   0  0  0  0  0
  -14.6790  -10.6950   -4.2770 N   0  0  0  0  0
  -15.7490  -10.4700   -3.2970 C   0  0  0  0  0
  -16.3760   -9.0940   -3.5450 C   0  0  0  0  0
  -14.9060  -10.3930   -5.6890 C   0  0  0  0  0
  -15.5670   -9.0360   -5.8370 C   0  0  0  0  0
  -16.8080   -8.8810   -4.9790 C   0  0  0  0  0
  -17.3700   -7.4660   -5.0870 C   0  0  0  0  0
  -18.0840   -7.2500   -6.3940 C   0  0  0  0  0
  -19.4390   -7.4930   -6.4980 C   0  0  0  0  0
  -20.0980   -7.3070   -7.7090 C   0  0  0  0  0
  -19.3950   -6.8660   -8.8190 C   0  0  0  0  0
  -17.3820   -6.8030   -7.4930 C   0  0  0  0  0
  -18.0350   -6.6290   -8.6970 C   0  0  0  0  0
  -17.3280   -6.1890   -9.7600 O   0  0  0  0  0
  -17.1890   -4.8440   -9.9220 C   0  0  0  0  0
  -17.9130   -3.9590   -9.1220 C   0  0  0  0  0
  -17.7440   -2.5970   -9.3040 C   0  0  0  0  0
  -16.3290   -4.3880  -10.8710 N   0  0  0  0  0
  -16.1600   -3.0680  -11.0590 C   0  0  0  0  0
  -16.8670   -2.1370  -10.2840 C   0  0  0  0  0
  -16.6690   -0.6590  -10.4900 C   0  0  0  0  0
  -16.3400   -0.3870  -11.7320 F   0  0  0  0  0
  -17.7680    0.0120  -10.1990 F   0  0  0  0  0
  -15.6770   -0.2570   -9.7210 F   0  0  0  0  0
  -13.3935  -11.4389   -2.8199 H   0  0  0  0  0
  -15.3364  -10.5083   -2.2888 H   0  0  0  0  0
  -16.5099  -11.2435   -3.4013 H   0  0  0  0  0
  -15.6213   -8.3423   -3.3139 H   0  0  0  0  0
  -17.2655   -9.0204   -2.9193 H   0  0  0  0  0
  -15.5582  -11.1551   -6.1157 H   0  0  0  0  0
  -13.9481  -10.3810   -6.2089 H   0  0  0  0  0
  -15.8691   -8.9269   -6.8786 H   0  0  0  0  0
  -14.8480   -8.2812   -5.5184 H   0  0  0  0  0
  -17.5704   -9.5900   -5.3018 H   0  0  0  0  0
  -16.5406   -6.7612   -5.0278 H   0  0  0  0  0
  -18.0836   -7.3167   -4.2767 H   0  0  0  0  0
  -19.9964   -7.8330   -5.6252 H   0  0  0  0  0
  -21.1666   -7.5080   -7.7848 H   0  0  0  0  0
  -19.9025   -6.7084   -9.7707 H   0  0  0  0  0
  -16.3165   -6.5880   -7.4118 H   0  0  0  0  0
  -18.6014   -4.3345   -8.3650 H   0  0  0  0  0
  -18.2938   -1.8887   -8.6842 H   0  0  0  0  0
  -15.4656   -2.7170  -11.8224 H   0  0  0  0  0
  1  2  2  0  0  0
  2  3  1  0  0  0
  3  4  1  0  0  0
  3  6  1  0  0  0
  4  5  1  0  0  0
  5  8  1  0  0  0
  6  7  1  0  0  0
  7  8  1  0  0  0
  8  9  1  0  0  0
  9 10  1  0  0  0
 10 11  4  0  0  0
 10 14  4  0  0  0
 11 12  4  0  0  0
 12 13  4  0  0  0
 13 15  4  0  0  0
 14 15  4  0  0  0
 15 16  1  0  0  0
 16 17  1  0  0  0
 17 18  4  0  0  0
 17 20  4  0  0  0
 18 19  4  0  0  0
 19 22  4  0  0  0
 20 21  4  0  0  0
 21 22  4  0  0  0
 22 23  1  0  0  0
 23 24  1  0  0  0
 23 25  1  0  0  0
 23 26  1  0  0  0
  2 27  1  0  0  0
  4 28  1  0  0  0
  4 29  1  0  0  0
  5 30  1  0  0  0
  5 31  1  0  0  0
  6 32  1  0  0  0
  6 33  1  0  0  0
  7 34  1  0  0  0
  7 35  1  0  0  0
  8 36  1  0  0  0
  9 37  1  0  0  0
  9 38  1  0  0  0
 11 39  1  0  0  0
 12 40  1  0  0  0
 13 41  1  0  0  0
 14 42  1  0  0  0
 18 43  1  0  0  0
 19 44  1  0  0  0
 21 45  1  0  0  0
M  END
$$$$
