3efs_ligand
  -I-interpret- 

 47 49  0  0  0  0  0  0  0  0999 V2000
  -11.6320   -3.5670    5.1340 P   0  0  0  0  0
  -12.6080   -4.2540    6.0580 O   0  0  0  0  0
  -10.3680   -4.3470    4.8640 O   0  0  0  0  0
  -12.2670   -2.9580    3.9080 O   0  0  0  0  0
  -10.2430   -2.4750    7.3140 P   0  0  0  0  0
   -9.1840   -1.3970    7.3230 O   0  0  0  0  0
   -9.8430   -3.9260    7.4330 O   0  0  0  0  0
  -11.1380   -2.2950    5.9870 O   0  0  0  0  0
  -10.9880   -1.1900    9.7130 P   0  0  0  0  0
  -10.7880    0.2110    9.1880 O   0  0  0  0  0
   -9.9350   -1.8300   10.5830 O   0  0  0  0  0
  -11.3230   -2.1440    8.4610 O   0  0  0  0  0
  -12.3790   -1.2070   10.5170 O   0  0  0  0  0
  -12.7960   -0.0440   11.2220 C   0  0  0  0  0
  -14.1450    0.3580   10.6450 C   0  0  0  0  0
  -15.1760   -0.4800   11.1680 O   0  0  0  0  0
  -14.5220    1.7910   10.9840 C   0  0  0  0  0
  -14.3040    2.6320    9.8480 O   0  0  0  0  0
  -15.9970    1.7490   11.3310 C   0  0  0  0  0
  -16.7520    2.4550   10.3440 O   0  0  0  0  0
  -16.3770    0.2760   11.3210 C   0  0  0  0  0
  -17.0350   -0.0720   12.6010 N   0  0  0  0  0
  -17.0270    0.6800   13.7180 C   0  0  0  0  0
  -17.7300    0.0830   14.7120 N   0  0  0  0  0
  -18.2070   -1.0770   14.2250 C   0  0  0  0  0
  -19.0280   -2.1940   14.7440 C   0  0  0  0  0
  -19.4930   -2.1890   16.0160 N   0  0  0  0  0
  -19.2980   -3.2170   13.9040 N   0  0  0  0  0
  -18.8430   -3.2370   12.6380 C   0  0  0  0  0
  -18.0930   -2.2600   12.1010 N   0  0  0  0  0
  -17.7520   -1.1720   12.8300 C   0  0  0  0  0
  -12.1343   -4.6149    6.8110 H   0  0  0  0  0
  -10.0285   -4.6998    5.6898 H   0  0  0  0  0
   -9.6032   -0.5374    7.2394 H   0  0  0  0  0
  -11.5462    0.4634    8.6560 H   0  0  0  0  0
  -12.0696    0.7606   11.1073 H   0  0  0  0  0
  -12.8754   -0.2454   12.2903 H   0  0  0  0  0
  -14.0520    0.2558    9.5638 H   0  0  0  0  0
  -13.9257    2.1892   11.8050 H   0  0  0  0  0
  -14.5440    3.5349   10.0689 H   0  0  0  0  0
  -16.2001    2.2142   12.2956 H   0  0  0  0  0
  -17.6839    2.4229   10.5722 H   0  0  0  0  0
  -17.0673    0.0587   10.5059 H   0  0  0  0  0
  -16.5221    1.6416   13.8109 H   0  0  0  0  0
  -19.2789   -1.4064   16.6342 H   0  0  0  0  0
  -20.0573   -2.9678   16.3558 H   0  0  0  0  0
  -19.0969   -4.0934   12.0133 H   0  0  0  0  0
  1  2  1  0  0  0
  1  3  1  0  0  0
  1  4  2  0  0  0
  8  1  1  0  0  0
  5  6  1  0  0  0
  5  7  2  0  0  0
  5  8  1  0  0  0
 12  5  1  0  0  0
  9 10  1  0  0  0
  9 11  2  0  0  0
  9 12  1  0  0  0
  9 13  1  0  0  0
 13 14  1  0  0  0
 14 15  1  0  0  0
 15 16  1  0  0  0
 15 17  1  0  0  0
 16 21  1  0  0  0
 17 18  1  0  0  0
 17 19  1  0  0  0
 19 20  1  0  0  0
 19 21  1  0  0  0
 21 22  1  0  0  0
 22 23  4  0  0  0
 22 31  4  0  0  0
 23 24  4  0  0  0
 24 25  4  0  0  0
 25 26  4  0  0  0
 25 31  4  0  0  0
 26 27  1  0  0  0
 26 28  4  0  0  0
 28 29  4  0  0  0
 29 30  4  0  0  0
 30 31  4  0  0  0
  2 32  1  0  0  0
  3 33  1  0  0  0
  6 34  1  0  0  0
 10 35  1  0  0  0
 14 36  1  0  0  0
 14 37  1  0  0  0
 15 38  1  0  0  0
 17 39  1  0  0  0
 18 40  1  0  0  0
 19 41  1  0  0  0
 20 42  1  0  0  0
 21 43  1  0  0  0
 23 44  1  0  0  0
 27 45  1  0  0  0
 27 46  1  0  0  0
 29 47  1  0  0  0
M  END
$$$$
