### 
### Created by X-TOOL on Mon Sep 10 21:13:02 2018
### 

@<TRIPOS>MOLECULE
3efs_ligand
   43    45     1     0     0
SMALL
GAST_HUCK


@<TRIPOS>ATOM
      1 PG        -11.6320   -3.5670    5.1340 P.3       1 ATP         0.1879
      2 O1G       -12.6080   -4.2540    6.0580 O.co2     1 ATP        -0.6091
      3 O2G       -10.3680   -4.3470    4.8640 O.co2     1 ATP        -0.6091
      4 O3G       -12.2670   -2.9580    3.9080 O.co2     1 ATP        -0.6091
      5 PB        -10.2430   -2.4750    7.3140 P.3       1 ATP         0.3553
      6 O1B        -9.1840   -1.3970    7.3230 O.co2     1 ATP        -0.5652
      7 O2B        -9.8430   -3.9260    7.4330 O.co2     1 ATP        -0.5652
      8 O3B       -11.1380   -2.2950    5.9870 O.3       1 ATP        -0.1546
      9 PA        -10.9880   -1.1900    9.7130 P.3       1 ATP         0.3266
     10 O1A       -10.7880    0.2110    9.1880 O.co2     1 ATP        -0.5692
     11 O2A        -9.9350   -1.8300   10.5830 O.co2     1 ATP        -0.5692
     12 O3A       -11.3230   -2.1440    8.4610 O.3       1 ATP        -0.1171
     13 O5'       -12.3790   -1.2070   10.5170 O.3       1 ATP        -0.2441
     14 C5'       -12.7960   -0.0440   11.2220 C.3       1 ATP         0.1131
     15 C4'       -14.1450    0.3580   10.6450 C.3       1 ATP         0.1189
     16 O4'       -15.1760   -0.4800   11.1680 O.3       1 ATP        -0.3364
     17 C3'       -14.5220    1.7910   10.9840 C.3       1 ATP         0.1149
     18 O3'       -14.3040    2.6320    9.8480 O.3       1 ATP        -0.3864
     19 C2'       -15.9970    1.7490   11.3310 C.3       1 ATP         0.1385
     20 O2'       -16.7520    2.4550   10.3440 O.3       1 ATP        -0.3836
     21 C1'       -16.3770    0.2760   11.3210 C.3       1 ATP         0.2010
     22 N9        -17.0350   -0.0720   12.6010 N.pl3     1 ATP        -0.1919
     23 C8        -17.0270    0.6800   13.7180 C.2       1 ATP         0.1123
     24 N7        -17.7300    0.0830   14.7120 N.2       1 ATP        -0.2958
     25 C5        -18.2070   -1.0770   14.2250 C.ar      1 ATP         0.1045
     26 C6        -19.0280   -2.1940   14.7440 C.ar      1 ATP         0.1298
     27 N6        -19.4930   -2.1890   16.0160 N.pl3     1 ATP        -0.3152
     28 N1        -19.2980   -3.2170   13.9040 N.ar      1 ATP        -0.2698
     29 C2        -18.8430   -3.2370   12.6380 C.ar      1 ATP         0.0533
     30 N3        -18.0930   -2.2600   12.1010 N.ar      1 ATP        -0.2714
     31 C4        -17.7520   -1.1720   12.8300 C.ar      1 ATP         0.1613
     32 H1        -12.0665    0.7670   11.0803 H         1 ATP         0.0648
     33 H2        -12.8938   -0.2660   12.2949 H         1 ATP         0.0648
     34 H3        -14.1015    0.2478    9.5514 H         1 ATP         0.0651
     35 H4        -13.9328    2.1576   11.8374 H         1 ATP         0.0648
     36 H5        -14.8391    2.3291    9.1238 H         1 ATP         0.2100
     37 H6        -16.1757    2.1898   12.3228 H         1 ATP         0.0676
     38 H7        -16.4633    3.3596   10.3133 H         1 ATP         0.2101
     39 H8        -17.0613    0.0679   10.4853 H         1 ATP         0.0996
     40 H9        -16.5226    1.6407   13.8108 H         1 ATP         0.1349
     41 H10       -20.0628   -2.9754   16.3591 H         1 ATP         0.1820
     42 H11       -19.2768   -1.3988   16.6403 H         1 ATP         0.1820
     43 H12       -19.0955   -4.0886   12.0167 H         1 ATP         0.0996
@<TRIPOS>BOND
     1    1    2 ar 
     2    1    3 ar 
     3    1    4 ar 
     4    8    1 1  
     5    5    6 ar 
     6    5    7 ar 
     7    5    8 1  
     8   12    5 1  
     9    9   10 ar 
    10    9   11 ar 
    11    9   12 1  
    12    9   13 1  
    13   13   14 1  
    14   14   15 1  
    15   15   16 1  
    16   15   17 1  
    17   16   21 1  
    18   17   18 1  
    19   17   19 1  
    20   19   20 1  
    21   19   21 1  
    22   21   22 1  
    23   22   23 1  
    24   22   31 1  
    25   23   24 2  
    26   24   25 1  
    27   25   26 ar 
    28   25   31 ar 
    29   26   27 1  
    30   26   28 ar 
    31   28   29 ar 
    32   29   30 ar 
    33   30   31 ar 
    34   14   32 1  
    35   14   33 1  
    36   15   34 1  
    37   17   35 1  
    38   18   36 1  
    39   19   37 1  
    40   20   38 1  
    41   21   39 1  
    42   23   40 1  
    43   27   41 1  
    44   27   42 1  
    45   29   43 1  
@<TRIPOS>SUBSTRUCTURE
     1 ATP         1

