3ndm_ligand
  -I-interpret- 

 45 48  0  0  0  0  0  0  0  0999 V2000
  -68.4750   -4.5960   39.3650 C   0  0  0  0  0
  -69.6240   -5.3030   39.5450 N   0  0  0  0  0
  -70.5450   -4.9050   40.4300 C   0  0  0  0  0
  -68.2030   -3.4780   40.0580 C   0  0  0  0  0
  -69.1500   -2.9660   41.0440 C   0  0  0  0  0
  -70.3380   -3.6920   41.2270 C   0  0  0  0  0
  -71.2710   -3.2440   42.1600 C   0  0  0  0  0
  -71.0130   -2.1120   42.8670 C   0  0  0  0  0
  -69.8600   -1.3600   42.7080 C   0  0  0  0  0
  -68.9160   -1.8040   41.7870 C   0  0  0  0  0
  -69.7050   -0.2160   43.5290 N   0  0  0  0  0
  -68.7190   -0.1130   44.4850 C   0  0  0  0  0
  -68.5990    1.1430   45.3560 C   0  0  0  0  0
  -68.2770    0.8930   46.8630 C   0  0  0  0  0
  -69.2570    1.6650   47.6910 N   0  3  0  0  0
  -69.8640    2.6510   46.7510 C   0  0  0  0  0
  -69.9140    1.9190   45.4020 C   0  0  0  0  0
  -69.7330    2.8440   44.2640 C   0  0  0  0  0
  -68.4910    3.4280   44.0670 C   0  0  0  0  0
  -68.2900    4.2770   42.9970 C   0  0  0  0  0
  -69.3450    4.5190   42.1290 C   0  0  0  0  0
  -70.5900    3.9210   42.3230 C   0  0  0  0  0
  -70.7920    3.0620   43.4050 C   0  0  0  0  0
  -69.1340    5.5780   40.7840 Cl  0  0  0  0  0
  -71.5510   -5.5640   40.5540 O   0  0  0  0  0
  -72.1590   -1.5850   44.0160 Cl  0  0  0  0  0
  -67.8930   -1.0130   44.6450 O   0  0  0  0  0
  -67.7496   -4.9497   38.6323 H   0  0  0  0  0
  -68.1584   -2.6969   39.2990 H   0  0  0  0  0
  -67.3198   -3.7341   40.6431 H   0  0  0  0  0
  -72.1975   -3.7952   42.3211 H   0  0  0  0  0
  -67.9914   -1.2447   41.6441 H   0  0  0  0  0
  -70.3507    0.5641   43.4070 H   0  0  0  0  0
  -67.7759    1.6724   44.8761 H   0  0  0  0  0
  -67.2614    1.2199   47.0863 H   0  0  0  0  0
  -68.3543   -0.1705   47.0891 H   0  0  0  0  0
  -68.8047    2.1249   48.4812 H   0  0  0  0  0
  -69.9617    1.0567   48.1078 H   0  0  0  0  0
  -69.2829    3.5714   46.6942 H   0  0  0  0  0
  -70.8533    2.9708   47.0783 H   0  0  0  0  0
  -70.8526    1.3696   45.3297 H   0  0  0  0  0
  -67.6737    3.2169   44.7566 H   0  0  0  0  0
  -67.3203    4.7485   42.8371 H   0  0  0  0  0
  -71.4059    4.1244   41.6294 H   0  0  0  0  0
  -71.7555    2.5786   43.5666 H   0  0  0  0  0
  1  2  2  0  0  0
  1  4  1  0  0  0
  2  3  1  0  0  0
  3  6  1  0  0  0
  3 25  2  0  0  0
  4  5  1  0  0  0
  5  6  4  0  0  0
  5 10  4  0  0  0
  6  7  4  0  0  0
  7  8  4  0  0  0
  8  9  4  0  0  0
  8 26  1  0  0  0
  9 10  4  0  0  0
  9 11  1  0  0  0
 11 12  1  0  0  0
 12 13  1  0  0  0
 12 27  2  0  0  0
 13 14  1  0  0  0
 13 17  1  0  0  0
 14 15  1  0  0  0
 15 16  1  0  0  0
 16 17  1  0  0  0
 17 18  1  0  0  0
 18 19  4  0  0  0
 18 23  4  0  0  0
 19 20  4  0  0  0
 20 21  4  0  0  0
 21 22  4  0  0  0
 21 24  1  0  0  0
 22 23  4  0  0  0
  1 28  1  0  0  0
  4 29  1  0  0  0
  4 30  1  0  0  0
  7 31  1  0  0  0
 10 32  1  0  0  0
 11 33  1  0  0  0
 13 34  1  0  0  0
 14 35  1  0  0  0
 14 36  1  0  0  0
 15 37  1  0  0  0
 15 38  1  0  0  0
 16 39  1  0  0  0
 16 40  1  0  0  0
 17 41  1  0  0  0
 19 42  1  0  0  0
 20 43  1  0  0  0
 22 44  1  0  0  0
 23 45  1  0  0  0
M  END
$$$$
