4lzr_ligand
  -I-interpret- 

 54 56  0  0  0  0  0  0  0  0999 V2000
  -14.5370    6.0370   -5.7800 O   0  0  0  0  0
  -13.8110    6.4180   -4.8550 C   0  0  0  0  0
  -12.3610    6.0970   -4.7960 C   0  0  0  0  0
  -14.2680    7.1770   -3.8470 N   0  0  0  0  0
  -13.3990    7.8030   -2.8640 C   0  0  0  0  0
  -13.1780    6.9710   -1.6150 C   0  0  0  0  0
  -14.1460    6.1160   -1.2320 C   0  0  0  0  0
  -13.9090    9.2110   -2.5360 C   0  0  0  0  0
  -13.0720    9.9320   -1.4750 C   0  0  0  0  0
  -11.5990    9.6260   -1.6240 C   0  0  0  0  0
  -10.7890   10.6660   -2.0600 C   0  0  0  0  0
   -9.4250   10.4750   -2.2230 C   0  0  0  0  0
   -8.8700    9.2220   -1.9540 C   0  0  0  0  0
   -9.6750    8.1680   -1.5260 C   0  0  0  0  0
   -9.0870    6.9490   -1.2960 O   0  0  0  0  0
   -9.0450    6.0520   -2.4150 C   0  0  0  0  0
   -7.5060    9.0360   -2.0910 O   0  0  0  0  0
   -6.6980    9.4670   -1.0060 C   0  0  0  0  0
   -8.6080   11.5050   -2.6350 O   0  0  0  0  0
   -9.0390   12.8530   -2.8820 C   0  0  0  0  0
  -11.0500    8.3640   -1.3680 C   0  0  0  0  0
  -11.9260    7.2420   -0.8870 C   0  0  0  0  0
  -11.4770    6.6850    0.2460 C   0  0  0  0  0
  -12.0020    5.5830    1.0320 C   0  0  0  0  0
  -13.1580    4.9330    0.8990 C   0  0  0  0  0
  -14.2040    5.1940   -0.0890 C   0  0  0  0  0
  -15.2340    4.5570    0.0340 O   0  0  0  0  0
  -13.4060    3.8550    1.8360 O   0  0  0  0  0
  -12.3330    3.1890    2.5060 C   0  0  0  0  0
  -12.2303    5.0151   -4.7734 H   0  0  0  0  0
  -11.8635    6.5061   -5.6754 H   0  0  0  0  0
  -11.9295    6.5353   -3.8961 H   0  0  0  0  0
  -15.2745    7.3218   -3.7666 H   0  0  0  0  0
  -12.4112    7.8793   -3.3186 H   0  0  0  0  0
  -15.0278    6.1065   -1.8727 H   0  0  0  0  0
  -14.9204    9.1097   -2.1424 H   0  0  0  0  0
  -13.8559    9.8003   -3.4514 H   0  0  0  0  0
  -13.3962    9.5918   -0.4915 H   0  0  0  0  0
  -13.2142   11.0059   -1.5960 H   0  0  0  0  0
  -11.2284   11.6399   -2.2758 H   0  0  0  0  0
  -10.0611    5.8414   -2.7486 H   0  0  0  0  0
   -8.4826    6.5125   -3.2273 H   0  0  0  0  0
   -8.5594    5.1230   -2.1163 H   0  0  0  0  0
   -6.8403   10.5365   -0.8511 H   0  0  0  0  0
   -6.9848    8.9265   -0.1039 H   0  0  0  0  0
   -5.6507    9.2677   -1.2330 H   0  0  0  0  0
   -9.7941   12.8534   -3.6681 H   0  0  0  0  0
   -9.4631   13.2706   -1.9688 H   0  0  0  0  0
   -8.1857   13.4542   -3.1958 H   0  0  0  0  0
  -10.5666    7.1337    0.6434 H   0  0  0  0  0
  -11.3614    5.2393    1.8442 H   0  0  0  0  0
  -11.6733    2.7324    1.7682 H   0  0  0  0  0
  -11.7722    3.9117    3.0988 H   0  0  0  0  0
  -12.7382    2.4170    3.1601 H   0  0  0  0  0
  1  2  2  0  0  0
  2  3  1  0  0  0
  2  4  1  0  0  0
  4  5  1  0  0  0
  5  6  1  0  0  0
  5  8  1  0  0  0
  6  7  2  0  0  0
  6 22  1  0  0  0
  7 26  1  0  0  0
  8  9  1  0  0  0
  9 10  1  0  0  0
 10 11  4  0  0  0
 10 21  4  0  0  0
 11 12  4  0  0  0
 12 13  4  0  0  0
 12 19  1  0  0  0
 13 14  4  0  0  0
 13 17  1  0  0  0
 14 15  1  0  0  0
 14 21  4  0  0  0
 15 16  1  0  0  0
 17 18  1  0  0  0
 19 20  1  0  0  0
 21 22  1  0  0  0
 22 23  2  0  0  0
 23 24  1  0  0  0
 24 25  2  0  0  0
 25 26  1  0  0  0
 25 28  1  0  0  0
 26 27  2  0  0  0
 28 29  1  0  0  0
  3 30  1  0  0  0
  3 31  1  0  0  0
  3 32  1  0  0  0
  4 33  1  0  0  0
  5 34  1  0  0  0
  7 35  1  0  0  0
  8 36  1  0  0  0
  8 37  1  0  0  0
  9 38  1  0  0  0
  9 39  1  0  0  0
 11 40  1  0  0  0
 16 41  1  0  0  0
 16 42  1  0  0  0
 16 43  1  0  0  0
 18 44  1  0  0  0
 18 45  1  0  0  0
 18 46  1  0  0  0
 20 47  1  0  0  0
 20 48  1  0  0  0
 20 49  1  0  0  0
 23 50  1  0  0  0
 24 51  1  0  0  0
 29 52  1  0  0  0
 29 53  1  0  0  0
 29 54  1  0  0  0
M  END
$$$$
