4c35_ligand
  -I-interpret- 

 29 31  0  0  0  0  0  0  0  0999 V2000
   11.9910   83.8410   84.6250 C   0  0  0  0  0
   12.6800   84.9970   84.7450 N   0  0  0  0  0
   12.5560   82.7450   84.4890 O   0  0  0  0  0
   10.4930   83.9140   84.6190 C   0  0  0  0  0
    8.0450   86.4160   85.1780 N   0  0  0  0  0
    9.1230   92.8140   85.6990 O   0  0  0  0  0
    9.7520   82.7400   84.4500 C   0  0  0  0  0
   10.2870   86.4720   85.0170 N   0  0  0  0  0
    8.3660   82.7530   84.5580 C   0  0  0  0  0
    7.6930   83.9390   84.8050 C   0  0  0  0  0
    8.4430   85.1070   84.9440 C   0  0  0  0  0
    9.1770   87.1870   85.1970 C   0  0  0  0  0
    9.1430   88.6580   85.3620 C   0  0  0  0  0
   10.3180   89.3670   85.6000 C   0  0  0  0  0
   10.3060   90.7490   85.7050 C   0  0  0  0  0
    9.1120   91.4470   85.5720 C   0  0  0  0  0
    7.9300   90.7540   85.3450 C   0  0  0  0  0
    7.9460   89.3700   85.2520 C   0  0  0  0  0
    9.8720   85.1500   84.8520 C   0  0  0  0  0
   13.6998   84.9873   84.7253 H   0  0  0  0  0
   12.1804   85.8794   84.8553 H   0  0  0  0  0
    8.2321   93.1522   85.5830 H   0  0  0  0  0
   10.2668   81.8045   84.2312 H   0  0  0  0  0
    7.8053   81.8248   84.4477 H   0  0  0  0  0
    6.6064   83.9587   84.8885 H   0  0  0  0  0
   11.2595   88.8279   85.7051 H   0  0  0  0  0
   11.2343   91.2888   85.8921 H   0  0  0  0  0
    6.9907   91.2970   85.2400 H   0  0  0  0  0
    7.0124   88.8309   85.0910 H   0  0  0  0  0
  1  2  1  0  0  0
  1  3  2  0  0  0
  4  1  1  0  0  0
  4  7  4  0  0  0
 19  4  4  0  0  0
  5 11  4  0  0  0
 12  5  4  0  0  0
 16  6  1  0  0  0
  7  9  4  0  0  0
 12  8  4  0  0  0
  8 19  4  0  0  0
 10  9  4  0  0  0
 11 10  4  0  0  0
 19 11  4  0  0  0
 13 12  1  0  0  0
 14 13  4  0  0  0
 13 18  4  0  0  0
 15 14  4  0  0  0
 15 16  4  0  0  0
 16 17  4  0  0  0
 17 18  4  0  0  0
  2 20  1  0  0  0
  2 21  1  0  0  0
  6 22  1  0  0  0
  7 23  1  0  0  0
  9 24  1  0  0  0
 10 25  1  0  0  0
 14 26  1  0  0  0
 15 27  1  0  0  0
 17 28  1  0  0  0
 18 29  1  0  0  0
M  END
$$$$
