2ohv_ligand
  -I-interpret- 

 39 40  0  0  0  0  0  0  0  0999 V2000
   36.2470   32.8940   68.4700 C   0  0  0  0  0
   34.9780   32.3740   68.0820 C   0  0  0  0  0
   33.9610   32.1660   69.0540 C   0  0  0  0  0
   32.6940   31.6490   68.6630 C   0  0  0  0  0
   31.6820   31.4440   69.6360 C   0  0  0  0  0
   31.9310   31.7550   71.0100 C   0  0  0  0  0
   33.2000   32.2750   71.4190 C   0  0  0  0  0
   34.2260   32.4860   70.4540 C   0  0  0  0  0
   35.5000   33.0080   70.8410 C   0  0  0  0  0
   36.5170   33.2200   69.8520 C   0  0  0  0  0
   37.8870   33.7850   70.2440 C   0  0  0  0  0
   38.0840   35.2250   69.6560 C   0  0  0  0  0
   39.4530   35.3250   68.9520 C   0  0  0  0  0
   39.5110   35.2990   67.6190 O   0  0  0  0  0
   40.5100   35.4340   69.5830 O   0  0  0  0  0
   37.9710   36.3020   70.7970 C   0  0  0  0  0
   38.1470   37.7960   70.4170 C   0  0  0  0  0
   37.2920   38.1220   69.2290 N   0  3  0  0  0
   37.7820   38.6400   71.6250 C   0  0  0  0  0
   38.5120   38.7260   72.5890 O   0  0  0  0  0
   36.6110   39.2780   71.5890 O   0  0  0  0  0
   37.0208   33.0472   67.7178 H   0  0  0  0  0
   34.7862   32.1348   67.0360 H   0  0  0  0  0
   32.5013   31.4107   67.6170 H   0  0  0  0  0
   30.7118   31.0483   69.3357 H   0  0  0  0  0
   31.1480   31.5946   71.7512 H   0  0  0  0  0
   33.3811   32.5093   72.4680 H   0  0  0  0  0
   35.6979   33.2445   71.8865 H   0  0  0  0  0
   38.6636   33.1328   69.8445 H   0  0  0  0  0
   37.9476   33.8378   71.3310 H   0  0  0  0  0
   37.2997   35.4171   68.9239 H   0  0  0  0  0
   38.6238   35.2116   67.2629 H   0  0  0  0  0
   38.7900   36.0817   71.4817 H   0  0  0  0  0
   36.9501   36.2191   71.1698 H   0  0  0  0  0
   39.1796   38.0078   70.1395 H   0  0  0  0  0
   37.4123   39.1049   68.9845 H   0  0  0  0  0
   37.5705   37.5378   68.4406 H   0  0  0  0  0
   36.3137   37.9442   69.4566 H   0  0  0  0  0
   36.1734   39.0945   70.7544 H   0  0  0  0  0
  1  2  4  0  0  0
  1 10  4  0  0  0
  2  3  4  0  0  0
  3  4  4  0  0  0
  3  8  4  0  0  0
  4  5  4  0  0  0
  5  6  4  0  0  0
  6  7  4  0  0  0
  7  8  4  0  0  0
  8  9  4  0  0  0
  9 10  4  0  0  0
 10 11  1  0  0  0
 11 12  1  0  0  0
 12 13  1  0  0  0
 12 16  1  0  0  0
 13 14  1  0  0  0
 13 15  2  0  0  0
 16 17  1  0  0  0
 17 18  1  0  0  0
 17 19  1  0  0  0
 19 20  2  0  0  0
 19 21  1  0  0  0
  1 22  1  0  0  0
  2 23  1  0  0  0
  4 24  1  0  0  0
  5 25  1  0  0  0
  6 26  1  0  0  0
  7 27  1  0  0  0
  9 28  1  0  0  0
 11 29  1  0  0  0
 11 30  1  0  0  0
 12 31  1  0  0  0
 14 32  1  0  0  0
 16 33  1  0  0  0
 16 34  1  0  0  0
 17 35  1  0  0  0
 18 36  1  0  0  0
 18 37  1  0  0  0
 18 38  1  0  0  0
 21 39  1  0  0  0
M  END
$$$$
