### 
### Created by X-TOOL on Mon Sep 10 21:13:29 2018
### 

@<TRIPOS>MOLECULE
5hyr_ligand
  210   212     1     0     0
SMALL
GAST_HUCK


@<TRIPOS>ATOM
      1 C          30.1610   23.2060    7.8140 C.2       1 ACE         0.1752
      2 O          30.1770   22.4460    8.7840 O.2       1 ACE        -0.3972
      3 CH3        31.2290   24.2640    7.5860 C.3       1 ACE         0.0258
      4 N          29.2560   23.1840    6.8460 N.am      1 HIS        -0.2640
      5 CA         28.1290   22.2610    6.8290 C.3       1 HIS         0.1420
      6 C          28.5850   20.8610    6.5140 C.2       1 HIS         0.2060
      7 O          29.6210   20.5510    5.9370 O.2       1 HIS        -0.3942
      8 CB         27.2130   22.7970    5.7490 C.3       1 HIS         0.0427
      9 CG         26.7110   24.1060    6.3350 C.2       1 HIS         0.0561
     10 ND1        25.7450   24.1350    7.2480 N.pl3     1 HIS        -0.2623
     11 CD2        27.1310   25.3300    6.0650 C.2       1 HIS        -0.0276
     12 CE1        25.5480   25.4160    7.5460 C.2       1 HIS         0.0875
     13 NE2        26.3960   26.1470    6.8180 N.2       1 HIS        -0.3437
     14 N          27.7670   19.9950    7.0260 N.am      1 LYS        -0.2636
     15 CA         28.0540   18.6220    6.8190 C.3       1 LYS         0.1307
     16 C          27.7670   18.1900    5.4390 C.2       1 LYS         0.2010
     17 O          27.2750   19.0130    4.6710 O.2       1 LYS        -0.3947
     18 CB         26.8280   17.9780    7.5090 C.3       1 LYS        -0.0122
     19 CG         26.8330   18.1780    9.0090 C.3       1 LYS        -0.0440
     20 CD         25.5300   17.7300    9.6640 C.3       1 LYS        -0.0124
     21 CE         25.9320   17.0830   10.9800 C.3       1 LYS        -0.0354
     22 NZ         24.7730   16.9080   11.8560 N.4       1 LYS         0.2185
     23 N          28.5860   17.2010    5.0960 N.am      1 66D        -0.2742
     24 CA         28.5150   16.6040    3.8210 C.3       1 66D         0.1306
     25 CB         29.2570   15.2590    4.1860 C.3       1 66D        -0.0160
     26 CC         29.0780   14.4420    2.9350 C.3       1 66D        -0.0358
     27 CD2        30.2630   13.4100    3.3610 C.3       1 66D        -0.0609
     28 CD         29.4390   14.6010    1.5880 C.3       1 66D        -0.0339
     29 CE         28.9430   13.4400    0.9400 C.2       1 66D        -0.0984
     30 CB2        29.4070   17.5370    2.9620 C.3       1 66D        -0.0320
     31 C          27.3070   16.3840    3.2100 C.2       1 66D         0.2263
     32 O          27.0910   16.7810    2.0560 O.2       1 66D        -0.3419
     33 N          26.3220   16.0020    4.0480 N.am      1 LEU        -0.2629
     34 CA         24.9890   15.7360    3.5440 C.3       1 LEU         0.1314
     35 C          24.3140   16.9150    3.2720 C.2       1 LEU         0.2042
     36 O          23.6060   16.9640    2.2730 O.2       1 LEU        -0.3944
     37 CB         24.3180   14.9150    4.6540 C.3       1 LEU        -0.0099
     38 CG         22.8810   14.5250    4.3420 C.3       1 LEU        -0.0425
     39 CD1        22.8500   13.6940    3.0670 C.3       1 LEU        -0.0625
     40 CD2        22.3390   13.6820    5.5030 C.3       1 LEU        -0.0625
     41 N          24.5030   18.0700    4.0280 N.am      1 HIS        -0.2619
     42 CA         23.7870   19.3290    3.7390 C.3       1 HIS         0.1421
     43 C          24.0610   19.7770    2.4260 C.2       1 HIS         0.2060
     44 O          23.1870   20.2680    1.7120 O.2       1 HIS        -0.3942
     45 CB         24.2650   20.2710    4.8240 C.3       1 HIS         0.0427
     46 CG         23.6980   21.6510    4.6640 C.2       1 HIS         0.0561
     47 ND1        24.1380   22.5120    3.7650 N.pl3     1 HIS        -0.2623
     48 CD2        22.7400   22.1800    5.4050 C.2       1 HIS        -0.0276
     49 CE1        23.4190   23.6150    3.9380 C.2       1 HIS         0.0875
     50 NE2        22.5650   23.4140    4.9430 N.2       1 HIS        -0.3437
     51 N          25.3130   19.5230    1.8650 N.am      1 ARG        -0.2636
     52 CA         25.7150   19.9390    0.5130 C.3       1 ARG         0.1308
     53 C          25.2410   19.0170   -0.4640 C.2       1 ARG         0.2010
     54 O          24.7230   19.4830   -1.4650 O.2       1 ARG        -0.3947
     55 CB         27.2670   19.8820    0.4470 C.3       1 ARG        -0.0092
     56 CG         27.8000   20.1340   -0.9750 C.3       1 ARG        -0.0156
     57 CD         27.5210   21.5290   -1.4790 C.3       1 ARG         0.0627
     58 NE         27.8780   21.6580   -2.8980 N.pl3     1 ARG        -0.2723
     59 CZ         29.0820   21.9130   -3.4060 C.cat     1 ARG         0.2882
     60 NH1        30.1390   22.0470   -2.6130 N.pl3     1 ARG        -0.2849
     61 NH2        29.2480   22.0020   -4.7240 N.pl3     1 ARG        -0.2849
     62 C          23.2080   16.8230   -1.4230 C.2       1 MK8         0.2263
     63 N          25.1020   17.5950   -0.3220 N.am      1 MK8        -0.2743
     64 O          22.6520   16.4970   -2.4850 O.2       1 MK8        -0.3419
     65 CA         24.5900   16.5710   -1.3460 C.3       1 MK8         0.1304
     66 CB         24.8190   15.2980   -0.5960 C.3       1 MK8        -0.0186
     67 CD         26.3320   13.6770    0.2660 C.3       1 MK8        -0.0365
     68 CE         27.6410   13.2160    0.4560 C.2       1 MK8        -0.0987
     69 CG         26.2950   14.9740   -0.4800 C.3       1 MK8        -0.0449
     70 CB1        25.3560   16.7040   -2.6420 C.3       1 MK8        -0.0320
     71 N          22.4960   17.1810   -0.3810 N.am      1 LEU        -0.2629
     72 CA         21.0420   17.4180   -0.5350 C.3       1 LEU         0.1314
     73 C          20.7110   18.5290   -1.5050 C.2       1 LEU         0.2041
     74 O          19.5850   18.5850   -1.9780 O.2       1 LEU        -0.3944
     75 CB         20.4400   17.6560    0.8510 C.3       1 LEU        -0.0099
     76 CG         20.2820   16.3360    1.5890 C.3       1 LEU        -0.0425
     77 CD1        20.0590   16.5940    3.0620 C.3       1 LEU        -0.0625
     78 CD2        18.8770   15.8180    1.1440 C.3       1 LEU        -0.0625
     79 N          21.7030   19.3310   -1.8680 N.am      1 GLN        -0.2636
     80 CA         21.4500   20.4280   -2.8080 C.3       1 GLN         0.1330
     81 C          21.6070   20.1320   -4.2970 C.2       1 GLN         0.2041
     82 O          21.2630   20.9940   -5.0980 O.2       1 GLN        -0.3944
     83 CB         22.2600   21.6440   -2.4420 C.3       1 GLN         0.0045
     84 CG         21.8290   22.1060   -1.0620 C.3       1 GLN         0.0412
     85 CD         22.6200   23.3620   -0.7480 C.2       1 GLN         0.1737
     86 OE1        22.4260   24.3980   -1.3750 O.2       1 GLN        -0.3973
     87 NE2        23.5160   23.2440    0.2110 N.am      1 GLN        -0.3009
     88 N          22.1910   18.9860   -4.6480 N.am      1 ASP        -0.2622
     89 CA         22.3890   18.6090   -6.0530 C.3       1 ASP         0.1423
     90 C          21.0810   18.5330   -6.8060 C.2       1 ASP         0.2057
     91 O          20.4640   17.4740   -6.8880 O.2       1 ASP        -0.3943
     92 CB         22.9750   17.2220   -6.0940 C.3       1 ASP         0.0406
     93 CG         24.4570   17.2820   -6.3360 C.2       1 ASP         0.0393
     94 OD1        24.8970   16.3120   -6.9920 O.co2     1 ASP        -0.5688
     95 OD2        25.0790   18.3170   -6.0250 O.co2     1 ASP        -0.5688
     96 N          20.6910   19.6600   -7.3920 N.am      1 SER        -0.2615
     97 CA         19.4320   19.6820   -8.1470 C.3       1 SER         0.1536
     98 C          18.2980   19.1320   -7.2410 C.2       1 SER         0.2015
     99 O          17.5340   18.1060   -7.6830 O.2       1 SER        -0.3947
    100 CB         19.6060   18.9270   -9.4630 C.3       1 SER         0.0843
    101 OG         20.6300   19.6020  -10.2030 O.3       1 SER        -0.3903
    102 N          18.1480   19.7350   -6.0590 N.am      1 NH2        -0.2989
    103 H1         31.0056   24.8173    6.6619 H         1 ACE         0.0467
    104 H2         32.2120   23.7790    7.4944 H         1 ACE         0.0467
    105 H3         31.2420   24.9612    8.4367 H         1 ACE         0.0467
    106 H4         29.3514   23.8324    6.0907 H         1 HIS         0.1884
    107 H5         27.6159   22.2627    7.8020 H         1 HIS         0.0824
    108 H6         26.3795   22.1046    5.5597 H         1 HIS         0.0491
    109 H7         27.7655   22.9701    4.8137 H         1 HIS         0.0491
    110 H8         25.2476   23.3255    7.6458 H         1 HIS         0.2386
    111 H9         27.9184   25.6132    5.3681 H         1 HIS         0.0324
    112 H10        24.8215   25.8018    8.2596 H         1 HIS         0.1149
    113 H11        26.9641   20.2845    7.5471 H         1 LYS         0.1883
    114 H12        29.0451   18.3181    7.1869 H         1 LYS         0.0800
    115 H13        26.8313   16.8985    7.2975 H         1 LYS         0.0312
    116 H14        25.9138   18.4297    7.0964 H         1 LYS         0.0312
    117 H15        26.9852   19.2465    9.2217 H         1 LYS         0.0269
    118 H16        27.6618   17.5968    9.4394 H         1 LYS         0.0269
    119 H17        25.0085   17.0038    9.0232 H         1 LYS         0.0317
    120 H18        24.8752   18.5949    9.8462 H         1 LYS         0.0317
    121 H19        26.6703   17.7235   11.4846 H         1 LYS         0.0813
    122 H20        26.3792   16.0992   10.7749 H         1 LYS         0.0813
    123 H21        25.0663   16.4782   12.7194 H         1 LYS         0.1994
    124 H22        24.0938   16.3184   11.4009 H         1 LYS         0.1994
    125 H23        24.3606   17.8068   12.0512 H         1 LYS         0.1994
    126 H24        29.2646   16.8746    5.7541 H         1 66D         0.1839
    127 H25        28.7888   14.7685    5.0521 H         1 66D         0.0281
    128 H26        30.3220   15.4364    4.3965 H         1 66D         0.0281
    129 H27        28.0554   14.0369    2.9442 H         1 66D         0.0317
    130 H28        30.3761   12.6404    2.5832 H         1 66D         0.0234
    131 H29        30.0054   12.9302    4.3167 H         1 66D         0.0234
    132 H30        31.2081   13.9620    3.4708 H         1 66D         0.0234
    133 H31        30.5323   14.6650    1.4848 H         1 66D         0.0391
    134 H32        28.9773   15.5065    1.1674 H         1 66D         0.0391
    135 H33        29.6538   12.6267    0.8010 H         1 66D         0.0450
    136 H34        29.4316   17.1687    1.9258 H         1 66D         0.0242
    137 H35        30.4278   17.5476    3.3717 H         1 66D         0.0242
    138 H36        28.9944   18.5565    2.9791 H         1 66D         0.0242
    139 H37        26.5125   15.9014    5.0245 H         1 LEU         0.1889
    140 H38        25.0436   15.1419    2.6198 H         1 LEU         0.0802
    141 H39        24.3232   15.5111    5.5784 H         1 LEU         0.0315
    142 H40        24.9019   13.9955    4.8073 H         1 LEU         0.0315
    143 H41        22.2664   15.4283    4.2142 H         1 LEU         0.0298
    144 H42        21.8118   13.4107    2.8392 H         1 LEU         0.0232
    145 H43        23.4556   12.7863    3.2061 H         1 LEU         0.0232
    146 H44        23.2600   14.2844    2.2344 H         1 LEU         0.0232
    147 H45        22.3585   14.2766    6.4282 H         1 LEU         0.0232
    148 H46        22.9651   12.7865    5.6295 H         1 LEU         0.0232
    149 H47        21.3047   13.3784    5.2841 H         1 LEU         0.0232
    150 H48        25.1462   18.0457    4.7933 H         1 HIS         0.1885
    151 H49        22.7012   19.1795    3.8318 H         1 HIS         0.0824
    152 H50        25.3625   20.3316    4.7828 H         1 HIS         0.0491
    153 H51        23.9562   19.8719    5.8014 H         1 HIS         0.0491
    154 H52        24.8849   22.3596    3.0723 H         1 HIS         0.2386
    155 H53        22.2046   21.7033    6.2248 H         1 HIS         0.0324
    156 H54        23.5112   24.5310    3.3564 H         1 HIS         0.1149
    157 H55        25.9808   19.0254    2.4186 H         1 ARG         0.1883
    158 H56        25.3442   20.9524    0.2996 H         1 ARG         0.0800
    159 H57        27.5990   18.8870    0.7782 H         1 ARG         0.0313
    160 H58        27.6783   20.6487    1.1201 H         1 ARG         0.0313
    161 H59        27.3252   19.4145   -1.6584 H         1 ARG         0.0301
    162 H60        28.8884   19.9747   -0.9732 H         1 ARG         0.0301
    163 H61        28.1120   22.2481   -0.8928 H         1 ARG         0.0689
    164 H62        26.4501   21.7482   -1.3563 H         1 ARG         0.0689
    165 H63        27.1115   21.5378   -3.5755 H         1 ARG         0.2642
    166 H64        31.0652   22.2442   -3.0183 H         1 ARG         0.2615
    167 H65        30.0325   21.9537   -1.5928 H         1 ARG         0.2615
    168 H66        28.4387   21.9004   -5.3530 H         1 ARG         0.2615
    169 H67        30.1857   22.1724   -5.1146 H         1 ARG         0.2615
    170 H68        25.3757   17.2204    0.5639 H         1 MK8         0.1839
    171 H69        24.3142   14.4765   -1.1254 H         1 MK8         0.0279
    172 H70        24.3955   15.3982    0.4142 H         1 MK8         0.0279
    173 H71        25.8599   13.8197    1.2492 H         1 MK8         0.0388
    174 H72        25.7698   12.9233   -0.3048 H         1 MK8         0.0388
    175 H73        27.6597   12.2145    0.0287 H         1 MK8         0.0450
    176 H74        26.8237   15.7601    0.0790 H         1 MK8         0.0284
    177 H75        26.7491   14.8637   -1.4758 H         1 MK8         0.0284
    178 H76        24.9810   15.9665   -3.3669 H         1 MK8         0.0242
    179 H77        26.4252   16.5245   -2.4561 H         1 MK8         0.0242
    180 H78        25.2193   17.7178   -3.0464 H         1 MK8         0.0242
    181 H79        22.9322   17.2932    0.5118 H         1 LEU         0.1889
    182 H80        20.5968   16.4979   -0.9414 H         1 LEU         0.0802
    183 H81        19.4541   18.1315    0.7421 H         1 LEU         0.0315
    184 H82        21.1043   18.3169    1.4270 H         1 LEU         0.0315
    185 H83        21.1083   15.6372    1.3915 H         1 LEU         0.0298
    186 H84        19.9456   15.6352    3.5891 H         1 LEU         0.0232
    187 H85        19.1477   17.1955    3.1951 H         1 LEU         0.0232
    188 H86        20.9214   17.1389    3.4735 H         1 LEU         0.0232
    189 H87        18.8953   15.5865    0.0688 H         1 LEU         0.0232
    190 H88        18.1216   16.5933    1.3393 H         1 LEU         0.0232
    191 H89        18.6249   14.9094    1.7104 H         1 LEU         0.0232
    192 H90        22.6223   19.1879   -1.5013 H         1 GLN         0.1883
    193 H91        20.3917   20.6939   -2.6690 H         1 GLN         0.0801
    194 H92        22.0811   22.4445   -3.1749 H         1 GLN         0.0337
    195 H93        23.3299   21.3889   -2.4315 H         1 GLN         0.0337
    196 H94        22.0469   21.3263   -0.3173 H         1 GLN         0.0504
    197 H95        20.7515   22.3270   -1.0570 H         1 GLN         0.0504
    198 H96        24.0751   24.0308    0.4725 H         1 GLN         0.1814
    199 H97        23.6369   22.3677    0.6773 H         1 GLN         0.1814
    200 H98        22.5043   18.3631   -3.9311 H         1 ASP         0.1884
    201 H99        23.0620   19.3315   -6.5378 H         1 ASP         0.0819
    202 H100       22.4989   16.6520   -6.9054 H         1 ASP         0.0478
    203 H101       22.7854   16.7207   -5.1334 H         1 ASP         0.0478
    204 H102       21.2501   20.4859   -7.3194 H         1 SER         0.1884
    205 H103       19.1877   20.7258   -8.3934 H         1 SER         0.0823
    206 H104       18.6634   18.9346  -10.0300 H         1 SER         0.0606
    207 H105       19.9065   17.8875   -9.2649 H         1 SER         0.0606
    208 H106       21.4376   19.5950   -9.7027 H         1 SER         0.2097
    209 H107       17.4353   19.4284   -5.4281 H         1 NH2         0.1815
    210 H108       18.7484   20.4932   -5.8047 H         1 NH2         0.1815
@<TRIPOS>BOND
     1    1    2 2  
     2    1    3 1  
     3    4    1 am 
     4    5    4 1  
     5    6    5 1  
     6    5    8 1  
     7    6    7 2  
     8   14    6 am 
     9    8    9 1  
    10    9   10 1  
    11    9   11 2  
    12   10   12 1  
    13   11   13 1  
    14   13   12 2  
    15   15   14 1  
    16   16   15 1  
    17   15   18 1  
    18   16   17 2  
    19   23   16 am 
    20   18   19 1  
    21   19   20 1  
    22   20   21 1  
    23   21   22 1  
    24   24   23 1  
    25   24   25 1  
    26   24   30 1  
    27   31   24 1  
    28   25   26 1  
    29   26   27 1  
    30   26   28 1  
    31   28   29 1  
    32   29   68 2  
    33   31   32 2  
    34   33   31 am 
    35   34   33 1  
    36   35   34 1  
    37   34   37 1  
    38   35   36 2  
    39   41   35 am 
    40   37   38 1  
    41   38   39 1  
    42   38   40 1  
    43   42   41 1  
    44   43   42 1  
    45   42   45 1  
    46   43   44 2  
    47   51   43 am 
    48   45   46 1  
    49   46   47 1  
    50   46   48 2  
    51   47   49 1  
    52   48   50 1  
    53   50   49 2  
    54   52   51 1  
    55   53   52 1  
    56   52   55 1  
    57   53   54 2  
    58   63   53 am 
    59   55   56 1  
    60   56   57 1  
    61   57   58 1  
    62   58   59 ar 
    63   59   60 ar 
    64   59   61 ar 
    65   62   64 2  
    66   65   62 1  
    67   62   71 am 
    68   63   65 1  
    69   65   66 1  
    70   65   70 1  
    71   66   69 1  
    72   68   67 1  
    73   67   69 1  
    74   71   72 1  
    75   72   73 1  
    76   72   75 1  
    77   73   74 2  
    78   73   79 am 
    79   75   76 1  
    80   76   77 1  
    81   76   78 1  
    82   79   80 1  
    83   80   81 1  
    84   80   83 1  
    85   81   82 2  
    86   81   88 am 
    87   83   84 1  
    88   84   85 1  
    89   85   86 2  
    90   85   87 am 
    91   88   89 1  
    92   89   90 1  
    93   89   92 1  
    94   90   91 2  
    95   90   96 am 
    96   92   93 1  
    97   93   94 ar 
    98   93   95 ar 
    99   96   97 1  
   100   97   98 1  
   101   97  100 1  
   102   98   99 2  
   103   98  102 am 
   104  100  101 1  
   105    3  103 1  
   106    3  104 1  
   107    3  105 1  
   108    4  106 1  
   109    5  107 1  
   110    8  108 1  
   111    8  109 1  
   112   10  110 1  
   113   11  111 1  
   114   12  112 1  
   115   14  113 1  
   116   15  114 1  
   117   18  115 1  
   118   18  116 1  
   119   19  117 1  
   120   19  118 1  
   121   20  119 1  
   122   20  120 1  
   123   21  121 1  
   124   21  122 1  
   125   22  123 1  
   126   22  124 1  
   127   22  125 1  
   128   23  126 1  
   129   25  127 1  
   130   25  128 1  
   131   26  129 1  
   132   27  130 1  
   133   27  131 1  
   134   27  132 1  
   135   28  133 1  
   136   28  134 1  
   137   29  135 1  
   138   30  136 1  
   139   30  137 1  
   140   30  138 1  
   141   33  139 1  
   142   34  140 1  
   143   37  141 1  
   144   37  142 1  
   145   38  143 1  
   146   39  144 1  
   147   39  145 1  
   148   39  146 1  
   149   40  147 1  
   150   40  148 1  
   151   40  149 1  
   152   41  150 1  
   153   42  151 1  
   154   45  152 1  
   155   45  153 1  
   156   47  154 1  
   157   48  155 1  
   158   49  156 1  
   159   51  157 1  
   160   52  158 1  
   161   55  159 1  
   162   55  160 1  
   163   56  161 1  
   164   56  162 1  
   165   57  163 1  
   166   57  164 1  
   167   58  165 1  
   168   60  166 1  
   169   60  167 1  
   170   61  168 1  
   171   61  169 1  
   172   63  170 1  
   173   66  171 1  
   174   66  172 1  
   175   67  173 1  
   176   67  174 1  
   177   68  175 1  
   178   69  176 1  
   179   69  177 1  
   180   70  178 1  
   181   70  179 1  
   182   70  180 1  
   183   71  181 1  
   184   72  182 1  
   185   75  183 1  
   186   75  184 1  
   187   76  185 1  
   188   77  186 1  
   189   77  187 1  
   190   77  188 1  
   191   78  189 1  
   192   78  190 1  
   193   78  191 1  
   194   79  192 1  
   195   80  193 1  
   196   83  194 1  
   197   83  195 1  
   198   84  196 1  
   199   84  197 1  
   200   87  198 1  
   201   87  199 1  
   202   88  200 1  
   203   89  201 1  
   204   92  202 1  
   205   92  203 1  
   206   96  204 1  
   207   97  205 1  
   208  100  206 1  
   209  100  207 1  
   210  101  208 1  
   211  102  209 1  
   212  102  210 1  
@<TRIPOS>SUBSTRUCTURE
     1 ACE         1

