5hyr_ligand
  -I-interpret- 

208210  0  0  0  0  0  0  0  0999 V2000
   30.1610   23.2060    7.8140 C   0  0  0  0  0
   30.1770   22.4460    8.7840 O   0  0  0  0  0
   31.2290   24.2640    7.5860 C   0  0  0  0  0
   29.2560   23.1840    6.8460 N   0  0  0  0  0
   28.1290   22.2610    6.8290 C   0  0  0  0  0
   28.5850   20.8610    6.5140 C   0  0  0  0  0
   29.6210   20.5510    5.9370 O   0  0  0  0  0
   27.2130   22.7970    5.7490 C   0  0  0  0  0
   26.7110   24.1060    6.3350 C   0  0  0  0  0
   25.7450   24.1350    7.2480 N   0  0  0  0  0
   27.1310   25.3300    6.0650 C   0  0  0  0  0
   25.5480   25.4160    7.5460 C   0  0  0  0  0
   26.3960   26.1470    6.8180 N   0  0  0  0  0
   27.7670   19.9950    7.0260 N   0  0  0  0  0
   28.0540   18.6220    6.8190 C   0  0  0  0  0
   27.7670   18.1900    5.4390 C   0  0  0  0  0
   27.2750   19.0130    4.6710 O   0  0  0  0  0
   26.8280   17.9780    7.5090 C   0  0  0  0  0
   26.8330   18.1780    9.0090 C   0  0  0  0  0
   25.5300   17.7300    9.6640 C   0  0  0  0  0
   25.9320   17.0830   10.9800 C   0  0  0  0  0
   24.7730   16.9080   11.8560 N   0  3  0  0  0
   28.5860   17.2010    5.0960 N   0  0  0  0  0
   28.5150   16.6040    3.8210 C   0  0  0  0  0
   29.2570   15.2590    4.1860 C   0  0  0  0  0
   29.0780   14.4420    2.9350 C   0  0  0  0  0
   30.2630   13.4100    3.3610 C   0  0  0  0  0
   29.4390   14.6010    1.5880 C   0  0  0  0  0
   28.9430   13.4400    0.9400 C   0  0  0  0  0
   29.4070   17.5370    2.9620 C   0  0  0  0  0
   27.3070   16.3840    3.2100 C   0  0  0  0  0
   27.0910   16.7810    2.0560 O   0  0  0  0  0
   26.3220   16.0020    4.0480 N   0  0  0  0  0
   24.9890   15.7360    3.5440 C   0  0  0  0  0
   24.3140   16.9150    3.2720 C   0  0  0  0  0
   23.6060   16.9640    2.2730 O   0  0  0  0  0
   24.3180   14.9150    4.6540 C   0  0  0  0  0
   22.8810   14.5250    4.3420 C   0  0  0  0  0
   22.8500   13.6940    3.0670 C   0  0  0  0  0
   22.3390   13.6820    5.5030 C   0  0  0  0  0
   24.5030   18.0700    4.0280 N   0  0  0  0  0
   23.7870   19.3290    3.7390 C   0  0  0  0  0
   24.0610   19.7770    2.4260 C   0  0  0  0  0
   23.1870   20.2680    1.7120 O   0  0  0  0  0
   24.2650   20.2710    4.8240 C   0  0  0  0  0
   23.6980   21.6510    4.6640 C   0  0  0  0  0
   24.1380   22.5120    3.7650 N   0  0  0  0  0
   22.7400   22.1800    5.4050 C   0  0  0  0  0
   23.4190   23.6150    3.9380 C   0  0  0  0  0
   22.5650   23.4140    4.9430 N   0  0  0  0  0
   25.3130   19.5230    1.8650 N   0  0  0  0  0
   25.7150   19.9390    0.5130 C   0  0  0  0  0
   25.2410   19.0170   -0.4640 C   0  0  0  0  0
   24.7230   19.4830   -1.4650 O   0  0  0  0  0
   27.2670   19.8820    0.4470 C   0  0  0  0  0
   27.8000   20.1340   -0.9750 C   0  0  0  0  0
   27.5210   21.5290   -1.4790 C   0  0  0  0  0
   27.8780   21.6580   -2.8980 N   0  0  0  0  0
   29.0820   21.9130   -3.4060 C   0  0  0  0  0
   30.1390   22.0470   -2.6130 N   0  0  0  0  0
   29.2480   22.0020   -4.7240 N   0  0  0  0  0
   23.2080   16.8230   -1.4230 C   0  0  0  0  0
   25.1020   17.5950   -0.3220 N   0  0  0  0  0
   22.6520   16.4970   -2.4850 O   0  0  0  0  0
   24.5900   16.5710   -1.3460 C   0  0  0  0  0
   24.8190   15.2980   -0.5960 C   0  0  0  0  0
   26.3320   13.6770    0.2660 C   0  0  0  0  0
   27.6410   13.2160    0.4560 C   0  0  0  0  0
   26.2950   14.9740   -0.4800 C   0  0  0  0  0
   25.3560   16.7040   -2.6420 C   0  0  0  0  0
   22.4960   17.1810   -0.3810 N   0  0  0  0  0
   21.0420   17.4180   -0.5350 C   0  0  0  0  0
   20.7110   18.5290   -1.5050 C   0  0  0  0  0
   19.5850   18.5850   -1.9780 O   0  0  0  0  0
   20.4400   17.6560    0.8510 C   0  0  0  0  0
   20.2820   16.3360    1.5890 C   0  0  0  0  0
   20.0590   16.5940    3.0620 C   0  0  0  0  0
   18.8770   15.8180    1.1440 C   0  0  0  0  0
   21.7030   19.3310   -1.8680 N   0  0  0  0  0
   21.4500   20.4280   -2.8080 C   0  0  0  0  0
   21.6070   20.1320   -4.2970 C   0  0  0  0  0
   21.2630   20.9940   -5.0980 O   0  0  0  0  0
   22.2600   21.6440   -2.4420 C   0  0  0  0  0
   21.8290   22.1060   -1.0620 C   0  0  0  0  0
   22.6200   23.3620   -0.7480 C   0  0  0  0  0
   22.4260   24.3980   -1.3750 O   0  0  0  0  0
   23.5160   23.2440    0.2110 N   0  0  0  0  0
   22.1910   18.9860   -4.6480 N   0  0  0  0  0
   22.3890   18.6090   -6.0530 C   0  0  0  0  0
   21.0810   18.5330   -6.8060 C   0  0  0  0  0
   20.4640   17.4740   -6.8880 O   0  0  0  0  0
   22.9750   17.2220   -6.0940 C   0  0  0  0  0
   24.4570   17.2820   -6.3360 C   0  0  0  0  0
   24.8970   16.3120   -6.9920 O   0  0  0  0  0
   25.0790   18.3170   -6.0250 O   0  0  0  0  0
   20.6910   19.6600   -7.3920 N   0  0  0  0  0
   19.4320   19.6820   -8.1470 C   0  0  0  0  0
   18.2980   19.1320   -7.2410 C   0  0  0  0  0
   17.5340   18.1060   -7.6830 O   0  0  0  0  0
   19.6060   18.9270   -9.4630 C   0  0  0  0  0
   20.6300   19.6020  -10.2030 O   0  0  0  0  0
   18.1480   19.7350   -6.0590 N   0  0  0  0  0
   31.2409   24.9542    8.4296 H   0  0  0  0  0
   32.2025   23.7821    7.4954 H   0  0  0  0  0
   31.0066   24.8115    6.6701 H   0  0  0  0  0
   29.3533   23.8454    6.0756 H   0  0  0  0  0
   27.6287   22.1997    7.7955 H   0  0  0  0  0
   26.4039   22.1086    5.5051 H   0  0  0  0  0
   27.7228   22.9322    4.7951 H   0  0  0  0  0
   27.9192   25.6134    5.3675 H   0  0  0  0  0
   24.8208   25.8022    8.2603 H   0  0  0  0  0
   26.9481   20.2903    7.5576 H   0  0  0  0  0
   29.0789   18.3988    7.1155 H   0  0  0  0  0
   26.8575   16.9061    7.3134 H   0  0  0  0  0
   25.9312   18.4521    7.1103 H   0  0  0  0  0
   26.9587   19.2428    9.2053 H   0  0  0  0  0
   27.6418   17.5774    9.4251 H   0  0  0  0  0
   24.9849   17.0323    9.0282 H   0  0  0  0  0
   24.8559   18.5714    9.8244 H   0  0  0  0  0
   26.6534   17.7289   11.4805 H   0  0  0  0  0
   26.3621   16.1036   10.7704 H   0  0  0  0  0
   25.0709   16.4731   12.7292 H   0  0  0  0  0
   24.3566   17.8181   12.0528 H   0  0  0  0  0
   24.0865   16.3113   11.3945 H   0  0  0  0  0
   29.2781   16.8681    5.7672 H   0  0  0  0  0
   28.8530   14.7748    5.0751 H   0  0  0  0  0
   30.3029   15.4064    4.4551 H   0  0  0  0  0
   27.9961   14.4201    2.8044 H   0  0  0  0  0
   31.1988   13.9582    3.4695 H   0  0  0  0  0
   30.0066   12.9353    4.3081 H   0  0  0  0  0
   30.3741   12.6480    2.5896 H   0  0  0  0  0
   30.5173   14.7040    1.4664 H   0  0  0  0  0
   29.0220   15.5132    1.1612 H   0  0  0  0  0
   29.6544   12.6260    0.8009 H   0  0  0  0  0
   28.9972   18.5469    2.9798 H   0  0  0  0  0
   30.4181   17.5467    3.3690 H   0  0  0  0  0
   29.4306   17.1711    1.9355 H   0  0  0  0  0
   26.5163   15.8994    5.0441 H   0  0  0  0  0
   24.9942   15.1953    2.5976 H   0  0  0  0  0
   24.3006   15.5332    5.5516 H   0  0  0  0  0
   24.8886   13.9933    4.7681 H   0  0  0  0  0
   22.2725   15.4196    4.2093 H   0  0  0  0  0
   23.2566   14.2801    2.2428 H   0  0  0  0  0
   23.4505   12.7950    3.2061 H   0  0  0  0  0
   21.8208   13.4139    2.8423 H   0  0  0  0  0
   22.9505   12.7869    5.6168 H   0  0  0  0  0
   22.3740   14.2668    6.4222 H   0  0  0  0  0
   21.3087   13.3954    5.2922 H   0  0  0  0  0
   25.1590   18.0452    4.8086 H   0  0  0  0  0
   22.7012   19.2346    3.7568 H   0  0  0  0  0
   25.3509   20.3402    4.7598 H   0  0  0  0  0
   23.9350   19.8774    5.7854 H   0  0  0  0  0
   22.2041   21.7029    6.2255 H   0  0  0  0  0
   23.5112   24.5319    3.3558 H   0  0  0  0  0
   25.9941   19.0155    2.4297 H   0  0  0  0  0
   25.3118   20.9325    0.3166 H   0  0  0  0  0
   27.5825   18.8852    0.7550 H   0  0  0  0  0
   27.6624   20.6604    1.0996 H   0  0  0  0  0
   27.2971   19.4355   -1.6438 H   0  0  0  0  0
   28.8818   20.0034   -0.9491 H   0  0  0  0  0
   28.1190   22.2349   -0.9027 H   0  0  0  0  0
   26.4566   21.7349   -1.3664 H   0  0  0  0  0
   27.1190   21.5390   -3.5689 H   0  0  0  0  0
   30.0336   21.9546   -1.6027 H   0  0  0  0  0
   30.1766   22.1708   -5.1108 H   0  0  0  0  0
   28.4466   21.9014   -5.3469 H   0  0  0  0  0
   25.3812   17.2129    0.5816 H   0  0  0  0  0
   24.3309   14.4877   -1.1374 H   0  0  0  0  0
   24.4125   15.4133    0.4088 H   0  0  0  0  0
   25.8815   13.8352    1.2459 H   0  0  0  0  0
   25.7908   12.9329   -0.3184 H   0  0  0  0  0
   27.6597   12.2136    0.0283 H   0  0  0  0  0
   26.8480   15.7594    0.0352 H   0  0  0  0  0
   26.7765   14.9002   -1.4551 H   0  0  0  0  0
   24.9575   15.9995   -3.3721 H   0  0  0  0  0
   25.2517   17.7205   -3.0215 H   0  0  0  0  0
   26.4093   16.4876   -2.4638 H   0  0  0  0  0
   22.9409   17.2955    0.5297 H   0  0  0  0  0
   20.5938   16.5308   -0.9822 H   0  0  0  0  0
   19.4608   18.1216    0.7394 H   0  0  0  0  0
   21.1035   18.3062    1.4212 H   0  0  0  0  0
   21.1412   15.6916    1.4031 H   0  0  0  0  0
   20.9141   17.1340    3.4685 H   0  0  0  0  0
   19.1558   17.1901    3.1925 H   0  0  0  0  0
   19.9468   15.6433    3.5832 H   0  0  0  0  0
   18.1159   16.5431    1.4320 H   0  0  0  0  0
   18.8653   15.6874    0.0619 H   0  0  0  0  0
   18.6729   14.8633    1.6287 H   0  0  0  0  0
   22.6406   19.1851   -1.4939 H   0  0  0  0  0
   20.3812   20.6049   -2.6875 H   0  0  0  0  0
   22.0936   22.4373   -3.1708 H   0  0  0  0  0
   23.3221   21.3989   -2.4394 H   0  0  0  0  0
   22.0219   21.3326   -0.3185 H   0  0  0  0  0
   20.7583   22.3088   -1.0400 H   0  0  0  0  0
   24.0958   24.0428    0.4684 H   0  0  0  0  0
   23.6298   22.3539    0.6960 H   0  0  0  0  0
   22.5105   18.3507   -3.9168 H   0  0  0  0  0
   23.0332   19.3616   -6.5076 H   0  0  0  0  0
   22.5066   16.6641   -6.9049 H   0  0  0  0  0
   22.7925   16.7327   -5.1373 H   0  0  0  0  0
   24.2069   15.6513   -7.0861 H   0  0  0  0  0
   21.2613   20.5024   -7.3180 H   0  0  0  0  0
   19.1488   20.6973   -8.4246 H   0  0  0  0  0
   18.6719   18.9117  -10.0245 H   0  0  0  0  0
   19.8851   17.8898   -9.2777 H   0  0  0  0  0
   20.7670   19.1529  -11.0403 H   0  0  0  0  0
   17.4164   19.4269   -5.4185 H   0  0  0  0  0
   18.7650   20.5037   -5.7966 H   0  0  0  0  0
  1  2  2  0  0  0
  1  3  1  0  0  0
  4  1  1  0  0  0
  5  4  1  0  0  0
  6  5  1  0  0  0
  5  8  1  0  0  0
  6  7  2  0  0  0
 14  6  1  0  0  0
  8  9  1  0  0  0
  9 10  4  0  0  0
  9 11  4  0  0  0
 10 12  4  0  0  0
 11 13  4  0  0  0
 13 12  4  0  0  0
 15 14  1  0  0  0
 16 15  1  0  0  0
 15 18  1  0  0  0
 16 17  2  0  0  0
 23 16  1  0  0  0
 18 19  1  0  0  0
 19 20  1  0  0  0
 20 21  1  0  0  0
 21 22  1  0  0  0
 24 23  1  0  0  0
 24 25  1  0  0  0
 24 30  1  0  0  0
 31 24  1  0  0  0
 25 26  1  0  0  0
 26 27  1  0  0  0
 26 28  1  0  0  0
 28 29  1  0  0  0
 29 68  2  0  0  0
 31 32  2  0  0  0
 33 31  1  0  0  0
 34 33  1  0  0  0
 35 34  1  0  0  0
 34 37  1  0  0  0
 35 36  2  0  0  0
 41 35  1  0  0  0
 37 38  1  0  0  0
 38 39  1  0  0  0
 38 40  1  0  0  0
 42 41  1  0  0  0
 43 42  1  0  0  0
 42 45  1  0  0  0
 43 44  2  0  0  0
 51 43  1  0  0  0
 45 46  1  0  0  0
 46 47  4  0  0  0
 46 48  4  0  0  0
 47 49  4  0  0  0
 48 50  4  0  0  0
 50 49  4  0  0  0
 52 51  1  0  0  0
 53 52  1  0  0  0
 52 55  1  0  0  0
 53 54  2  0  0  0
 63 53  1  0  0  0
 55 56  1  0  0  0
 56 57  1  0  0  0
 57 58  1  0  0  0
 58 59  1  0  0  0
 59 60  2  0  0  0
 59 61  1  0  0  0
 62 64  2  0  0  0
 65 62  1  0  0  0
 62 71  1  0  0  0
 63 65  1  0  0  0
 65 66  1  0  0  0
 65 70  1  0  0  0
 66 69  1  0  0  0
 68 67  1  0  0  0
 67 69  1  0  0  0
 71 72  1  0  0  0
 72 73  1  0  0  0
 72 75  1  0  0  0
 73 74  2  0  0  0
 73 79  1  0  0  0
 75 76  1  0  0  0
 76 77  1  0  0  0
 76 78  1  0  0  0
 79 80  1  0  0  0
 80 81  1  0  0  0
 80 83  1  0  0  0
 81 82  2  0  0  0
 81 88  1  0  0  0
 83 84  1  0  0  0
 84 85  1  0  0  0
 85 86  2  0  0  0
 85 87  1  0  0  0
 88 89  1  0  0  0
 89 90  1  0  0  0
 89 92  1  0  0  0
 90 91  2  0  0  0
 90 96  1  0  0  0
 92 93  1  0  0  0
 93 94  1  0  0  0
 93 95  2  0  0  0
 96 97  1  0  0  0
 97 98  1  0  0  0
 97100  1  0  0  0
 98 99  2  0  0  0
 98102  1  0  0  0
100101  1  0  0  0
  3103  1  0  0  0
  3104  1  0  0  0
  3105  1  0  0  0
  4106  1  0  0  0
  5107  1  0  0  0
  8108  1  0  0  0
  8109  1  0  0  0
 11110  1  0  0  0
 12111  1  0  0  0
 14112  1  0  0  0
 15113  1  0  0  0
 18114  1  0  0  0
 18115  1  0  0  0
 19116  1  0  0  0
 19117  1  0  0  0
 20118  1  0  0  0
 20119  1  0  0  0
 21120  1  0  0  0
 21121  1  0  0  0
 22122  1  0  0  0
 22123  1  0  0  0
 22124  1  0  0  0
 23125  1  0  0  0
 25126  1  0  0  0
 25127  1  0  0  0
 26128  1  0  0  0
 27129  1  0  0  0
 27130  1  0  0  0
 27131  1  0  0  0
 28132  1  0  0  0
 28133  1  0  0  0
 29134  1  0  0  0
 30135  1  0  0  0
 30136  1  0  0  0
 30137  1  0  0  0
 33138  1  0  0  0
 34139  1  0  0  0
 37140  1  0  0  0
 37141  1  0  0  0
 38142  1  0  0  0
 39143  1  0  0  0
 39144  1  0  0  0
 39145  1  0  0  0
 40146  1  0  0  0
 40147  1  0  0  0
 40148  1  0  0  0
 41149  1  0  0  0
 42150  1  0  0  0
 45151  1  0  0  0
 45152  1  0  0  0
 48153  1  0  0  0
 49154  1  0  0  0
 51155  1  0  0  0
 52156  1  0  0  0
 55157  1  0  0  0
 55158  1  0  0  0
 56159  1  0  0  0
 56160  1  0  0  0
 57161  1  0  0  0
 57162  1  0  0  0
 58163  1  0  0  0
 60164  1  0  0  0
 61165  1  0  0  0
 61166  1  0  0  0
 63167  1  0  0  0
 66168  1  0  0  0
 66169  1  0  0  0
 67170  1  0  0  0
 67171  1  0  0  0
 68172  1  0  0  0
 69173  1  0  0  0
 69174  1  0  0  0
 70175  1  0  0  0
 70176  1  0  0  0
 70177  1  0  0  0
 71178  1  0  0  0
 72179  1  0  0  0
 75180  1  0  0  0
 75181  1  0  0  0
 76182  1  0  0  0
 77183  1  0  0  0
 77184  1  0  0  0
 77185  1  0  0  0
 78186  1  0  0  0
 78187  1  0  0  0
 78188  1  0  0  0
 79189  1  0  0  0
 80190  1  0  0  0
 83191  1  0  0  0
 83192  1  0  0  0
 84193  1  0  0  0
 84194  1  0  0  0
 87195  1  0  0  0
 87196  1  0  0  0
 88197  1  0  0  0
 89198  1  0  0  0
 92199  1  0  0  0
 92200  1  0  0  0
 94201  1  0  0  0
 96202  1  0  0  0
 97203  1  0  0  0
100204  1  0  0  0
100205  1  0  0  0
101206  1  0  0  0
102207  1  0  0  0
102208  1  0  0  0
M  END
$$$$
