4cpw_ligand
  -I-interpret- 

104107  0  0  0  0  0  0  0  0999 V2000
    7.9020   23.2340    2.8770 C   0  0  0  0  0
    9.2210   22.9110    3.1690 C   0  0  0  0  0
   10.2360   23.8110    2.8600 C   0  0  0  0  0
   11.5300   23.5760    3.3040 C   0  0  0  0  0
    9.9350   25.0060    2.2230 C   0  0  0  0  0
    8.6150   25.3220    1.9280 C   0  0  0  0  0
    7.6100   24.3950    2.1670 C   0  0  0  0  0
    6.2850   24.7450    1.9300 C   0  0  0  0  0
    5.6430   24.8550    3.1600 C   0  0  0  0  0
    5.3940   26.1970    3.4450 C   0  0  0  0  0
    5.9480   26.8120    4.5730 C   0  0  0  0  0
    6.9610   25.9450    5.2240 N   0  0  0  0  0
    8.1490   26.5340    5.6800 C   0  0  0  0  0
    8.4060   27.6780    5.2910 O   0  0  0  0  0
    9.1020   25.7620    6.3670 C   0  0  0  0  0
    9.5250   26.4870    7.6550 C   0  0  0  0  0
    8.3120   26.6450    8.5730 C   0  0  0  0  0
   10.6230   25.6960    8.3740 C   0  0  0  0  0
   10.2740   25.5460    5.4850 N   0  0  0  0  0
   10.9090   24.3060    5.4010 C   0  0  0  0  0
   10.4920   23.3730    6.0890 O   0  0  0  0  0
   11.9760   24.1470    4.4990 C   0  0  0  0  0
   12.5560   25.4300    4.2210 O   0  0  0  0  0
   13.0520   23.2370    5.0880 C   0  0  0  0  0
   13.8170   23.9670    6.1900 C   0  0  0  0  0
   15.2990   23.6120    6.0750 C   0  0  0  0  0
   15.5750   22.3780    6.8240 N   0  3  0  0  0
   16.0870   21.4750    6.3020 N   0  0  0  0  0
   15.3270   20.6710    5.5330 C   0  0  0  0  0
   14.1570   20.3780    5.8100 O   0  0  0  0  0
   16.1930   19.7240    4.6930 C   0  0  0  0  0
   15.4120   18.9820    3.6080 C   0  0  0  0  0
   14.4280   18.0000    4.2510 C   0  0  0  0  0
   14.6570   19.9770    2.7280 C   0  0  0  0  0
   16.4070   18.1990    2.7510 C   0  0  0  0  0
   16.8440   18.7410    5.5690 N   0  0  0  0  0
   18.1660   18.7480    5.7030 C   0  0  0  0  0
   18.8270   19.5370    5.0270 O   0  0  0  0  0
   18.7640   17.8700    6.5570 O   0  0  0  0  0
   20.0270   18.3590    7.0130 C   0  0  0  0  0
   15.6580   22.3960    8.1600 C   0  0  0  0  0
   15.9820   21.1850    8.7690 C   0  0  0  0  0
   17.2990   20.7450    8.8200 C   0  0  0  0  0
   17.6180   19.5570    9.4750 C   0  0  0  0  0
   14.9800   20.4130    9.3420 C   0  0  0  0  0
   15.2930   19.2030    9.9500 C   0  0  0  0  0
   16.6110   18.7720   10.0250 C   0  0  0  0  0
   16.9010   17.6320   10.6520 C   0  0  0  0  0
   16.0750   16.5670   10.5730 C   0  0  0  0  0
   16.4360   15.5480   11.3650 C   0  0  0  0  0
   17.6890   16.0750   12.3120 S   0  0  0  0  0
   17.7700   17.6020   11.6710 C   0  0  0  0  0
    7.0953   22.5780    3.2040 H   0  0  0  0  0
    9.4598   21.9566    3.6382 H   0  0  0  0  0
   12.1649   24.0201    2.5373 H   0  0  0  0  0
   11.5633   22.5020    3.4872 H   0  0  0  0  0
   10.7341   25.6968    1.9541 H   0  0  0  0  0
    8.3685   26.2976    1.5090 H   0  0  0  0  0
    5.7985   23.9857    1.3177 H   0  0  0  0  0
    6.2358   25.6924    1.3933 H   0  0  0  0  0
    6.2800   24.4338    3.9377 H   0  0  0  0  0
    4.6979   24.3133    3.1227 H   0  0  0  0  0
    4.7567   26.7770    2.7775 H   0  0  0  0  0
    5.6702   27.8040    4.9291 H   0  0  0  0  0
    6.7971   24.9446    5.3371 H   0  0  0  0  0
    8.6743   24.7968    6.6381 H   0  0  0  0  0
    9.9164   27.4711    7.3973 H   0  0  0  0  0
    7.5451   27.2275    8.0625 H   0  0  0  0  0
    7.9162   25.6606    8.8227 H   0  0  0  0  0
    8.6132   27.1591    9.4857 H   0  0  0  0  0
   10.2472   24.7052    8.6295 H   0  0  0  0  0
   11.4884   25.5998    7.7183 H   0  0  0  0  0
   10.9116   26.2223    9.2839 H   0  0  0  0  0
   10.6251   26.3232    4.9255 H   0  0  0  0  0
   13.2848   25.3238    3.6053 H   0  0  0  0  0
   13.7485   22.9522    4.2994 H   0  0  0  0  0
   12.5774   22.3513    5.5104 H   0  0  0  0  0
   13.4384   23.6647    7.1664 H   0  0  0  0  0
   13.6846   25.0435    6.0821 H   0  0  0  0  0
   15.8973   24.4248    6.4867 H   0  0  0  0  0
   15.5531   23.4612    5.0258 H   0  0  0  0  0
   17.0839   21.2960    6.4225 H   0  0  0  0  0
   16.9289   20.3492    4.1873 H   0  0  0  0  0
   14.9788   17.2786    4.8546 H   0  0  0  0  0
   13.7309   18.5486    4.8844 H   0  0  0  0  0
   13.8766   17.4765    3.4700 H   0  0  0  0  0
   13.9609   20.5481    3.3423 H   0  0  0  0  0
   15.3680   20.6552    2.2562 H   0  0  0  0  0
   14.1054   19.4350    1.9599 H   0  0  0  0  0
   17.1155   18.8909    2.2955 H   0  0  0  0  0
   16.9441   17.4877    3.3785 H   0  0  0  0  0
   15.8683   17.6621    1.9702 H   0  0  0  0  0
   16.2827   18.0547    6.0732 H   0  0  0  0  0
   20.6859   18.5123    6.1583 H   0  0  0  0  0
   19.8819   19.3044    7.5357 H   0  0  0  0  0
   20.4732   17.6320    7.6916 H   0  0  0  0  0
   15.4826   23.3038    8.7372 H   0  0  0  0  0
   18.0859   21.3315    8.3457 H   0  0  0  0  0
   18.6586   19.2428    9.5562 H   0  0  0  0  0
   13.9459   20.7567    9.3149 H   0  0  0  0  0
   14.4979   18.5877   10.3711 H   0  0  0  0  0
   15.1979   16.5387    9.9265 H   0  0  0  0  0
   15.9875   14.5547   11.3828 H   0  0  0  0  0
   18.4050   18.4199   12.0115 H   0  0  0  0  0
  1  2  4  0  0  0
  1  7  4  0  0  0
  2  3  4  0  0  0
  3  4  1  0  0  0
  3  5  4  0  0  0
  4 22  1  0  0  0
  5  6  4  0  0  0
  6  7  4  0  0  0
  7  8  1  0  0  0
  8  9  1  0  0  0
  9 10  1  0  0  0
 10 11  2  0  0  0
 11 12  1  0  0  0
 12 13  1  0  0  0
 13 14  2  0  0  0
 13 15  1  0  0  0
 15 16  1  0  0  0
 15 19  1  0  0  0
 16 17  1  0  0  0
 16 18  1  0  0  0
 19 20  1  0  0  0
 20 21  2  0  0  0
 20 22  1  0  0  0
 22 23  1  0  0  0
 22 24  1  0  0  0
 24 25  1  0  0  0
 25 26  1  0  0  0
 26 27  1  0  0  0
 27 28  1  0  0  0
 27 41  2  0  0  0
 28 29  1  0  0  0
 29 30  2  0  0  0
 29 31  1  0  0  0
 31 32  1  0  0  0
 31 36  1  0  0  0
 32 33  1  0  0  0
 32 34  1  0  0  0
 32 35  1  0  0  0
 36 37  1  0  0  0
 37 38  2  0  0  0
 37 39  1  0  0  0
 39 40  1  0  0  0
 41 42  1  0  0  0
 42 43  4  0  0  0
 42 45  4  0  0  0
 43 44  4  0  0  0
 44 47  4  0  0  0
 45 46  4  0  0  0
 46 47  4  0  0  0
 47 48  1  0  0  0
 48 49  4  0  0  0
 48 52  4  0  0  0
 49 50  4  0  0  0
 50 51  4  0  0  0
 51 52  4  0  0  0
  1 53  1  0  0  0
  2 54  1  0  0  0
  4 55  1  0  0  0
  4 56  1  0  0  0
  5 57  1  0  0  0
  6 58  1  0  0  0
  8 59  1  0  0  0
  8 60  1  0  0  0
  9 61  1  0  0  0
  9 62  1  0  0  0
 10 63  1  0  0  0
 11 64  1  0  0  0
 12 65  1  0  0  0
 15 66  1  0  0  0
 16 67  1  0  0  0
 17 68  1  0  0  0
 17 69  1  0  0  0
 17 70  1  0  0  0
 18 71  1  0  0  0
 18 72  1  0  0  0
 18 73  1  0  0  0
 19 74  1  0  0  0
 23 75  1  0  0  0
 24 76  1  0  0  0
 24 77  1  0  0  0
 25 78  1  0  0  0
 25 79  1  0  0  0
 26 80  1  0  0  0
 26 81  1  0  0  0
 28 82  1  0  0  0
 31 83  1  0  0  0
 33 84  1  0  0  0
 33 85  1  0  0  0
 33 86  1  0  0  0
 34 87  1  0  0  0
 34 88  1  0  0  0
 34 89  1  0  0  0
 35 90  1  0  0  0
 35 91  1  0  0  0
 35 92  1  0  0  0
 36 93  1  0  0  0
 40 94  1  0  0  0
 40 95  1  0  0  0
 40 96  1  0  0  0
 41 97  1  0  0  0
 43 98  1  0  0  0
 44 99  1  0  0  0
 45100  1  0  0  0
 46101  1  0  0  0
 49102  1  0  0  0
 50103  1  0  0  0
 52104  1  0  0  0
M  END
$$$$
