4e0w_ligand
  -I-interpret- 

 31 31  0  0  0  0  0  0  0  0999 V2000
   -4.3820   30.2990  -14.0720 N   0  3  0  0  0
   -4.8380   30.5280  -15.4770 C   0  0  0  0  0
   -2.8190   29.2150  -18.6510 C   0  0  0  0  0
   -5.2580   29.4440  -18.2750 C   0  0  0  0  0
   -2.9540   29.7370  -14.1270 C   0  0  0  0  0
   -2.9180   29.0570  -15.5050 C   0  0  0  0  0
   -3.6150   27.6820  -15.4730 C   0  0  0  0  0
   -3.6760   30.0870  -16.3860 C   0  0  0  0  0
   -2.8200   26.5310  -14.8680 C   0  0  0  0  0
   -4.0090   29.5850  -17.7900 C   0  0  0  0  0
   -1.8590   30.8510  -13.9620 C   0  0  0  0  0
   -2.3120   31.9300  -13.4680 O   0  0  0  0  0
   -3.5350   25.5870  -14.4050 O   0  0  0  0  0
   -1.5550   26.6120  -14.8650 O   0  0  0  0  0
   -0.6780   30.6080  -14.3200 O   0  0  0  0  0
   -5.0033   29.6413  -13.6011 H   0  0  0  0  0
   -4.3981   31.1738  -13.5477 H   0  0  0  0  0
   -5.0887   31.5759  -15.6419 H   0  0  0  0  0
   -5.7424   29.9593  -15.6932 H   0  0  0  0  0
   -2.8814   28.1608  -18.9211 H   0  0  0  0  0
   -2.8229   29.8239  -19.5551 H   0  0  0  0  0
   -1.8994   29.3949  -18.0942 H   0  0  0  0  0
   -6.1162   29.6955  -17.6519 H   0  0  0  0  0
   -5.4103   29.0784  -19.2905 H   0  0  0  0  0
   -2.7275   29.0525  -13.3096 H   0  0  0  0  0
   -1.9151   28.8344  -15.8692 H   0  0  0  0  0
   -3.7953   27.4106  -16.5131 H   0  0  0  0  0
   -4.4959   27.8046  -14.8429 H   0  0  0  0  0
   -3.0816   30.9525  -16.6788 H   0  0  0  0  0
   -3.2500   31.8300  -13.2897 H   0  0  0  0  0
   -4.4625   25.7919  -14.5439 H   0  0  0  0  0
  2  1  1  0  0  0
  5  1  1  0  0  0
  8  2  1  0  0  0
 10  3  1  0  0  0
 10  4  2  0  0  0
  6  5  1  0  0  0
  5 11  1  0  0  0
  6  7  1  0  0  0
  8  6  1  0  0  0
  7  9  1  0  0  0
  8 10  1  0  0  0
  9 13  1  0  0  0
  9 14  2  0  0  0
 11 12  1  0  0  0
 11 15  2  0  0  0
  1 16  1  0  0  0
  1 17  1  0  0  0
  2 18  1  0  0  0
  2 19  1  0  0  0
  3 20  1  0  0  0
  3 21  1  0  0  0
  3 22  1  0  0  0
  4 23  1  0  0  0
  4 24  1  0  0  0
  5 25  1  0  0  0
  6 26  1  0  0  0
  7 27  1  0  0  0
  7 28  1  0  0  0
  8 29  1  0  0  0
 12 30  1  0  0  0
 13 31  1  0  0  0
M  END
$$$$
