2jk7_ligand
  -I-interpret- 

 78 81  0  0  0  0  0  0  0  0999 V2000
  110.8170   98.7840   61.8030 C   0  0  0  0  0
  109.7170   98.1930   62.8130 C   0  0  0  0  0
  108.4090   97.3610   62.3070 C   0  0  0  0  0
  108.1430   97.0740   60.7930 N   0  0  0  0  0
  109.0010   96.3840   59.8790 C   0  0  0  0  0
  110.4180   95.7540   60.1720 C   0  0  0  0  0
  111.0130   94.8310   59.2550 N   0  0  0  0  0
  111.6480   93.7600   59.8560 C   0  0  0  0  0
  112.2870   92.7240   58.9860 C   0  0  0  0  0
  111.4380   91.4060   59.0430 C   0  0  0  0  0
  109.9960   91.5730   58.4900 C   0  0  0  0  0
  113.6600   92.5470   59.4900 N   0  3  0  0  0
  111.7190   93.5930   61.1060 O   0  0  0  0  0
  111.4010   96.7410   60.5290 C   0  0  0  0  0
  111.3140   97.9740   60.6810 C   0  0  0  0  0
  108.6390   96.2320   58.6680 O   0  0  0  0  0
  106.8590   97.5860   60.2320 C   0  0  0  0  0
  107.0080   98.9570   59.5450 C   0  0  0  0  0
  108.1290   99.4610   59.5120 O   0  0  0  0  0
  106.2580   98.5770   58.4020 N   0  3  0  0  0
  106.0630   99.6790   57.3870 C   0  0  0  0  0
  105.2960  100.9950   57.9330 C   0  0  0  0  0
  105.5460  102.3180   57.2890 C   0  0  0  0  0
  114.8390   93.2990   59.3980 C   0  0  0  0  0
  104.8570  103.5010   57.7740 C   0  0  0  0  0
  103.9270  103.4230   58.8760 C   0  0  0  0  0
  103.6660  102.1420   59.5190 C   0  0  0  0  0
  104.3420  100.9350   59.0530 C   0  0  0  0  0
  105.2570   99.1020   56.1840 C   0  0  0  0  0
  103.9930   99.6270   55.6330 C   0  0  0  0  0
  103.3640   99.0050   54.5210 C   0  0  0  0  0
  103.9700   97.8520   53.9240 C   0  0  0  0  0
  105.8330   97.9450   55.5640 C   0  0  0  0  0
  105.2100   97.3160   54.4450 C   0  0  0  0  0
  106.0870   97.2360   61.4330 C   0  0  0  0  0
  107.0650   97.9030   62.5650 C   0  0  0  0  0
  111.6958   98.9438   62.4278 H   0  0  0  0  0
  110.3164   99.6257   61.3245 H   0  0  0  0  0
  109.2854   99.0870   63.2630 H   0  0  0  0  0
  110.2763   97.4540   63.3867 H   0  0  0  0  0
  108.7526   96.5114   62.8971 H   0  0  0  0  0
  110.1267   95.1177   61.0077 H   0  0  0  0  0
  110.9722   94.9528   58.2431 H   0  0  0  0  0
  112.3267   93.0167   57.9368 H   0  0  0  0  0
  111.3555   91.1146   60.0901 H   0  0  0  0  0
  111.9425   90.6645   58.4235 H   0  0  0  0  0
  109.4690   92.3268   59.0749 H   0  0  0  0  0
  110.0422   91.8872   57.4473 H   0  0  0  0  0
  109.4685   90.6218   58.5612 H   0  0  0  0  0
  113.9365   91.7547   58.9101 H   0  0  0  0  0
  113.4760   92.6694   60.4858 H   0  0  0  0  0
  112.0264   96.7091   59.6369 H   0  0  0  0  0
  111.5968   96.4419   61.5587 H   0  0  0  0  0
  112.3728   98.2293   60.7244 H   0  0  0  0  0
  110.5475   98.1974   59.9389 H   0  0  0  0  0
  106.3450   97.2191   59.3436 H   0  0  0  0  0
  106.6568   99.8737   60.0188 H   0  0  0  0  0
  108.0851  100.3069   59.0602 H   0  0  0  0  0
  105.3311   98.3050   58.7296 H   0  0  0  0  0
  106.7774   97.8318   57.9380 H   0  0  0  0  0
  107.0638  100.0113   57.1113 H   0  0  0  0  0
  106.2446  102.3963   56.4560 H   0  0  0  0  0
  115.1141   93.4142   58.3496 H   0  0  0  0  0
  114.6777   94.2810   59.8427 H   0  0  0  0  0
  115.6390   92.7846   59.9304 H   0  0  0  0  0
  105.0450  104.4636   57.2984 H   0  0  0  0  0
  103.4205  104.3222   59.2266 H   0  0  0  0  0
  102.9637  102.0847   60.3507 H   0  0  0  0  0
  104.1387   99.9806   59.5386 H   0  0  0  0  0
  103.5344  100.5059   56.0861 H   0  0  0  0  0
  102.4288   99.4015   54.1256 H   0  0  0  0  0
  103.4926   97.3735   53.0689 H   0  0  0  0  0
  106.7653   97.5377   55.9551 H   0  0  0  0  0
  105.6644   96.4382   53.9856 H   0  0  0  0  0
  105.8921   96.1713   61.5617 H   0  0  0  0  0
  105.0587   97.5973   61.4415 H   0  0  0  0  0
  107.0584   98.9912   62.5019 H   0  0  0  0  0
  106.7272   97.6601   63.5724 H   0  0  0  0  0
  1  2  1  0  0  0
  1 15  1  0  0  0
  2  3  1  0  0  0
  3  4  1  0  0  0
  3 36  1  0  0  0
  4  5  1  0  0  0
  4 17  1  0  0  0
  5  6  1  0  0  0
  5 16  2  0  0  0
  6  7  1  0  0  0
  6 14  1  0  0  0
  7  8  1  0  0  0
  8  9  1  0  0  0
  8 13  2  0  0  0
  9 10  1  0  0  0
  9 12  1  0  0  0
 10 11  1  0  0  0
 12 24  1  0  0  0
 14 15  1  0  0  0
 17 18  1  0  0  0
 17 35  1  0  0  0
 18 19  1  0  0  0
 18 20  1  0  0  0
 20 21  1  0  0  0
 21 22  1  0  0  0
 21 29  1  0  0  0
 22 23  4  0  0  0
 22 28  4  0  0  0
 23 25  4  0  0  0
 25 26  4  0  0  0
 26 27  4  0  0  0
 27 28  4  0  0  0
 29 30  4  0  0  0
 29 33  4  0  0  0
 30 31  4  0  0  0
 31 32  4  0  0  0
 32 34  4  0  0  0
 33 34  4  0  0  0
 35 36  1  0  0  0
  1 37  1  0  0  0
  1 38  1  0  0  0
  2 39  1  0  0  0
  2 40  1  0  0  0
  3 41  1  0  0  0
  6 42  1  0  0  0
  7 43  1  0  0  0
  9 44  1  0  0  0
 10 45  1  0  0  0
 10 46  1  0  0  0
 11 47  1  0  0  0
 11 48  1  0  0  0
 11 49  1  0  0  0
 12 50  1  0  0  0
 12 51  1  0  0  0
 14 52  1  0  0  0
 14 53  1  0  0  0
 15 54  1  0  0  0
 15 55  1  0  0  0
 17 56  1  0  0  0
 18 57  1  0  0  0
 19 58  1  0  0  0
 20 59  1  0  0  0
 20 60  1  0  0  0
 21 61  1  0  0  0
 23 62  1  0  0  0
 24 63  1  0  0  0
 24 64  1  0  0  0
 24 65  1  0  0  0
 25 66  1  0  0  0
 26 67  1  0  0  0
 27 68  1  0  0  0
 28 69  1  0  0  0
 30 70  1  0  0  0
 31 71  1  0  0  0
 32 72  1  0  0  0
 33 73  1  0  0  0
 34 74  1  0  0  0
 35 75  1  0  0  0
 35 76  1  0  0  0
 36 77  1  0  0  0
 36 78  1  0  0  0
M  END
$$$$
