3uj9_ligand
  -I-interpret- 

 26 25  0  0  0  0  0  0  0  0999 V2000
   15.4720   10.6730   19.8690 P   0  0  0  0  0
   16.0030   10.0980   21.1770 O   0  0  0  0  0
   15.1980    9.6010   18.8470 O   0  0  0  0  0
   14.2740   11.5630   20.1040 O   0  0  0  0  0
   16.6170   11.6000   19.3200 O   0  0  0  0  0
   16.4120   12.4220   18.1770 C   0  0  0  0  0
   17.6350   13.2540   17.7630 C   0  0  0  0  0
   18.0110   14.4110   18.6370 N   0  3  0  0  0
   16.7920   15.3040   18.7980 C   0  0  0  0  0
   19.1690   15.0540   18.0350 C   0  0  0  0  0
   18.3740   13.9700   19.9240 C   0  0  0  0  0
   16.1635   10.8126   21.7976 H   0  0  0  0  0
   14.4947   12.2282   20.7600 H   0  0  0  0  0
   15.6180   13.1253   18.4282 H   0  0  0  0  0
   16.1811   11.7581   17.3439 H   0  0  0  0  0
   17.3818   13.6870   16.7953 H   0  0  0  0  0
   18.4825   12.5695   17.8010 H   0  0  0  0  0
   16.4739   15.6624   17.8190 H   0  0  0  0  0
   15.9843   14.7346   19.2579 H   0  0  0  0  0
   17.0465   16.1532   19.4322 H   0  0  0  0  0
   19.9894   14.3389   17.9742 H   0  0  0  0  0
   18.9115   15.3995   17.0338 H   0  0  0  0  0
   19.4706   15.9036   18.6476 H   0  0  0  0  0
   17.5330   13.4456   20.3776 H   0  0  0  0  0
   19.2266   13.2951   19.8484 H   0  0  0  0  0
   18.6425   14.8291   20.5388 H   0  0  0  0  0
  1  2  1  0  0  0
  1  3  2  0  0  0
  1  4  1  0  0  0
  1  5  1  0  0  0
  5  6  1  0  0  0
  6  7  1  0  0  0
  7  8  1  0  0  0
  8  9  1  0  0  0
  8 10  1  0  0  0
  8 11  1  0  0  0
  2 12  1  0  0  0
  4 13  1  0  0  0
  6 14  1  0  0  0
  6 15  1  0  0  0
  7 16  1  0  0  0
  7 17  1  0  0  0
  9 18  1  0  0  0
  9 19  1  0  0  0
  9 20  1  0  0  0
 10 21  1  0  0  0
 10 22  1  0  0  0
 10 23  1  0  0  0
 11 24  1  0  0  0
 11 25  1  0  0  0
 11 26  1  0  0  0
M  END
$$$$
