3osi_ligand
  -I-interpret- 

 33 34  0  0  0  0  0  0  0  0999 V2000
   15.7440   16.3290    9.8580 C   0  0  0  0  0
   17.2780   18.1900    9.8520 C   0  0  0  0  0
   16.7510   17.1800   16.0150 O   0  0  0  0  0
   11.7550   21.1770    9.1510 O   0  0  0  0  0
   13.9280   17.3240   15.2000 Cl  0  0  0  0  0
   19.2610   17.2560   14.4820 Cl  0  0  0  0  0
   14.3810   22.4880    9.6950 Cl  0  0  0  0  0
   10.9410   18.3880    9.1160 Cl  0  0  0  0  0
   15.1050   17.4980   12.7630 C   0  0  0  0  0
   17.4920   17.4770   12.4400 C   0  0  0  0  0
   15.0890   19.9400   10.0670 C   0  0  0  0  0
   13.5960   18.0690    9.8140 C   0  0  0  0  0
   16.5740   17.3060   14.6560 C   0  0  0  0  0
   12.7890   20.3160    9.4580 C   0  0  0  0  0
   15.2900   17.3810   14.1340 C   0  0  0  0  0
   17.6750   17.3530   13.8120 C   0  0  0  0  0
   14.0580   20.8020    9.7440 C   0  0  0  0  0
   12.5500   18.9480    9.4900 C   0  0  0  0  0
   16.2060   17.5500   11.9160 C   0  0  0  0  0
   14.8640   18.5720   10.1050 C   0  0  0  0  0
   16.0100   17.6710   10.4420 C   0  0  0  0  0
   16.5914   15.6730   10.0572 H   0  0  0  0  0
   14.8445   15.9098   10.3089 H   0  0  0  0  0
   15.6018   16.4243    8.7815 H   0  0  0  0  0
   17.5062   19.1643   10.2841 H   0  0  0  0  0
   18.0894   17.4955   10.0696 H   0  0  0  0  0
   17.1616   18.2881    8.7727 H   0  0  0  0  0
   17.6898   17.1417   16.2121 H   0  0  0  0  0
   10.9572   20.6701    8.9830 H   0  0  0  0  0
   14.0971   17.5490   12.3511 H   0  0  0  0  0
   18.3552   17.5170   11.7756 H   0  0  0  0  0
   16.0795   20.3356   10.2920 H   0  0  0  0  0
   13.4171   16.9940    9.8381 H   0  0  0  0  0
 21  1  1  0  0  0
 21  2  1  0  0  0
 13  3  1  0  0  0
 14  4  1  0  0  0
 15  5  1  0  0  0
 16  6  1  0  0  0
 17  7  1  0  0  0
 18  8  1  0  0  0
  9 15  4  0  0  0
 19  9  4  0  0  0
 10 16  4  0  0  0
 19 10  4  0  0  0
 11 17  4  0  0  0
 20 11  4  0  0  0
 12 18  4  0  0  0
 20 12  4  0  0  0
 15 13  4  0  0  0
 16 13  4  0  0  0
 17 14  4  0  0  0
 18 14  4  0  0  0
 21 19  1  0  0  0
 20 21  1  0  0  0
  1 22  1  0  0  0
  1 23  1  0  0  0
  1 24  1  0  0  0
  2 25  1  0  0  0
  2 26  1  0  0  0
  2 27  1  0  0  0
  3 28  1  0  0  0
  4 29  1  0  0  0
  9 30  1  0  0  0
 10 31  1  0  0  0
 11 32  1  0  0  0
 12 33  1  0  0  0
M  END
$$$$
