2rkm_ligand
  -I-interpret- 

 48 47  0  0  0  0  0  0  0  0999 V2000
    6.8580   17.0300   15.4260 N   0  3  0  0  0
    6.3580   18.3180   14.8710 C   0  0  0  0  0
    5.2260   18.8750   15.7370 C   0  0  0  0  0
    4.4490   18.1430   16.3590 O   0  0  0  0  0
    5.9260   18.2340   13.4140 C   0  0  0  0  0
    5.1640   16.9910   13.0030 C   0  0  0  0  0
    5.0810   16.9400   11.4710 C   0  0  0  0  0
    6.3810   16.3250   10.9620 C   0  0  0  0  0
    6.4700   14.8860   11.3450 N   0  3  0  0  0
    5.2010   20.1990   15.8510 N   0  0  0  0  0
    4.2160   20.8820   16.6810 C   0  0  0  0  0
    2.8770   21.1230   16.0030 C   0  0  0  0  0
    2.8140   21.0780   14.7630 O   0  0  0  0  0
    4.7530   22.2500   17.1500 C   0  0  0  0  0
    5.9940   22.1200   18.0240 C   0  0  0  0  0
    5.8980   22.9130   19.3070 C   0  0  0  0  0
    7.1950   22.8600   20.1030 C   0  0  0  0  0
    7.0610   22.0360   21.3460 N   0  3  0  0  0
    1.8840   21.3300   16.7560 O   0  0  0  0  0
    7.1275   17.1630   16.4007 H   0  0  0  0  0
    6.1208   16.3274   15.3686 H   0  0  0  0  0
    7.6670   16.7204   14.8875 H   0  0  0  0  0
    7.2053   19.0033   14.8939 H   0  0  0  0  0
    6.8447   18.2315   12.8274 H   0  0  0  0  0
    5.2463   19.0707   13.2529 H   0  0  0  0  0
    4.1594   17.0192   13.4250 H   0  0  0  0  0
    5.6792   16.1046   13.3731 H   0  0  0  0  0
    4.9476   17.9418   11.0628 H   0  0  0  0  0
    4.2266   16.3414   11.1551 H   0  0  0  0  0
    7.2208   16.8599   11.4055 H   0  0  0  0  0
    6.4050   16.4021    9.8750 H   0  0  0  0  0
    7.3451   14.4958   10.9952 H   0  0  0  0  0
    6.4417   14.8035   12.3613 H   0  0  0  0  0
    5.6838   14.3782   10.9395 H   0  0  0  0  0
    5.8907   20.7531   15.3433 H   0  0  0  0  0
    4.0480   20.2036   17.5175 H   0  0  0  0  0
    3.9744   22.7328   17.7406 H   0  0  0  0  0
    5.0231   22.8268   16.2655 H   0  0  0  0  0
    6.8413   22.5062   17.4574 H   0  0  0  0  0
    6.1039   21.0688   18.2906 H   0  0  0  0  0
    5.1038   22.4827   19.9171 H   0  0  0  0  0
    5.6945   23.9531   19.0524 H   0  0  0  0  0
    7.4553   23.8770   20.3962 H   0  0  0  0  0
    7.9607   22.4049   19.4747 H   0  0  0  0  0
    7.9504   22.0288   21.8453 H   0  0  0  0  0
    6.3380   22.4380   21.9427 H   0  0  0  0  0
    6.8036   21.0818   21.0938 H   0  0  0  0  0
    2.1711   21.3213   17.6720 H   0  0  0  0  0
  3  2  1  0  0  0
  2  5  1  0  0  0
  2  1  1  0  0  0
  5  6  1  0  0  0
  6  7  1  0  0  0
  7  8  1  0  0  0
  8  9  1  0  0  0
  3  4  2  0  0  0
 11 12  1  0  0  0
 11 14  1  0  0  0
 10 11  1  0  0  0
 14 15  1  0  0  0
 15 16  1  0  0  0
 16 17  1  0  0  0
 17 18  1  0  0  0
 12 19  1  0  0  0
 12 13  2  0  0  0
  3 10  1  0  0  0
  1 20  1  0  0  0
  1 21  1  0  0  0
  1 22  1  0  0  0
  2 23  1  0  0  0
  5 24  1  0  0  0
  5 25  1  0  0  0
  6 26  1  0  0  0
  6 27  1  0  0  0
  7 28  1  0  0  0
  7 29  1  0  0  0
  8 30  1  0  0  0
  8 31  1  0  0  0
  9 32  1  0  0  0
  9 33  1  0  0  0
  9 34  1  0  0  0
 10 35  1  0  0  0
 11 36  1  0  0  0
 14 37  1  0  0  0
 14 38  1  0  0  0
 15 39  1  0  0  0
 15 40  1  0  0  0
 16 41  1  0  0  0
 16 42  1  0  0  0
 17 43  1  0  0  0
 17 44  1  0  0  0
 18 45  1  0  0  0
 18 46  1  0  0  0
 18 47  1  0  0  0
 19 48  1  0  0  0
M  END
$$$$
