4bc5_ligand
  -I-interpret- 

 19 18  0  0  0  0  0  0  0  0999 V2000
   13.7970   -0.4910   29.2660 C   0  0  0  0  0
   13.9580    0.8860   29.5850 O   0  0  0  0  0
   14.9010   -1.3640   29.9260 C   0  0  0  0  0
   15.7190   -0.9170   30.6970 O   0  0  0  0  0
   14.9750   -2.8260   29.5940 C   0  0  0  0  0
   13.7970   -3.3060   28.9740 O   0  0  0  0  0
   16.2730   -3.1700   28.7870 C   0  0  0  0  0
   16.1590   -2.7380   27.4240 O   0  0  0  0  0
   16.3790   -4.7090   28.7750 C   0  0  0  0  0
   17.6090   -5.0480   28.1400 F   0  0  0  0  0
   13.8688   -0.6047   28.1843 H   0  0  0  0  0
   12.8278   -0.8203   29.6405 H   0  0  0  0  0
   13.2619    1.3947   29.1627 H   0  0  0  0  0
   15.0438   -3.3627   30.5402 H   0  0  0  0  0
   13.0358   -3.0684   29.5085 H   0  0  0  0  0
   17.1344   -2.6806   29.2416 H   0  0  0  0  0
   16.0910   -1.7808   27.3975 H   0  0  0  0  0
   15.5383   -5.1451   28.2354 H   0  0  0  0  0
   16.3539   -5.1010   29.7917 H   0  0  0  0  0
  1  2  1  0  0  0
  1  3  1  0  0  0
  3  4  2  0  0  0
  3  5  1  0  0  0
  5  6  1  0  0  0
  5  7  1  0  0  0
  7  8  1  0  0  0
  7  9  1  0  0  0
  9 10  1  0  0  0
  1 11  1  0  0  0
  1 12  1  0  0  0
  2 13  1  0  0  0
  5 14  1  0  0  0
  6 15  1  0  0  0
  7 16  1  0  0  0
  8 17  1  0  0  0
  9 18  1  0  0  0
  9 19  1  0  0  0
M  END
$$$$
