5u6v_ligand
  -I-interpret- 

 48 52  0  0  0  0  0  0  0  0999 V2000
  -18.2630   -4.5150   -8.3360 C   0  0  0  0  0
  -19.4080   -2.7470   -6.5130 C   0  0  0  0  0
  -19.4570   -3.8320   -8.6710 C   0  0  0  0  0
  -22.0090   -2.8360   -9.1150 C   0  0  0  0  0
  -21.5660   -1.1010   -7.5200 C   0  0  0  0  0
  -17.2480   -3.4630  -10.8470 C   0  0  0  0  0
  -17.1160   -3.7970  -13.2300 C   0  0  0  0  0
  -17.5930   -5.6590  -11.7770 C   0  0  0  0  0
  -15.3500   -3.0560   -5.1820 C   0  0  0  0  0
  -15.4170   -4.4250   -5.8130 C   0  0  0  0  0
  -16.4390   -4.9710   -6.6650 C   0  0  0  0  0
  -16.0530   -6.1830   -6.9640 N   0  0  0  0  0
  -14.8420   -6.4330   -6.3510 N   0  0  0  0  0
  -14.4750   -5.3540   -5.6640 N   0  0  0  0  0
  -16.9520   -7.0380   -7.6950 C   0  0  0  0  0
  -17.0480   -6.6530   -9.1540 C   0  0  0  0  0
  -17.6700   -5.3770   -9.3510 N   0  0  0  0  0
  -17.6410   -4.3210   -7.1270 C   0  0  0  0  0
  -18.2340   -3.4230   -6.1850 C   0  0  0  0  0
  -20.0280   -2.9540   -7.7540 C   0  0  0  0  0
  -21.1960   -2.2960   -8.1150 C   0  0  0  0  0
  -23.1710   -2.1740   -9.4870 C   0  0  0  0  0
  -23.5030   -0.9780   -8.8580 C   0  0  0  0  0
  -22.7020   -0.4780   -7.9000 N   0  0  0  0  0
  -24.6910   -0.2850   -9.2260 N   0  0  0  0  0
  -17.5280   -4.8200  -10.6670 C   0  0  0  0  0
  -17.0460   -2.9490  -12.1290 C   0  0  0  0  0
  -17.3860   -5.1460  -13.0570 C   0  0  0  0  0
  -16.8630   -3.1830  -14.8410 Cl  0  0  0  0  0
  -19.8482   -2.0513   -5.7987 H   0  0  0  0  0
  -19.9265   -3.9927   -9.6415 H   0  0  0  0  0
  -21.7322   -3.7719   -9.6003 H   0  0  0  0  0
  -20.9389   -0.6628   -6.7436 H   0  0  0  0  0
  -17.1870   -2.8025   -9.9821 H   0  0  0  0  0
  -17.8063   -6.7197  -11.6447 H   0  0  0  0  0
  -15.3517   -2.2965   -5.9638 H   0  0  0  0  0
  -16.2144   -2.9136   -4.5335 H   0  0  0  0  0
  -14.4357   -2.9725   -4.5945 H   0  0  0  0  0
  -17.9441   -6.9430   -7.2535 H   0  0  0  0  0
  -16.5712   -8.0577   -7.6380 H   0  0  0  0  0
  -17.6573   -7.4031   -9.6581 H   0  0  0  0  0
  -16.0348   -6.5958   -9.5518 H   0  0  0  0  0
  -17.7685   -3.2674   -5.2118 H   0  0  0  0  0
  -23.8160   -2.5863  -10.2629 H   0  0  0  0  0
  -25.2993   -0.6652   -9.9511 H   0  0  0  0  0
  -24.9338    0.5916   -8.7645 H   0  0  0  0  0
  -16.8345   -1.8887  -12.2669 H   0  0  0  0  0
  -17.4365   -5.8063  -13.9227 H   0  0  0  0  0
  3  1  4  0  0  0
  1 17  1  0  0  0
  1 18  4  0  0  0
  2 19  4  0  0  0
 20  2  4  0  0  0
 20  3  4  0  0  0
 21  4  4  0  0  0
  4 22  4  0  0  0
 21  5  4  0  0  0
  5 24  4  0  0  0
 26  6  4  0  0  0
  6 27  4  0  0  0
 27  7  4  0  0  0
 28  7  4  0  0  0
  7 29  1  0  0  0
 26  8  4  0  0  0
  8 28  4  0  0  0
 10  9  1  0  0  0
 11 10  4  0  0  0
 10 14  4  0  0  0
 11 12  4  0  0  0
 18 11  1  0  0  0
 12 13  4  0  0  0
 12 15  1  0  0  0
 13 14  4  0  0  0
 16 15  1  0  0  0
 17 16  1  0  0  0
 17 26  1  0  0  0
 19 18  4  0  0  0
 20 21  1  0  0  0
 22 23  4  0  0  0
 23 24  4  0  0  0
 23 25  1  0  0  0
  2 30  1  0  0  0
  3 31  1  0  0  0
  4 32  1  0  0  0
  5 33  1  0  0  0
  6 34  1  0  0  0
  8 35  1  0  0  0
  9 36  1  0  0  0
  9 37  1  0  0  0
  9 38  1  0  0  0
 15 39  1  0  0  0
 15 40  1  0  0  0
 16 41  1  0  0  0
 16 42  1  0  0  0
 19 43  1  0  0  0
 22 44  1  0  0  0
 25 45  1  0  0  0
 25 46  1  0  0  0
 27 47  1  0  0  0
 28 48  1  0  0  0
M  END
$$$$
