6o0p_ligand
  -I-interpret- 

111118  0  0  0  0  0  0  0  0999 V2000
  -11.7600    0.6050  -17.5920 C   0  0  0  0  0
  -12.5240    1.6910  -17.9800 C   0  0  0  0  0
  -15.3000    3.0650  -16.4550 C   0  0  0  0  0
  -15.0980    4.3250  -14.3960 C   0  0  0  0  0
  -15.8580    4.9260  -13.2240 C   0  0  0  0  0
  -17.4900    3.1490  -13.4070 C   0  0  0  0  0
  -16.7070    2.5670  -14.5640 C   0  0  0  0  0
  -17.7310    3.0880  -10.5270 C   0  0  0  0  0
  -18.1420    3.2790   -9.2250 C   0  0  0  0  0
  -17.1980    5.4680   -9.2280 C   0  0  0  0  0
  -16.7760    5.2820  -10.5350 C   0  0  0  0  0
  -18.3120    4.7120   -7.1300 C   0  0  0  0  0
  -17.1980    3.9000   -4.1370 C   0  0  0  0  0
  -15.8750    3.5890   -3.8710 C   0  0  0  0  0
  -16.5440    1.2990   -3.3210 C   0  0  0  0  0
  -17.8610    1.6680   -3.5970 C   0  0  0  0  0
  -17.2190   -1.0360   -2.7510 C   0  0  0  0  0
  -16.0150    3.6260  -15.3080 N   0  3  0  0  0
  -12.8640    6.7810  -20.2080 C   0  0  0  0  0
  -19.3300    4.2080   -6.6650 O   0  0  0  0  0
  -13.4080    6.2510  -18.8810 C   0  0  0  0  0
  -11.0210    0.6560  -16.4270 C   0  0  0  0  0
  -17.0340    4.0870  -11.2040 C   0  0  0  0  0
  -14.8810    5.8600  -19.0370 C   0  0  0  0  0
  -17.8890    4.4680   -8.5440 C   0  0  0  0  0
  -15.5550    2.3100   -3.4750 C   0  0  0  0  0
  -15.4950    5.2960  -17.7580 C   0  0  0  0  0
  -18.1940    2.9490   -3.9980 C   0  0  0  0  0
  -16.6570   -2.0830   -1.8060 C   0  0  0  0  0
  -17.6330   -3.2320   -1.5880 C   0  0  0  0  0
  -16.9970   -4.2820   -0.7120 C   0  0  0  0  0
  -14.8420   -3.7220   -1.4110 C   0  0  0  0  0
  -15.3430   -2.6410   -2.3330 C   0  0  0  0  0
  -18.0940    1.3170   -7.8430 C   0  0  0  0  0
  -18.7120    0.1460   -7.4340 C   0  0  0  0  0
  -16.7680   -0.6350   -6.5140 C   0  0  0  0  0
  -14.6560    4.1420  -17.2810 C   0  0  0  0  0
  -16.0460    0.5330   -6.8790 C   0  0  0  0  0
  -16.7520    1.5240   -7.5640 C   0  0  0  0  0
  -14.7040    0.3290   -6.4300 C   0  0  0  0  0
  -14.6640   -0.8960   -5.8410 C   0  0  0  0  0
  -13.2660    7.3350  -17.8130 C   0  0  0  0  0
  -13.3520    4.0130  -17.6140 C   0  0  0  0  0
  -12.6220    5.0050  -18.4620 C   0  0  0  0  0
  -12.5490    2.8340  -17.1950 C   0  0  0  0  0
  -11.8080    2.8820  -16.0220 C   0  0  0  0  0
  -11.0470    1.7920  -15.6430 C   0  0  0  0  0
  -16.5960    3.8830  -12.5090 N   0  0  0  0  0
  -17.4640    5.4630   -6.3360 N   0  0  0  0  0
  -16.2390    0.0240   -2.9190 N   0  0  0  0  0
  -14.1370    2.0540   -3.2380 N   0  0  0  0  0
  -18.0710   -0.8300   -6.7770 N   0  0  0  0  0
  -15.9070   -1.4860   -5.8850 N   0  0  0  0  0
  -18.9680    5.7810   -4.3940 O   0  0  0  0  0
  -16.5830    6.4200   -4.2360 O   0  0  0  0  0
  -15.7930   -4.7740   -1.2900 O   0  0  0  0  0
  -13.8040    0.9480   -2.8420 O   0  0  0  0  0
  -13.3440    2.9610   -3.4470 O   0  0  0  0  0
  -18.8230    2.2740   -8.5490 O   0  0  0  0  0
  -17.5940    5.5210   -4.7020 S   0  0  0  0  0
  -10.0540   -0.7110  -15.9490 Cl  0  0  0  0  0
  -11.7414   -0.2940  -18.2081 H   0  0  0  0  0
  -13.1053    1.6484  -18.9011 H   0  0  0  0  0
  -16.0150    2.5305  -17.0805 H   0  0  0  0  0
  -14.5197    2.4002  -16.0846 H   0  0  0  0  0
  -14.3693    3.6102  -14.0136 H   0  0  0  0  0
  -14.6020    5.1272  -14.9423 H   0  0  0  0  0
  -16.5633    5.6674  -13.5996 H   0  0  0  0  0
  -15.1481    5.3919  -12.5406 H   0  0  0  0  0
  -17.9643    2.3384  -12.8538 H   0  0  0  0  0
  -18.2451    3.8324  -13.7954 H   0  0  0  0  0
  -17.3980    2.0583  -15.2362 H   0  0  0  0  0
  -15.9661    1.8700  -14.1725 H   0  0  0  0  0
  -17.9531    2.1475  -11.0313 H   0  0  0  0  0
  -16.9862    6.4121   -8.7260 H   0  0  0  0  0
  -16.2361    6.0795  -11.0455 H   0  0  0  0  0
  -15.0979    4.3464   -3.9738 H   0  0  0  0  0
  -18.6511    0.9243   -3.4935 H   0  0  0  0  0
  -18.1394   -0.6237   -2.3376 H   0  0  0  0  0
  -17.4371   -1.4916   -3.7169 H   0  0  0  0  0
  -16.6947    4.2936  -15.6723 H   0  0  0  0  0
  -12.9513    6.0067  -20.9702 H   0  0  0  0  0
  -13.4379    7.6568  -20.5106 H   0  0  0  0  0
  -11.8164    7.0560  -20.0859 H   0  0  0  0  0
  -14.9366    5.0830  -19.7995 H   0  0  0  0  0
  -15.4351    6.7614  -19.2987 H   0  0  0  0  0
  -16.5110    4.9549  -17.9568 H   0  0  0  0  0
  -15.5253    6.0705  -16.9917 H   0  0  0  0  0
  -19.2328    3.2077   -4.2030 H   0  0  0  0  0
  -16.4866   -1.5844   -0.8518 H   0  0  0  0  0
  -17.8914   -3.6734   -2.5506 H   0  0  0  0  0
  -18.5327   -2.8539   -1.1026 H   0  0  0  0  0
  -17.6946   -5.1122   -0.6016 H   0  0  0  0  0
  -16.7618   -3.8339    0.2534 H   0  0  0  0  0
  -14.6737   -3.2890   -0.4250 H   0  0  0  0  0
  -13.9195   -4.1315   -1.8226 H   0  0  0  0  0
  -14.6056   -1.8399   -2.3838 H   0  0  0  0  0
  -15.5017   -3.0596   -3.3268 H   0  0  0  0  0
  -19.7705    0.0126   -7.6575 H   0  0  0  0  0
  -16.2566    2.4441   -7.8739 H   0  0  0  0  0
  -13.8711    1.0236   -6.5391 H   0  0  0  0  0
  -13.7756   -1.3460   -5.3978 H   0  0  0  0  0
  -12.2139    7.5965  -17.7002 H   0  0  0  0  0
  -13.8306    8.2171  -18.1151 H   0  0  0  0  0
  -13.6526    6.9618  -16.8647 H   0  0  0  0  0
  -11.7869    5.3622  -17.8594 H   0  0  0  0  0
  -12.3656    4.4842  -19.3846 H   0  0  0  0  0
  -11.8262    3.7776  -15.4010 H   0  0  0  0  0
  -10.4654    1.8296  -14.7219 H   0  0  0  0  0
  -16.7259    6.0042   -6.7862 H   0  0  0  0  0
  -15.2617   -0.1945   -2.7255 H   0  0  0  0  0
  2  1  4  0  0  0
  1 22  4  0  0  0
 45  2  4  0  0  0
 18  3  1  0  0  0
  3 37  1  0  0  0
  5  4  1  0  0  0
  4 18  1  0  0  0
 48  5  1  0  0  0
  6  7  1  0  0  0
 48  6  1  0  0  0
  7 18  1  0  0  0
  9  8  4  0  0  0
  8 23  4  0  0  0
 25  9  4  0  0  0
  9 59  1  0  0  0
 10 11  4  0  0  0
 25 10  4  0  0  0
 11 23  4  0  0  0
 12 20  2  0  0  0
 12 25  1  0  0  0
 49 12  1  0  0  0
 13 14  4  0  0  0
 13 28  4  0  0  0
 60 13  1  0  0  0
 14 26  4  0  0  0
 16 15  4  0  0  0
 26 15  4  0  0  0
 15 50  1  0  0  0
 28 16  4  0  0  0
 17 29  1  0  0  0
 50 17  1  0  0  0
 21 19  1  0  0  0
 24 21  1  0  0  0
 21 42  1  0  0  0
 44 21  1  0  0  0
 47 22  4  0  0  0
 22 61  1  0  0  0
 23 48  1  0  0  0
 27 24  1  0  0  0
 26 51  1  0  0  0
 37 27  1  0  0  0
 29 30  1  0  0  0
 29 33  1  0  0  0
 30 31  1  0  0  0
 31 56  1  0  0  0
 33 32  1  0  0  0
 32 56  1  0  0  0
 34 35  4  0  0  0
 34 39  4  0  0  0
 59 34  1  0  0  0
 35 52  4  0  0  0
 38 36  4  0  0  0
 52 36  4  0  0  0
 36 53  4  0  0  0
 37 43  2  0  0  0
 39 38  4  0  0  0
 38 40  4  0  0  0
 40 41  4  0  0  0
 41 53  4  0  0  0
 43 44  1  0  0  0
 43 45  1  0  0  0
 45 46  4  0  0  0
 46 47  4  0  0  0
 49 60  1  0  0  0
 51 57  2  0  0  0
 51 58  2  0  0  0
 60 54  2  0  0  0
 60 55  2  0  0  0
  1 62  1  0  0  0
  2 63  1  0  0  0
  3 64  1  0  0  0
  3 65  1  0  0  0
  4 66  1  0  0  0
  4 67  1  0  0  0
  5 68  1  0  0  0
  5 69  1  0  0  0
  6 70  1  0  0  0
  6 71  1  0  0  0
  7 72  1  0  0  0
  7 73  1  0  0  0
  8 74  1  0  0  0
 10 75  1  0  0  0
 11 76  1  0  0  0
 14 77  1  0  0  0
 16 78  1  0  0  0
 17 79  1  0  0  0
 17 80  1  0  0  0
 18 81  1  0  0  0
 19 82  1  0  0  0
 19 83  1  0  0  0
 19 84  1  0  0  0
 24 85  1  0  0  0
 24 86  1  0  0  0
 27 87  1  0  0  0
 27 88  1  0  0  0
 28 89  1  0  0  0
 29 90  1  0  0  0
 30 91  1  0  0  0
 30 92  1  0  0  0
 31 93  1  0  0  0
 31 94  1  0  0  0
 32 95  1  0  0  0
 32 96  1  0  0  0
 33 97  1  0  0  0
 33 98  1  0  0  0
 35 99  1  0  0  0
 39100  1  0  0  0
 40101  1  0  0  0
 41102  1  0  0  0
 42103  1  0  0  0
 42104  1  0  0  0
 42105  1  0  0  0
 44106  1  0  0  0
 44107  1  0  0  0
 46108  1  0  0  0
 47109  1  0  0  0
 49110  1  0  0  0
 50111  1  0  0  0
M  END
$$$$
