4jft_ligand
  -I-interpret- 

 34 35  0  0  0  0  0  0  0  0999 V2000
  -18.1530   14.7740   37.0720 C   0  0  0  0  0
  -18.1630   15.0560   35.6450 O   0  0  0  0  0
  -17.7670   14.0940   34.7430 C   0  0  0  0  0
  -17.0370   12.9660   35.0920 C   0  0  0  0  0
  -16.6620   12.0460   34.1110 C   0  0  0  0  0
  -18.0680   14.3010   33.4120 C   0  0  0  0  0
  -17.7040   13.3980   32.4420 C   0  0  0  0  0
  -16.9870   12.2630   32.7710 C   0  0  0  0  0
  -16.6610   11.3210   31.7540 C   0  0  0  0  0
  -17.3620    9.9910   32.0650 N   0  3  0  0  0
  -16.2650    9.0070   32.1260 C   0  0  0  0  0
  -16.6710    7.5670   31.9020 C   0  0  0  0  0
  -15.2520    9.5450   31.0230 C   0  0  0  0  0
  -15.8070    9.4100   29.7050 O   0  0  0  0  0
  -15.1890   10.9860   31.6330 C   0  0  0  0  0
  -14.4300   11.9690   30.8940 O   0  0  0  0  0
  -18.8153   13.9336   37.2796 H   0  0  0  0  0
  -17.1390   14.5250   37.3848 H   0  0  0  0  0
  -18.4973   15.6528   37.6172 H   0  0  0  0  0
  -16.7566   12.7985   36.1319 H   0  0  0  0  0
  -16.1102   11.1497   34.3943 H   0  0  0  0  0
  -18.6077   15.2029   33.1231 H   0  0  0  0  0
  -17.9832   13.5785   31.4039 H   0  0  0  0  0
  -16.9790   11.7940   30.8249 H   0  0  0  0  0
  -18.0567    9.7485   31.3586 H   0  0  0  0  0
  -17.8917   10.0303   32.9358 H   0  0  0  0  0
  -15.8389    8.9464   33.1274 H   0  0  0  0  0
  -17.3933    7.2719   32.6631 H   0  0  0  0  0
  -17.1209    7.4671   30.9142 H   0  0  0  0  0
  -15.7903    6.9281   31.9678 H   0  0  0  0  0
  -14.2866    9.0656   30.8608 H   0  0  0  0  0
  -15.1785    9.7406   29.0590 H   0  0  0  0  0
  -14.6330   11.0074   32.5703 H   0  0  0  0  0
  -13.5100   11.6978   30.8546 H   0  0  0  0  0
  1  2  1  0  0  0
  2  3  1  0  0  0
  3  4  4  0  0  0
  3  6  4  0  0  0
  4  5  4  0  0  0
  5  8  4  0  0  0
  6  7  4  0  0  0
  7  8  4  0  0  0
  8  9  1  0  0  0
  9 10  1  0  0  0
  9 15  1  0  0  0
 10 11  1  0  0  0
 11 12  1  0  0  0
 11 13  1  0  0  0
 13 14  1  0  0  0
 13 15  1  0  0  0
 15 16  1  0  0  0
  1 17  1  0  0  0
  1 18  1  0  0  0
  1 19  1  0  0  0
  4 20  1  0  0  0
  5 21  1  0  0  0
  6 22  1  0  0  0
  7 23  1  0  0  0
  9 24  1  0  0  0
 10 25  1  0  0  0
 10 26  1  0  0  0
 11 27  1  0  0  0
 12 28  1  0  0  0
 12 29  1  0  0  0
 12 30  1  0  0  0
 13 31  1  0  0  0
 14 32  1  0  0  0
 15 33  1  0  0  0
 16 34  1  0  0  0
M  END
$$$$
