4qzx_ligand
  -I-interpret- 

 87 89  0  0  0  0  0  0  0  0999 V2000
   59.5820 -134.9140   34.4390 C   0  0  0  0  0
   59.6800 -136.1340   34.5740 O   0  0  0  0  0
   58.3910 -134.3050   33.6790 C   0  0  0  0  0
   57.3170 -134.2230   34.6660 N   0  3  0  0  0
   54.6650 -133.7960   35.3570 O   0  0  0  0  0
   56.3460 -135.3260   34.4830 C   0  0  0  0  0
   56.6680 -132.9070   34.6260 C   0  0  0  0  0
   55.2080 -135.1390   35.4150 C   0  0  0  0  0
   55.6490 -132.8070   35.6980 C   0  0  0  0  0
   60.4640 -134.0290   34.9370 N   0  0  0  0  0
   61.6390 -134.4610   35.7080 C   0  0  0  0  0
   61.2350 -134.5730   37.1790 C   0  0  0  0  0
   60.4580 -133.7630   37.6850 O   0  0  0  0  0
   62.7790 -133.4510   35.5480 C   0  0  0  0  0
   61.7770 -135.6100   37.8320 N   0  0  0  0  0
   61.4850 -135.8690   39.2460 C   0  0  0  0  0
   60.8920 -137.2430   39.3890 C   0  0  0  0  0
   59.5210 -137.1360   39.1320 C   0  0  0  0  0
   59.0050 -137.3870   37.8610 C   0  0  0  0  0
   57.6370 -137.2860   37.6210 C   0  0  0  0  0
   56.7640 -136.9450   38.6570 C   0  0  0  0  0
   55.4100 -136.8230   38.4830 O   0  0  0  0  0
   54.7610 -137.8010   37.6480 C   0  0  0  0  0
   57.2850 -136.6950   39.9230 C   0  0  0  0  0
   58.6500 -136.7950   40.1640 C   0  0  0  0  0
   62.7870 -135.8240   40.0500 C   0  0  0  0  0
   63.8770 -136.0470   39.5210 O   0  0  0  0  0
   62.6110 -135.5480   41.3510 N   0  0  0  0  0
   63.7180 -135.4560   42.3060 C   0  0  0  0  0
   63.5530 -136.5050   43.4340 C   0  0  0  0  0
   62.2430 -136.3820   43.9620 O   0  0  0  0  0
   63.8380 -138.0310   43.0790 C   0  0  0  0  0
   64.8970 -138.1540   41.9220 C   0  0  0  0  0
   62.5230 -138.6230   42.5670 C   0  0  0  0  0
   62.8330 -139.7920   41.7730 O   0  0  0  0  0
   63.6630 -134.0930   42.9770 C   0  0  0  0  0
   64.3550 -133.0700   42.2900 C   0  0  0  0  0
   65.1580 -133.2430   41.1500 C   0  0  0  0  0
   65.7880 -132.1450   40.5640 C   0  0  0  0  0
   65.6310 -130.8690   41.1000 C   0  0  0  0  0
   64.8370 -130.6860   42.2270 C   0  0  0  0  0
   64.2100 -131.7830   42.8100 C   0  0  0  0  0
   58.1057 -134.9125   32.8201 H   0  0  0  0  0
   58.6338 -133.3272   33.2630 H   0  0  0  0  0
   57.7246 -134.3304   35.5948 H   0  0  0  0  0
   56.8336 -136.2786   34.6900 H   0  0  0  0  0
   55.9802 -135.3227   33.4562 H   0  0  0  0  0
   56.1826 -132.7774   33.6587 H   0  0  0  0  0
   57.4207 -132.1329   34.7754 H   0  0  0  0  0
   54.4194 -135.8354   35.1301 H   0  0  0  0  0
   55.5683 -135.3148   36.4286 H   0  0  0  0  0
   56.0775 -132.9822   36.6848 H   0  0  0  0  0
   55.2180 -131.8076   35.7582 H   0  0  0  0  0
   60.3139 -133.0331   34.7757 H   0  0  0  0  0
   61.9889 -135.4266   35.3428 H   0  0  0  0  0
   63.0510 -133.3758   34.4952 H   0  0  0  0  0
   62.4528 -132.4763   35.9108 H   0  0  0  0  0
   63.6418 -133.7846   36.1245 H   0  0  0  0  0
   62.4092 -136.2357   37.3327 H   0  0  0  0  0
   60.7877 -135.1153   39.6118 H   0  0  0  0  0
   61.0632 -137.6303   40.3934 H   0  0  0  0  0
   61.3590 -137.9353   38.6885 H   0  0  0  0  0
   59.6775 -137.6643   37.0493 H   0  0  0  0  0
   57.2459 -137.4737   36.6211 H   0  0  0  0  0
   55.1879 -137.7619   36.6458 H   0  0  0  0  0
   54.9118 -138.7946   38.0700 H   0  0  0  0  0
   53.6940 -137.5840   37.5985 H   0  0  0  0  0
   56.6140 -136.4172   40.7358 H   0  0  0  0  0
   59.0403 -136.6059   41.1640 H   0  0  0  0  0
   61.6617 -135.3950   41.6912 H   0  0  0  0  0
   64.6519 -135.6188   41.7680 H   0  0  0  0  0
   64.3409 -136.2651   44.1480 H   0  0  0  0  0
   62.1205 -137.0251   44.6641 H   0  0  0  0  0
   64.2185 -138.5450   43.9617 H   0  0  0  0  0
   64.5196 -137.6523   41.0309 H   0  0  0  0  0
   65.8311 -137.6875   42.2350 H   0  0  0  0  0
   65.0714 -139.2071   41.7013 H   0  0  0  0  0
   61.9918 -137.8886   41.9615 H   0  0  0  0  0
   61.8840 -138.8983   43.4060 H   0  0  0  0  0
   62.0186 -140.1780   41.4424 H   0  0  0  0  0
   64.1387 -134.1992   43.9520 H   0  0  0  0  0
   62.6142 -133.7985   43.0130 H   0  0  0  0  0
   65.2889 -134.2372   40.7227 H   0  0  0  0  0
   66.4084 -132.2868   39.6791 H   0  0  0  0  0
   66.1288 -130.0167   40.6376 H   0  0  0  0  0
   64.7067 -129.6902   42.6507 H   0  0  0  0  0
   63.5905 -131.6335   43.6943 H   0  0  0  0  0
  1  2  2  0  0  0
  3  1  1  0  0  0
  1 10  1  0  0  0
  4  3  1  0  0  0
  6  4  1  0  0  0
  4  7  1  0  0  0
  8  5  1  0  0  0
  5  9  1  0  0  0
  6  8  1  0  0  0
  7  9  1  0  0  0
 10 11  1  0  0  0
 11 12  1  0  0  0
 11 14  1  0  0  0
 12 13  2  0  0  0
 12 15  1  0  0  0
 15 16  1  0  0  0
 16 17  1  0  0  0
 16 26  1  0  0  0
 17 18  1  0  0  0
 18 19  4  0  0  0
 18 25  4  0  0  0
 19 20  4  0  0  0
 20 21  4  0  0  0
 21 22  1  0  0  0
 21 24  4  0  0  0
 22 23  1  0  0  0
 24 25  4  0  0  0
 26 27  2  0  0  0
 26 28  1  0  0  0
 28 29  1  0  0  0
 29 30  1  0  0  0
 29 36  1  0  0  0
 30 31  1  0  0  0
 30 32  1  0  0  0
 32 33  1  0  0  0
 32 34  1  0  0  0
 34 35  1  0  0  0
 36 37  1  0  0  0
 37 38  4  0  0  0
 37 42  4  0  0  0
 38 39  4  0  0  0
 39 40  4  0  0  0
 40 41  4  0  0  0
 41 42  4  0  0  0
  3 43  1  0  0  0
  3 44  1  0  0  0
  4 45  1  0  0  0
  6 46  1  0  0  0
  6 47  1  0  0  0
  7 48  1  0  0  0
  7 49  1  0  0  0
  8 50  1  0  0  0
  8 51  1  0  0  0
  9 52  1  0  0  0
  9 53  1  0  0  0
 10 54  1  0  0  0
 11 55  1  0  0  0
 14 56  1  0  0  0
 14 57  1  0  0  0
 14 58  1  0  0  0
 15 59  1  0  0  0
 16 60  1  0  0  0
 17 61  1  0  0  0
 17 62  1  0  0  0
 19 63  1  0  0  0
 20 64  1  0  0  0
 23 65  1  0  0  0
 23 66  1  0  0  0
 23 67  1  0  0  0
 24 68  1  0  0  0
 25 69  1  0  0  0
 28 70  1  0  0  0
 29 71  1  0  0  0
 30 72  1  0  0  0
 31 73  1  0  0  0
 32 74  1  0  0  0
 33 75  1  0  0  0
 33 76  1  0  0  0
 33 77  1  0  0  0
 34 78  1  0  0  0
 34 79  1  0  0  0
 35 80  1  0  0  0
 36 81  1  0  0  0
 36 82  1  0  0  0
 38 83  1  0  0  0
 39 84  1  0  0  0
 40 85  1  0  0  0
 41 86  1  0  0  0
 42 87  1  0  0  0
M  END
$$$$
