3byo_ligand
  -I-interpret- 

 71 77  0  0  0  0  0  0  0  0999 V2000
   25.7590   35.8000   82.9300 C   0  0  0  0  0
   25.5740   36.5460   84.0690 N   0  0  0  0  0
   24.3710   36.7680   84.6330 C   0  0  0  0  0
   23.2140   36.1410   83.9380 C   0  0  0  0  0
   23.3890   35.3280   82.7270 C   0  0  0  0  0
   24.6820   35.2020   82.2770 N   0  0  0  0  0
   27.0450   35.7260   82.4150 N   0  0  0  0  0
   28.2330   36.4210   82.7610 C   0  0  0  0  0
   28.1530   37.6860   83.5170 C   0  0  0  0  0
   29.3120   38.3470   83.9820 C   0  0  0  0  0
   30.5360   37.6840   83.6490 C   0  0  0  0  0
   30.6720   36.4210   82.8680 C   0  0  0  0  0
   29.4780   35.7770   82.4100 C   0  0  0  0  0
   24.2500   37.6210   85.8210 N   0  0  0  0  0
   23.0450   37.9130   86.4290 C   0  0  0  0  0
   21.8920   37.3370   85.8330 N   0  0  0  0  0
   22.0070   36.4960   84.6180 C   0  0  0  0  0
   25.1870   38.3540   86.6280 C   0  0  0  0  0
   24.5080   39.0960   87.7040 C   0  0  0  0  0
   23.1760   38.7930   87.5500 N   0  0  0  0  0
   26.6570   38.5220   86.5770 C   0  0  0  0  0
   27.4240   39.3580   87.5150 C   0  0  0  0  0
   26.6810   40.0600   88.5420 C   0  0  0  0  0
   25.2440   39.9510   88.6590 C   0  0  0  0  0
   21.0240   36.0870   84.0120 O   0  0  0  0  0
   20.6760   37.4860   86.4460 C   0  0  0  0  0
   20.1540   36.4340   87.3170 C   0  0  0  0  0
   18.8550   36.6050   87.9530 C   0  0  0  0  0
   18.0550   37.7750   87.7670 C   0  0  0  0  0
   18.6080   38.7620   86.9160 C   0  0  0  0  0
   19.8840   38.6710   86.2410 C   0  0  0  0  0
   20.3180   39.7880   85.3160 C   0  0  0  0  0
   20.9810   35.1790   87.5170 C   0  0  0  0  0
   31.5780   38.3640   84.2280 N   0  0  0  0  0
   32.6420   38.7400   83.3310 C   0  0  0  0  0
   33.9950   38.4600   83.9710 C   0  0  0  0  0
   33.9450   39.0150   85.3340 N   0  3  0  0  0
   33.0200   38.2750   86.2060 C   0  0  0  0  0
   31.6620   38.7480   85.6950 C   0  0  0  0  0
   35.2380   38.6380   85.8840 C   0  0  0  0  0
   22.5486   34.8555   82.2184 H   0  0  0  0  0
   27.1561   35.0549   81.6549 H   0  0  0  0  0
   27.1750   38.1214   83.7218 H   0  0  0  0  0
   29.2770   39.2798   84.5448 H   0  0  0  0  0
   31.6537   35.9995   82.6517 H   0  0  0  0  0
   29.5065   34.8544   81.8302 H   0  0  0  0  0
   27.2052   37.9941   85.7967 H   0  0  0  0  0
   28.5079   39.4455   87.4400 H   0  0  0  0  0
   27.2221   40.6897   89.2482 H   0  0  0  0  0
   24.7107   40.4919   89.4408 H   0  0  0  0  0
   18.4780   35.8097   88.5960 H   0  0  0  0  0
   17.0847   37.8988   88.2479 H   0  0  0  0  0
   18.0225   39.6673   86.7559 H   0  0  0  0  0
   21.2702   40.1927   85.6589 H   0  0  0  0  0
   20.4308   39.3974   84.3047 H   0  0  0  0  0
   19.5643   40.5754   85.3207 H   0  0  0  0  0
   21.1368   34.6909   86.5549 H   0  0  0  0  0
   21.9447   35.4458   87.9508 H   0  0  0  0  0
   20.4539   34.5013   88.1885 H   0  0  0  0  0
   32.5646   39.8052   83.1131 H   0  0  0  0  0
   32.5554   38.1595   82.4125 H   0  0  0  0  0
   34.7983   38.9195   83.3951 H   0  0  0  0  0
   34.1973   37.3892   83.9961 H   0  0  0  0  0
   33.6904   40.0019   85.2948 H   0  0  0  0  0
   33.1755   38.4700   87.2671 H   0  0  0  0  0
   33.1490   37.1938   86.1561 H   0  0  0  0  0
   30.8548   38.2831   86.2611 H   0  0  0  0  0
   31.5595   39.8263   85.8168 H   0  0  0  0  0
   35.3326   37.5521   85.8750 H   0  0  0  0  0
   36.0309   39.0781   85.2793 H   0  0  0  0  0
   35.3158   39.0023   86.9084 H   0  0  0  0  0
  1  2  4  0  0  0
  1  6  4  0  0  0
  1  7  1  0  0  0
  2  3  4  0  0  0
  3  4  4  0  0  0
  3 14  1  0  0  0
  4  5  4  0  0  0
  4 17  1  0  0  0
  5  6  4  0  0  0
  7  8  1  0  0  0
  8  9  4  0  0  0
  8 13  4  0  0  0
  9 10  4  0  0  0
 10 11  4  0  0  0
 11 12  4  0  0  0
 11 34  1  0  0  0
 12 13  4  0  0  0
 14 15  4  0  0  0
 14 18  4  0  0  0
 15 16  1  0  0  0
 15 20  4  0  0  0
 16 17  1  0  0  0
 16 26  1  0  0  0
 17 25  2  0  0  0
 18 19  4  0  0  0
 18 21  4  0  0  0
 19 20  4  0  0  0
 19 24  4  0  0  0
 21 22  4  0  0  0
 22 23  4  0  0  0
 23 24  4  0  0  0
 26 27  4  0  0  0
 26 31  4  0  0  0
 27 28  4  0  0  0
 27 33  1  0  0  0
 28 29  4  0  0  0
 29 30  4  0  0  0
 30 31  4  0  0  0
 31 32  1  0  0  0
 34 35  1  0  0  0
 34 39  1  0  0  0
 35 36  1  0  0  0
 36 37  1  0  0  0
 37 38  1  0  0  0
 37 40  1  0  0  0
 38 39  1  0  0  0
  5 41  1  0  0  0
  7 42  1  0  0  0
  9 43  1  0  0  0
 10 44  1  0  0  0
 12 45  1  0  0  0
 13 46  1  0  0  0
 21 47  1  0  0  0
 22 48  1  0  0  0
 23 49  1  0  0  0
 24 50  1  0  0  0
 28 51  1  0  0  0
 29 52  1  0  0  0
 30 53  1  0  0  0
 32 54  1  0  0  0
 32 55  1  0  0  0
 32 56  1  0  0  0
 33 57  1  0  0  0
 33 58  1  0  0  0
 33 59  1  0  0  0
 35 60  1  0  0  0
 35 61  1  0  0  0
 36 62  1  0  0  0
 36 63  1  0  0  0
 37 64  1  0  0  0
 38 65  1  0  0  0
 38 66  1  0  0  0
 39 67  1  0  0  0
 39 68  1  0  0  0
 40 69  1  0  0  0
 40 70  1  0  0  0
 40 71  1  0  0  0
M  END
$$$$
