2ha7_ligand
  -I-interpret- 

 32 31  0  0  0  0  0  0  0  0999 V2000
   30.2480   22.1770   10.1840 C   0  0  0  0  0
   31.6850   22.0450    9.7340 C   0  0  0  0  0
   32.4640   23.3310    9.9890 C   0  0  0  0  0
   33.8420   23.3260    9.3580 C   0  0  0  0  0
   34.0920   22.6290    8.3860 O   0  0  0  0  0
   35.0340   24.3000   10.0000 S   0  0  0  0  0
   36.2660   24.5110    8.7490 C   0  0  0  0  0
   36.5530   26.0030    8.5430 C   0  0  0  0  0
   37.9290   26.3160    8.0860 N   0  3  0  0  0
   38.9220   26.0530    9.1420 C   0  0  0  0  0
   38.0050   27.7530    7.7600 C   0  0  0  0  0
   38.2700   25.5340    6.8800 C   0  0  0  0  0
   30.2215   22.3940   11.2518 H   0  0  0  0  0
   29.7698   22.9882    9.6351 H   0  0  0  0  0
   29.7202   21.2436    9.9884 H   0  0  0  0  0
   31.6965   21.8380    8.6639 H   0  0  0  0  0
   32.1529   21.2377   10.2973 H   0  0  0  0  0
   32.5934   23.4319   11.0666 H   0  0  0  0  0
   31.9004   24.1529    9.5475 H   0  0  0  0  0
   35.9050   24.0826    7.8140 H   0  0  0  0  0
   37.1823   24.0088    9.0594 H   0  0  0  0  0
   36.4243   26.4861    9.5116 H   0  0  0  0  0
   35.8746   26.3505    7.7638 H   0  0  0  0  0
   38.6979   26.6707   10.0117 H   0  0  0  0  0
   38.8822   25.0004    9.4224 H   0  0  0  0  0
   39.9180   26.2939    8.7705 H   0  0  0  0  0
   37.2908   27.9832    6.9694 H   0  0  0  0  0
   37.7673   28.3388    8.6480 H   0  0  0  0  0
   39.0128   27.9949    7.4226 H   0  0  0  0  0
   38.2079   24.4701    7.1088 H   0  0  0  0  0
   37.5693   25.7766    6.0811 H   0  0  0  0  0
   39.2835   25.7803    6.5634 H   0  0  0  0  0
  1  2  1  0  0  0
  2  3  1  0  0  0
  3  4  1  0  0  0
  4  5  2  0  0  0
  4  6  1  0  0  0
  6  7  1  0  0  0
  7  8  1  0  0  0
  8  9  1  0  0  0
  9 10  1  0  0  0
  9 11  1  0  0  0
  9 12  1  0  0  0
  1 13  1  0  0  0
  1 14  1  0  0  0
  1 15  1  0  0  0
  2 16  1  0  0  0
  2 17  1  0  0  0
  3 18  1  0  0  0
  3 19  1  0  0  0
  7 20  1  0  0  0
  7 21  1  0  0  0
  8 22  1  0  0  0
  8 23  1  0  0  0
 10 24  1  0  0  0
 10 25  1  0  0  0
 10 26  1  0  0  0
 11 27  1  0  0  0
 11 28  1  0  0  0
 11 29  1  0  0  0
 12 30  1  0  0  0
 12 31  1  0  0  0
 12 32  1  0  0  0
M  END
$$$$
