3sb0_ligand
  -I-interpret- 

 25 25  0  0  0  0  0  0  0  0999 V2000
   30.9260   75.4860   60.6540 C   0  0  0  0  0
   32.2210   75.6340   61.3950 C   0  0  0  0  0
   32.6740   74.6150   62.2560 C   0  0  0  0  0
   33.8640   74.7240   62.9780 C   0  0  0  0  0
   34.6580   75.8830   62.8600 C   0  0  0  0  0
   35.8160   75.9680   63.5570 F   0  0  0  0  0
   34.2480   76.9360   62.0140 C   0  0  0  0  0
   35.0950   78.1710   61.8500 C   0  0  0  0  0
   35.3740   78.5240   60.6950 O   0  0  0  0  0
   35.9200   78.6940   62.9530 C   0  0  0  0  0
   36.7470   79.7680   62.8430 C   0  0  0  0  0
   36.7470   80.5560   61.7230 O   0  0  0  0  0
   37.8540   80.0620   63.7940 C   0  0  0  0  0
   37.6960   79.7370   65.1020 O   0  0  0  0  0
   39.0360   80.0260   63.4430 O   0  0  0  0  0
   33.0420   76.7780   61.2980 C   0  0  0  0  0
   32.5670   78.0730   60.3070 Cl  0  0  0  0  0
   30.9751   74.6071   60.0112 H   0  0  0  0  0
   30.1112   75.3700   61.3686 H   0  0  0  0  0
   30.7536   76.3737   60.0454 H   0  0  0  0  0
   32.0749   73.7106   62.3621 H   0  0  0  0  0
   34.1795   73.9123   63.6335 H   0  0  0  0  0
   35.8640   78.1887   63.9172 H   0  0  0  0  0
   37.3919   81.2593   61.8280 H   0  0  0  0  0
   36.7645   79.7780   65.3305 H   0  0  0  0  0
  1  2  1  0  0  0
  2  3  4  0  0  0
  2 16  4  0  0  0
  3  4  4  0  0  0
  4  5  4  0  0  0
  5  6  1  0  0  0
  5  7  4  0  0  0
  7  8  1  0  0  0
  7 16  4  0  0  0
  8  9  2  0  0  0
  8 10  1  0  0  0
 10 11  2  0  0  0
 11 12  1  0  0  0
 11 13  1  0  0  0
 13 14  1  0  0  0
 13 15  2  0  0  0
 16 17  1  0  0  0
  1 18  1  0  0  0
  1 19  1  0  0  0
  1 20  1  0  0  0
  3 21  1  0  0  0
  4 22  1  0  0  0
 10 23  1  0  0  0
 12 24  1  0  0  0
 14 25  1  0  0  0
M  END
$$$$
