3zov_ligand
  -I-interpret- 

 51 53  0  0  0  0  0  0  0  0999 V2000
  -20.8670   44.4100   83.3080 F   0  0  0  0  0
  -21.3830   45.2430   84.1830 C   0  0  0  0  0
  -22.4600   45.8340   83.7230 F   0  0  0  0  0
  -20.5180   46.1780   84.5250 F   0  0  0  0  0
  -21.7540   44.3930   85.3680 C   0  0  0  0  0
  -20.5530   44.0520   86.0420 O   0  0  0  0  0
  -20.7170   43.4290   87.2460 C   0  0  0  0  0
  -19.7340   42.5670   87.7080 C   0  0  0  0  0
  -19.9160   41.9570   88.8870 N   0  0  0  0  0
  -21.8840   43.6570   88.0040 C   0  0  0  0  0
  -22.0430   43.0050   89.2230 C   0  0  0  0  0
  -21.0270   42.1470   89.6430 C   0  0  0  0  0
  -21.1580   41.4320   90.9410 C   0  0  0  0  0
  -22.2770   41.3770   91.4270 O   0  0  0  0  0
  -20.0340   40.9000   91.4470 N   0  0  0  0  0
  -19.8150   40.1860   92.6340 C   0  0  0  0  0
  -18.4930   39.8850   92.9890 C   0  0  0  0  0
  -20.8710   39.8140   93.4700 C   0  0  0  0  0
  -20.5970   39.1210   94.6420 C   0  0  0  0  0
  -19.2810   38.8080   94.9800 C   0  0  0  0  0
  -18.2080   39.1840   94.1630 C   0  0  0  0  0
  -16.7980   38.8270   94.5880 C   0  0  0  0  0
  -16.4440   39.6800   95.7780 C   0  0  0  0  0
  -16.0910   41.0580   95.2920 C   0  0  0  0  0
  -16.3440   41.9710   96.0360 O   0  0  0  0  0
  -16.7000   37.3780   95.0150 C   0  0  0  0  0
  -15.7920   39.0720   93.5570 N   0  0  0  0  0
  -15.3530   40.2160   93.2660 C   0  0  0  0  0
  -14.7060   40.3670   92.1000 N   0  0  0  0  0
  -15.5670   41.2710   94.0720 N   0  0  0  0  0
  -15.3050   42.6470   93.6350 C   0  0  0  0  0
  -22.2768   43.4935   85.0428 H   0  0  0  0  0
  -22.4226   44.9387   86.0338 H   0  0  0  0  0
  -18.8312   42.3892   87.1237 H   0  0  0  0  0
  -22.6536   44.3370   87.6388 H   0  0  0  0  0
  -22.9343   43.1601   89.8309 H   0  0  0  0  0
  -19.2019   41.0379   90.8734 H   0  0  0  0  0
  -17.6765   40.2022   92.3403 H   0  0  0  0  0
  -21.8982   40.0649   93.2053 H   0  0  0  0  0
  -21.4130   38.8210   95.2994 H   0  0  0  0  0
  -19.0833   38.2586   95.9004 H   0  0  0  0  0
  -15.5966   39.2448   96.3077 H   0  0  0  0  0
  -17.2912   39.7332   96.4618 H   0  0  0  0  0
  -17.3705   37.2023   95.8563 H   0  0  0  0  0
  -16.9841   36.7350   94.1819 H   0  0  0  0  0
  -15.6751   37.1569   95.3132 H   0  0  0  0  0
  -15.4243   38.2709   93.0437 H   0  0  0  0  0
  -14.3715   41.2884   91.8180 H   0  0  0  0  0
  -14.2521   42.7492   93.3723 H   0  0  0  0  0
  -15.9215   42.8743   92.7653 H   0  0  0  0  0
  -15.5475   43.3362   94.4439 H   0  0  0  0  0
  1  2  1  0  0  0
  2  3  1  0  0  0
  2  4  1  0  0  0
  2  5  1  0  0  0
  5  6  1  0  0  0
  6  7  1  0  0  0
  7  8  4  0  0  0
  7 10  4  0  0  0
  8  9  4  0  0  0
  9 12  4  0  0  0
 10 11  4  0  0  0
 11 12  4  0  0  0
 12 13  1  0  0  0
 13 14  2  0  0  0
 13 15  1  0  0  0
 15 16  1  0  0  0
 16 17  4  0  0  0
 16 18  4  0  0  0
 17 21  4  0  0  0
 18 19  4  0  0  0
 19 20  4  0  0  0
 20 21  4  0  0  0
 21 22  1  0  0  0
 22 23  1  0  0  0
 22 26  1  0  0  0
 22 27  1  0  0  0
 23 24  1  0  0  0
 24 25  2  0  0  0
 24 30  1  0  0  0
 27 28  1  0  0  0
 28 29  2  0  0  0
 28 30  4  0  0  0
 30 31  1  0  0  0
  5 32  1  0  0  0
  5 33  1  0  0  0
  8 34  1  0  0  0
 10 35  1  0  0  0
 11 36  1  0  0  0
 15 37  1  0  0  0
 17 38  1  0  0  0
 18 39  1  0  0  0
 19 40  1  0  0  0
 20 41  1  0  0  0
 23 42  1  0  0  0
 23 43  1  0  0  0
 26 44  1  0  0  0
 26 45  1  0  0  0
 26 46  1  0  0  0
 27 47  1  0  0  0
 29 48  1  0  0  0
 31 49  1  0  0  0
 31 50  1  0  0  0
 31 51  1  0  0  0
M  END
$$$$
