5ar4_ligand
  -I-interpret- 

 43 46  0  0  0  0  0  0  0  0999 V2000
   84.8910   57.0010   12.9270 O   0  0  0  0  0
   85.6550   56.7030   15.5000 C   0  0  0  0  0
   85.1040   57.8130   14.1720 S   0  0  0  0  0
   81.3670   59.4350   14.4970 C   0  0  0  0  0
   82.5480   58.8640   13.9930 C   0  0  0  0  0
   83.5980   58.5370   14.8640 C   0  0  0  0  0
   83.4830   58.7780   16.2370 C   0  0  0  0  0
   82.3100   59.3480   16.7560 C   0  0  0  0  0
   81.2440   59.6720   15.8880 C   0  0  0  0  0
   75.9990   60.8930   21.3640 N   0  0  0  0  0
   75.4040   61.0990   20.1720 C   0  0  0  0  0
   76.1480   61.1020   18.9920 C   0  0  0  0  0
   77.5380   60.8900   19.0400 C   0  0  0  0  0
   78.1530   60.6740   20.2860 C   0  0  0  0  0
   77.3280   60.6860   21.4210 C   0  0  0  0  0
   79.4970   60.0880   17.6870 N   0  0  0  0  0
   80.0200   60.2940   16.4420 C   0  0  0  0  0
   79.2940   61.1820   15.7780 N   0  0  0  0  0
   78.2380   61.5620   16.6080 C   0  0  0  0  0
   78.3650   60.8790   17.8130 C   0  0  0  0  0
   76.7120   63.5870   16.8680 C   0  0  0  0  0
   75.8020   64.5080   16.2850 C   0  0  0  0  0
   75.4910   64.3800   14.9430 C   0  0  0  0  0
   76.0320   63.3890   14.1580 C   0  0  0  0  0
   76.9310   62.4670   14.7140 C   0  0  0  0  0
   77.2690   62.5610   16.0790 C   0  0  0  0  0
   74.6290   65.2360   14.3420 F   0  0  0  0  0
   85.7334   56.6538   12.6247 H   0  0  0  0  0
   85.8413   57.2838   16.4034 H   0  0  0  0  0
   84.8808   55.9614   15.6965 H   0  0  0  0  0
   86.5724   56.2001   15.1942 H   0  0  0  0  0
   80.5512   59.6938   13.8221 H   0  0  0  0  0
   82.6483   58.6750   12.9242 H   0  0  0  0  0
   84.3056   58.5228   16.9050 H   0  0  0  0  0
   82.2221   59.5399   17.8254 H   0  0  0  0  0
   74.3276   61.2654   20.1297 H   0  0  0  0  0
   75.6535   61.2682   18.0349 H   0  0  0  0  0
   79.2267   60.5042   20.3669 H   0  0  0  0  0
   77.7855   60.5196   22.3963 H   0  0  0  0  0
   76.9785   63.6733   17.9214 H   0  0  0  0  0
   75.3563   65.3019   16.8843 H   0  0  0  0  0
   75.7623   63.3200   13.1041 H   0  0  0  0  0
   77.3655   61.6827   14.0942 H   0  0  0  0  0
  3  1  1  0  0  0
  3  2  1  0  0  0
  6  3  1  0  0  0
  4  5  4  0  0  0
  9  4  4  0  0  0
  5  6  4  0  0  0
  7  6  4  0  0  0
  8  7  4  0  0  0
  9  8  4  0  0  0
 17  9  1  0  0  0
 11 10  4  0  0  0
 15 10  4  0  0  0
 12 11  4  0  0  0
 13 12  4  0  0  0
 13 14  4  0  0  0
 20 13  1  0  0  0
 14 15  4  0  0  0
 16 17  4  0  0  0
 20 16  4  0  0  0
 18 17  4  0  0  0
 19 18  4  0  0  0
 19 20  4  0  0  0
 26 19  1  0  0  0
 21 22  4  0  0  0
 21 26  4  0  0  0
 22 23  4  0  0  0
 23 24  4  0  0  0
 23 27  1  0  0  0
 24 25  4  0  0  0
 25 26  4  0  0  0
  1 28  1  0  0  0
  2 29  1  0  0  0
  2 30  1  0  0  0
  2 31  1  0  0  0
  4 32  1  0  0  0
  5 33  1  0  0  0
  7 34  1  0  0  0
  8 35  1  0  0  0
 11 36  1  0  0  0
 12 37  1  0  0  0
 14 38  1  0  0  0
 15 39  1  0  0  0
 21 40  1  0  0  0
 22 41  1  0  0  0
 24 42  1  0  0  0
 25 43  1  0  0  0
M  END
$$$$
