6fba_ligand
  -I-interpret- 

 20 21  0  0  0  0  0  0  0  0999 V2000
   63.6310   61.7220 -122.9730 O   0  0  0  0  0
   63.5680   60.4400 -123.4260 C   0  0  0  0  0
   64.4870   59.9310 -124.2940 C   0  0  0  0  0
   64.4030   58.5830 -124.7190 C   0  0  0  0  0
   65.3530   58.0230 -125.5990 C   0  0  0  0  0
   65.2670   56.7200 -125.9680 C   0  0  0  0  0
   64.2140   55.9150 -125.5000 C   0  0  0  0  0
   63.2580   56.4320 -124.6860 C   0  0  0  0  0
   63.3280   57.7740 -124.2550 C   0  0  0  0  0
   62.3710   58.3340 -123.3690 C   0  0  0  0  0
   62.4940   59.6330 -122.9630 C   0  0  0  0  0
   61.6500   60.2300 -122.0850 O   0  0  0  0  0
   62.8979   61.8853 -122.3751 H   0  0  0  0  0
   65.2922   60.5659 -124.6636 H   0  0  0  0  0
   66.1626   58.6420 -125.9856 H   0  0  0  0  0
   66.0196   56.2947 -126.6319 H   0  0  0  0  0
   64.1644   54.8663 -125.7931 H   0  0  0  0  0
   62.4280   55.8040 -124.3621 H   0  0  0  0  0
   61.5381   57.7280 -123.0125 H   0  0  0  0  0
   60.9623   59.6098 -121.8318 H   0  0  0  0  0
  1  2  1  0  0  0
  2  3  4  0  0  0
  2 11  4  0  0  0
  3  4  4  0  0  0
  4  5  4  0  0  0
  4  9  4  0  0  0
  5  6  4  0  0  0
  6  7  4  0  0  0
  7  8  4  0  0  0
  8  9  4  0  0  0
  9 10  4  0  0  0
 10 11  4  0  0  0
 11 12  1  0  0  0
  1 13  1  0  0  0
  3 14  1  0  0  0
  5 15  1  0  0  0
  6 16  1  0  0  0
  7 17  1  0  0  0
  8 18  1  0  0  0
 10 19  1  0  0  0
 12 20  1  0  0  0
M  END
$$$$
