6qlr_ligand
  -I-interpret- 

 52 55  0  0  0  0  0  0  0  0999 V2000
  -12.9040    8.4540    0.1320 C   0  0  0  0  0
  -11.6500    8.6170   -0.4800 C   0  0  0  0  0
  -10.5130    8.8680    0.2810 C   0  0  0  0  0
  -10.5530    8.9370    1.6770 C   0  0  0  0  0
  -25.5910    9.1640   -5.4840 C   0  0  0  0  0
  -24.4160    9.4150   -4.5930 C   0  0  0  0  0
  -23.6060    8.3880   -4.1230 C   0  0  0  0  0
  -22.5160    8.6470   -3.2740 C   0  0  0  0  0
  -24.0950   10.7140   -4.1700 C   0  0  0  0  0
  -23.0010   10.9790   -3.3190 C   0  0  0  0  0
  -22.1880    9.9420   -2.8510 C   0  0  0  0  0
  -19.7420    8.7500   -1.7770 C   0  0  0  0  0
  -19.6820    6.5700   -0.9630 C   0  0  0  0  0
  -20.3780    5.6070    0.0270 C   0  0  0  0  0
  -18.1520    6.6810   -0.6470 C   0  0  0  0  0
  -17.5620    7.7510   -1.6110 C   0  0  0  0  0
  -15.4320    8.2620   -0.2930 C   0  0  0  0  0
  -14.0840    8.1780   -0.6480 C   0  0  0  0  0
  -11.8000    8.7450    2.2700 C   0  0  0  0  0
  -12.9450    8.5090    1.5220 C   0  0  0  0  0
  -18.2630    9.1030   -1.4870 C   0  0  0  0  0
   -9.3800    9.0260   -0.3310 F   0  0  0  0  0
  -11.9070    8.7840    3.5800 F   0  0  0  0  0
  -16.1400    7.8560   -1.4230 N   0  0  0  0  0
  -14.0760    7.7420   -1.9800 N   0  0  0  0  0
  -15.2580    7.5580   -2.4050 N   0  0  0  0  0
  -20.2500    7.8550   -0.8050 O   0  0  0  0  0
  -21.7190    5.4600   -0.3620 O   0  0  0  0  0
  -17.9660    7.0980    0.6690 O   0  0  0  0  0
  -17.7770    9.9100   -2.5260 O   0  0  0  0  0
  -20.7510   10.2590   -1.7690 S   0  0  0  0  0
  -11.5670    8.5459   -1.5645 H   0  0  0  0  0
   -9.6584    9.1303    2.2690 H   0  0  0  0  0
  -25.2528    8.6848   -6.4028 H   0  0  0  0  0
  -26.3003    8.5130   -4.9730 H   0  0  0  0  0
  -26.0730   10.1119   -5.7232 H   0  0  0  0  0
  -23.8203    7.3610   -4.4187 H   0  0  0  0  0
  -21.9047    7.8115   -2.9329 H   0  0  0  0  0
  -24.7114   11.5461   -4.5102 H   0  0  0  0  0
  -22.7868   12.0058   -3.0225 H   0  0  0  0  0
  -19.7874    8.2738   -2.7564 H   0  0  0  0  0
  -19.8149    6.1906   -1.9762 H   0  0  0  0  0
  -20.3262    6.0115    1.0378 H   0  0  0  0  0
  -19.8792    4.6379    0.0159 H   0  0  0  0  0
  -17.6628    5.7157   -0.7773 H   0  0  0  0  0
  -17.7474    7.4188   -2.6325 H   0  0  0  0  0
  -15.8436    8.5783    0.6654 H   0  0  0  0  0
  -13.8963    8.3637    2.0339 H   0  0  0  0  0
  -18.1211    9.6110   -0.5331 H   0  0  0  0  0
  -22.1636    4.8638    0.2450 H   0  0  0  0  0
  -17.0261    7.1630    0.8531 H   0  0  0  0  0
  -16.8595   10.1336   -2.3536 H   0  0  0  0  0
  1  2  4  0  0  0
 18  1  1  0  0  0
  1 20  4  0  0  0
  2  3  4  0  0  0
  3  4  4  0  0  0
  3 22  1  0  0  0
  4 19  4  0  0  0
  6  5  1  0  0  0
  7  6  4  0  0  0
  9  6  4  0  0  0
  8  7  4  0  0  0
 11  8  4  0  0  0
 10  9  4  0  0  0
 11 10  4  0  0  0
 31 11  1  0  0  0
 21 12  1  0  0  0
 12 27  1  0  0  0
 12 31  1  0  0  0
 13 14  1  0  0  0
 15 13  1  0  0  0
 13 27  1  0  0  0
 14 28  1  0  0  0
 16 15  1  0  0  0
 15 29  1  0  0  0
 16 21  1  0  0  0
 24 16  1  0  0  0
 17 18  4  0  0  0
 17 24  4  0  0  0
 18 25  4  0  0  0
 19 20  4  0  0  0
 19 23  1  0  0  0
 21 30  1  0  0  0
 24 26  4  0  0  0
 25 26  4  0  0  0
  2 32  1  0  0  0
  4 33  1  0  0  0
  5 34  1  0  0  0
  5 35  1  0  0  0
  5 36  1  0  0  0
  7 37  1  0  0  0
  8 38  1  0  0  0
  9 39  1  0  0  0
 10 40  1  0  0  0
 12 41  1  0  0  0
 13 42  1  0  0  0
 14 43  1  0  0  0
 14 44  1  0  0  0
 15 45  1  0  0  0
 16 46  1  0  0  0
 17 47  1  0  0  0
 20 48  1  0  0  0
 21 49  1  0  0  0
 28 50  1  0  0  0
 29 51  1  0  0  0
 30 52  1  0  0  0
M  END
$$$$
