5tob_ligand
  -I-interpret- 

 55 58  0  0  0  0  0  0  0  0999 V2000
   -1.6340  -12.3720   37.4330 C   0  0  0  0  0
   -1.7980  -12.3380   33.9850 C   0  0  0  0  0
    3.2650   -8.8830   41.4420 N   0  0  0  0  0
    4.2310   -8.5550   40.5630 C   0  0  0  0  0
    4.1710   -8.8430   39.2080 C   0  0  0  0  0
    0.5940   -9.7310   36.6130 C   0  0  0  0  0
   -0.6600  -10.2750   36.3090 C   0  0  0  0  0
   -2.7660  -11.1230   41.3600 C   0  0  0  0  0
    5.2620   -8.4190   38.2850 C   0  0  0  0  0
   -0.3480   -7.5320   36.2250 C   0  0  0  0  0
   -0.9060  -10.0030   40.4470 C   0  0  0  0  0
   -1.5480   -8.1720   35.9330 C   0  0  0  0  0
    0.7510  -12.0470   34.3070 O   0  0  0  0  0
   -0.3620  -12.6800   35.0020 S   0  0  0  0  0
   -0.3820  -14.0880   35.3210 O   0  0  0  0  0
   -0.8880  -11.7280   36.3290 N   0  0  0  0  0
    0.7350   -8.3310   36.5690 C   0  0  0  0  0
   -1.7330   -9.5100   35.9670 N   0  0  0  0  0
    1.7620  -10.5970   36.9830 C   0  0  0  0  0
    2.8720   -9.7760   37.4100 N   0  0  0  0  0
    3.0140   -9.4770   38.7580 C   0  0  0  0  0
    4.7720   -7.5920   37.3110 F   0  0  0  0  0
    6.2060   -7.6350   38.8770 F   0  0  0  0  0
    5.8980   -9.4440   37.6670 F   0  0  0  0  0
    2.0340   -9.8190   39.6250 N   0  0  0  0  0
    2.1780   -9.5040   40.9320 C   0  0  0  0  0
    1.1670   -9.8200   41.8350 N   0  0  0  0  0
   -0.1590  -10.2380   41.6320 C   0  0  0  0  0
   -0.7570  -10.9480   42.6890 C   0  0  0  0  0
   -2.0530  -11.3680   42.5260 C   0  0  0  0  0
   -2.9040  -12.1270   43.4880 C   0  0  0  0  0
   -2.2230  -10.4420   40.2940 C   0  0  0  0  0
   -4.0420  -11.6670   41.4730 N   0  0  0  0  0
   -4.2180  -12.2950   42.7140 C   0  0  0  0  0
   -5.2060  -12.8810   43.1440 O   0  0  0  0  0
   -2.5480  -12.8179   37.0406 H   0  0  0  0  0
   -1.0148  -13.1471   37.8845 H   0  0  0  0  0
   -1.8867  -11.6236   38.1841 H   0  0  0  0  0
   -1.9350  -11.2598   33.9029 H   0  0  0  0  0
   -1.6484  -12.7632   32.9926 H   0  0  0  0  0
   -2.6808  -12.7838   34.4434 H   0  0  0  0  0
    5.1111   -8.0329   40.9384 H   0  0  0  0  0
   -0.2609   -6.4462   36.1854 H   0  0  0  0  0
   -0.4345   -9.4605   39.6276 H   0  0  0  0  0
   -2.3995   -7.5500   35.6572 H   0  0  0  0  0
    1.6956   -7.8732   36.8053 H   0  0  0  0  0
    2.0630  -11.1826   36.1143 H   0  0  0  0  0
    1.4723  -11.2598   37.7984 H   0  0  0  0  0
    3.5430   -9.4205   36.7290 H   0  0  0  0  0
    1.4356   -9.7329   42.8151 H   0  0  0  0  0
   -0.2087  -11.1576   43.6074 H   0  0  0  0  0
   -3.0335  -11.6120   44.4399 H   0  0  0  0  0
   -2.4627  -13.0772   43.7888 H   0  0  0  0  0
   -2.7893  -10.2558   39.3814 H   0  0  0  0  0
   -4.7566  -11.6155   40.7470 H   0  0  0  0  0
 16  1  1  0  0  0
 14  2  1  0  0  0
  3  4  4  0  0  0
 26  3  4  0  0  0
  4  5  4  0  0  0
  5  9  1  0  0  0
 21  5  4  0  0  0
  6  7  4  0  0  0
  6 17  4  0  0  0
 19  6  1  0  0  0
  7 16  1  0  0  0
  7 18  4  0  0  0
  8 30  4  0  0  0
 32  8  4  0  0  0
  8 33  1  0  0  0
  9 22  1  0  0  0
  9 23  1  0  0  0
  9 24  1  0  0  0
 10 12  4  0  0  0
 17 10  4  0  0  0
 28 11  4  0  0  0
 11 32  4  0  0  0
 18 12  4  0  0  0
 14 13  2  0  0  0
 14 15  2  0  0  0
 16 14  1  0  0  0
 20 19  1  0  0  0
 21 20  1  0  0  0
 25 21  4  0  0  0
 26 25  4  0  0  0
 27 26  1  0  0  0
 27 28  1  0  0  0
 28 29  4  0  0  0
 29 30  4  0  0  0
 30 31  1  0  0  0
 31 34  1  0  0  0
 33 34  1  0  0  0
 34 35  2  0  0  0
  1 36  1  0  0  0
  1 37  1  0  0  0
  1 38  1  0  0  0
  2 39  1  0  0  0
  2 40  1  0  0  0
  2 41  1  0  0  0
  4 42  1  0  0  0
 10 43  1  0  0  0
 11 44  1  0  0  0
 12 45  1  0  0  0
 17 46  1  0  0  0
 19 47  1  0  0  0
 19 48  1  0  0  0
 20 49  1  0  0  0
 27 50  1  0  0  0
 29 51  1  0  0  0
 31 52  1  0  0  0
 31 53  1  0  0  0
 32 54  1  0  0  0
 33 55  1  0  0  0
M  END
$$$$
