1kqb_ligand
  -I-interpret- 

 15 15  0  0  0  0  0  0  0  0999 V2000
    3.8440   -3.2680   29.7880 C   0  0  0  0  0
    4.1070   -2.7040   30.9010 O   0  0  0  0  0
    2.9950   -2.7840   28.9940 O   0  0  0  0  0
    4.5940   -4.5200   29.4380 C   0  0  0  0  0
    5.3500   -5.2480   30.3960 C   0  0  0  0  0
    6.0400   -6.4160   30.0240 C   0  0  0  0  0
    5.9910   -6.8700   28.7060 C   0  0  0  0  0
    5.2570   -6.1760   27.7300 C   0  0  0  0  0
    4.5610   -5.0130   28.0800 C   0  0  0  0  0
    4.7737   -3.2137   31.3671 H   0  0  0  0  0
    5.3956   -4.8985   31.4274 H   0  0  0  0  0
    6.6146   -6.9679   30.7678 H   0  0  0  0  0
    6.5300   -7.7762   28.4295 H   0  0  0  0  0
    5.2295   -6.5418   26.7036 H   0  0  0  0  0
    3.9901   -4.4755   27.3229 H   0  0  0  0  0
  1  2  1  0  0  0
  1  3  2  0  0  0
  1  4  1  0  0  0
  4  5  4  0  0  0
  4  9  4  0  0  0
  5  6  4  0  0  0
  6  7  4  0  0  0
  7  8  4  0  0  0
  8  9  4  0  0  0
  2 10  1  0  0  0
  5 11  1  0  0  0
  6 12  1  0  0  0
  7 13  1  0  0  0
  8 14  1  0  0  0
  9 15  1  0  0  0
M  END
$$$$
