1gbt_ligand
  -I-interpret- 

 21 21  0  0  0  0  0  0  0  0999 V2000
   44.7730    0.3020   29.0190 C   0  0  0  0  0
   45.4450    0.0820   30.1080 O   0  0  0  0  0
   44.4010   -0.9100   28.1860 C   0  0  0  0  0
   44.0110   -0.7260   26.8470 C   0  0  0  0  0
   44.4640   -2.2210   28.6830 C   0  0  0  0  0
   43.7310   -1.8150   26.0040 C   0  0  0  0  0
   44.1590   -3.2850   27.8510 C   0  0  0  0  0
   43.6920   -3.0930   26.5570 C   0  0  0  0  0
   43.3380   -4.2160   25.8170 N   0  0  0  0  0
   43.7510   -4.4610   24.5790 C   0  0  0  0  0
   44.5300   -3.6370   23.8900 N   0  0  0  0  0
   43.3590   -5.5750   23.9830 N   0  0  0  0  0
   44.4894    1.3103   28.7175 H   0  0  0  0  0
   43.9238    0.2867   26.4534 H   0  0  0  0  0
   44.7516   -2.4008   29.7189 H   0  0  0  0  0
   43.5483   -1.6629   24.9402 H   0  0  0  0  0
   44.2890   -4.3017   28.2219 H   0  0  0  0  0
   42.7189   -4.8980   26.2551 H   0  0  0  0  0
   44.8050   -3.8730   22.9365 H   0  0  0  0  0
   44.8538   -2.7676   24.3138 H   0  0  0  0  0
   42.7496   -6.2290   24.4742 H   0  0  0  0  0
  1  2  2  0  0  0
  1  3  1  0  0  0
  3  4  4  0  0  0
  3  5  4  0  0  0
  4  6  4  0  0  0
  5  7  4  0  0  0
  6  8  4  0  0  0
  7  8  4  0  0  0
  8  9  1  0  0  0
  9 10  1  0  0  0
 10 11  1  0  0  0
 10 12  2  0  0  0
  1 13  1  0  0  0
  4 14  1  0  0  0
  5 15  1  0  0  0
  6 16  1  0  0  0
  7 17  1  0  0  0
  9 18  1  0  0  0
 11 19  1  0  0  0
 11 20  1  0  0  0
 12 21  1  0  0  0
M  END
$$$$
