5j31_ligand
  -I-interpret- 

163163  0  0  0  0  0  0  0  0999 V2000
  -17.1620   14.3710  -13.9410 N   0  3  0  0  0
  -17.7280   13.5330  -15.0010 C   0  0  0  0  0
  -16.6230   12.7530  -15.6160 C   0  0  0  0  0
  -16.5250   11.5380  -15.4010 O   0  0  0  0  0
  -13.7010   12.4750  -16.0300 C   0  0  0  0  0
  -15.8080   13.3740  -16.3450 N   0  0  0  0  0
  -12.9730   11.5040  -16.0800 O   0  0  0  0  0
  -14.6380   12.7230  -17.0190 C   0  0  0  0  0
  -14.1640   13.6800  -18.0980 C   0  0  0  0  0
  -12.2350   12.7430  -19.2310 C   0  0  0  0  0
  -10.7600   12.8230  -19.4390 C   0  0  0  0  0
  -12.6620   13.7970  -18.3080 C   0  0  0  0  0
  -15.1130   11.4630  -17.7040 C   0  0  0  0  0
  -13.5540   13.3670  -14.9940 N   0  0  0  0  0
  -12.5550   13.2160  -13.9730 C   0  0  0  0  0
  -12.9430   12.1520  -12.9960 C   0  0  0  0  0
  -12.1190   11.6440  -12.2920 O   0  0  0  0  0
  -12.3880   14.5180  -13.2260 C   0  0  0  0  0
  -11.8550   15.6960  -14.0100 C   0  0  0  0  0
  -11.3570   16.7330  -13.0420 C   0  0  0  0  0
  -10.7540   15.2630  -14.9350 C   0  0  0  0  0
  -14.2190   11.8320  -12.9550 N   0  0  0  0  0
  -14.7300   10.8180  -12.0640 C   0  0  0  0  0
  -14.1710    9.4980  -12.4980 C   0  0  0  0  0
  -13.7390    8.6920  -11.7140 O   0  0  0  0  0
  -16.2470   10.7870  -12.1470 C   0  0  0  0  0
  -16.8630    9.7870  -11.2160 C   0  0  0  0  0
  -17.8620    9.1550  -11.5720 O   0  0  0  0  0
  -16.3650    9.6390  -10.1090 O   0  0  0  0  0
  -14.1000    9.2220  -13.8030 N   0  0  0  0  0
  -13.6020    7.9890  -14.3140 C   0  0  0  0  0
  -12.2800    7.8640  -14.0990 C   0  0  0  0  0
  -14.4090    6.8820  -13.6810 C   0  0  0  0  0
  -13.9190    8.0070  -15.7960 C   0  0  0  0  0
  -13.2250    6.9500  -16.6060 C   0  0  0  0  0
  -12.9740    7.4510  -17.9590 C   0  0  0  0  0
  -11.8980    8.4410  -17.9630 C   0  0  0  0  0
  -11.1760    8.3530  -19.2590 C   0  0  0  0  0
  -10.8670    9.5740  -19.6940 C   0  0  0  0  0
  -10.6160   10.6130  -20.0630 C   0  0  0  0  0
  -10.3550   11.8320  -20.4870 C   0  0  0  0  0
  -11.7680    6.6810  -14.0600 O   0  0  0  0  0
  -11.5630    8.9120  -13.9930 N   0  0  0  0  0
  -10.0370    8.7480  -13.8050 C   0  0  0  0  0
   -9.6810    8.3190  -12.4600 C   0  0  0  0  0
   -8.5300    7.9930  -12.2340 O   0  0  0  0  0
   -9.3620   10.0700  -14.0750 C   0  0  0  0  0
   -9.0820   10.1650  -15.5410 C   0  0  0  0  0
   -8.5060   11.5240  -15.8410 C   0  0  0  0  0
   -8.0620    9.1280  -15.8740 C   0  0  0  0  0
  -10.6140    8.2830  -11.5390 N   0  0  0  0  0
  -10.3010    7.8170  -10.2160 C   0  0  0  0  0
   -9.0840    8.5130   -9.6340 C   0  0  0  0  0
   -8.1070    7.8970   -9.2780 O   0  0  0  0  0
  -10.0770    6.3250  -10.2980 C   0  0  0  0  0
  -10.2160    5.6490   -8.9960 C   0  0  0  0  0
   -9.7760    4.5100   -8.8930 O   0  0  0  0  0
  -10.7520    6.2390   -8.0680 O   0  0  0  0  0
   -9.1830    9.8220   -9.5380 N   0  0  0  0  0
   -8.1300   10.6480   -9.0220 C   0  0  0  0  0
   -7.9530   10.4630   -7.5390 C   0  0  0  0  0
   -8.9020   10.3220   -6.8140 O   0  0  0  0  0
   -8.4550   12.0950   -9.3080 C   0  0  0  0  0
   -8.0080   12.7370  -10.5990 C   0  0  0  0  0
   -7.5670   11.7220  -11.6060 C   0  0  0  0  0
   -9.0960   13.6050  -11.1670 C   0  0  0  0  0
   -6.7120   10.4720   -7.0970 N   0  0  0  0  0
   -6.4050   10.2990   -5.7030 C   0  0  0  0  0
   -6.5380   11.5970   -4.9540 C   0  0  0  0  0
   -6.5010   11.6180   -3.7520 O   0  0  0  0  0
   -5.0130    9.7540   -5.5500 C   0  0  0  0  0
   -6.7010   12.6740   -5.7000 N   0  0  0  0  0
   -6.8350   14.0210   -5.1710 C   0  0  0  0  0
   -5.9900   14.2620   -3.9480 C   0  0  0  0  0
   -4.8030   14.4510   -4.0670 O   0  0  0  0  0
   -8.2820   14.3680   -4.8930 C   0  0  0  0  0
   -8.9920   14.4990   -6.0980 O   0  0  0  0  0
   -6.5040   14.2650   -2.8550 O   0  0  0  0  0
  -17.9066   14.9155  -13.5056 H   0  0  0  0  0
  -16.7189   13.7772  -13.2400 H   0  0  0  0  0
  -16.4679   15.0017  -14.3420 H   0  0  0  0  0
  -18.2109   14.1562  -15.7537 H   0  0  0  0  0
  -18.4769   12.8585  -14.5858 H   0  0  0  0  0
  -15.9507   14.3742  -16.4852 H   0  0  0  0  0
  -14.4982   14.6693  -17.7854 H   0  0  0  0  0
  -14.5658   13.2940  -19.0348 H   0  0  0  0  0
  -12.8953   12.0108  -19.6957 H   0  0  0  0  0
  -10.2463   12.5972  -18.5045 H   0  0  0  0  0
  -10.4906   13.8283  -19.7630 H   0  0  0  0  0
  -12.0118   14.5412  -17.8482 H   0  0  0  0  0
  -15.9301   11.7062  -18.3832 H   0  0  0  0  0
  -14.2891   11.0244  -18.2670 H   0  0  0  0  0
  -15.4612   10.7526  -16.9543 H   0  0  0  0  0
  -14.1811   14.1702  -14.9485 H   0  0  0  0  0
  -11.6202   12.9328  -14.4568 H   0  0  0  0  0
  -11.6516   14.3216  -12.4467 H   0  0  0  0  0
  -13.3881   14.8049  -12.9010 H   0  0  0  0  0
  -12.6520   16.1188  -14.6217 H   0  0  0  0  0
  -12.1783   17.0546  -12.4016 H   0  0  0  0  0
  -10.5632   16.3051  -12.4297 H   0  0  0  0  0
  -10.9697   17.5885  -13.5954 H   0  0  0  0  0
   -9.9410   14.8297  -14.3524 H   0  0  0  0  0
  -11.1389   14.5195  -15.6329 H   0  0  0  0  0
  -10.3857   16.1266  -15.4887 H   0  0  0  0  0
  -14.8688   12.3170  -13.5738 H   0  0  0  0  0
  -14.4400   11.0311  -11.0351 H   0  0  0  0  0
  -16.5186   10.5054  -13.1644 H   0  0  0  0  0
  -16.6155   11.7736  -11.8663 H   0  0  0  0  0
  -18.0982    9.4095  -12.4670 H   0  0  0  0  0
  -14.4180    9.9288  -14.4662 H   0  0  0  0  0
  -14.2925    6.9228  -12.5980 H   0  0  0  0  0
  -15.4605    7.0071  -13.9396 H   0  0  0  0  0
  -14.0548    5.9194  -14.0498 H   0  0  0  0  0
  -13.5804    8.9698  -16.1787 H   0  0  0  0  0
  -14.9894    7.8244  -15.8912 H   0  0  0  0  0
  -13.8566    6.0633  -16.6603 H   0  0  0  0  0
  -12.2764    6.6965  -16.1326 H   0  0  0  0  0
  -13.8836    7.9232  -18.3303 H   0  0  0  0  0
  -12.6797    6.6137  -18.5918 H   0  0  0  0  0
  -11.2098    8.2438  -17.1411 H   0  0  0  0  0
  -12.3137    9.4408  -17.8374 H   0  0  0  0  0
  -11.8159    7.8628  -19.9927 H   0  0  0  0  0
  -10.2593    7.7798  -19.1200 H   0  0  0  0  0
   -9.2871   11.9273  -20.6837 H   0  0  0  0  0
  -10.9121   12.0248  -21.4038 H   0  0  0  0  0
  -11.9866    9.8391  -14.0313 H   0  0  0  0  0
   -9.7068    7.9783  -14.5026 H   0  0  0  0  0
   -8.4310   10.1358  -13.5120 H   0  0  0  0  0
  -10.0094   10.8901  -13.7646 H   0  0  0  0  0
   -9.9935   10.0158  -16.1197 H   0  0  0  0  0
   -9.2225   12.2928  -15.5517 H   0  0  0  0  0
   -7.5814   11.6574  -15.2794 H   0  0  0  0  0
   -8.2988   11.6018  -16.9083 H   0  0  0  0  0
   -7.1543    9.3156  -15.3004 H   0  0  0  0  0
   -8.4536    8.1418  -15.6246 H   0  0  0  0  0
   -7.8357    9.1717  -16.9393 H   0  0  0  0  0
  -11.5622    8.5859  -11.7618 H   0  0  0  0  0
  -11.1296    8.0486   -9.5467 H   0  0  0  0  0
   -9.0585    6.1612  -10.6499 H   0  0  0  0  0
  -10.8311    5.9125  -10.9683 H   0  0  0  0  0
   -9.3991    4.2366   -9.7325 H   0  0  0  0  0
  -10.0472   10.2690   -9.8442 H   0  0  0  0  0
   -7.1996   10.3580   -9.5101 H   0  0  0  0  0
   -7.9237   12.6486   -8.5338 H   0  0  0  0  0
   -9.5436   12.1221   -9.3564 H   0  0  0  0  0
   -7.1461   13.3625  -10.3665 H   0  0  0  0  0
   -6.7314   11.1505  -11.2020 H   0  0  0  0  0
   -8.3952   11.0492  -11.8285 H   0  0  0  0  0
   -7.2543   12.2295  -12.5186 H   0  0  0  0  0
   -9.9790   12.9968  -11.3632 H   0  0  0  0  0
   -9.3446   14.3887  -10.4514 H   0  0  0  0  0
   -8.7504   14.0567  -12.0969 H   0  0  0  0  0
   -5.9492   10.6051   -7.7609 H   0  0  0  0  0
   -7.1179    9.5907   -5.2808 H   0  0  0  0  0
   -4.9434    8.7913   -6.0564 H   0  0  0  0  0
   -4.3008   10.4508   -5.9920 H   0  0  0  0  0
   -4.7887    9.6260   -4.4910 H   0  0  0  0  0
   -6.7351   12.5530   -6.7122 H   0  0  0  0  0
   -6.4615   14.6846   -5.9509 H   0  0  0  0  0
   -8.3236   15.3127   -4.3509 H   0  0  0  0  0
   -8.7314   13.5715   -4.2999 H   0  0  0  0  0
   -9.9067   14.7188   -5.9069 H   0  0  0  0  0
   -7.4454   14.1001   -2.9449 H   0  0  0  0  0
  2  1  1  0  0  0
  3  2  1  0  0  0
  3  4  2  0  0  0
  6  3  1  0  0  0
  5  7  2  0  0  0
  8  5  1  0  0  0
  5 14  1  0  0  0
  8  6  1  0  0  0
  9  8  1  0  0  0
  8 13  1  0  0  0
 12  9  1  0  0  0
 10 11  1  0  0  0
 10 12  2  0  0  0
 11 41  1  0  0  0
 14 15  1  0  0  0
 15 16  1  0  0  0
 15 18  1  0  0  0
 16 17  2  0  0  0
 16 22  1  0  0  0
 18 19  1  0  0  0
 19 20  1  0  0  0
 19 21  1  0  0  0
 22 23  1  0  0  0
 23 24  1  0  0  0
 23 26  1  0  0  0
 24 25  2  0  0  0
 24 30  1  0  0  0
 26 27  1  0  0  0
 27 28  1  0  0  0
 27 29  2  0  0  0
 30 31  1  0  0  0
 31 32  1  0  0  0
 31 33  1  0  0  0
 31 34  1  0  0  0
 32 42  2  0  0  0
 32 43  1  0  0  0
 34 35  1  0  0  0
 35 36  1  0  0  0
 36 37  1  0  0  0
 37 38  1  0  0  0
 38 39  1  0  0  0
 39 40  3  0  0  0
 40 41  1  0  0  0
 43 44  1  0  0  0
 44 45  1  0  0  0
 44 47  1  0  0  0
 45 46  2  0  0  0
 45 51  1  0  0  0
 47 48  1  0  0  0
 48 49  1  0  0  0
 48 50  1  0  0  0
 51 52  1  0  0  0
 52 53  1  0  0  0
 52 55  1  0  0  0
 53 54  2  0  0  0
 53 59  1  0  0  0
 55 56  1  0  0  0
 56 57  1  0  0  0
 56 58  2  0  0  0
 59 60  1  0  0  0
 60 61  1  0  0  0
 60 63  1  0  0  0
 61 62  2  0  0  0
 61 67  1  0  0  0
 63 64  1  0  0  0
 64 65  1  0  0  0
 64 66  1  0  0  0
 67 68  1  0  0  0
 68 69  1  0  0  0
 68 71  1  0  0  0
 69 70  2  0  0  0
 69 72  1  0  0  0
 72 73  1  0  0  0
 73 74  1  0  0  0
 73 76  1  0  0  0
 74 75  2  0  0  0
 74 78  1  0  0  0
 76 77  1  0  0  0
  1 79  1  0  0  0
  1 80  1  0  0  0
  1 81  1  0  0  0
  2 82  1  0  0  0
  2 83  1  0  0  0
  6 84  1  0  0  0
  9 85  1  0  0  0
  9 86  1  0  0  0
 10 87  1  0  0  0
 11 88  1  0  0  0
 11 89  1  0  0  0
 12 90  1  0  0  0
 13 91  1  0  0  0
 13 92  1  0  0  0
 13 93  1  0  0  0
 14 94  1  0  0  0
 15 95  1  0  0  0
 18 96  1  0  0  0
 18 97  1  0  0  0
 19 98  1  0  0  0
 20 99  1  0  0  0
 20100  1  0  0  0
 20101  1  0  0  0
 21102  1  0  0  0
 21103  1  0  0  0
 21104  1  0  0  0
 22105  1  0  0  0
 23106  1  0  0  0
 26107  1  0  0  0
 26108  1  0  0  0
 28109  1  0  0  0
 30110  1  0  0  0
 33111  1  0  0  0
 33112  1  0  0  0
 33113  1  0  0  0
 34114  1  0  0  0
 34115  1  0  0  0
 35116  1  0  0  0
 35117  1  0  0  0
 36118  1  0  0  0
 36119  1  0  0  0
 37120  1  0  0  0
 37121  1  0  0  0
 38122  1  0  0  0
 38123  1  0  0  0
 41124  1  0  0  0
 41125  1  0  0  0
 43126  1  0  0  0
 44127  1  0  0  0
 47128  1  0  0  0
 47129  1  0  0  0
 48130  1  0  0  0
 49131  1  0  0  0
 49132  1  0  0  0
 49133  1  0  0  0
 50134  1  0  0  0
 50135  1  0  0  0
 50136  1  0  0  0
 51137  1  0  0  0
 52138  1  0  0  0
 55139  1  0  0  0
 55140  1  0  0  0
 57141  1  0  0  0
 59142  1  0  0  0
 60143  1  0  0  0
 63144  1  0  0  0
 63145  1  0  0  0
 64146  1  0  0  0
 65147  1  0  0  0
 65148  1  0  0  0
 65149  1  0  0  0
 66150  1  0  0  0
 66151  1  0  0  0
 66152  1  0  0  0
 67153  1  0  0  0
 68154  1  0  0  0
 71155  1  0  0  0
 71156  1  0  0  0
 71157  1  0  0  0
 72158  1  0  0  0
 73159  1  0  0  0
 76160  1  0  0  0
 76161  1  0  0  0
 77162  1  0  0  0
 78163  1  0  0  0
M  END
$$$$
