### 
### Created by X-TOOL on Mon Sep 10 21:13:26 2018
### 

@<TRIPOS>MOLECULE
5j31_ligand
  160   160     1     0     0
SMALL
GAST_HUCK


@<TRIPOS>ATOM
      1 N         -17.1620   14.3710  -13.9410 N.4       1 GLY         0.2357
      2 CA        -17.7280   13.5330  -15.0010 C.3       1 GLY         0.0542
      3 C         -16.6230   12.7530  -15.6160 C.2       1 GLY         0.2208
      4 O         -16.5250   11.5380  -15.4010 O.2       1 GLY        -0.3913
      5 C         -13.7010   12.4750  -16.0300 C.2       1 MK8         0.2281
      6 N         -15.8080   13.3740  -16.3450 N.am      1 MK8        -0.2703
      7 O         -12.9730   11.5040  -16.0800 O.2       1 MK8        -0.3417
      8 CA        -14.6380   12.7230  -17.0190 C.3       1 MK8         0.1367
      9 CB        -14.1640   13.6800  -18.0980 C.3       1 MK8        -0.0035
     10 CD        -12.2350   12.7430  -19.2310 C.2       1 MK8        -0.0978
     11 CE        -10.7600   12.8230  -19.4390 C.3       1 MK8        -0.0256
     12 CG        -12.6620   13.7970  -18.3080 C.2       1 MK8        -0.0972
     13 CB1       -15.1130   11.4630  -17.7040 C.3       1 MK8        -0.0303
     14 N         -13.5540   13.3670  -14.9940 N.am      1 LEU        -0.2627
     15 CA        -12.5550   13.2160  -13.9730 C.3       1 LEU         0.1314
     16 C         -12.9430   12.1520  -12.9960 C.2       1 LEU         0.2041
     17 O         -12.1190   11.6440  -12.2920 O.2       1 LEU        -0.3944
     18 CB        -12.3880   14.5180  -13.2260 C.3       1 LEU        -0.0099
     19 CG        -11.8550   15.6960  -14.0100 C.3       1 LEU        -0.0425
     20 CD1       -11.3570   16.7330  -13.0420 C.3       1 LEU        -0.0625
     21 CD2       -10.7540   15.2630  -14.9350 C.3       1 LEU        -0.0625
     22 N         -14.2190   11.8320  -12.9550 N.am      1 ASP        -0.2622
     23 CA        -14.7300   10.8180  -12.0640 C.3       1 ASP         0.1420
     24 C         -14.1710    9.4980  -12.4980 C.2       1 ASP         0.2027
     25 O         -13.7390    8.6920  -11.7140 O.2       1 ASP        -0.3946
     26 CB        -16.2470   10.7870  -12.1470 C.3       1 ASP         0.0406
     27 CG        -16.8630    9.7870  -11.2160 C.2       1 ASP         0.0393
     28 OD1       -17.8620    9.1550  -11.5720 O.co2     1 ASP        -0.5688
     29 OD2       -16.3650    9.6390  -10.1090 O.co2     1 ASP        -0.5688
     30 N         -14.1000    9.2220  -13.8030 N.am      1 ZS8        -0.2742
     31 CA        -13.6020    7.9890  -14.3140 C.3       1 ZS8         0.1302
     32 C         -12.2800    7.8640  -14.0990 C.2       1 ZS8         0.2263
     33 CB2       -14.4090    6.8820  -13.6810 C.3       1 ZS8        -0.0320
     34 CB1       -13.9190    8.0070  -15.7960 C.3       1 ZS8        -0.0201
     35 CG1       -13.2250    6.9500  -16.6060 C.3       1 ZS8        -0.0516
     36 CD1       -12.9740    7.4510  -17.9590 C.3       1 ZS8        -0.0523
     37 CZ1       -11.8980    8.4410  -17.9630 C.3       1 ZS8        -0.0422
     38 CE1       -11.1760    8.3530  -19.2590 C.3       1 ZS8         0.0091
     39 CT1       -10.8670    9.5740  -19.6940 C.1       1 ZS8        -0.1021
     40 CI1       -10.6160   10.6130  -20.0630 C.1       1 ZS8        -0.1004
     41 CK1       -10.3550   11.8320  -20.4870 C.3       1 ZS8         0.0156
     42 OXT       -11.7680    6.6810  -14.0600 O.2       1 ZS8        -0.3419
     43 N         -11.5630    8.9120  -13.9930 N.am      1 LEU        -0.2629
     44 CA        -10.0370    8.7480  -13.8050 C.3       1 LEU         0.1314
     45 C          -9.6810    8.3190  -12.4600 C.2       1 LEU         0.2041
     46 O          -8.5300    7.9930  -12.2340 O.2       1 LEU        -0.3944
     47 CB         -9.3620   10.0700  -14.0750 C.3       1 LEU        -0.0099
     48 CG         -9.0820   10.1650  -15.5410 C.3       1 LEU        -0.0425
     49 CD1        -8.5060   11.5240  -15.8410 C.3       1 LEU        -0.0625
     50 CD2        -8.0620    9.1280  -15.8740 C.3       1 LEU        -0.0625
     51 N         -10.6140    8.2830  -11.5390 N.am      1 ASP        -0.2622
     52 CA        -10.3010    7.8170  -10.2160 C.3       1 ASP         0.1423
     53 C          -9.0840    8.5130   -9.6340 C.2       1 ASP         0.2056
     54 O          -8.1070    7.8970   -9.2780 O.2       1 ASP        -0.3943
     55 CB        -10.0770    6.3250  -10.2980 C.3       1 ASP         0.0406
     56 CG        -10.2160    5.6490   -8.9960 C.2       1 ASP         0.0393
     57 OD1        -9.7760    4.5100   -8.8930 O.co2     1 ASP        -0.5688
     58 OD2       -10.7520    6.2390   -8.0680 O.co2     1 ASP        -0.5688
     59 N          -9.1830    9.8220   -9.5380 N.am      1 LEU        -0.2636
     60 CA         -8.1300   10.6480   -9.0220 C.3       1 LEU         0.1312
     61 C          -7.9530   10.4630   -7.5390 C.2       1 LEU         0.2039
     62 O          -8.9020   10.3220   -6.8140 O.2       1 LEU        -0.3944
     63 CB         -8.4550   12.0950   -9.3080 C.3       1 LEU        -0.0101
     64 CG         -8.0080   12.7370  -10.5990 C.3       1 LEU        -0.0425
     65 CD1        -7.5670   11.7220  -11.6060 C.3       1 LEU        -0.0625
     66 CD2        -9.0960   13.6050  -11.1670 C.3       1 LEU        -0.0625
     67 N          -6.7120   10.4720   -7.0970 N.am      1 ALA        -0.2640
     68 CA         -6.4050   10.2990   -5.7030 C.3       1 ALA         0.1282
     69 C          -6.5380   11.5970   -4.9540 C.2       1 ALA         0.2031
     70 O          -6.5010   11.6180   -3.7520 O.2       1 ALA        -0.3944
     71 CB         -5.0130    9.7540   -5.5500 C.3       1 ALA        -0.0244
     72 N          -6.7010   12.6740   -5.7000 N.am      1 SER        -0.2672
     73 CA         -6.8350   14.0210   -5.1710 C.3       1 SER         0.1173
     74 C          -5.9900   14.2620   -3.9480 C.2       1 SER         0.0623
     75 O          -4.8030   14.4510   -4.0670 O.co2     1 SER        -0.5665
     76 CB         -8.2820   14.3680   -4.8930 C.3       1 SER         0.0789
     77 OG         -8.9920   14.4990   -6.0980 O.3       1 SER        -0.3910
     78 OXT        -6.5040   14.2650   -2.8550 O.co2     1 SER        -0.5665
     79 H1        -17.8970   14.9096  -13.5100 H         1 GLY         0.2012
     80 H2        -16.4759   14.9948  -14.3361 H         1 GLY         0.2012
     81 H3        -16.7238   13.7853  -13.2475 H         1 GLY         0.2012
     82 H4        -18.2047   14.1675  -15.7627 H         1 GLY         0.1061
     83 H5        -18.4753   12.8475  -14.5747 H         1 GLY         0.1061
     84 H6        -15.9479   14.3546  -16.4824 H         1 MK8         0.1841
     85 H7        -14.5420   14.6810  -17.8428 H         1 MK8         0.0400
     86 H8        -14.6073   13.3523  -19.0499 H         1 MK8         0.0400
     87 H9        -12.8947   12.0114  -19.6953 H         1 MK8         0.0450
     88 H10       -10.2426   12.5930  -18.4959 H         1 MK8         0.0397
     89 H11       -10.4894   13.8372  -19.7678 H         1 MK8         0.0397
     90 H12       -12.0124   14.5406  -17.8486 H         1 MK8         0.0449
     91 H13       -14.2633   10.9745  -18.2034 H         1 MK8         0.0243
     92 H14       -15.8796   11.7181  -18.4505 H         1 MK8         0.0243
     93 H15       -15.5419   10.7789  -16.9570 H         1 MK8         0.0243
     94 H16       -14.1688   14.1544  -14.9494 H         1 LEU         0.1889
     95 H17       -11.6006   12.9410  -14.4457 H         1 LEU         0.0802
     96 H18       -11.6960   14.3350  -12.3908 H         1 LEU         0.0315
     97 H19       -13.3740   14.8020  -12.8298 H         1 LEU         0.0315
     98 H20       -12.6701   16.1266  -14.6101 H         1 LEU         0.0298
     99 H21       -10.9658   17.5969  -13.5993 H         1 LEU         0.0232
    100 H22       -10.5558   16.3024  -12.4234 H         1 LEU         0.0232
    101 H23       -12.1850   17.0584  -12.3951 H         1 LEU         0.0232
    102 H24       -11.1388   14.5055  -15.6337 H         1 LEU         0.0232
    103 H25        -9.9288   14.8342  -14.3474 H         1 LEU         0.0232
    104 H26       -10.3880   16.1320  -15.5015 H         1 LEU         0.0232
    105 H27       -14.8560   12.3075  -13.5617 H         1 ASP         0.1884
    106 H28       -14.4210   11.0347  -11.0308 H         1 ASP         0.0819
    107 H29       -16.5368   10.5321  -13.1771 H         1 ASP         0.0478
    108 H30       -16.6326   11.7856  -11.8940 H         1 ASP         0.0478
    109 H31       -14.4117    9.9149  -14.4532 H         1 ZS8         0.1839
    110 H32       -14.0525    5.9099  -14.0524 H         1 ZS8         0.0242
    111 H33       -15.4704    7.0070  -13.9413 H         1 ZS8         0.0242
    112 H34       -14.2923    6.9220  -12.5880 H         1 ZS8         0.0242
    113 H35       -13.6273    8.9895  -16.1955 H         1 ZS8         0.0277
    114 H36       -15.0040    7.8703  -15.9146 H         1 ZS8         0.0277
    115 H37       -13.8610    6.0541  -16.6599 H         1 ZS8         0.0265
    116 H38       -12.2683    6.6923  -16.1281 H         1 ZS8         0.0265
    117 H39       -13.8923    7.9171  -18.3455 H         1 ZS8         0.0266
    118 H40       -12.6895    6.6088  -18.6069 H         1 ZS8         0.0266
    119 H41       -11.2019    8.2348  -17.1366 H         1 ZS8         0.0274
    120 H42       -12.3217    9.4490  -17.8428 H         1 ZS8         0.0274
    121 H43       -11.8179    7.8542  -20.0001 H         1 ZS8         0.0397
    122 H44       -10.2527    7.7708  -19.1225 H         1 ZS8         0.0397
    123 H45        -9.2774   11.9282  -20.6856 H         1 ZS8         0.0417
    124 H46       -10.9172   12.0265  -21.4123 H         1 ZS8         0.0417
    125 H47       -11.9782    9.8209  -14.0306 H         1 LEU         0.1889
    126 H48        -9.6738    7.9979  -14.5229 H         1 LEU         0.0802
    127 H49        -8.4188   10.1276  -13.5120 H         1 LEU         0.0315
    128 H50       -10.0229   10.8942  -13.7687 H         1 LEU         0.0315
    129 H51       -10.0022   10.0031  -16.1215 H         1 LEU         0.0298
    130 H52        -8.2964   11.6038  -16.9179 H         1 LEU         0.0232
    131 H53        -7.5727   11.6598  -15.2748 H         1 LEU         0.0232
    132 H54        -9.2281   12.3008  -15.5495 H         1 LEU         0.0232
    133 H55        -8.4706    8.1295  -15.6592 H         1 LEU         0.0232
    134 H56        -7.1595    9.2931  -15.2672 H         1 LEU         0.0232
    135 H57        -7.8040    9.1968  -16.9411 H         1 LEU         0.0232
    136 H58       -11.5436    8.5799  -11.7574 H         1 ASP         0.1884
    137 H59       -11.1589    8.0168   -9.5572 H         1 ASP         0.0819
    138 H60        -9.0617    6.1435  -10.6804 H         1 ASP         0.0478
    139 H61       -10.8131    5.8979  -10.9949 H         1 ASP         0.0478
    140 H62       -10.0302   10.2602   -9.8382 H         1 LEU         0.1883
    141 H63        -7.1899   10.3802   -9.5264 H         1 LEU         0.0800
    142 H64        -8.0124   12.6853   -8.4921 H         1 LEU         0.0315
    143 H65        -9.5507   12.1853   -9.2733 H         1 LEU         0.0315
    144 H66        -7.1450   13.3799  -10.3713 H         1 LEU         0.0298
    145 H67        -7.2512   12.2330  -12.5275 H         1 LEU         0.0232
    146 H68        -8.4020   11.0423  -11.8314 H         1 LEU         0.0232
    147 H69        -6.7236   11.1446  -11.1995 H         1 LEU         0.0232
    148 H70        -9.4067   14.3437  -10.4134 H         1 LEU         0.0232
    149 H71        -9.9573   12.9793  -11.4439 H         1 LEU         0.0232
    150 H72        -8.7202   14.1272  -12.0592 H         1 LEU         0.0232
    151 H73        -5.9641   10.6025   -7.7479 H         1 ALA         0.1883
    152 H74        -7.1157    9.5761   -5.2760 H         1 ALA         0.0797
    153 H75        -4.7854    9.6244   -4.4816 H         1 ALA         0.0277
    154 H76        -4.2932   10.4563   -5.9956 H         1 ALA         0.0277
    155 H77        -4.9414    8.7823   -6.0606 H         1 ALA         0.0277
    156 H78        -6.7344   12.5554   -6.6924 H         1 SER         0.1876
    157 H79        -6.4766   14.7079   -5.9518 H         1 SER         0.0749
    158 H80        -8.3276   15.3177   -4.3399 H         1 SER         0.0599
    159 H81        -8.7371   13.5694   -4.2887 H         1 SER         0.0599
    160 H82        -9.8972   14.7165   -5.9089 H         1 SER         0.2096
@<TRIPOS>BOND
     1    2    1 1  
     2    3    2 1  
     3    3    4 2  
     4    6    3 am 
     5    5    7 2  
     6    8    5 1  
     7    5   14 am 
     8    8    6 1  
     9    9    8 1  
    10    8   13 1  
    11   12    9 1  
    12   10   11 1  
    13   10   12 2  
    14   11   41 1  
    15   14   15 1  
    16   15   16 1  
    17   15   18 1  
    18   16   17 2  
    19   16   22 am 
    20   18   19 1  
    21   19   20 1  
    22   19   21 1  
    23   22   23 1  
    24   23   24 1  
    25   23   26 1  
    26   24   25 2  
    27   24   30 am 
    28   26   27 1  
    29   27   28 ar 
    30   27   29 ar 
    31   30   31 1  
    32   31   32 1  
    33   31   33 1  
    34   31   34 1  
    35   32   42 2  
    36   32   43 am 
    37   34   35 1  
    38   35   36 1  
    39   36   37 1  
    40   37   38 1  
    41   38   39 1  
    42   39   40 3  
    43   40   41 1  
    44   43   44 1  
    45   44   45 1  
    46   44   47 1  
    47   45   46 2  
    48   45   51 am 
    49   47   48 1  
    50   48   49 1  
    51   48   50 1  
    52   51   52 1  
    53   52   53 1  
    54   52   55 1  
    55   53   54 2  
    56   53   59 am 
    57   55   56 1  
    58   56   57 ar 
    59   56   58 ar 
    60   59   60 1  
    61   60   61 1  
    62   60   63 1  
    63   61   62 2  
    64   61   67 am 
    65   63   64 1  
    66   64   65 1  
    67   64   66 1  
    68   67   68 1  
    69   68   69 1  
    70   68   71 1  
    71   69   70 2  
    72   69   72 am 
    73   72   73 1  
    74   73   74 1  
    75   73   76 1  
    76   74   75 ar 
    77   74   78 ar 
    78   76   77 1  
    79    1   79 1  
    80    1   80 1  
    81    1   81 1  
    82    2   82 1  
    83    2   83 1  
    84    6   84 1  
    85    9   85 1  
    86    9   86 1  
    87   10   87 1  
    88   11   88 1  
    89   11   89 1  
    90   12   90 1  
    91   13   91 1  
    92   13   92 1  
    93   13   93 1  
    94   14   94 1  
    95   15   95 1  
    96   18   96 1  
    97   18   97 1  
    98   19   98 1  
    99   20   99 1  
   100   20  100 1  
   101   20  101 1  
   102   21  102 1  
   103   21  103 1  
   104   21  104 1  
   105   22  105 1  
   106   23  106 1  
   107   26  107 1  
   108   26  108 1  
   109   30  109 1  
   110   33  110 1  
   111   33  111 1  
   112   33  112 1  
   113   34  113 1  
   114   34  114 1  
   115   35  115 1  
   116   35  116 1  
   117   36  117 1  
   118   36  118 1  
   119   37  119 1  
   120   37  120 1  
   121   38  121 1  
   122   38  122 1  
   123   41  123 1  
   124   41  124 1  
   125   43  125 1  
   126   44  126 1  
   127   47  127 1  
   128   47  128 1  
   129   48  129 1  
   130   49  130 1  
   131   49  131 1  
   132   49  132 1  
   133   50  133 1  
   134   50  134 1  
   135   50  135 1  
   136   51  136 1  
   137   52  137 1  
   138   55  138 1  
   139   55  139 1  
   140   59  140 1  
   141   60  141 1  
   142   63  142 1  
   143   63  143 1  
   144   64  144 1  
   145   65  145 1  
   146   65  146 1  
   147   65  147 1  
   148   66  148 1  
   149   66  149 1  
   150   66  150 1  
   151   67  151 1  
   152   68  152 1  
   153   71  153 1  
   154   71  154 1  
   155   71  155 1  
   156   72  156 1  
   157   73  157 1  
   158   76  158 1  
   159   76  159 1  
   160   77  160 1  
@<TRIPOS>SUBSTRUCTURE
     1 GLY         1

