6msn_ligand
  -I-interpret- 

 15 14  0  0  0  0  0  0  0  0999 V2000
   24.0170    8.2100  -35.3800 C   0  0  0  0  0
   23.3170    6.8990  -35.7210 C   0  0  0  0  0
   22.1150    7.1360  -36.6360 C   0  0  0  0  0
   23.1960    9.0580  -34.4150 C   0  0  0  0  0
   21.2020    7.9280  -36.2950 O   0  0  0  0  0
   22.0280    6.5400  -37.7340 O   0  0  0  0  0
   23.3790   10.3020  -34.3700 O   0  0  0  0  0
   22.3370    8.5130  -33.6690 O   0  0  0  0  0
   24.5320    5.8130  -36.5230 S   0  0  0  0  0
   24.1522    8.7754  -36.3021 H   0  0  0  0  0
   24.9692    7.9755  -34.9041 H   0  0  0  0  0
   22.9360    6.4346  -34.8115 H   0  0  0  0  0
   21.4100    8.3037  -35.4364 H   0  0  0  0  0
   22.3281    7.5669  -33.8313 H   0  0  0  0  0
   25.5641    5.6251  -35.7055 H   0  0  0  0  0
  1  2  1  0  0  0
  1  4  1  0  0  0
  2  3  1  0  0  0
  2  9  1  0  0  0
  3  5  1  0  0  0
  3  6  2  0  0  0
  4  7  2  0  0  0
  4  8  1  0  0  0
  1 10  1  0  0  0
  1 11  1  0  0  0
  2 12  1  0  0  0
  5 13  1  0  0  0
  8 14  1  0  0  0
  9 15  1  0  0  0
M  END
$$$$
