1nde_ligand
  -I-interpret- 

 63 66  0  0  0  0  0  0  0  0999 V2000
  110.7370    5.5320 -105.3590 C   0  0  0  0  0
  110.9210    4.5570 -104.4530 N   0  0  0  0  0
  109.6060    6.2620 -105.4990 N   0  0  0  0  0
  111.6410    5.9560 -106.2990 N   0  0  0  0  0
  112.1510    3.7920 -104.3130 C   0  0  0  0  0
  109.9180    4.1440 -103.4700 C   0  0  0  0  0
  109.3710    7.2530 -106.3860 C   0  0  0  0  0
  111.4330    6.9410 -107.2020 C   0  0  0  0  0
  112.1770    2.3680 -103.6560 C   0  0  0  0  0
  109.8560    2.6970 -102.9320 C   0  0  0  0  0
  110.3030    7.5170 -107.1710 N   0  0  0  0  0
  108.3340    8.0500 -106.6270 N   0  0  0  0  0
  112.2390    7.7050 -108.4440 S   0  0  0  0  0
  111.1930    2.2550 -102.5700 N   0  3  0  0  0
  107.0840    8.1290 -106.0060 C   0  0  0  0  0
  113.6520    7.9070 -109.4800 C   0  0  0  0  0
  106.3950    9.3140 -106.7320 C   0  0  0  0  0
  112.5460    8.6530 -110.2420 C   0  0  0  0  0
  105.0900    9.5030 -106.1080 C   0  0  0  0  0
  112.5190    9.4020 -111.5480 C   0  0  0  0  0
  103.9240    9.4400 -106.8730 C   0  0  0  0  0
  105.0330    9.7310 -104.7160 C   0  0  0  0  0
  110.9910    9.8030 -111.5100 C   0  0  0  0  0
  102.6810    9.6030 -106.2350 C   0  0  0  0  0
  103.8050    9.8910 -104.0920 C   0  0  0  0  0
  110.5360   11.1320 -111.7190 C   0  0  0  0  0
  109.9960    8.7960 -111.2300 C   0  0  0  0  0
  102.6240    9.8210 -104.8370 C   0  0  0  0  0
  109.1400   11.4420 -111.6570 C   0  0  0  0  0
  108.6200    9.1160 -111.1700 C   0  0  0  0  0
  101.4320    9.9610 -104.2060 O   0  0  0  0  0
  108.1900   10.4320 -111.3820 C   0  0  0  0  0
  106.5190   10.8070 -111.3060 Cl  0  0  0  0  0
  112.7522    4.3972 -103.6345 H   0  0  0  0  0
  112.4530    3.6034 -105.3432 H   0  0  0  0  0
  108.9726    4.2638 -103.9992 H   0  0  0  0  0
  110.1603    4.7375 -102.5884 H   0  0  0  0  0
  113.1701    2.1989 -103.2398 H   0  0  0  0  0
  111.9317    1.6313 -104.4210 H   0  0  0  0  0
  109.4533    2.0403 -103.7031 H   0  0  0  0  0
  109.2127    2.6642 -102.0527 H   0  0  0  0  0
  108.4736    8.7123 -107.3901 H   0  0  0  0  0
  111.5132    2.8541 -101.8091 H   0  0  0  0  0
  111.1279    1.2674 -102.3233 H   0  0  0  0  0
  107.1606    8.2852 -104.9300 H   0  0  0  0  0
  106.5170    7.2017 -106.0877 H   0  0  0  0  0
  114.3222    7.1347 -109.8575 H   0  0  0  0  0
  114.6397    8.2749 -109.2022 H   0  0  0  0  0
  106.2845    9.1005 -107.7952 H   0  0  0  0  0
  106.9964   10.2189 -106.6452 H   0  0  0  0  0
  112.4028    9.4912 -109.5601 H   0  0  0  0  0
  111.9240    7.8018 -110.5191 H   0  0  0  0  0
  112.8453    8.8443 -112.4259 H   0  0  0  0  0
  113.2272   10.2253 -111.6417 H   0  0  0  0  0
  103.9759    9.2672 -107.9480 H   0  0  0  0  0
  105.9525    9.7812 -104.1328 H   0  0  0  0  0
  101.7606    9.5615 -106.8174 H   0  0  0  0  0
  103.7604   10.0718 -103.0180 H   0  0  0  0  0
  111.2562   11.9229 -111.9285 H   0  0  0  0  0
  110.3120    7.7666 -111.0611 H   0  0  0  0  0
  108.8064   12.4663 -111.8234 H   0  0  0  0  0
  107.8903    8.3346 -110.9577 H   0  0  0  0  0
  101.5821   10.1005 -103.2681 H   0  0  0  0  0
  1  2  1  0  0  0
  1  3  4  0  0  0
  4  1  4  0  0  0
  2  5  1  0  0  0
  2  6  1  0  0  0
  7  3  4  0  0  0
  8  4  4  0  0  0
  5  9  1  0  0  0
  6 10  1  0  0  0
 11  7  4  0  0  0
  7 12  1  0  0  0
  8 11  4  0  0  0
 13  8  1  0  0  0
  9 14  1  0  0  0
 10 14  1  0  0  0
 12 15  1  0  0  0
 16 13  1  0  0  0
 15 17  1  0  0  0
 16 18  1  0  0  0
 17 19  1  0  0  0
 18 20  1  0  0  0
 19 21  4  0  0  0
 19 22  4  0  0  0
 20 23  1  0  0  0
 21 24  4  0  0  0
 22 25  4  0  0  0
 23 26  4  0  0  0
 23 27  4  0  0  0
 24 28  4  0  0  0
 25 28  4  0  0  0
 26 29  4  0  0  0
 27 30  4  0  0  0
 28 31  1  0  0  0
 29 32  4  0  0  0
 30 32  4  0  0  0
 32 33  1  0  0  0
  5 34  1  0  0  0
  5 35  1  0  0  0
  6 36  1  0  0  0
  6 37  1  0  0  0
  9 38  1  0  0  0
  9 39  1  0  0  0
 10 40  1  0  0  0
 10 41  1  0  0  0
 12 42  1  0  0  0
 14 43  1  0  0  0
 14 44  1  0  0  0
 15 45  1  0  0  0
 15 46  1  0  0  0
 16 47  1  0  0  0
 16 48  1  0  0  0
 17 49  1  0  0  0
 17 50  1  0  0  0
 18 51  1  0  0  0
 18 52  1  0  0  0
 20 53  1  0  0  0
 20 54  1  0  0  0
 21 55  1  0  0  0
 22 56  1  0  0  0
 24 57  1  0  0  0
 25 58  1  0  0  0
 26 59  1  0  0  0
 27 60  1  0  0  0
 29 61  1  0  0  0
 30 62  1  0  0  0
 31 63  1  0  0  0
M  END
$$$$
