4tkj_ligand
  -I-interpret- 

 48 47  0  0  0  0  0  0  0  0999 V2000
    5.9190  -16.6280   -1.6130 C   0  0  0  0  0
    4.8960  -16.3970   -0.8780 O   0  0  0  0  0
    6.9640  -15.9660   -1.5510 O   0  0  0  0  0
    5.7930  -17.7470   -2.6220 C   0  0  0  0  0
    7.0600  -18.1650   -3.3150 C   0  0  0  0  0
    6.8570  -19.2760   -4.3230 C   0  0  0  0  0
    8.1680  -19.7980   -4.8860 C   0  0  0  0  0
    8.0220  -20.7780   -6.0440 C   0  0  0  0  0
    7.1240  -21.9760   -5.7750 C   0  0  0  0  0
    7.5900  -22.8500   -4.6270 C   0  0  0  0  0
    6.5640  -23.9270   -4.2070 C   0  0  0  0  0
    6.9660  -24.8300   -3.0120 C   0  0  0  0  0
    7.4520  -24.1140   -1.7180 C   0  0  0  0  0
    6.5660  -23.0380   -1.0500 C   0  0  0  0  0
    7.2390  -22.1930    0.1310 C   0  0  0  0  0
    8.4800  -21.4610   -0.0780 C   0  0  0  0  0
    9.0270  -20.7340    1.1690 C   0  0  0  0  0
   10.4320  -20.3010    0.8620 C   0  0  0  0  0
    4.2023  -17.0257   -1.0904 H   0  0  0  0  0
    5.1276  -17.3783   -3.4026 H   0  0  0  0  0
    5.4490  -18.6194   -2.0664 H   0  0  0  0  0
    7.7445  -18.5354   -2.5519 H   0  0  0  0  0
    7.4402  -17.2977   -3.8547 H   0  0  0  0  0
    6.2712  -18.8761   -5.1507 H   0  0  0  0  0
    6.3560  -20.1014   -3.8172 H   0  0  0  0  0
    8.6675  -20.3342   -4.0791 H   0  0  0  0  0
    8.7135  -18.9354   -5.2686 H   0  0  0  0  0
    9.0176  -21.1739   -6.2444 H   0  0  0  0  0
    7.5654  -20.2246   -6.8646 H   0  0  0  0  0
    7.1293  -22.5926   -6.6738 H   0  0  0  0  0
    6.1402  -21.5895   -5.5087 H   0  0  0  0  0
    7.7491  -22.1996   -3.7669 H   0  0  0  0  0
    8.4894  -23.3692   -4.9580 H   0  0  0  0  0
    6.4521  -24.5904   -5.0646 H   0  0  0  0  0
    5.6698  -23.3884   -3.8931 H   0  0  0  0  0
    7.8114  -25.4242   -3.3590 H   0  0  0  0  0
    6.0629  -25.3718   -2.7312 H   0  0  0  0  0
    8.3488  -23.5760   -2.0250 H   0  0  0  0  0
    7.5203  -24.9095   -0.9760 H   0  0  0  0  0
    5.7289  -23.5722   -0.6004 H   0  0  0  0  0
    6.3199  -22.3205   -1.8328 H   0  0  0  0  0
    6.7595  -22.1651    1.1095 H   0  0  0  0  0
    8.9853  -21.4287   -1.0433 H   0  0  0  0  0
    9.0140  -21.3985    2.0329 H   0  0  0  0  0
    8.4066  -19.8704    1.4084 H   0  0  0  0  0
   11.0395  -21.1771    0.6351 H   0  0  0  0  0
   10.4246  -19.6301    0.0030 H   0  0  0  0  0
   10.8480  -19.7826    1.7259 H   0  0  0  0  0
  1  2  1  0  0  0
  1  3  2  0  0  0
  1  4  1  0  0  0
  4  5  1  0  0  0
  5  6  1  0  0  0
  6  7  1  0  0  0
  7  8  1  0  0  0
  8  9  1  0  0  0
  9 10  1  0  0  0
 10 11  1  0  0  0
 11 12  1  0  0  0
 12 13  1  0  0  0
 13 14  1  0  0  0
 14 15  1  0  0  0
 15 16  2  0  0  0
 16 17  1  0  0  0
 17 18  1  0  0  0
  2 19  1  0  0  0
  4 20  1  0  0  0
  4 21  1  0  0  0
  5 22  1  0  0  0
  5 23  1  0  0  0
  6 24  1  0  0  0
  6 25  1  0  0  0
  7 26  1  0  0  0
  7 27  1  0  0  0
  8 28  1  0  0  0
  8 29  1  0  0  0
  9 30  1  0  0  0
  9 31  1  0  0  0
 10 32  1  0  0  0
 10 33  1  0  0  0
 11 34  1  0  0  0
 11 35  1  0  0  0
 12 36  1  0  0  0
 12 37  1  0  0  0
 13 38  1  0  0  0
 13 39  1  0  0  0
 14 40  1  0  0  0
 14 41  1  0  0  0
 15 42  1  0  0  0
 16 43  1  0  0  0
 17 44  1  0  0  0
 17 45  1  0  0  0
 18 46  1  0  0  0
 18 47  1  0  0  0
 18 48  1  0  0  0
M  END
$$$$
