4cd1_ligand
  -I-interpret- 

 45 48  0  0  0  0  0  0  0  0999 V2000
   28.1120   34.5550   26.0360 O   0  0  0  0  0
   29.1500   35.0860   25.6370 C   0  0  0  0  0
   29.1640   35.8640   24.3420 C   0  0  0  0  0
   28.0100   35.9830   23.5440 C   0  0  0  0  0
   28.0970   36.6940   22.3380 C   0  0  0  0  0
   29.3010   37.2780   21.8900 C   0  0  0  0  0
   30.4620   37.1830   22.6530 C   0  0  0  0  0
   30.4340   36.4810   23.8790 C   0  0  0  0  0
   31.6580   36.3350   24.7160 C   0  0  0  0  0
   32.7260   36.8540   24.3630 O   0  0  0  0  0
   30.3710   34.9550   26.4850 C   0  0  0  0  0
   31.6220   35.5900   26.0060 C   0  0  0  0  0
   32.8190   35.4580   26.8600 C   0  0  0  0  0
   34.0070   35.9600   26.4810 N   0  0  0  0  0
   30.3470   34.1950   27.7910 C   0  0  0  0  0
   31.5210   34.1090   28.5400 C   0  0  0  0  0
   32.7570   34.6710   28.1400 C   0  0  0  0  0
   34.1080   34.5660   29.0680 S   0  0  0  0  0
   35.1870   33.8230   28.4050 O   0  0  0  0  0
   33.6960   33.8710   30.3600 O   0  0  0  0  0
   34.5820   35.9090   29.4110 O   0  0  0  0  0
   29.1430   33.6470   28.1270 N   0  0  0  0  0
   28.9350   32.8450   29.2150 C   0  0  0  0  0
   27.7360   33.0250   29.9240 C   0  0  0  0  0
   27.3770   32.2560   31.0580 C   0  0  0  0  0
   28.3080   31.3160   31.4550 C   0  0  0  0  0
   29.4880   31.1310   30.7770 C   0  0  0  0  0
   30.4260   30.1010   31.2730 C   0  0  0  0  0
   29.8430   31.8580   29.6180 C   0  0  0  0  0
   27.0684   35.5319   23.8570 H   0  0  0  0  0
   27.2021   36.7992   21.7246 H   0  0  0  0  0
   29.3224   37.8083   20.9380 H   0  0  0  0  0
   31.3857   37.6468   22.3070 H   0  0  0  0  0
   34.0945   36.4438   25.5873 H   0  0  0  0  0
   34.8209   35.8571   27.0871 H   0  0  0  0  0
   31.4841   33.5769   29.4906 H   0  0  0  0  0
   32.9909   34.3695   30.7794 H   0  0  0  0  0
   28.3442   33.8494   27.5259 H   0  0  0  0  0
   27.0457   33.7969   29.5838 H   0  0  0  0  0
   26.4312   32.3963   31.5813 H   0  0  0  0  0
   28.1001   30.7031   32.3321 H   0  0  0  0  0
   30.7227   30.3428   32.2936 H   0  0  0  0  0
   29.9363   29.1273   31.2566 H   0  0  0  0  0
   31.3080   30.0763   30.6331 H   0  0  0  0  0
   30.7659   31.6626   29.0720 H   0  0  0  0  0
  1  2  2  0  0  0
  2  3  1  0  0  0
  2 11  1  0  0  0
  3  4  4  0  0  0
  3  8  4  0  0  0
  4  5  4  0  0  0
  5  6  4  0  0  0
  6  7  4  0  0  0
  7  8  4  0  0  0
  8  9  1  0  0  0
  9 10  2  0  0  0
  9 12  1  0  0  0
 11 12  4  0  0  0
 11 15  4  0  0  0
 12 13  4  0  0  0
 13 14  1  0  0  0
 13 17  4  0  0  0
 15 16  4  0  0  0
 15 22  1  0  0  0
 16 17  4  0  0  0
 17 18  1  0  0  0
 18 19  2  0  0  0
 18 20  1  0  0  0
 18 21  2  0  0  0
 22 23  1  0  0  0
 23 24  4  0  0  0
 23 29  4  0  0  0
 24 25  4  0  0  0
 25 26  4  0  0  0
 26 27  4  0  0  0
 27 28  1  0  0  0
 27 29  4  0  0  0
  4 30  1  0  0  0
  5 31  1  0  0  0
  6 32  1  0  0  0
  7 33  1  0  0  0
 14 34  1  0  0  0
 14 35  1  0  0  0
 16 36  1  0  0  0
 20 37  1  0  0  0
 22 38  1  0  0  0
 24 39  1  0  0  0
 25 40  1  0  0  0
 26 41  1  0  0  0
 28 42  1  0  0  0
 28 43  1  0  0  0
 28 44  1  0  0  0
 29 45  1  0  0  0
M  END
$$$$
