4zyy_ligand
  -I-interpret- 

 53 55  0  0  0  0  0  0  0  0999 V2000
   25.6940  -10.7300   26.8370 N   0  0  0  0  0
   24.5990  -10.8590   26.0900 C   0  0  0  0  0
   23.9760  -12.0470   25.9960 N   0  0  0  0  0
   24.4180  -13.1390   26.6640 C   0  0  0  0  0
   27.2390  -11.8710   28.3160 N   0  0  0  0  0
   27.3530  -13.1150   28.7880 C   0  0  0  0  0
   26.3150  -13.8870   28.2700 C   0  0  0  0  0
   25.5600  -13.0240   27.4510 C   0  0  0  0  0
   26.1820  -11.7740   27.5230 C   0  0  0  0  0
   23.8120  -14.1970   26.5550 O   0  0  0  0  0
   24.0920   -9.7330   25.3720 N   0  0  0  0  0
   26.3990  -11.0470   33.9710 C   0  0  0  0  0
   25.3940  -10.1610   34.4150 C   0  0  0  0  0
   24.1150  -10.6340   34.3740 C   0  0  0  0  0
   24.2370  -12.2210   33.7520 S   0  0  0  0  0
   25.9310  -12.2580   33.5740 C   0  0  0  0  0
   25.7210   -8.8320   34.8610 C   0  0  0  0  0
   24.8620   -8.1400   35.3870 O   0  0  0  0  0
   27.0510   -8.3350   34.6490 N   0  0  0  0  0
   27.4530   -7.0990   35.0180 C   0  0  0  0  0
   28.8150   -7.1470   35.4020 C   0  0  0  0  0
   28.9530   -7.3520   36.8710 C   0  0  0  0  0
   30.3210   -7.8720   37.1620 C   0  0  0  0  0
   31.3360   -7.2460   36.7480 O   0  0  0  0  0
   30.4590   -8.9400   37.8190 O   0  0  0  0  0
   27.3360   -6.1980   33.9340 C   0  0  0  0  0
   26.8700   -5.0450   34.1330 O   0  0  0  0  0
   27.6990   -6.5250   32.7670 O   0  0  0  0  0
   28.4200  -13.5860   29.7070 C   0  0  0  0  0
   27.7840  -14.0720   30.9650 C   0  0  0  0  0
   27.3550  -12.8980   31.7680 C   0  0  0  0  0
   26.7610  -13.3750   33.0510 C   0  0  0  0  0
   26.1666   -9.8275   26.8879 H   0  0  0  0  0
   26.1256  -14.9435   28.4597 H   0  0  0  0  0
   23.2599   -9.8316   24.7903 H   0  0  0  0  0
   27.4562  -10.7826   33.9488 H   0  0  0  0  0
   23.2074  -10.1105   34.6744 H   0  0  0  0  0
   27.7287   -8.9477   34.1956 H   0  0  0  0  0
   26.8270   -6.7635   35.8449 H   0  0  0  0  0
   29.2850   -6.1999   35.1370 H   0  0  0  0  0
   29.2925   -7.9810   34.8877 H   0  0  0  0  0
   28.2066   -8.0684   37.2141 H   0  0  0  0  0
   28.8011   -6.4057   37.3902 H   0  0  0  0  0
   31.0544   -6.4622   36.2706 H   0  0  0  0  0
   28.0290   -7.4264   32.7765 H   0  0  0  0  0
   29.1056  -12.7684   29.9296 H   0  0  0  0  0
   28.9825  -14.3941   29.2394 H   0  0  0  0  0
   28.4977  -14.6681   31.5337 H   0  0  0  0  0
   26.9201  -14.6926   30.7267 H   0  0  0  0  0
   26.6138  -12.3242   31.2117 H   0  0  0  0  0
   28.2153  -12.2620   31.9763 H   0  0  0  0  0
   26.1571  -14.2685   32.8927 H   0  0  0  0  0
   27.5395  -13.6489   33.7631 H   0  0  0  0  0
  1  2  1  0  0  0
  9  1  1  0  0  0
  3  2  4  0  0  0
  2 11  2  0  0  0
  4  3  1  0  0  0
  8  4  1  0  0  0
  4 10  2  0  0  0
  6  5  4  0  0  0
  5  9  4  0  0  0
  6  7  4  0  0  0
 29  6  1  0  0  0
  7  8  4  0  0  0
  8  9  4  0  0  0
 12 13  4  0  0  0
 16 12  4  0  0  0
 14 13  4  0  0  0
 13 17  1  0  0  0
 15 14  4  0  0  0
 16 15  4  0  0  0
 32 16  1  0  0  0
 17 18  2  0  0  0
 17 19  1  0  0  0
 19 20  1  0  0  0
 20 21  1  0  0  0
 20 26  1  0  0  0
 21 22  1  0  0  0
 22 23  1  0  0  0
 23 24  1  0  0  0
 23 25  2  0  0  0
 26 27  2  0  0  0
 26 28  1  0  0  0
 30 29  1  0  0  0
 31 30  1  0  0  0
 31 32  1  0  0  0
  1 33  1  0  0  0
  7 34  1  0  0  0
 11 35  1  0  0  0
 12 36  1  0  0  0
 14 37  1  0  0  0
 19 38  1  0  0  0
 20 39  1  0  0  0
 21 40  1  0  0  0
 21 41  1  0  0  0
 22 42  1  0  0  0
 22 43  1  0  0  0
 24 44  1  0  0  0
 28 45  1  0  0  0
 29 46  1  0  0  0
 29 47  1  0  0  0
 30 48  1  0  0  0
 30 49  1  0  0  0
 31 50  1  0  0  0
 31 51  1  0  0  0
 32 52  1  0  0  0
 32 53  1  0  0  0
M  END
$$$$
