3zyr_ligand
  -I-interpret- 

189195  0  0  0  0  0  0  0  0999 V2000
   50.5790   19.9520   41.0910 N   0  3  0  0  0
   49.6800   19.5690   39.9900 C   0  0  0  0  0
   48.6510   20.6600   39.6480 C   0  0  0  0  0
   48.5800   21.6660   40.3470 O   0  0  0  0  0
   48.9200   18.2950   40.3710 C   0  0  0  0  0
   47.9190   18.5270   41.5070 C   0  0  0  0  0
   48.1340   19.3730   42.3820 O   0  0  0  0  0
   46.8150   17.7770   41.4990 N   0  0  0  0  0
   47.8220   20.5310   38.7210 O   0  0  0  0  0
   45.8350   17.9820   42.5560 C   0  0  0  0  0
   44.4570   18.0020   41.9060 C   0  0  0  0  0
   43.3340   17.8660   42.9220 C   0  0  0  0  0
   43.5830   16.7170   43.8970 C   0  0  0  0  0
   44.9340   16.9680   44.5470 C   0  0  0  0  0
   45.2770   15.8580   45.5450 C   0  0  0  0  0
   44.2270   19.2890   39.8330 C   0  0  0  0  0
   43.9560   20.6470   39.2340 C   0  0  0  0  0
   44.2140   19.2530   41.1650 N   0  0  0  0  0
   42.1460   17.6510   42.2100 O   0  0  0  0  0
   42.5250   16.7470   44.8560 O   0  0  0  0  0
   45.9540   16.9670   43.5580 O   0  0  0  0  0
   45.3030   14.6360   44.8390 O   0  0  0  0  0
   44.4810   18.3110   39.1170 O   0  0  0  0  0
   41.9020   15.4670   45.0340 C   0  0  0  0  0
   40.9730   15.6630   46.2290 C   0  0  0  0  0
   40.1930   14.3620   46.4840 C   0  0  0  0  0
   39.5790   13.8390   45.1900 C   0  0  0  0  0
   40.6120   13.7700   44.0420 C   0  0  0  0  0
   39.9990   13.3470   42.7270 C   0  0  0  0  0
   41.5520   17.2330   48.0200 C   0  0  0  0  0
   42.3060   17.4650   49.2980 C   0  0  0  0  0
   41.6840   16.0420   47.4390 N   0  0  0  0  0
   39.2000   14.6360   47.4960 O   0  0  0  0  0
   39.0630   12.5080   45.3670 O   0  0  0  0  0
   41.2060   15.0480   43.8790 O   0  0  0  0  0
   38.9780   14.2470   42.3720 O   0  0  0  0  0
   40.8330   18.1370   47.5660 O   0  0  0  0  0
   37.6360   12.4520   45.3390 C   0  0  0  0  0
   37.1500   11.0140   45.2250 C   0  0  0  0  0
   35.6220   11.0600   45.2680 C   0  0  0  0  0
   35.1120   11.8670   46.4750 C   0  0  0  0  0
   35.7510   13.2730   46.5100 C   0  0  0  0  0
   35.3300   14.0480   47.7590 C   0  0  0  0  0
   37.7450   10.1700   46.2400 O   0  0  0  0  0
   35.1230    9.7390   45.2710 O   0  0  0  0  0
   33.7020   11.8940   46.4030 O   0  0  0  0  0
   37.1710   13.1090   46.4990 O   0  0  0  0  0
   35.7910   13.3610   48.9240 O   0  0  0  0  0
   34.4610    9.3470   44.0350 C   0  0  0  0  0
   33.6630    8.0640   44.2760 C   0  0  0  0  0
   34.6180    6.9050   44.5040 C   0  0  0  0  0
   35.5850    6.8290   43.3180 C   0  0  0  0  0
   36.2970    8.1590   43.1020 C   0  0  0  0  0
   37.1270    8.1190   41.8330 C   0  0  0  0  0
   32.8650    7.7610   43.1390 O   0  0  0  0  0
   33.8610    5.7000   44.6210 O   0  0  0  0  0
   36.5630    5.8280   43.5420 O   0  0  0  0  0
   35.3450    9.1870   42.9490 O   0  0  0  0  0
   37.9210    9.2950   41.7320 O   0  0  0  0  0
   31.5650    8.3600   43.1220 C   0  0  0  0  0
   31.2060    8.4370   41.6360 C   0  0  0  0  0
   29.8100    9.0040   41.5220 C   0  0  0  0  0
   28.8450    8.1500   42.3490 C   0  0  0  0  0
   29.3100    8.0830   43.8010 C   0  0  0  0  0
   28.3590    7.2430   44.6640 C   0  0  0  0  0
   33.2130    8.8800   40.2590 C   0  0  0  0  0
   34.1380    9.9510   39.7610 C   0  0  0  0  0
   32.2020    9.3070   41.0070 N   0  0  0  0  0
   29.4320    8.9380   40.1650 O   0  0  0  0  0
   27.5840    8.7660   42.3430 O   0  0  0  0  0
   30.6520    7.5880   43.8400 O   0  0  0  0  0
   28.2710    5.9160   44.1980 O   0  0  0  0  0
   33.4180    7.6920   39.9860 O   0  0  0  0  0
   34.9280   13.6710   50.0380 C   0  0  0  0  0
   35.8020   13.6870   51.3050 C   0  0  0  0  0
   36.1960   12.2800   51.7200 C   0  0  0  0  0
   34.9920   11.3760   51.7770 C   0  0  0  0  0
   34.3010   11.4130   50.4210 C   0  0  0  0  0
   33.0960   10.4910   50.4030 C   0  0  0  0  0
   34.9990   14.3060   52.2720 O   0  0  0  0  0
   36.8830   12.3530   52.9720 O   0  0  0  0  0
   35.4580   10.0690   52.0280 O   0  0  0  0  0
   33.8470   12.7470   50.1450 O   0  0  0  0  0
   32.0850   10.9120   51.3170 O   0  0  0  0  0
   35.5610   15.4680   52.9180 C   0  0  0  0  0
   34.4570   16.3520   53.4660 C   0  0  0  0  0
   35.1000   17.5250   54.2090 C   0  0  0  0  0
   36.1570   17.0860   55.2060 C   0  0  0  0  0
   37.1530   16.1100   54.5910 C   0  0  0  0  0
   38.1020   15.4410   55.5790 C   0  0  0  0  0
   32.2790   16.9780   52.5200 C   0  0  0  0  0
   31.5300   17.5050   51.3240 C   0  0  0  0  0
   33.5910   16.8510   52.3870 N   0  0  0  0  0
   34.1000   18.3240   54.8460 O   0  0  0  0  0
   36.8530   18.1950   55.8030 O   0  0  0  0  0
   36.4660   15.0730   53.8990 O   0  0  0  0  0
   39.1460   14.7920   54.8880 O   0  0  0  0  0
   31.6930   16.7110   53.5820 O   0  0  0  0  0
   51.0845   20.8005   40.8361 H   0  0  0  0  0
   50.0296   20.1222   41.9334 H   0  0  0  0  0
   51.2436   19.1978   41.2637 H   0  0  0  0  0
   50.3081   19.4131   39.1129 H   0  0  0  0  0
   49.6479   17.5576   40.7094 H   0  0  0  0  0
   48.3636   17.9607   39.4954 H   0  0  0  0  0
   46.6619   17.0786   40.7715 H   0  0  0  0  0
   47.9883   19.7073   38.2568 H   0  0  0  0  0
   46.0027   18.9294   43.0683 H   0  0  0  0  0
   44.4559   17.1482   41.2284 H   0  0  0  0  0
   43.2739   18.7748   43.5208 H   0  0  0  0  0
   43.5987   15.7387   43.4167 H   0  0  0  0  0
   44.8766   17.9297   45.0568 H   0  0  0  0  0
   44.5319   15.8201   46.3397 H   0  0  0  0  0
   46.2461   16.0495   46.0057 H   0  0  0  0  0
   44.8264   20.9714   38.6637 H   0  0  0  0  0
   43.0902   20.5856   38.5746 H   0  0  0  0  0
   43.7563   21.3616   40.0325 H   0  0  0  0  0
   44.0315   20.1117   41.6844 H   0  0  0  0  0
   41.4162   17.5609   42.8272 H   0  0  0  0  0
   45.5165   13.9223   45.4446 H   0  0  0  0  0
   42.6313   14.6758   45.2078 H   0  0  0  0  0
   40.2959   16.4808   45.9824 H   0  0  0  0  0
   40.8565   13.5742   46.8408 H   0  0  0  0  0
   38.7837   14.5391   44.9342 H   0  0  0  0  0
   41.3521   13.0181   44.3158 H   0  0  0  0  0
   39.5806   12.3456   42.8276 H   0  0  0  0  0
   40.7665   13.3459   41.9530 H   0  0  0  0  0
   42.9818   18.3108   49.1713 H   0  0  0  0  0
   41.6005   17.6791   50.1008 H   0  0  0  0  0
   42.8810   16.5729   49.5462 H   0  0  0  0  0
   42.3149   15.3624   47.8638 H   0  0  0  0  0
   38.6977   13.8376   47.6743 H   0  0  0  0  0
   38.5904   13.9761   41.5366 H   0  0  0  0  0
   37.2342   12.9567   44.4604 H   0  0  0  0  0
   37.4639   10.5566   44.2867 H   0  0  0  0  0
   35.2543   11.5760   44.3811 H   0  0  0  0  0
   35.4051   11.3988   47.4147 H   0  0  0  0  0
   35.4158   13.8435   45.6438 H   0  0  0  0  0
   34.2432   14.1255   47.7892 H   0  0  0  0  0
   35.7650   15.0470   47.7304 H   0  0  0  0  0
   37.4185    9.2728   46.1402 H   0  0  0  0  0
   33.3543   12.3926   47.1460 H   0  0  0  0  0
   33.7929   10.1611   43.7537 H   0  0  0  0  0
   33.0265    8.2127   45.1483 H   0  0  0  0  0
   35.1918    7.0469   45.4198 H   0  0  0  0  0
   34.9961    6.5872   42.4332 H   0  0  0  0  0
   36.9369    8.3414   43.9654 H   0  0  0  0  0
   36.4616    8.0612   40.9716 H   0  0  0  0  0
   37.7804    7.2470   41.8599 H   0  0  0  0  0
   34.4572    4.9616   44.7654 H   0  0  0  0  0
   37.1606    5.7924   42.7915 H   0  0  0  0  0
   38.4419    9.2598   40.9264 H   0  0  0  0  0
   31.5448    9.3418   43.5951 H   0  0  0  0  0
   31.2157    7.4648   41.1432 H   0  0  0  0  0
   29.7832   10.0312   41.8855 H   0  0  0  0  0
   28.8067    7.1483   41.9210 H   0  0  0  0  0
   29.2941    9.0857   44.2281 H   0  0  0  0  0
   27.3662    7.6907   44.6180 H   0  0  0  0  0
   28.7443    7.2251   45.6835 H   0  0  0  0  0
   35.1422    9.7688   40.1437 H   0  0  0  0  0
   34.1550    9.9368   38.6712 H   0  0  0  0  0
   33.7865   10.9228   40.1075 H   0  0  0  0  0
   32.1130   10.3124   41.1538 H   0  0  0  0  0
   28.5459    9.2930   40.0632 H   0  0  0  0  0
   26.9693    8.2392   42.8590 H   0  0  0  0  0
   27.6699    5.4203   44.7589 H   0  0  0  0  0
   34.4616   14.6456   49.8939 H   0  0  0  0  0
   36.7434   14.2155   51.1552 H   0  0  0  0  0
   36.8653   11.8431   50.9789 H   0  0  0  0  0
   34.2934   11.6888   52.5530 H   0  0  0  0  0
   35.0199   11.0876   49.6690 H   0  0  0  0  0
   33.4259    9.4943   50.6962 H   0  0  0  0  0
   32.6730   10.5036   49.3985 H   0  0  0  0  0
   37.1386   11.4696   53.2474 H   0  0  0  0  0
   34.7115    9.4669   52.0702 H   0  0  0  0  0
   31.3433   10.3040   51.2744 H   0  0  0  0  0
   36.1110   16.0639   52.1896 H   0  0  0  0  0
   33.8341   15.7694   54.1447 H   0  0  0  0  0
   35.6137   18.1281   53.4604 H   0  0  0  0  0
   35.6154   16.5705   55.9991 H   0  0  0  0  0
   37.7563   16.7289   53.9269 H   0  0  0  0  0
   37.5489   14.7052   56.1627 H   0  0  0  0  0
   38.5267   16.2002   56.2358 H   0  0  0  0  0
   30.7769   16.7783   51.0194 H   0  0  0  0  0
   31.0446   18.4451   51.5862 H   0  0  0  0  0
   32.2285   17.6716   50.5040 H   0  0  0  0  0
   34.0189   17.1104   51.4982 H   0  0  0  0  0
   34.5206   19.0539   55.3065 H   0  0  0  0  0
   37.5074   17.8644   56.4228 H   0  0  0  0  0
   39.7360   14.3752   55.5202 H   0  0  0  0  0
  2  1  1  0  0  0
  2  3  1  0  0  0
  5  2  1  0  0  0
  3  4  2  0  0  0
  3  9  1  0  0  0
  6  5  1  0  0  0
  6  7  2  0  0  0
  8  6  1  0  0  0
 10  8  1  0  0  0
 11 10  1  0  0  0
 21 10  1  0  0  0
 12 11  1  0  0  0
 11 18  1  0  0  0
 13 12  1  0  0  0
 12 19  1  0  0  0
 13 14  1  0  0  0
 20 13  1  0  0  0
 14 15  1  0  0  0
 14 21  1  0  0  0
 15 22  1  0  0  0
 16 17  1  0  0  0
 18 16  1  0  0  0
 16 23  2  0  0  0
 24 20  1  0  0  0
 25 24  1  0  0  0
 35 24  1  0  0  0
 26 25  1  0  0  0
 25 32  1  0  0  0
 27 26  1  0  0  0
 26 33  1  0  0  0
 27 28  1  0  0  0
 34 27  1  0  0  0
 28 29  1  0  0  0
 28 35  1  0  0  0
 29 36  1  0  0  0
 30 31  1  0  0  0
 32 30  1  0  0  0
 30 37  2  0  0  0
 38 34  1  0  0  0
 38 39  1  0  0  0
 47 38  1  0  0  0
 40 39  1  0  0  0
 39 44  1  0  0  0
 41 40  1  0  0  0
 40 45  1  0  0  0
 42 41  1  0  0  0
 41 46  1  0  0  0
 43 42  1  0  0  0
 42 47  1  0  0  0
 48 43  1  0  0  0
 45 49  1  0  0  0
 74 48  1  0  0  0
 49 50  1  0  0  0
 49 58  1  0  0  0
 50 51  1  0  0  0
 50 55  1  0  0  0
 51 52  1  0  0  0
 51 56  1  0  0  0
 53 52  1  0  0  0
 52 57  1  0  0  0
 53 54  1  0  0  0
 58 53  1  0  0  0
 54 59  1  0  0  0
 55 60  1  0  0  0
 60 61  1  0  0  0
 60 71  1  0  0  0
 61 62  1  0  0  0
 61 68  1  0  0  0
 62 63  1  0  0  0
 62 69  1  0  0  0
 64 63  1  0  0  0
 63 70  1  0  0  0
 64 65  1  0  0  0
 71 64  1  0  0  0
 65 72  1  0  0  0
 66 67  1  0  0  0
 68 66  1  0  0  0
 66 73  2  0  0  0
 75 74  1  0  0  0
 74 83  1  0  0  0
 75 76  1  0  0  0
 80 75  1  0  0  0
 76 77  1  0  0  0
 76 81  1  0  0  0
 77 78  1  0  0  0
 77 82  1  0  0  0
 78 79  1  0  0  0
 83 78  1  0  0  0
 79 84  1  0  0  0
 85 80  1  0  0  0
 86 85  1  0  0  0
 85 96  1  0  0  0
 86 87  1  0  0  0
 93 86  1  0  0  0
 87 88  1  0  0  0
 87 94  1  0  0  0
 88 89  1  0  0  0
 88 95  1  0  0  0
 89 90  1  0  0  0
 96 89  1  0  0  0
 90 97  1  0  0  0
 91 92  1  0  0  0
 91 93  1  0  0  0
 91 98  2  0  0  0
  1 99  1  0  0  0
  1100  1  0  0  0
  1101  1  0  0  0
  2102  1  0  0  0
  5103  1  0  0  0
  5104  1  0  0  0
  8105  1  0  0  0
  9106  1  0  0  0
 10107  1  0  0  0
 11108  1  0  0  0
 12109  1  0  0  0
 13110  1  0  0  0
 14111  1  0  0  0
 15112  1  0  0  0
 15113  1  0  0  0
 17114  1  0  0  0
 17115  1  0  0  0
 17116  1  0  0  0
 18117  1  0  0  0
 19118  1  0  0  0
 22119  1  0  0  0
 24120  1  0  0  0
 25121  1  0  0  0
 26122  1  0  0  0
 27123  1  0  0  0
 28124  1  0  0  0
 29125  1  0  0  0
 29126  1  0  0  0
 31127  1  0  0  0
 31128  1  0  0  0
 31129  1  0  0  0
 32130  1  0  0  0
 33131  1  0  0  0
 36132  1  0  0  0
 38133  1  0  0  0
 39134  1  0  0  0
 40135  1  0  0  0
 41136  1  0  0  0
 42137  1  0  0  0
 43138  1  0  0  0
 43139  1  0  0  0
 44140  1  0  0  0
 46141  1  0  0  0
 49142  1  0  0  0
 50143  1  0  0  0
 51144  1  0  0  0
 52145  1  0  0  0
 53146  1  0  0  0
 54147  1  0  0  0
 54148  1  0  0  0
 56149  1  0  0  0
 57150  1  0  0  0
 59151  1  0  0  0
 60152  1  0  0  0
 61153  1  0  0  0
 62154  1  0  0  0
 63155  1  0  0  0
 64156  1  0  0  0
 65157  1  0  0  0
 65158  1  0  0  0
 67159  1  0  0  0
 67160  1  0  0  0
 67161  1  0  0  0
 68162  1  0  0  0
 69163  1  0  0  0
 70164  1  0  0  0
 72165  1  0  0  0
 74166  1  0  0  0
 75167  1  0  0  0
 76168  1  0  0  0
 77169  1  0  0  0
 78170  1  0  0  0
 79171  1  0  0  0
 79172  1  0  0  0
 81173  1  0  0  0
 82174  1  0  0  0
 84175  1  0  0  0
 85176  1  0  0  0
 86177  1  0  0  0
 87178  1  0  0  0
 88179  1  0  0  0
 89180  1  0  0  0
 90181  1  0  0  0
 90182  1  0  0  0
 92183  1  0  0  0
 92184  1  0  0  0
 92185  1  0  0  0
 93186  1  0  0  0
 94187  1  0  0  0
 95188  1  0  0  0
 97189  1  0  0  0
M  END
$$$$
