### 
### Created by X-TOOL on Mon Sep 10 21:13:08 2018
### 

@<TRIPOS>MOLECULE
3zyr_ligand
  188   194     1     0     0
SMALL
GAST_HUCK


@<TRIPOS>ATOM
      1 N          50.5790   19.9520   41.0910 N.4       1 ASN         0.2344
      2 CA         49.6800   19.5690   39.9900 C.3       1 ASN         0.0452
      3 C          48.6510   20.6600   39.6480 C.2       1 ASN         0.0869
      4 O          48.5800   21.6660   40.3470 O.co2     1 ASN        -0.5641
      5 CB         48.9200   18.2950   40.3710 C.3       1 ASN         0.0920
      6 CG         47.9190   18.5270   41.5070 C.2       1 ASN         0.1852
      7 OD1        48.1340   19.3730   42.3820 O.2       1 ASN        -0.3967
      8 ND2        46.8150   17.7770   41.4990 N.am      1 ASN        -0.2584
      9 OXT        47.8220   20.5310   38.7210 O.co2     1 ASN        -0.5641
     10 C1         45.8350   17.9820   42.5560 C.3       1 NAG         0.1689
     11 C2         44.4570   18.0020   41.9060 C.3       1 NAG         0.1176
     12 C3         43.3340   17.8660   42.9220 C.3       1 NAG         0.1111
     13 C4         43.5830   16.7170   43.8970 C.3       1 NAG         0.1181
     14 C5         44.9340   16.9680   44.5470 C.3       1 NAG         0.1131
     15 C6         45.2770   15.8580   45.5450 C.3       1 NAG         0.0730
     16 C7         44.2270   19.2890   39.8330 C.2       1 NAG         0.1733
     17 C8         43.9560   20.6470   39.2340 C.3       1 NAG         0.0257
     18 N2         44.2140   19.2530   41.1650 N.am      1 NAG        -0.2769
     19 O3         42.1460   17.6510   42.2100 O.3       1 NAG        -0.3867
     20 O4         42.5250   16.7470   44.8560 O.3       1 NAG        -0.3404
     21 O5         45.9540   16.9670   43.5580 O.3       1 NAG        -0.3439
     22 O6         45.3030   14.6360   44.8390 O.3       1 NAG        -0.3924
     23 O7         44.4810   18.3110   39.1170 O.2       1 NAG        -0.3974
     24 C1         41.9020   15.4670   45.0340 C.3       1 NAG         0.1854
     25 C2         40.9730   15.6630   46.2290 C.3       1 NAG         0.1210
     26 C3         40.1930   14.3620   46.4840 C.3       1 NAG         0.1114
     27 C4         39.5790   13.8390   45.1900 C.3       1 NAG         0.1181
     28 C5         40.6120   13.7700   44.0420 C.3       1 NAG         0.1134
     29 C6         39.9990   13.3470   42.7270 C.3       1 NAG         0.0730
     30 C7         41.5520   17.2330   48.0200 C.2       1 NAG         0.1733
     31 C8         42.3060   17.4650   49.2980 C.3       1 NAG         0.0257
     32 N2         41.6840   16.0420   47.4390 N.am      1 NAG        -0.2766
     33 O3         39.2000   14.6360   47.4960 O.3       1 NAG        -0.3867
     34 O4         39.0630   12.5080   45.3670 O.3       1 NAG        -0.3401
     35 O5         41.2060   15.0480   43.8790 O.3       1 NAG        -0.3408
     36 O6         38.9780   14.2470   42.3720 O.3       1 NAG        -0.3924
     37 O7         40.8330   18.1370   47.5660 O.2       1 NAG        -0.3974
     38 C1         37.6360   12.4520   45.3390 C.3       1 BMA         0.1884
     39 C2         37.1500   11.0140   45.2250 C.3       1 BMA         0.1345
     40 C3         35.6220   11.0600   45.2680 C.3       1 BMA         0.1206
     41 C4         35.1120   11.8670   46.4750 C.3       1 BMA         0.1123
     42 C5         35.7510   13.2730   46.5100 C.3       1 BMA         0.1134
     43 C6         35.3300   14.0480   47.7590 C.3       1 BMA         0.0796
     44 O2         37.7450   10.1700   46.2400 O.3       1 BMA        -0.3841
     45 O3         35.1230    9.7390   45.2710 O.3       1 BMA        -0.3400
     46 O4         33.7020   11.8940   46.4030 O.3       1 BMA        -0.3865
     47 O5         37.1710   13.1090   46.4990 O.3       1 BMA        -0.3405
     48 O6         35.7910   13.3610   48.9240 O.3       1 BMA        -0.3460
     49 C1         34.4610    9.3470   44.0350 C.3       1 MAN         0.1888
     50 C2         33.6630    8.0640   44.2760 C.3       1 MAN         0.1406
     51 C3         34.6180    6.9050   44.5040 C.3       1 MAN         0.1144
     52 C4         35.5850    6.8290   43.3180 C.3       1 MAN         0.1119
     53 C5         36.2970    8.1590   43.1020 C.3       1 MAN         0.1130
     54 C6         37.1270    8.1190   41.8330 C.3       1 MAN         0.0730
     55 O2         32.8650    7.7610   43.1390 O.3       1 MAN        -0.3380
     56 O3         33.8610    5.7000   44.6210 O.3       1 MAN        -0.3864
     57 O4         36.5630    5.8280   43.5420 O.3       1 MAN        -0.3865
     58 O5         35.3450    9.1870   42.9490 O.3       1 MAN        -0.3405
     59 O6         37.9210    9.2950   41.7320 O.3       1 MAN        -0.3924
     60 C1         31.5650    8.3600   43.1220 C.3       1 NAG         0.1855
     61 C2         31.2060    8.4370   41.6360 C.3       1 NAG         0.1210
     62 C3         29.8100    9.0040   41.5220 C.3       1 NAG         0.1111
     63 C4         28.8450    8.1500   42.3490 C.3       1 NAG         0.1116
     64 C5         29.3100    8.0830   43.8010 C.3       1 NAG         0.1130
     65 C6         28.3590    7.2430   44.6640 C.3       1 NAG         0.0730
     66 C7         33.2130    8.8800   40.2590 C.2       1 NAG         0.1733
     67 C8         34.1380    9.9510   39.7610 C.3       1 NAG         0.0257
     68 N2         32.2020    9.3070   41.0070 N.am      1 NAG        -0.2766
     69 O3         29.4320    8.9380   40.1650 O.3       1 NAG        -0.3867
     70 O4         27.5840    8.7660   42.3430 O.3       1 NAG        -0.3865
     71 O5         30.6520    7.5880   43.8400 O.3       1 NAG        -0.3408
     72 O6         28.2710    5.9160   44.1980 O.3       1 NAG        -0.3924
     73 O7         33.4180    7.6920   39.9860 O.2       1 NAG        -0.3974
     74 C1         34.9280   13.6710   50.0380 C.3       1 MAN         0.1884
     75 C2         35.8020   13.6870   51.3050 C.3       1 MAN         0.1406
     76 C3         36.1960   12.2800   51.7200 C.3       1 MAN         0.1144
     77 C4         34.9920   11.3760   51.7770 C.3       1 MAN         0.1119
     78 C5         34.3010   11.4130   50.4210 C.3       1 MAN         0.1130
     79 C6         33.0960   10.4910   50.4030 C.3       1 MAN         0.0730
     80 O2         34.9990   14.3060   52.2720 O.3       1 MAN        -0.3380
     81 O3         36.8830   12.3530   52.9720 O.3       1 MAN        -0.3864
     82 O4         35.4580   10.0690   52.0280 O.3       1 MAN        -0.3865
     83 O5         33.8470   12.7470   50.1450 O.3       1 MAN        -0.3405
     84 O6         32.0850   10.9120   51.3170 O.3       1 MAN        -0.3924
     85 C1         35.5610   15.4680   52.9180 C.3       1 NAG         0.1855
     86 C2         34.4570   16.3520   53.4660 C.3       1 NAG         0.1210
     87 C3         35.1000   17.5250   54.2090 C.3       1 NAG         0.1111
     88 C4         36.1570   17.0860   55.2060 C.3       1 NAG         0.1116
     89 C5         37.1530   16.1100   54.5910 C.3       1 NAG         0.1130
     90 C6         38.1020   15.4410   55.5790 C.3       1 NAG         0.0730
     91 C7         32.2790   16.9780   52.5200 C.2       1 NAG         0.1733
     92 C8         31.5300   17.5050   51.3240 C.3       1 NAG         0.0257
     93 N2         33.5910   16.8510   52.3870 N.am      1 NAG        -0.2766
     94 O3         34.1000   18.3240   54.8460 O.3       1 NAG        -0.3867
     95 O4         36.8530   18.1950   55.8030 O.3       1 NAG        -0.3865
     96 O5         36.4660   15.0730   53.8990 O.3       1 NAG        -0.3408
     97 O6         39.1460   14.7920   54.8880 O.3       1 NAG        -0.3924
     98 O7         31.6930   16.7110   53.5820 O.2       1 NAG        -0.3974
     99 H1         51.2287   19.2025   41.2705 H         1 ASN         0.2012
    100 H2         50.0361   20.1320   41.9210 H         1 ASN         0.2012
    101 H3         51.0879   20.7837   40.8354 H         1 ASN         0.2012
    102 H4         50.2916   19.3728   39.0970 H         1 ASN         0.1051
    103 H5         49.6462   17.5332   40.6908 H         1 ASN         0.0578
    104 H6         48.3735   17.9327   39.4878 H         1 ASN         0.0578
    105 H7         46.6649   17.0923   40.7858 H         1 ASN         0.1877
    106 H8         46.0161   18.9569   43.0322 H         1 ASN         0.0893
    107 H9         44.4042   17.1566   41.2042 H         1 ASN         0.0630
    108 H10        43.2526   18.8008   43.4961 H         1 ASN         0.0645
    109 H11        43.5903   15.7499   43.3729 H         1 ASN         0.0650
    110 H12        44.9121   17.9389   45.0635 H         1 ASN         0.0647
    111 H13        44.5137   15.8170   46.3360 H         1 ASN         0.0584
    112 H14        46.2618   16.0509   45.9954 H         1 ASN         0.0584
    113 H15        43.9874   20.5766   38.1367 H         1 ASN         0.0467
    114 H16        44.7211   21.3587   39.5777 H         1 ASN         0.0467
    115 H17        42.9620   20.9958   39.5507 H         1 ASN         0.0467
    116 H18        44.0351   20.0949   41.6742 H         1 ASN         0.1856
    117 H19        41.4187   17.5970   42.8187 H         1 ASN         0.2100
    118 H20        45.5143   13.9298   45.4383 H         1 ASN         0.2095
    119 H21        42.6636   14.7100   45.2726 H         1 ASN         0.0935
    120 H22        40.2604   16.4642   45.9834 H         1 ASN         0.0633
    121 H23        40.8850   13.5977   46.8672 H         1 ASN         0.0645
    122 H24        38.7597   14.5126   44.8984 H         1 ASN         0.0650
    123 H25        41.3888   13.0408   44.3156 H         1 ASN         0.0647
    124 H26        39.5773   12.3361   42.8279 H         1 ASN         0.0584
    125 H27        40.7734   13.3450   41.9458 H         1 ASN         0.0584
    126 H28        42.1048   18.4831   49.6627 H         1 ASN         0.0467
    127 H29        43.3842   17.3478   49.1141 H         1 ASN         0.0467
    128 H30        41.9812   16.7342   50.0532 H         1 ASN         0.0467
    129 H31        42.3025   15.3757   47.8555 H         1 ASN         0.1857
    130 H32        39.6290   14.9581   48.2800 H         1 ASN         0.2100
    131 H33        39.3429   15.1198   42.2848 H         1 ASN         0.2095
    132 H34        37.2729   13.0004   44.4573 H         1 ASN         0.0938
    133 H35        37.4549   10.6140   44.2467 H         1 ASN         0.0671
    134 H36        35.2658   11.5608   44.3557 H         1 ASN         0.0651
    135 H37        35.4016   11.3453   47.3991 H         1 ASN         0.0647
    136 H38        35.4375   13.8364   45.6188 H         1 ASN         0.0647
    137 H39        34.2332   14.1263   47.7896 H         1 ASN         0.0587
    138 H40        35.7690   15.0562   47.7302 H         1 ASN         0.0587
    139 H41        38.6907   10.1902   46.1526 H         1 ASN         0.2101
    140 H42        33.3699   11.0041   46.3845 H         1 ASN         0.2100
    141 H43        33.7542   10.1463   43.7675 H         1 ASN         0.0938
    142 H44        33.0181    8.1949   45.1574 H         1 ASN         0.0675
    143 H45        35.1881    7.0685   45.4304 H         1 ASN         0.0648
    144 H46        35.0121    6.5781   42.4131 H         1 ASN         0.0647
    145 H47        36.9448    8.3709   43.9654 H         1 ASN         0.0647
    146 H48        36.4579    8.0557   40.9622 H         1 ASN         0.0584
    147 H49        37.7840    7.2371   41.8554 H         1 ASN         0.0584
    148 H50        33.3599    5.5637   43.8255 H         1 ASN         0.2100
    149 H51        36.1332    4.9918   43.6785 H         1 ASN         0.2100
    150 H52        37.3546   10.0574   41.7112 H         1 ASN         0.2095
    151 H53        31.6004    9.3692   43.5582 H         1 ASN         0.0935
    152 H54        31.2380    7.4382   41.1762 H         1 ASN         0.0633
    153 H55        29.7904   10.0454   41.8757 H         1 ASN         0.0645
    154 H56        28.7816    7.1376   41.9236 H         1 ASN         0.0647
    155 H57        29.3115    9.1050   44.2077 H         1 ASN         0.0647
    156 H58        27.3577    7.6976   44.6378 H         1 ASN         0.0584
    157 H59        28.7306    7.2338   45.6993 H         1 ASN         0.0584
    158 H60        34.9352    9.4946   39.1559 H         1 ASN         0.0467
    159 H61        34.5838   10.4779   40.6175 H         1 ASN         0.0467
    160 H62        33.5732   10.6657   39.1444 H         1 ASN         0.0467
    161 H63        32.1147   10.2927   41.1509 H         1 ASN         0.1857
    162 H64        28.5466    9.2682   40.0677 H         1 ASN         0.2100
    163 H65        26.9790    8.2514   42.8641 H         1 ASN         0.2100
    164 H66        27.9458    5.9159   43.3055 H         1 ASN         0.2095
    165 H67        34.5020   14.6741   49.8887 H         1 ASN         0.0938
    166 H68        36.7145   14.2767   51.1331 H         1 ASN         0.0675
    167 H69        36.8882   11.8727   50.9684 H         1 ASN         0.0648
    168 H70        34.2995   11.6980   52.5687 H         1 ASN         0.0647
    169 H71        35.0141   11.0974   49.6452 H         1 ASN         0.0647
    170 H72        33.4214    9.4765   50.6766 H         1 ASN         0.0584
    171 H73        32.6735   10.4792   49.3875 H         1 ASN         0.0584
    172 H74        37.6316   12.9318   52.8879 H         1 ASN         0.2100
    173 H75        34.7234    9.4668   52.0286 H         1 ASN         0.2100
    174 H76        32.4396   10.9194   52.1983 H         1 ASN         0.2095
    175 H77        36.1130   16.0489   52.1644 H         1 ASN         0.0935
    176 H78        33.8448   15.7682   54.1691 H         1 ASN         0.0633
    177 H79        35.6014   18.1528   53.4577 H         1 ASN         0.0645
    178 H80        35.6332   16.5556   56.0149 H         1 ASN         0.0647
    179 H81        37.7612   16.6758   53.8699 H         1 ASN         0.0647
    180 H82        37.5454   14.7018   56.1738 H         1 ASN         0.0584
    181 H83        38.5278   16.2039   56.2473 H         1 ASN         0.0584
    182 H84        30.4572   17.5634   51.5598 H         1 ASN         0.0467
    183 H85        31.6813   16.8290   50.4695 H         1 ASN         0.0467
    184 H86        31.9045   18.5074   51.0693 H         1 ASN         0.0467
    185 H87        34.0105   17.1053   51.5156 H         1 ASN         0.1857
    186 H88        33.4503   18.5869   54.2047 H         1 ASN         0.2100
    187 H89        37.3597   18.6449   55.1371 H         1 ASN         0.2100
    188 H90        38.7801   14.1315   54.3115 H         1 ASN         0.2095
@<TRIPOS>BOND
     1    2    1 1  
     2    2    3 1  
     3    5    2 1  
     4    3    4 ar 
     5    3    9 ar 
     6    6    5 1  
     7    6    7 2  
     8    8    6 am 
     9   10    8 1  
    10   11   10 1  
    11   21   10 1  
    12   12   11 1  
    13   11   18 1  
    14   13   12 1  
    15   12   19 1  
    16   13   14 1  
    17   20   13 1  
    18   14   15 1  
    19   14   21 1  
    20   15   22 1  
    21   16   17 1  
    22   18   16 am 
    23   16   23 2  
    24   24   20 1  
    25   25   24 1  
    26   35   24 1  
    27   26   25 1  
    28   25   32 1  
    29   27   26 1  
    30   26   33 1  
    31   27   28 1  
    32   34   27 1  
    33   28   29 1  
    34   28   35 1  
    35   29   36 1  
    36   30   31 1  
    37   32   30 am 
    38   30   37 2  
    39   38   34 1  
    40   38   39 1  
    41   47   38 1  
    42   40   39 1  
    43   39   44 1  
    44   41   40 1  
    45   40   45 1  
    46   42   41 1  
    47   41   46 1  
    48   43   42 1  
    49   42   47 1  
    50   48   43 1  
    51   45   49 1  
    52   74   48 1  
    53   49   50 1  
    54   49   58 1  
    55   50   51 1  
    56   50   55 1  
    57   51   52 1  
    58   51   56 1  
    59   53   52 1  
    60   52   57 1  
    61   53   54 1  
    62   58   53 1  
    63   54   59 1  
    64   55   60 1  
    65   60   61 1  
    66   60   71 1  
    67   61   62 1  
    68   61   68 1  
    69   62   63 1  
    70   62   69 1  
    71   64   63 1  
    72   63   70 1  
    73   64   65 1  
    74   71   64 1  
    75   65   72 1  
    76   66   67 1  
    77   68   66 am 
    78   66   73 2  
    79   75   74 1  
    80   74   83 1  
    81   75   76 1  
    82   80   75 1  
    83   76   77 1  
    84   76   81 1  
    85   77   78 1  
    86   77   82 1  
    87   78   79 1  
    88   83   78 1  
    89   79   84 1  
    90   85   80 1  
    91   86   85 1  
    92   85   96 1  
    93   86   87 1  
    94   93   86 1  
    95   87   88 1  
    96   87   94 1  
    97   88   89 1  
    98   88   95 1  
    99   89   90 1  
   100   96   89 1  
   101   90   97 1  
   102   91   92 1  
   103   91   93 am 
   104   91   98 2  
   105    1   99 1  
   106    1  100 1  
   107    1  101 1  
   108    2  102 1  
   109    5  103 1  
   110    5  104 1  
   111    8  105 1  
   112   10  106 1  
   113   11  107 1  
   114   12  108 1  
   115   13  109 1  
   116   14  110 1  
   117   15  111 1  
   118   15  112 1  
   119   17  113 1  
   120   17  114 1  
   121   17  115 1  
   122   18  116 1  
   123   19  117 1  
   124   22  118 1  
   125   24  119 1  
   126   25  120 1  
   127   26  121 1  
   128   27  122 1  
   129   28  123 1  
   130   29  124 1  
   131   29  125 1  
   132   31  126 1  
   133   31  127 1  
   134   31  128 1  
   135   32  129 1  
   136   33  130 1  
   137   36  131 1  
   138   38  132 1  
   139   39  133 1  
   140   40  134 1  
   141   41  135 1  
   142   42  136 1  
   143   43  137 1  
   144   43  138 1  
   145   44  139 1  
   146   46  140 1  
   147   49  141 1  
   148   50  142 1  
   149   51  143 1  
   150   52  144 1  
   151   53  145 1  
   152   54  146 1  
   153   54  147 1  
   154   56  148 1  
   155   57  149 1  
   156   59  150 1  
   157   60  151 1  
   158   61  152 1  
   159   62  153 1  
   160   63  154 1  
   161   64  155 1  
   162   65  156 1  
   163   65  157 1  
   164   67  158 1  
   165   67  159 1  
   166   67  160 1  
   167   68  161 1  
   168   69  162 1  
   169   70  163 1  
   170   72  164 1  
   171   74  165 1  
   172   75  166 1  
   173   76  167 1  
   174   77  168 1  
   175   78  169 1  
   176   79  170 1  
   177   79  171 1  
   178   81  172 1  
   179   82  173 1  
   180   84  174 1  
   181   85  175 1  
   182   86  176 1  
   183   87  177 1  
   184   88  178 1  
   185   89  179 1  
   186   90  180 1  
   187   90  181 1  
   188   92  182 1  
   189   92  183 1  
   190   92  184 1  
   191   93  185 1  
   192   94  186 1  
   193   95  187 1  
   194   97  188 1  
@<TRIPOS>SUBSTRUCTURE
     1 ASN         1

