### 
### Created by X-TOOL on Mon Sep 10 21:13:32 2018
### 

@<TRIPOS>MOLECULE
5jv1_ligand
   47    50     1     0     0
SMALL
GAST_HUCK


@<TRIPOS>ATOM
      1 CAP         3.2880   76.4610   28.2740 C.ar      1 YL6        -0.0453
      2 CAQ         2.6580   77.6930   28.3970 C.ar      1 YL6         0.0422
      3 CL          0.9720   77.6630   28.7660 Cl        1 YL6        -0.0768
      4 CAR         3.3710   78.8920   28.2360 C.ar      1 YL6        -0.0310
      5 CAW         2.7090   80.1160   28.3580 C.3       1 YL6        -0.0300
      6 CAS         4.7430   78.8250   27.9490 C.ar      1 YL6        -0.0587
      7 CAT         5.3900   77.5890   27.8240 C.ar      1 YL6        -0.0591
      8 CAO         4.6660   76.3780   27.9790 C.ar      1 YL6        -0.0122
      9 CAM         5.2740   75.1660   27.8310 C.2       1 YL6         0.0373
     10 SAN         6.7490   74.9540   26.9650 S.3       1 YL6        -0.0140
     11 CAL         4.8310   73.9380   28.2620 C.2       1 YL6        -0.0456
     12 C5          5.6350   72.8490   27.9730 C.ar      1 YL6         0.0469
     13 C6          6.7670   73.1890   27.2620 C.ar      1 YL6         0.1085
     14 N1          7.6750   72.2580   26.8720 N.ar      1 YL6        -0.2773
     15 C2          7.5080   70.9040   27.1830 C.ar      1 YL6         0.0586
     16 N3          6.3710   70.5740   27.9150 N.ar      1 YL6        -0.2639
     17 C4          5.4640   71.5250   28.2870 C.ar      1 YL6         0.1295
     18 NAB         4.3610   71.1530   29.0020 N.pl3     1 YL6        -0.2805
     19 CAC         4.1440   69.7230   29.3970 C.3       1 YL6         0.1217
     20 PAA         2.7280   69.1370   28.4570 P.3       1 YL6         0.0872
     21 OAD         3.6380   68.6430   27.1370 O.co2     1 YL6        -0.5606
     22 OAU         2.1010   68.0360   29.2600 O.co2     1 YL6        -0.5606
     23 OAE         1.8580   70.2990   28.0520 O.co2     1 YL6        -0.5606
     24 CAV         3.9740   69.4700   30.9330 C.3       1 YL6         0.0193
     25 CAX         4.9120   70.2600   31.5850 C.ar      1 YL6        -0.0413
     26 CAY         4.4810   71.2420   32.4830 C.ar      1 YL6        -0.0269
     27 CAZ         5.4280   72.0580   33.1230 C.ar      1 YL6         0.1258
     28 FBD         4.9880   72.9670   33.9940 F         1 YL6        -0.1853
     29 CBA         6.8060   71.9180   32.8770 C.ar      1 YL6        -0.0352
     30 CBB         7.2350   70.9560   31.9510 C.ar      1 YL6        -0.0704
     31 CBC         6.2950   70.1340   31.3090 C.ar      1 YL6        -0.0642
     32 H1          2.7137   75.5512   28.4063 H         1 YL6         0.0612
     33 H2          3.4242   80.9369   28.2010 H         1 YL6         0.0397
     34 H3          2.2720   80.1979   29.3641 H         1 YL6         0.0397
     35 H4          1.9096   80.1772   27.6049 H         1 YL6         0.0397
     36 H5          5.3089   79.7408   27.8225 H         1 YL6         0.0561
     37 H6          6.4516   77.5571   27.6073 H         1 YL6         0.0608
     38 H7          3.8932   73.8274   28.8044 H         1 YL6         0.0448
     39 H8          8.2249   70.1531   26.8709 H         1 YL6         0.1012
     40 H9          3.6683   71.8653   29.2737 H         1 YL6         0.1885
     41 H10         5.0292   69.1519   29.0805 H         1 YL6         0.0781
     42 H11         4.1505   68.4087   31.1621 H         1 YL6         0.0463
     43 H12         2.9589   69.7500   31.2511 H         1 YL6         0.0463
     44 H13         3.4237   71.3722   32.6835 H         1 YL6         0.0542
     45 H14         7.5244   72.5433   33.3946 H         1 YL6         0.0546
     46 H15         8.2909   70.8472   31.7312 H         1 YL6         0.0589
     47 H16         6.6324   69.3935   30.5929 H         1 YL6         0.0523
@<TRIPOS>BOND
     1    1    2 ar 
     2    1    8 ar 
     3    2    3 1  
     4    2    4 ar 
     5    4    5 1  
     6    4    6 ar 
     7    6    7 ar 
     8    7    8 ar 
     9    8    9 1  
    10    9   10 1  
    11    9   11 2  
    12   10   13 1  
    13   11   12 1  
    14   12   13 ar 
    15   12   17 ar 
    16   13   14 ar 
    17   14   15 ar 
    18   15   16 ar 
    19   16   17 ar 
    20   17   18 1  
    21   18   19 1  
    22   19   20 1  
    23   19   24 1  
    24   20   21 ar 
    25   20   22 ar 
    26   20   23 ar 
    27   24   25 1  
    28   25   26 ar 
    29   25   31 ar 
    30   26   27 ar 
    31   27   28 1  
    32   27   29 ar 
    33   29   30 ar 
    34   30   31 ar 
    35    1   32 1  
    36    5   33 1  
    37    5   34 1  
    38    5   35 1  
    39    6   36 1  
    40    7   37 1  
    41   11   38 1  
    42   15   39 1  
    43   18   40 1  
    44   19   41 1  
    45   24   42 1  
    46   24   43 1  
    47   26   44 1  
    48   29   45 1  
    49   30   46 1  
    50   31   47 1  
@<TRIPOS>SUBSTRUCTURE
     1 YL6         1

