5jv1_ligand
  -I-interpret- 

 49 52  0  0  0  0  0  0  0  0999 V2000
    3.2880   76.4610   28.2740 C   0  0  0  0  0
    2.6580   77.6930   28.3970 C   0  0  0  0  0
    0.9720   77.6630   28.7660 Cl  0  0  0  0  0
    3.3710   78.8920   28.2360 C   0  0  0  0  0
    2.7090   80.1160   28.3580 C   0  0  0  0  0
    4.7430   78.8250   27.9490 C   0  0  0  0  0
    5.3900   77.5890   27.8240 C   0  0  0  0  0
    4.6660   76.3780   27.9790 C   0  0  0  0  0
    5.2740   75.1660   27.8310 C   0  0  0  0  0
    6.7490   74.9540   26.9650 S   0  0  0  0  0
    4.8310   73.9380   28.2620 C   0  0  0  0  0
    5.6350   72.8490   27.9730 C   0  0  0  0  0
    6.7670   73.1890   27.2620 C   0  0  0  0  0
    7.6750   72.2580   26.8720 N   0  0  0  0  0
    7.5080   70.9040   27.1830 C   0  0  0  0  0
    6.3710   70.5740   27.9150 N   0  0  0  0  0
    5.4640   71.5250   28.2870 C   0  0  0  0  0
    4.3610   71.1530   29.0020 N   0  0  0  0  0
    4.1440   69.7230   29.3970 C   0  0  0  0  0
    2.7280   69.1370   28.4570 P   0  0  0  0  0
    3.6380   68.6430   27.1370 O   0  0  0  0  0
    2.1010   68.0360   29.2600 O   0  0  0  0  0
    1.8580   70.2990   28.0520 O   0  0  0  0  0
    3.9740   69.4700   30.9330 C   0  0  0  0  0
    4.9120   70.2600   31.5850 C   0  0  0  0  0
    4.4810   71.2420   32.4830 C   0  0  0  0  0
    5.4280   72.0580   33.1230 C   0  0  0  0  0
    4.9880   72.9670   33.9940 F   0  0  0  0  0
    6.8060   71.9180   32.8770 C   0  0  0  0  0
    7.2350   70.9560   31.9510 C   0  0  0  0  0
    6.2950   70.1340   31.3090 C   0  0  0  0  0
    2.7106   75.5461   28.4071 H   0  0  0  0  0
    1.9171   80.1753   27.6113 H   0  0  0  0  0
    2.2765   80.1959   29.3553 H   0  0  0  0  0
    3.4187   80.9285   28.2022 H   0  0  0  0  0
    5.3121   79.7459   27.8218 H   0  0  0  0  0
    6.4575   77.5569   27.6061 H   0  0  0  0  0
    3.8923   73.8273   28.8049 H   0  0  0  0  0
    8.2288   70.1490   26.8692 H   0  0  0  0  0
    3.6751   71.8583   29.2711 H   0  0  0  0  0
    5.0486   69.1618   29.1628 H   0  0  0  0  0
    3.9955   69.4136   26.6898 H   0  0  0  0  0
    2.3795   70.9269   27.5467 H   0  0  0  0  0
    4.1286   68.4170   31.1682 H   0  0  0  0  0
    2.9649   69.7269   31.2552 H   0  0  0  0  0
    3.4178   71.3730   32.6846 H   0  0  0  0  0
    7.5284   72.5468   33.3975 H   0  0  0  0  0
    8.2967   70.8466   31.7300 H   0  0  0  0  0
    6.6343   69.3894   30.5889 H   0  0  0  0  0
  1  2  4  0  0  0
  1  8  4  0  0  0
  2  3  1  0  0  0
  2  4  4  0  0  0
  4  5  1  0  0  0
  4  6  4  0  0  0
  6  7  4  0  0  0
  7  8  4  0  0  0
  8  9  1  0  0  0
  9 10  4  0  0  0
  9 11  4  0  0  0
 10 13  4  0  0  0
 11 12  4  0  0  0
 12 13  4  0  0  0
 12 17  4  0  0  0
 13 14  4  0  0  0
 14 15  4  0  0  0
 15 16  4  0  0  0
 16 17  4  0  0  0
 17 18  1  0  0  0
 18 19  1  0  0  0
 19 20  1  0  0  0
 19 24  1  0  0  0
 20 21  1  0  0  0
 20 22  2  0  0  0
 20 23  1  0  0  0
 24 25  1  0  0  0
 25 26  4  0  0  0
 25 31  4  0  0  0
 26 27  4  0  0  0
 27 28  1  0  0  0
 27 29  4  0  0  0
 29 30  4  0  0  0
 30 31  4  0  0  0
  1 32  1  0  0  0
  5 33  1  0  0  0
  5 34  1  0  0  0
  5 35  1  0  0  0
  6 36  1  0  0  0
  7 37  1  0  0  0
 11 38  1  0  0  0
 15 39  1  0  0  0
 18 40  1  0  0  0
 19 41  1  0  0  0
 21 42  1  0  0  0
 23 43  1  0  0  0
 24 44  1  0  0  0
 24 45  1  0  0  0
 26 46  1  0  0  0
 29 47  1  0  0  0
 30 48  1  0  0  0
 31 49  1  0  0  0
M  END
$$$$
