1hgj_ligand
  -I-interpret- 

 45 45  0  0  0  0  0  0  0  0999 V2000
   -7.6260   72.3680   28.8040 C   0  0  0  0  0
   -8.2630   73.6760   28.2840 C   0  0  0  0  0
   -8.0700   74.8110   29.3200 C   0  0  0  0  0
   -6.6270   75.2970   29.3750 C   0  0  0  0  0
   -6.1930   75.7220   27.9490 C   0  0  0  0  0
   -6.3400   74.5170   27.0180 C   0  0  0  0  0
   -5.9790   74.6750   25.5450 C   0  0  0  0  0
   -6.4190   73.4360   24.7480 C   0  0  0  0  0
   -6.0190   73.5480   23.2830 C   0  0  0  0  0
   -4.3420   77.2200   27.4080 C   0  0  0  0  0
   -2.9150   77.6600   27.7030 C   0  0  0  0  0
   -9.9920   72.4180   27.1150 C   0  0  0  0  0
   -4.8150   76.1660   28.0560 N   0  0  0  0  0
   -6.2100   72.1690   22.7750 N   0  3  0  0  0
   -7.8530   72.0310   29.9600 O   0  0  0  0  0
   -6.8960   71.6750   28.0820 O   0  0  0  0  0
   -9.6630   73.4300   28.0860 O   0  0  0  0  0
   -6.4270   76.3690   30.3050 O   0  0  0  0  0
   -7.6870   74.0810   27.0330 O   0  0  0  0  0
   -6.6310   75.8090   25.0200 O   0  0  0  0  0
   -5.8880   72.2380   25.2440 O   0  0  0  0  0
   -5.0290   77.7790   26.5580 O   0  0  0  0  0
   -8.3359   74.4229   30.3032 H   0  0  0  0  0
   -8.7006   75.6502   29.0265 H   0  0  0  0  0
   -6.0095   74.4739   29.7346 H   0  0  0  0  0
   -6.8031   76.5268   27.5390 H   0  0  0  0  0
   -5.6058   73.8245   27.4298 H   0  0  0  0  0
   -4.8982   74.7901   25.4625 H   0  0  0  0  0
   -7.5036   73.4075   24.8529 H   0  0  0  0  0
   -4.9984   73.9075   23.1515 H   0  0  0  0  0
   -6.6128   74.2829   22.7395 H   0  0  0  0  0
   -2.3129   77.5658   26.7993 H   0  0  0  0  0
   -2.9173   78.6989   28.0329 H   0  0  0  0  0
   -2.4965   77.0293   28.4873 H   0  0  0  0  0
   -9.5928   72.7059   26.1425 H   0  0  0  0  0
   -9.5559   71.4671   27.4211 H   0  0  0  0  0
  -11.0754   72.3179   27.0493 H   0  0  0  0  0
   -4.1810   75.6415   28.6587 H   0  0  0  0  0
   -5.9652   72.1355   21.7854 H   0  0  0  0  0
   -5.6104   71.5297   23.2966 H   0  0  0  0  0
   -7.1855   71.8960   22.8946 H   0  0  0  0  0
   -6.8261   72.0817   27.2152 H   0  0  0  0  0
   -6.7011   76.0868   31.1807 H   0  0  0  0  0
   -6.3618   76.5880   25.5122 H   0  0  0  0  0
   -6.1980   71.5053   24.7068 H   0  0  0  0  0
  2  1  1  0  0  0
  1 15  2  0  0  0
  1 16  1  0  0  0
  3  2  1  0  0  0
  2 17  1  0  0  0
 19  2  1  0  0  0
  4  3  1  0  0  0
  5  4  1  0  0  0
  4 18  1  0  0  0
  5  6  1  0  0  0
 13  5  1  0  0  0
  6  7  1  0  0  0
  6 19  1  0  0  0
  7  8  1  0  0  0
  7 20  1  0  0  0
  8  9  1  0  0  0
  8 21  1  0  0  0
  9 14  1  0  0  0
 10 11  1  0  0  0
 10 13  1  0  0  0
 10 22  2  0  0  0
 17 12  1  0  0  0
  3 23  1  0  0  0
  3 24  1  0  0  0
  4 25  1  0  0  0
  5 26  1  0  0  0
  6 27  1  0  0  0
  7 28  1  0  0  0
  8 29  1  0  0  0
  9 30  1  0  0  0
  9 31  1  0  0  0
 11 32  1  0  0  0
 11 33  1  0  0  0
 11 34  1  0  0  0
 12 35  1  0  0  0
 12 36  1  0  0  0
 12 37  1  0  0  0
 13 38  1  0  0  0
 14 39  1  0  0  0
 14 40  1  0  0  0
 14 41  1  0  0  0
 16 42  1  0  0  0
 18 43  1  0  0  0
 20 44  1  0  0  0
 21 45  1  0  0  0
M  END
$$$$
