1nu1_ligand
  -I-interpret- 

 46 47  0  0  0  0  0  0  0  0999 V2000
   59.3110   76.4610  147.5170 C   0  0  0  0  0
   60.7620   75.9820  147.4500 C   0  0  0  0  0
   60.9560   75.0150  146.2820 C   0  0  0  0  0
   61.7620   73.7850  146.7150 C   0  0  0  0  0
   62.6170   73.1830  145.5940 C   0  0  0  0  0
   62.4270   73.9180  144.2630 C   0  0  0  0  0
   61.9460   72.9500  143.1910 C   0  0  0  0  0
   63.0900   72.4960  142.2890 C   0  0  0  0  0
   63.3510   70.9970  142.3460 C   0  0  0  0  0
   62.6930   70.2290  141.2150 C   0  0  0  0  0
   63.4970   69.5480  140.3230 C   0  0  0  0  0
   62.9570   68.8460  139.2760 C   0  0  0  0  0
   63.6820   68.2710  138.4360 O   0  0  0  0  0
   61.5070   68.7850  139.1730 C   0  0  0  0  0
   60.8770   68.0780  138.1700 C   0  0  0  0  0
   59.5000   68.0810  138.1220 C   0  0  0  0  0
   58.7590   68.7380  139.0880 C   0  0  0  0  0
   59.3650   69.4230  140.1260 C   0  0  0  0  0
   60.7380   69.4790  140.1900 C   0  0  0  0  0
   61.3560   70.1790  141.1370 N   0  0  0  0  0
   60.6740   70.7700  141.9890 O   0  0  0  0  0
   59.0551   76.9717  146.5887 H   0  0  0  0  0
   58.6526   75.6033  147.6547 H   0  0  0  0  0
   59.1949   77.1481  148.3551 H   0  0  0  0  0
   61.0073   75.4674  148.3790 H   0  0  0  0  0
   61.4124   76.8447  147.3060 H   0  0  0  0  0
   61.5005   75.5286  145.4896 H   0  0  0  0  0
   59.9768   74.6865  145.9337 H   0  0  0  0  0
   61.0494   73.0216  147.0273 H   0  0  0  0  0
   62.4398   74.1018  147.5077 H   0  0  0  0  0
   62.3126   72.1456  145.4551 H   0  0  0  0  0
   63.6645   73.2695  145.8827 H   0  0  0  0  0
   63.3798   74.3476  143.9538 H   0  0  0  0  0
   61.6834   74.7043  144.3929 H   0  0  0  0  0
   61.2039   73.4588  142.5758 H   0  0  0  0  0
   61.5266   72.0724  143.6829 H   0  0  0  0  0
   63.9950   72.9991  142.6297 H   0  0  0  0  0
   62.8154   72.7417  141.2632 H   0  0  0  0  0
   62.9341   70.6257  143.2822 H   0  0  0  0  0
   64.4274   70.8470  142.2632 H   0  0  0  0  0
   64.5790   69.5686  140.4531 H   0  0  0  0  0
   63.1295   67.8353  137.7829 H   0  0  0  0  0
   61.4574   67.5275  137.4296 H   0  0  0  0  0
   58.9883   67.5594  137.3132 H   0  0  0  0  0
   57.6708   68.7154  139.0298 H   0  0  0  0  0
   58.7592   69.9145  140.8873 H   0  0  0  0  0
  1  2  1  0  0  0
  2  3  1  0  0  0
  3  4  1  0  0  0
  4  5  1  0  0  0
  5  6  1  0  0  0
  6  7  1  0  0  0
  7  8  1  0  0  0
  8  9  1  0  0  0
  9 10  1  0  0  0
 10 11  4  0  0  0
 10 20  4  0  0  0
 11 12  4  0  0  0
 12 13  1  0  0  0
 12 14  4  0  0  0
 14 15  4  0  0  0
 14 19  4  0  0  0
 15 16  4  0  0  0
 16 17  4  0  0  0
 17 18  4  0  0  0
 18 19  4  0  0  0
 19 20  4  0  0  0
 20 21  2  0  0  0
  1 22  1  0  0  0
  1 23  1  0  0  0
  1 24  1  0  0  0
  2 25  1  0  0  0
  2 26  1  0  0  0
  3 27  1  0  0  0
  3 28  1  0  0  0
  4 29  1  0  0  0
  4 30  1  0  0  0
  5 31  1  0  0  0
  5 32  1  0  0  0
  6 33  1  0  0  0
  6 34  1  0  0  0
  7 35  1  0  0  0
  7 36  1  0  0  0
  8 37  1  0  0  0
  8 38  1  0  0  0
  9 39  1  0  0  0
  9 40  1  0  0  0
 11 41  1  0  0  0
 13 42  1  0  0  0
 15 43  1  0  0  0
 16 44  1  0  0  0
 17 45  1  0  0  0
 18 46  1  0  0  0
M  END
$$$$
