### 
### Created by X-TOOL on Mon Sep 10 21:12:50 2018
### 

@<TRIPOS>MOLECULE
1nu1_ligand
   46    47     1     0     0
SMALL
GAST_HUCK


@<TRIPOS>ATOM
      1 C29        59.3110   76.4610  147.5170 C.3       1 QNO        -0.0653
      2 C28        60.7620   75.9820  147.4500 C.3       1 QNO        -0.0559
      3 C27        60.9560   75.0150  146.2820 C.3       1 QNO        -0.0533
      4 C26        61.7620   73.7850  146.7150 C.3       1 QNO        -0.0531
      5 C25        62.6170   73.1830  145.5940 C.3       1 QNO        -0.0531
      6 C24        62.4270   73.9180  144.2630 C.3       1 QNO        -0.0529
      7 C23        61.9460   72.9500  143.1910 C.3       1 QNO        -0.0506
      8 C22        63.0900   72.4960  142.2890 C.3       1 QNO        -0.0378
      9 C21        63.3510   70.9970  142.3460 C.3       1 QNO         0.0142
     10 C2         62.6930   70.2290  141.2150 C.ar      1 QNO         0.1101
     11 C3         63.4970   69.5480  140.3230 C.ar      1 QNO         0.0664
     12 C4         62.9570   68.8460  139.2760 C.ar      1 QNO         0.1884
     13 O41        63.6820   68.2710  138.4360 O.3       1 QNO        -0.2741
     14 C5         61.5070   68.7850  139.1730 C.ar      1 QNO         0.1130
     15 C51        60.8770   68.0780  138.1700 C.ar      1 QNO         0.0097
     16 C52        59.5000   68.0810  138.1220 C.ar      1 QNO        -0.0026
     17 C62        58.7590   68.7380  139.0880 C.ar      1 QNO        -0.0027
     18 C61        59.3650   69.4230  140.1260 C.ar      1 QNO         0.0160
     19 C6         60.7380   69.4790  140.1900 C.ar      1 QNO         0.1396
     20 N1         61.3560   70.1790  141.1370 N.ar      1 QNO        -0.1117
     21 OH         60.6740   70.7700  141.9890 O.2       1 QNO        -0.1622
     22 H1         59.1925   77.1546  148.3625 H         1 QNO         0.0230
     23 H2         58.6454   75.5963  147.6561 H         1 QNO         0.0230
     24 H3         59.0515   76.9767  146.5807 H         1 QNO         0.0230
     25 H4         61.0174   75.4700  148.3894 H         1 QNO         0.0263
     26 H5         61.4235   76.8503  147.3141 H         1 QNO         0.0263
     27 H6         61.4941   75.5311  145.4733 H         1 QNO         0.0265
     28 H7         59.9707   74.6892  145.9173 H         1 QNO         0.0265
     29 H8         61.0592   73.0155  147.0671 H         1 QNO         0.0265
     30 H9         62.4277   74.0787  147.5399 H         1 QNO         0.0265
     31 H10        62.3340   72.1285  145.4599 H         1 QNO         0.0265
     32 H11        63.6762   73.2443  145.8844 H         1 QNO         0.0265
     33 H12        63.3856   74.3582  143.9511 H         1 QNO         0.0265
     34 H13        61.6815   74.7165  144.3922 H         1 QNO         0.0265
     35 H14        61.1831   73.4493  142.5757 H         1 QNO         0.0267
     36 H15        61.5045   72.0683  143.6785 H         1 QNO         0.0267
     37 H16        64.0061   73.0207  142.5979 H         1 QNO         0.0295
     38 H17        62.8441   72.7672  141.2517 H         1 QNO         0.0295
     39 H18        62.9643   70.6115  143.3009 H         1 QNO         0.0502
     40 H19        64.4370   70.8297  142.2959 H         1 QNO         0.0502
     41 H20        64.5731   69.5685  140.4524 H         1 QNO         0.0916
     42 H21        64.2365   68.9117  138.0065 H         1 QNO         0.2860
     43 H22        61.4542   67.5305  137.4337 H         1 QNO         0.1066
     44 H23        58.9911   67.5623  137.3176 H         1 QNO         0.0924
     45 H24        57.6768   68.7155  139.0302 H         1 QNO         0.0858
     46 H25        58.7625   69.9118  140.8831 H         1 QNO         0.1086
@<TRIPOS>BOND
     1    1    2 1  
     2    2    3 1  
     3    3    4 1  
     4    4    5 1  
     5    5    6 1  
     6    6    7 1  
     7    7    8 1  
     8    8    9 1  
     9    9   10 1  
    10   10   11 ar 
    11   10   20 ar 
    12   11   12 ar 
    13   12   13 1  
    14   12   14 ar 
    15   14   15 ar 
    16   14   19 ar 
    17   15   16 ar 
    18   16   17 ar 
    19   17   18 ar 
    20   18   19 ar 
    21   19   20 ar 
    22   20   21 2  
    23    1   22 1  
    24    1   23 1  
    25    1   24 1  
    26    2   25 1  
    27    2   26 1  
    28    3   27 1  
    29    3   28 1  
    30    4   29 1  
    31    4   30 1  
    32    5   31 1  
    33    5   32 1  
    34    6   33 1  
    35    6   34 1  
    36    7   35 1  
    37    7   36 1  
    38    8   37 1  
    39    8   38 1  
    40    9   39 1  
    41    9   40 1  
    42   11   41 1  
    43   13   42 1  
    44   15   43 1  
    45   16   44 1  
    46   17   45 1  
    47   18   46 1  
@<TRIPOS>SUBSTRUCTURE
     1 QNO         1

