2e9c_ligand
  -I-interpret- 

 60 63  0  0  0  0  0  0  0  0999 V2000
    9.0560   39.6550   24.3760 C   0  0  0  0  0
    8.9990   40.9690   23.9250 C   0  0  0  0  0
    9.5000   41.2990   22.6710 C   0  0  0  0  0
    9.3840   42.6020   22.2010 C   0  0  0  0  0
    8.7740   43.5760   22.9820 C   0  0  0  0  0
    8.2750   43.2460   24.2380 C   0  0  0  0  0
    8.3880   41.9430   24.7040 C   0  0  0  0  0
    7.8440   41.6000   25.9380 C   0  0  0  0  0
    7.8950   40.2850   26.3850 C   0  0  0  0  0
    8.4890   39.3070   25.5970 C   0  0  0  0  0
    8.1500   37.6270   25.9470 S   0  0  0  0  0
    6.7630   37.3190   25.4680 O   0  0  0  0  0
    9.1420   36.7940   25.1890 O   0  0  0  0  0
    8.2700   37.2200   27.5220 N   0  0  0  0  0
    7.7890   36.0290   27.8720 C   0  0  0  0  0
    8.1250   35.4470   29.0890 C   0  0  0  0  0
    7.1530   35.2610   26.9020 C   0  0  0  0  0
    6.8380   33.9270   27.1260 C   0  0  0  0  0
    7.1900   33.3450   28.3380 C   0  0  0  0  0
    7.8490   34.1000   29.3010 C   0  0  0  0  0
    8.5160   33.3920   30.2930 C   0  0  0  0  0
    8.4970   32.0020   30.2480 C   0  0  0  0  0
    9.3480   34.0450   31.1940 C   0  0  0  0  0
   10.1700   33.3020   32.0350 C   0  0  0  0  0
   10.1590   31.9120   31.9810 C   0  0  0  0  0
    9.3190   31.2590   31.0850 C   0  0  0  0  0
    9.3110   29.7330   30.9770 C   0  0  0  0  0
    8.2290   29.1090   31.8620 C   0  0  0  0  0
    7.9480   27.3490   31.3160 P   0  0  0  0  0
    9.4020   26.6640   31.2310 O   0  0  0  0  0
    7.1570   26.6350   32.5210 O   0  0  0  0  0
    7.2060   27.2610   30.0410 O   0  0  0  0  0
    8.7620   29.1390   33.6500 P   0  0  0  0  0
   10.2900   28.6290   33.6740 O   0  0  0  0  0
    8.7720   30.6840   34.1020 O   0  0  0  0  0
    7.8810   28.3160   34.5080 O   0  0  0  0  0
    7.0010   29.8230   31.6950 O   0  0  0  0  0
    9.5474   38.8942   23.7696 H   0  0  0  0  0
    9.9826   40.5379   22.0578 H   0  0  0  0  0
    9.7730   42.8607   21.2162 H   0  0  0  0  0
    8.6866   44.5972   22.6111 H   0  0  0  0  0
    7.7970   44.0077   24.8540 H   0  0  0  0  0
    7.3760   42.3658   26.5566 H   0  0  0  0  0
    7.4693   40.0212   27.3531 H   0  0  0  0  0
    8.6931   37.8477   28.2057 H   0  0  0  0  0
    8.6003   36.0406   29.8699 H   0  0  0  0  0
    6.8963   35.7161   25.9454 H   0  0  0  0  0
    6.3222   33.3449   26.3623 H   0  0  0  0  0
    6.9500   32.2997   28.5327 H   0  0  0  0  0
    7.8321   31.4922   29.5507 H   0  0  0  0  0
    9.3566   35.1339   31.2416 H   0  0  0  0  0
   10.8264   33.8118   32.7402 H   0  0  0  0  0
   10.8079   31.3352   32.6401 H   0  0  0  0  0
   10.2811   29.3602   31.3057 H   0  0  0  0  0
    9.1057   29.4629   29.9411 H   0  0  0  0  0
    9.8433   26.7463   32.0796 H   0  0  0  0  0
    7.6692   26.7131   33.3292 H   0  0  0  0  0
   10.8225   29.1903   33.1056 H   0  0  0  0  0
    9.3532   31.1820   33.5225 H   0  0  0  0  0
    6.3249   29.4291   32.2512 H   0  0  0  0  0
  1  2  4  0  0  0
  1 10  4  0  0  0
  2  3  4  0  0  0
  2  7  4  0  0  0
  3  4  4  0  0  0
  4  5  4  0  0  0
  5  6  4  0  0  0
  6  7  4  0  0  0
  7  8  4  0  0  0
  8  9  4  0  0  0
  9 10  4  0  0  0
 10 11  1  0  0  0
 11 12  2  0  0  0
 11 13  2  0  0  0
 11 14  1  0  0  0
 14 15  1  0  0  0
 15 16  4  0  0  0
 15 17  4  0  0  0
 16 20  4  0  0  0
 17 18  4  0  0  0
 18 19  4  0  0  0
 19 20  4  0  0  0
 20 21  1  0  0  0
 21 22  4  0  0  0
 21 23  4  0  0  0
 22 26  4  0  0  0
 23 24  4  0  0  0
 24 25  4  0  0  0
 25 26  4  0  0  0
 26 27  1  0  0  0
 27 28  1  0  0  0
 28 29  1  0  0  0
 28 33  1  0  0  0
 28 37  1  0  0  0
 29 30  1  0  0  0
 29 31  1  0  0  0
 29 32  2  0  0  0
 33 34  1  0  0  0
 33 35  1  0  0  0
 33 36  2  0  0  0
  1 38  1  0  0  0
  3 39  1  0  0  0
  4 40  1  0  0  0
  5 41  1  0  0  0
  6 42  1  0  0  0
  8 43  1  0  0  0
  9 44  1  0  0  0
 14 45  1  0  0  0
 16 46  1  0  0  0
 17 47  1  0  0  0
 18 48  1  0  0  0
 19 49  1  0  0  0
 22 50  1  0  0  0
 23 51  1  0  0  0
 24 52  1  0  0  0
 25 53  1  0  0  0
 27 54  1  0  0  0
 27 55  1  0  0  0
 30 56  1  0  0  0
 31 57  1  0  0  0
 34 58  1  0  0  0
 35 59  1  0  0  0
 37 60  1  0  0  0
M  END
$$$$
