### 
### Created by X-TOOL on Mon Sep 10 21:12:56 2018
### 

@<TRIPOS>MOLECULE
2e9c_ligand
   56    59     1     0     0
SMALL
GAST_HUCK


@<TRIPOS>ATOM
      1 CAX         9.0560   39.6550   24.3760 C.ar      1 B75        -0.0268
      2 CBG         8.9990   40.9690   23.9250 C.ar      1 B75        -0.0160
      3 CAT         9.5000   41.2990   22.6710 C.ar      1 B75        -0.0540
      4 CAM         9.3840   42.6020   22.2010 C.ar      1 B75        -0.0612
      5 CAL         8.7740   43.5760   22.9820 C.ar      1 B75        -0.0612
      6 CAS         8.2750   43.2460   24.2380 C.ar      1 B75        -0.0540
      7 CBF         8.3880   41.9430   24.7040 C.ar      1 B75        -0.0178
      8 CAU         7.8440   41.6000   25.9380 C.ar      1 B75        -0.0522
      9 CAR         7.8950   40.2850   26.3850 C.ar      1 B75        -0.0340
     10 CBE         8.4890   39.3070   25.5970 C.ar      1 B75         0.1146
     11 SBK         8.1500   37.6270   25.9470 S.o2      1 B75         0.0894
     12 OAC         6.7630   37.3190   25.4680 O.2       1 B75        -0.1446
     13 OAD         9.1420   36.7940   25.1890 O.2       1 B75        -0.1446
     14 NAZ         8.2700   37.2200   27.5220 N.am      1 B75        -0.1872
     15 CBB         7.7890   36.0290   27.8720 C.ar      1 B75         0.0628
     16 CAW         8.1250   35.4470   29.0890 C.ar      1 B75        -0.0385
     17 CAO         7.1530   35.2610   26.9020 C.ar      1 B75        -0.0452
     18 CAK         6.8380   33.9270   27.1260 C.ar      1 B75        -0.0768
     19 CAQ         7.1900   33.3450   28.3380 C.ar      1 B75        -0.0713
     20 CBD         7.8490   34.1000   29.3010 C.ar      1 B75        -0.0358
     21 CBC         8.5160   33.3920   30.2930 C.ar      1 B75        -0.0289
     22 CAV         8.4970   32.0020   30.2480 C.ar      1 B75        -0.0530
     23 CAP         9.3480   34.0450   31.1940 C.ar      1 B75        -0.0611
     24 CAJ        10.1700   33.3020   32.0350 C.ar      1 B75        -0.0677
     25 CAN        10.1590   31.9120   31.9810 C.ar      1 B75        -0.0599
     26 CBA         9.3190   31.2590   31.0850 C.ar      1 B75        -0.0369
     27 CAY         9.3110   29.7330   30.9770 C.3       1 B75         0.0415
     28 CBH         8.2290   29.1090   31.8620 C.3       1 B75         0.2140
     29 PBI         7.9480   27.3490   31.3160 P.3       1 B75         0.1121
     30 OAF         9.4020   26.6640   31.2310 O.co2     1 B75        -0.5593
     31 OAG         7.1570   26.6350   32.5210 O.co2     1 B75        -0.5593
     32 OAA         7.2060   27.2610   30.0410 O.co2     1 B75        -0.5593
     33 PBJ         8.7620   29.1390   33.6500 P.3       1 B75         0.1121
     34 OAH        10.2900   28.6290   33.6740 O.co2     1 B75        -0.5593
     35 OAI         8.7720   30.6840   34.1020 O.co2     1 B75        -0.5593
     36 OAB         7.8810   28.3160   34.5080 O.co2     1 B75        -0.5593
     37 OAE         7.0010   29.8230   31.6950 O.3       1 B75        -0.3579
     38 H1          9.5447   38.8984   23.7729 H         1 B75         0.0643
     39 H2          9.9799   40.5421   22.0612 H         1 B75         0.0624
     40 H3          9.7708   42.8592   21.2216 H         1 B75         0.0618
     41 H4          8.6871   44.5916   22.6131 H         1 B75         0.0618
     42 H5          7.7997   44.0035   24.8507 H         1 B75         0.0624
     43 H6          7.3785   42.3616   26.5532 H         1 B75         0.0624
     44 H7          7.4716   40.0226   27.3478 H         1 B75         0.0637
     45 H8          8.6848   37.8354   28.1923 H         1 B75         0.2161
     46 H9          8.5977   36.0373   29.8656 H         1 B75         0.0482
     47 H10         6.8977   35.7136   25.9506 H         1 B75         0.0485
     48 H11         6.3250   33.3481   26.3665 H         1 B75         0.0574
     49 H12         6.9513   32.3055   28.5316 H         1 B75         0.0481
     50 H13         7.8358   31.4950   29.5546 H         1 B75         0.0560
     51 H14         9.3565   35.1279   31.2413 H         1 B75         0.0567
     52 H15        10.8228   33.8090   32.7364 H         1 B75         0.0600
     53 H16        10.8043   31.3384   32.6364 H         1 B75         0.0559
     54 H17        10.2930   29.3482   31.2895 H         1 B75         0.0483
     55 H18         9.1225   29.4505   29.9307 H         1 B75         0.0483
     56 H19         7.1208   30.7251   31.9678 H         1 B75         0.2134
@<TRIPOS>BOND
     1    1    2 ar 
     2    1   10 ar 
     3    2    3 ar 
     4    2    7 ar 
     5    3    4 ar 
     6    4    5 ar 
     7    5    6 ar 
     8    6    7 ar 
     9    7    8 ar 
    10    8    9 ar 
    11    9   10 ar 
    12   10   11 1  
    13   11   12 2  
    14   11   13 2  
    15   11   14 am 
    16   14   15 1  
    17   15   16 ar 
    18   15   17 ar 
    19   16   20 ar 
    20   17   18 ar 
    21   18   19 ar 
    22   19   20 ar 
    23   20   21 1  
    24   21   22 ar 
    25   21   23 ar 
    26   22   26 ar 
    27   23   24 ar 
    28   24   25 ar 
    29   25   26 ar 
    30   26   27 1  
    31   27   28 1  
    32   28   29 1  
    33   28   33 1  
    34   28   37 1  
    35   29   30 ar 
    36   29   31 ar 
    37   29   32 ar 
    38   33   34 ar 
    39   33   35 ar 
    40   33   36 ar 
    41    1   38 1  
    42    3   39 1  
    43    4   40 1  
    44    5   41 1  
    45    6   42 1  
    46    8   43 1  
    47    9   44 1  
    48   14   45 1  
    49   16   46 1  
    50   17   47 1  
    51   18   48 1  
    52   19   49 1  
    53   22   50 1  
    54   23   51 1  
    55   24   52 1  
    56   25   53 1  
    57   27   54 1  
    58   27   55 1  
    59   37   56 1  
@<TRIPOS>SUBSTRUCTURE
     1 B75         1

