6q54_ligand
  -I-interpret- 

 27 27  0  0  0  0  0  0  0  0999 V2000
   -7.8840   26.8190  -23.6670 N   0  0  0  0  0
   -9.0910   27.8430  -22.1820 N   0  0  0  0  0
   -8.0710   27.2570  -21.4550 C   0  0  0  0  0
   -7.3730   26.5910  -22.4560 C   0  0  0  0  0
  -10.1920   28.6370  -21.6270 C   0  0  0  0  0
  -10.8940   29.5660  -22.6100 C   0  0  0  0  0
   -6.7850   25.9000  -17.5140 O   0  0  0  0  0
   -7.9900   25.9360  -17.7630 C   0  0  0  0  0
   -8.4760   26.0580  -19.2170 C   0  0  0  0  0
   -7.9100   27.3090  -19.9400 C   0  0  0  0  0
   -8.9920   27.6130  -23.5120 N   0  0  0  0  0
   -9.9660   26.0670  -19.3200 N   0  3  0  0  0
   -8.9990   25.8190  -16.8820 O   0  0  0  0  0
   -6.2660   25.8650  -22.2740 O   0  0  0  0  0
   -9.7571   29.2733  -20.8562 H   0  0  0  0  0
  -10.9431   27.9264  -21.2821 H   0  0  0  0  0
  -10.1738   30.2783  -23.0124 H   0  0  0  0  0
  -11.3188   28.9780  -23.4236 H   0  0  0  0  0
  -11.6898   30.1038  -22.0947 H   0  0  0  0  0
   -8.0913   25.1682  -19.7155 H   0  0  0  0  0
   -8.4647   28.1756  -19.5801 H   0  0  0  0  0
   -6.8427   27.3583  -19.7244 H   0  0  0  0  0
  -10.2374   26.1492  -20.2998 H   0  0  0  0  0
  -10.3375   25.1987  -18.9347 H   0  0  0  0  0
  -10.3371   26.8592  -18.7956 H   0  0  0  0  0
   -9.8368   25.8834  -17.3463 H   0  0  0  0  0
   -6.0652   25.8193  -21.3363 H   0  0  0  0  0
  4  1  4  0  0  0
  1 11  4  0  0  0
  3  2  4  0  0  0
  2  5  1  0  0  0
  2 11  4  0  0  0
  3  4  4  0  0  0
 10  3  1  0  0  0
  4 14  1  0  0  0
  5  6  1  0  0  0
  8  7  2  0  0  0
  9  8  1  0  0  0
  8 13  1  0  0  0
  9 10  1  0  0  0
  9 12  1  0  0  0
  5 15  1  0  0  0
  5 16  1  0  0  0
  6 17  1  0  0  0
  6 18  1  0  0  0
  6 19  1  0  0  0
  9 20  1  0  0  0
 10 21  1  0  0  0
 10 22  1  0  0  0
 12 23  1  0  0  0
 12 24  1  0  0  0
 12 25  1  0  0  0
 13 26  1  0  0  0
 14 27  1  0  0  0
M  END
$$$$
