3shj_ligand
  -I-interpret- 

 51 54  0  0  0  0  0  0  0  0999 V2000
    4.4150 -134.9860   18.7250 C   0  0  0  0  0
    5.5180 -134.2200   18.1850 O   0  0  0  0  0
    5.8070 -134.0380   16.8330 C   0  0  0  0  0
    6.7380 -134.8920   16.1590 C   0  0  0  0  0
    7.0450 -134.6720   14.7750 C   0  0  0  0  0
    7.9930 -135.5240   14.1530 C   0  0  0  0  0
    8.7770 -136.2280   13.6660 C   0  0  0  0  0
    9.7660 -137.1080   13.0500 C   0  0  0  0  0
   10.3050 -137.8130   14.2520 N   0  3  0  0  0
    9.9040 -139.1110   14.5950 C   0  0  0  0  0
    9.0750 -139.7780   13.9180 O   0  0  0  0  0
   10.4240 -139.6730   15.7110 N   0  0  0  0  0
   11.1340 -137.2350   14.9920 O   0  0  0  0  0
   10.8300 -136.2400   12.2710 C   0  0  0  0  0
    6.4250 -133.6030   14.0510 C   0  0  0  0  0
    5.4850 -132.7380   14.6890 C   0  0  0  0  0
    5.1780 -132.9460   16.0740 C   0  0  0  0  0
    4.5320 -134.8780   20.3140 C   0  0  0  0  0
    3.3310 -135.7100   20.9920 C   0  0  0  0  0
    1.9280 -135.1060   20.5140 C   0  0  0  0  0
    1.8170 -135.1870   18.9410 C   0  0  0  0  0
    1.9210 -136.7070   18.4580 C   0  0  0  0  0
    3.3000 -137.3360   18.9540 C   0  0  0  0  0
    3.4060 -137.2510   20.5500 C   0  0  0  0  0
    4.5020 -136.5400   18.3230 C   0  0  0  0  0
    2.9860 -134.3530   18.3300 C   0  0  0  0  0
    7.2143 -135.7107   16.6984 H   0  0  0  0  0
    9.3993 -137.8065   12.2979 H   0  0  0  0  0
   10.1434 -140.6142   15.9863 H   0  0  0  0  0
   11.0966 -139.1554   16.2768 H   0  0  0  0  0
   11.2301 -135.4748   12.9363 H   0  0  0  0  0
   11.6397 -136.8832   11.9265 H   0  0  0  0  0
   10.3522 -135.7647   11.4143 H   0  0  0  0  0
    6.6735 -133.4480   13.0011 H   0  0  0  0  0
    5.0081 -131.9318   14.1316 H   0  0  0  0  0
    4.4682 -132.2854   16.5718 H   0  0  0  0  0
    4.4678 -133.8324   20.6150 H   0  0  0  0  0
    5.4888 -135.2869   20.6387 H   0  0  0  0  0
    3.4227 -135.6378   22.0757 H   0  0  0  0  0
    1.8597 -134.0639   20.8263 H   0  0  0  0  0
    1.1174 -135.6808   20.9620 H   0  0  0  0  0
    0.8564 -134.7902   18.6125 H   0  0  0  0  0
    1.8781 -136.7438   17.3695 H   0  0  0  0  0
    1.0923 -137.2769   18.8781 H   0  0  0  0  0
    3.3380 -138.3799   18.6426 H   0  0  0  0  0
    2.5855 -137.8060   21.0048 H   0  0  0  0  0
    4.3496 -137.6847   20.8811 H   0  0  0  0  0
    5.4383 -136.9527   18.6988 H   0  0  0  0  0
    4.4573 -136.6297   17.2376 H   0  0  0  0  0
    2.8892 -134.3582   17.2443 H   0  0  0  0  0
    2.9331 -133.3372   18.7218 H   0  0  0  0  0
  1  2  1  0  0  0
  1 18  1  0  0  0
  1 25  1  0  0  0
  1 26  1  0  0  0
  2  3  1  0  0  0
  3  4  4  0  0  0
  3 17  4  0  0  0
  4  5  4  0  0  0
  5  6  1  0  0  0
  5 15  4  0  0  0
  6  7  3  0  0  0
  7  8  1  0  0  0
  8  9  1  0  0  0
  8 14  1  0  0  0
  9 10  1  0  0  0
  9 13  2  0  0  0
 10 11  2  0  0  0
 10 12  1  0  0  0
 15 16  4  0  0  0
 16 17  4  0  0  0
 18 19  1  0  0  0
 19 20  1  0  0  0
 19 24  1  0  0  0
 20 21  1  0  0  0
 21 22  1  0  0  0
 21 26  1  0  0  0
 22 23  1  0  0  0
 23 24  1  0  0  0
 23 25  1  0  0  0
  4 27  1  0  0  0
  8 28  1  0  0  0
 12 29  1  0  0  0
 12 30  1  0  0  0
 14 31  1  0  0  0
 14 32  1  0  0  0
 14 33  1  0  0  0
 15 34  1  0  0  0
 16 35  1  0  0  0
 17 36  1  0  0  0
 18 37  1  0  0  0
 18 38  1  0  0  0
 19 39  1  0  0  0
 20 40  1  0  0  0
 20 41  1  0  0  0
 21 42  1  0  0  0
 22 43  1  0  0  0
 22 44  1  0  0  0
 23 45  1  0  0  0
 24 46  1  0  0  0
 24 47  1  0  0  0
 25 48  1  0  0  0
 25 49  1  0  0  0
 26 50  1  0  0  0
 26 51  1  0  0  0
M  END
$$$$
