4gd6_ligand
  -I-interpret- 

 54 56  0  0  0  0  0  0  0  0999 V2000
   42.8310   60.0590   -1.5950 C   0  0  0  0  0
   44.0230   60.1860   -2.3030 C   0  0  0  0  0
   45.0610   60.9590   -1.7740 C   0  0  0  0  0
   44.9260   61.6090   -0.5520 C   0  0  0  0  0
   43.7340   61.4900    0.1550 C   0  0  0  0  0
   42.7030   60.7130   -0.3690 C   0  0  0  0  0
   41.4170   60.6000    0.4240 C   0  0  0  0  0
   40.3410   61.5020   -0.1890 C   0  0  0  0  0
   40.6030   62.5960   -0.6920 O   0  0  0  0  0
   39.0830   61.0250   -0.1420 O   0  0  0  0  0
   38.0020   61.8400   -0.5610 C   0  0  0  0  0
   36.7740   61.3020    0.1860 C   0  0  0  0  0
   35.3330   61.6210   -0.8840 S   0  0  0  0  0
   35.6760   60.9370   -2.1730 O   0  0  0  0  0
   35.2850   63.1100   -1.0910 O   0  0  0  0  0
   36.8640   59.7850    0.4670 C   0  0  0  0  0
   36.5630   62.1480    1.4550 C   0  0  0  0  0
   37.7550   62.1050    2.4430 C   0  0  0  0  0
   37.7740   61.1900    3.2950 O   0  0  0  0  0
   38.6190   63.0080    2.2890 O   0  0  0  0  0
   35.2630   61.8360    2.1030 N   0  0  0  0  0
   34.8120   62.6310    3.0800 C   0  0  0  0  0
   34.6950   64.0140    3.0380 N   0  0  0  0  0
   34.9570   64.9650    2.0320 C   0  0  0  0  0
   34.7130   66.3070    2.3080 C   0  0  0  0  0
   34.2220   66.7160    3.5470 C   0  0  0  0  0
   33.9530   65.7730    4.5430 C   0  0  0  0  0
   34.1770   64.4130    4.2940 C   0  0  0  0  0
   33.9950   63.3020    5.0490 C   0  0  0  0  0
   34.3720   62.2320    4.3260 C   0  0  0  0  0
   34.3310   60.7680    4.7470 C   0  0  0  0  0
   34.5110   59.8470    3.9510 O   0  0  0  0  0
   42.0119   59.4591   -1.9915 H   0  0  0  0  0
   44.1462   59.6860   -3.2637 H   0  0  0  0  0
   45.9937   61.0540   -2.3299 H   0  0  0  0  0
   45.7459   62.2057   -0.1523 H   0  0  0  0  0
   43.6077   61.9999    1.1101 H   0  0  0  0  0
   41.6018   60.9109    1.4523 H   0  0  0  0  0
   41.0726   59.5661    0.4024 H   0  0  0  0  0
   37.8639   61.7981   -1.6414 H   0  0  0  0  0
   38.1808   62.8909   -0.3334 H   0  0  0  0  0
   34.1687   61.1981   -0.3999 H   0  0  0  0  0
   35.9533   59.4547    0.9667 H   0  0  0  0  0
   36.9782   59.2485   -0.4749 H   0  0  0  0  0
   37.7237   59.5857    1.1067 H   0  0  0  0  0
   36.5213   63.1862    1.1255 H   0  0  0  0  0
   38.3575   63.5791    1.5630 H   0  0  0  0  0
   34.7204   61.0248    1.8064 H   0  0  0  0  0
   35.3419   64.6567    1.0599 H   0  0  0  0  0
   34.9100   67.0541    1.5392 H   0  0  0  0  0
   34.0473   67.7745    3.7396 H   0  0  0  0  0
   33.5698   66.0952    5.5112 H   0  0  0  0  0
   33.6090   63.2794    6.0681 H   0  0  0  0  0
   34.1350   60.5277    5.7920 H   0  0  0  0  0
  1  2  4  0  0  0
  1  6  4  0  0  0
  2  3  4  0  0  0
  3  4  4  0  0  0
  4  5  4  0  0  0
  5  6  4  0  0  0
  6  7  1  0  0  0
  7  8  1  0  0  0
  8  9  2  0  0  0
  8 10  1  0  0  0
 10 11  1  0  0  0
 11 12  1  0  0  0
 12 13  1  0  0  0
 12 16  1  0  0  0
 12 17  1  0  0  0
 13 14  2  0  0  0
 13 15  2  0  0  0
 17 18  1  0  0  0
 17 21  1  0  0  0
 18 19  2  0  0  0
 18 20  1  0  0  0
 21 22  1  0  0  0
 22 23  4  0  0  0
 22 30  4  0  0  0
 23 24  4  0  0  0
 23 28  4  0  0  0
 24 25  4  0  0  0
 25 26  4  0  0  0
 26 27  4  0  0  0
 27 28  4  0  0  0
 28 29  4  0  0  0
 29 30  4  0  0  0
 30 31  1  0  0  0
 31 32  2  0  0  0
  1 33  1  0  0  0
  2 34  1  0  0  0
  3 35  1  0  0  0
  4 36  1  0  0  0
  5 37  1  0  0  0
  7 38  1  0  0  0
  7 39  1  0  0  0
 11 40  1  0  0  0
 11 41  1  0  0  0
 13 42  1  0  0  0
 16 43  1  0  0  0
 16 44  1  0  0  0
 16 45  1  0  0  0
 17 46  1  0  0  0
 20 47  1  0  0  0
 21 48  1  0  0  0
 24 49  1  0  0  0
 25 50  1  0  0  0
 26 51  1  0  0  0
 27 52  1  0  0  0
 29 53  1  0  0  0
 31 54  1  0  0  0
M  END
$$$$
