6udx_ligand
  -I-interpret- 

 59 63  0  0  0  0  0  0  0  0999 V2000
  -12.1040   10.5390  -15.9880 C   0  0  0  0  0
  -10.7750   10.8020  -16.3460 C   0  0  0  0  0
  -10.2900   10.5720  -17.6220 C   0  0  0  0  0
  -20.8110    6.0730  -20.0600 O   0  0  0  0  0
  -19.6210    6.1410  -22.0090 C   0  0  0  0  0
  -18.5530    6.8660  -19.9350 C   0  0  0  0  0
  -18.9320    8.0270  -19.2180 C   0  0  0  0  0
  -17.9420    8.9130  -18.7370 C   0  0  0  0  0
  -14.7700   10.0670  -19.4950 C   0  0  0  0  0
  -13.7690    7.7780  -18.9810 C   0  0  0  0  0
  -16.1600    7.4800  -19.6580 C   0  0  0  0  0
  -16.5710    8.6630  -18.9500 C   0  0  0  0  0
  -13.4710    9.2130  -19.3750 C   0  0  0  0  0
  -19.5190    5.8440  -20.5290 C   0  0  0  0  0
  -14.5860    4.6550  -19.9580 C   0  0  0  0  0
  -14.1720    3.4070  -20.7740 C   0  0  0  0  0
  -13.5650    2.8180  -19.4670 C   0  0  0  0  0
  -12.8500    9.1540  -20.7770 C   0  0  0  0  0
  -11.3450    8.7990  -20.7640 C   0  0  0  0  0
  -14.8120    7.1420  -19.8040 N   0  0  0  0  0
  -15.6640    9.6180  -18.5040 O   0  0  0  0  0
  -17.1820    6.6250  -20.1340 C   0  0  0  0  0
  -14.3730    5.9890  -20.6550 C   0  0  0  0  0
  -13.5340    4.2530  -18.8850 C   0  0  0  0  0
  -11.1600   10.0600  -18.5800 C   0  0  0  0  0
  -12.5300    9.7700  -18.2820 C   0  0  0  0  0
  -12.9870   10.0140  -16.9610 C   0  0  0  0  0
   -9.6720   11.4270  -15.1940 Cl  0  0  0  0  0
  -10.5480    9.8220  -19.9250 C   0  0  0  0  0
  -20.3520    6.9590  -22.4450 O   0  0  0  0  0
  -18.8070    5.3760  -22.8170 O   0  0  0  0  0
  -12.4526   10.7361  -14.9742 H   0  0  0  0  0
   -9.2507   10.7869  -17.8706 H   0  0  0  0  0
  -21.4080    5.4245  -20.4405 H   0  0  0  0  0
  -19.9863    8.2369  -19.0374 H   0  0  0  0  0
  -18.2440    9.8067  -18.1909 H   0  0  0  0  0
  -15.2106    9.9541  -20.4856 H   0  0  0  0  0
  -14.5455   11.1245  -19.3554 H   0  0  0  0  0
  -14.1285    7.7906  -17.9521 H   0  0  0  0  0
  -12.8517    7.2054  -19.1179 H   0  0  0  0  0
  -19.1671    4.8421  -20.2834 H   0  0  0  0  0
  -15.6232    4.8342  -19.6748 H   0  0  0  0  0
  -13.5741    3.4999  -21.6806 H   0  0  0  0  0
  -14.9033    2.8475  -21.3573 H   0  0  0  0  0
  -12.6638    2.2055  -19.4947 H   0  0  0  0  0
  -14.0630    2.0082  -18.9338 H   0  0  0  0  0
  -12.9517   10.1427  -21.2245 H   0  0  0  0  0
  -13.3680    8.3737  -21.3345 H   0  0  0  0  0
  -10.9708    8.8160  -21.7876 H   0  0  0  0  0
  -11.2208    7.8098  -20.3233 H   0  0  0  0  0
  -16.8907    5.7308  -20.6850 H   0  0  0  0  0
  -14.9658    5.9947  -21.5697 H   0  0  0  0  0
  -13.3082    6.1013  -20.8590 H   0  0  0  0  0
  -13.7127    4.4349  -17.8252 H   0  0  0  0  0
  -12.5963    4.7993  -18.7833 H   0  0  0  0  0
  -14.0214    9.7963  -16.6950 H   0  0  0  0  0
  -10.5430   10.7689  -20.4648 H   0  0  0  0  0
   -9.5449    9.4237  -19.7726 H   0  0  0  0  0
  -18.2931    4.7742  -22.2736 H   0  0  0  0  0
  2  1  4  0  0  0
  1 27  4  0  0  0
  3  2  4  0  0  0
  2 28  1  0  0  0
 25  3  4  0  0  0
 14  4  1  0  0  0
 14  5  1  0  0  0
  5 30  2  0  0  0
  5 31  1  0  0  0
  6  7  4  0  0  0
  6 14  1  0  0  0
 22  6  4  0  0  0
  8  7  4  0  0  0
 12  8  4  0  0  0
 13  9  1  0  0  0
  9 21  1  0  0  0
 13 10  1  0  0  0
 10 20  1  0  0  0
 11 12  4  0  0  0
 20 11  1  0  0  0
 11 22  4  0  0  0
 21 12  1  0  0  0
 13 18  1  0  0  0
 26 13  1  0  0  0
 15 16  1  0  0  0
 23 15  1  0  0  0
 15 24  1  0  0  0
 16 17  1  0  0  0
 24 17  1  0  0  0
 18 19  1  0  0  0
 19 29  1  0  0  0
 20 23  1  0  0  0
 25 26  4  0  0  0
 25 29  1  0  0  0
 26 27  4  0  0  0
  1 32  1  0  0  0
  3 33  1  0  0  0
  4 34  1  0  0  0
  7 35  1  0  0  0
  8 36  1  0  0  0
  9 37  1  0  0  0
  9 38  1  0  0  0
 10 39  1  0  0  0
 10 40  1  0  0  0
 14 41  1  0  0  0
 15 42  1  0  0  0
 16 43  1  0  0  0
 16 44  1  0  0  0
 17 45  1  0  0  0
 17 46  1  0  0  0
 18 47  1  0  0  0
 18 48  1  0  0  0
 19 49  1  0  0  0
 19 50  1  0  0  0
 22 51  1  0  0  0
 23 52  1  0  0  0
 23 53  1  0  0  0
 24 54  1  0  0  0
 24 55  1  0  0  0
 27 56  1  0  0  0
 29 57  1  0  0  0
 29 58  1  0  0  0
 31 59  1  0  0  0
M  END
$$$$
