### 
### Created by X-TOOL on Mon Aug  2 16:11:30 2021
### 

@<TRIPOS>MOLECULE
6qs1_ligand
  176   181     1     0     0
SMALL
GAST_HUCK


@<TRIPOS>ATOM
      1 N         -16.5720  -18.4290  -15.4470 N.am      1 PCA        -0.2655
      2 CA        -17.9590  -17.8920  -15.1930 C.3       1 PCA         0.1329
      3 CB        -18.0470  -17.2400  -13.8260 C.3       1 PCA         0.0045
      4 CG        -16.6110  -17.0870  -13.3360 C.3       1 PCA         0.0416
      5 CD        -15.7960  -17.9060  -14.3140 C.2       1 PCA         0.1784
      6 OE        -14.5830  -18.1300  -14.1520 O.2       1 PCA        -0.3969
      7 C         -18.3380  -16.8780  -16.2580 C.2       1 PCA         0.2038
      8 O         -17.4740  -16.1290  -16.7190 O.2       1 PCA        -0.3944
      9 N         -19.6080  -16.8590  -16.6600 N.am      1 PCA        -0.2664
     10 CA        -20.0810  -15.9250  -17.6700 C.3       1 PCA         0.1201
     11 C         -19.5380  -16.1540  -19.0700 C.2       1 PCA         0.2007
     12 O         -20.3100  -16.3190  -20.0220 O.2       1 PCA        -0.3947
     13 N         -18.1990  -16.1720  -19.2030 N.am      1 PCA        -0.2639
     14 CA        -17.5590  -16.3980  -20.4950 C.3       1 PCA         0.1314
     15 C         -16.7400  -17.6800  -20.5160 C.2       1 PCA         0.2064
     16 O         -16.5940  -18.3420  -19.4730 O.2       1 PCA        -0.3942
     17 CB        -16.6620  -15.2120  -20.8480 C.3       1 PCA        -0.0101
     18 CG        -17.3860  -13.8600  -20.8470 C.3       1 PCA        -0.0425
     19 CD1       -16.4340  -12.7350  -21.3110 C.3       1 PCA        -0.0625
     20 CD2       -18.6660  -13.9260  -21.7110 C.3       1 PCA        -0.0625
     21 N         -16.2200  -18.0840  -21.6650 N.am      1 PCA        -0.2498
     22 CA        -15.2010  -19.1360  -21.6950 C.3       1 PCA         0.1340
     23 C         -13.9520  -18.6770  -20.9830 C.2       1 PCA         0.2066
     24 O         -13.6340  -17.4630  -20.9630 O.2       1 PCA        -0.3942
     25 CB        -14.9400  -19.3680  -23.1840 C.3       1 PCA        -0.0104
     26 CG        -16.1010  -18.7870  -23.8940 C.3       1 PCA        -0.0281
     27 CD        -16.6750  -17.7030  -23.0210 C.3       1 PCA         0.0369
     28 N         -13.1790  -19.5920  -20.3890 N.am      1 PCA        -0.2498
     29 CA        -11.9410  -19.1830  -19.7180 C.3       1 PCA         0.1338
     30 C         -10.9580  -18.5810  -20.7190 C.2       1 PCA         0.2041
     31 O         -10.9930  -18.8780  -21.9190 O.2       1 PCA        -0.3944
     32 CB        -11.4120  -20.4860  -19.0950 C.3       1 PCA        -0.0104
     33 CG        -12.5810  -21.4470  -19.0920 C.3       1 PCA        -0.0281
     34 CD        -13.3950  -21.0550  -20.3040 C.3       1 PCA         0.0369
     35 N         -10.0920  -17.6980  -20.2160 N.am      1 PCA        -0.2637
     36 CA         -9.1450  -17.0090  -21.0860 C.3       1 PCA         0.1313
     37 C          -8.3130  -18.0480  -21.8500 C.2       1 PCA         0.2064
     38 O          -7.9690  -19.0950  -21.3040 O.2       1 PCA        -0.3942
     39 CB         -8.2000  -16.1100  -20.2750 C.3       1 PCA        -0.0092
     40 CG         -8.8320  -15.1860  -19.2430 C.3       1 PCA        -0.0156
     41 CD         -9.9000  -14.3000  -19.8590 C.3       1 PCA         0.0627
     42 NE         -9.3660  -13.2880  -20.7630 N.pl3     1 PCA        -0.2723
     43 CZ         -9.5540  -13.2580  -22.0850 C.cat     1 PCA         0.2882
     44 NH1        -9.0170  -12.2690  -22.8050 N.pl3     1 PCA        -0.2849
     45 NH2       -10.2680  -14.2040  -22.6960 N.pl3     1 PCA        -0.2849
     46 N          -7.9390  -17.7670  -23.1060 N.am      1 PCA        -0.2498
     47 CA         -6.8750  -18.5760  -23.7200 C.3       1 PCA         0.1338
     48 C          -5.6240  -18.4580  -22.8590 C.2       1 PCA         0.2041
     49 O          -5.3640  -17.4210  -22.2380 O.2       1 PCA        -0.3944
     50 CB         -6.6780  -17.9500  -25.1050 C.3       1 PCA        -0.0104
     51 CG         -7.8470  -16.9870  -25.2900 C.3       1 PCA        -0.0281
     52 CD         -8.2420  -16.5690  -23.9070 C.3       1 PCA         0.0369
     53 N          -4.8570  -19.5400  -22.8040 N.am      1 PCA        -0.2637
     54 CA         -3.6800  -19.6000  -21.9450 C.3       1 PCA         0.1310
     55 C          -2.4770  -19.0420  -22.6940 C.2       1 PCA         0.2039
     56 O          -2.2280  -19.4250  -23.8430 O.2       1 PCA        -0.3944
     57 CB         -3.4160  -21.0400  -21.4990 C.3       1 PCA        -0.0122
     58 CG         -4.5560  -21.6370  -20.6670 C.3       1 PCA        -0.0440
     59 CD         -4.6610  -20.9640  -19.3120 C.3       1 PCA        -0.0124
     60 CE         -5.4680  -21.8190  -18.3440 C.3       1 PCA        -0.0354
     61 NZ         -5.6530  -21.1510  -17.0080 N.4       1 PCA         0.2185
     62 N          -1.7180  -18.1750  -22.0290 N.am      1 PCA        -0.2635
     63 CA         -0.7120  -17.3340  -22.6900 C.3       1 PCA         0.1337
     64 C           0.5350  -17.2410  -21.8100 C.2       1 PCA         0.2067
     65 O           0.5000  -17.4890  -20.6100 O.2       1 PCA        -0.3942
     66 CB         -1.2760  -15.9370  -22.9410 C.3       1 PCA        -0.0037
     67 CG1        -1.2600  -15.1990  -21.6270 C.3       1 PCA        -0.0491
     68 CG2        -2.7110  -16.0320  -23.4370 C.3       1 PCA        -0.0582
     69 CD1        -1.8920  -13.8800  -21.6750 C.3       1 PCA        -0.0648
     70 N           1.6570  -16.8340  -22.4180 N.am      1 PCA        -0.2498
     71 CA          2.8940  -16.7180  -21.6390 C.3       1 PCA         0.1339
     72 C           2.8780  -15.4800  -20.7620 C.2       1 PCA         0.2060
     73 O           2.0780  -14.5500  -20.9780 O.2       1 PCA        -0.3942
     74 CB          3.9950  -16.6450  -22.7140 C.3       1 PCA        -0.0104
     75 CG          3.3460  -16.1010  -23.8970 C.3       1 PCA        -0.0281
     76 CD          1.8680  -16.4400  -23.8210 C.3       1 PCA         0.0369
     77 N           3.7520  -15.4570  -19.7300 N.am      1 PCA        -0.2556
     78 CA          3.9700  -14.2610  -18.9370 C.3       1 PCA         0.0972
     79 C           4.2880  -13.0890  -19.8160 C.2       1 PCA         0.0603
     80 O           4.8530  -13.2010  -20.9180 O.co2     1 PCA        -0.5666
     81 CB          5.1630  -14.6160  -18.0560 C.3       1 PCA        -0.0159
     82 CG          5.8250  -15.7190  -18.7030 C.3       1 PCA        -0.0288
     83 CD          4.7950  -16.4750  -19.4680 C.3       1 PCA         0.0362
     84 OXT         3.9940  -11.9980  -19.3460 O.co2     1 PCA        -0.5666
     85 H1        -16.2570  -19.0022  -16.2035 H         1 PCA         0.1883
     86 H2        -18.6704  -18.7301  -15.2312 H         1 PCA         0.0801
     87 H3        -18.6199  -17.8767  -13.1357 H         1 PCA         0.0337
     88 H4        -18.5307  -16.2551  -13.9034 H         1 PCA         0.0337
     89 H5        -16.5035  -17.4794  -12.3140 H         1 PCA         0.0505
     90 H6        -16.3015  -16.0317  -13.3580 H         1 PCA         0.0505
     91 H7        -20.2549  -17.5056  -16.2557 H         1 PCA         0.1881
     92 H8        -19.7942  -14.9106  -17.3559 H         1 PCA         0.0763
     93 H9        -21.1776  -15.9989  -17.7144 H         1 PCA         0.0763
     94 H10       -17.6275  -16.0267  -18.3954 H         1 PCA         0.1883
     95 H11       -18.3476  -16.4817  -21.2573 H         1 PCA         0.0800
     96 H12       -16.2452  -15.3803  -21.8520 H         1 PCA         0.0315
     97 H13       -15.8438  -15.1667  -20.1142 H         1 PCA         0.0315
     98 H14       -17.6902  -13.6375  -19.8136 H         1 PCA         0.0298
     99 H15       -16.9703  -11.7746  -21.3037 H         1 PCA         0.0232
    100 H16       -16.0814  -12.9503  -22.3305 H         1 PCA         0.0232
    101 H17       -15.5726  -12.6791  -20.6292 H         1 PCA         0.0232
    102 H18       -19.3127  -14.7379  -21.3468 H         1 PCA         0.0232
    103 H19       -18.3917  -14.1178  -22.7588 H         1 PCA         0.0232
    104 H20       -19.2046  -12.9694  -21.6422 H         1 PCA         0.0232
    105 H21       -15.5749  -20.0552  -21.2204 H         1 PCA         0.0802
    106 H22       -14.8616  -20.4446  -23.3956 H         1 PCA         0.0313
    107 H23       -14.0117  -18.8650  -23.4928 H         1 PCA         0.0313
    108 H24       -16.8584  -19.5644  -24.0728 H         1 PCA         0.0287
    109 H25       -15.7778  -18.3618  -24.8556 H         1 PCA         0.0287
    110 H26       -16.2809  -16.7166  -23.3066 H         1 PCA         0.0524
    111 H27       -17.7734  -17.6899  -23.0793 H         1 PCA         0.0524
    112 H28       -12.1517  -18.4419  -18.9330 H         1 PCA         0.0802
    113 H29       -11.0626  -20.3050  -18.0678 H         1 PCA         0.0313
    114 H30       -10.5854  -20.8905  -19.6976 H         1 PCA         0.0313
    115 H31       -13.1741  -21.3352  -18.1724 H         1 PCA         0.0287
    116 H32       -12.2306  -22.4861  -19.1783 H         1 PCA         0.0287
    117 H33       -13.0278  -21.5624  -21.2082 H         1 PCA         0.0524
    118 H34       -14.4597  -21.2900  -20.1584 H         1 PCA         0.0524
    119 H35       -10.0925  -17.5073  -19.2344 H         1 PCA         0.1883
    120 H36        -9.7032  -16.3886  -21.8026 H         1 PCA         0.0800
    121 H37        -7.6487  -15.4804  -20.9889 H         1 PCA         0.0313
    122 H38        -7.4946  -16.7658  -19.7437 H         1 PCA         0.0313
    123 H39        -8.0480  -14.5487  -18.8080 H         1 PCA         0.0301
    124 H40        -9.2895  -15.7968  -18.4508 H         1 PCA         0.0301
    125 H41       -10.4410  -13.7913  -19.0475 H         1 PCA         0.0689
    126 H42       -10.5981  -14.9366  -20.4224 H         1 PCA         0.0689
    127 H43        -8.7979  -12.5354  -20.3485 H         1 PCA         0.2642
    128 H44        -9.1578  -12.2394  -23.8249 H         1 PCA         0.2615
    129 H45        -8.4622  -11.5361  -22.3402 H         1 PCA         0.2615
    130 H46       -10.6850  -14.9695  -22.1474 H         1 PCA         0.2615
    131 H47       -10.4025  -14.1692  -23.7166 H         1 PCA         0.2615
    132 H48        -7.1714  -19.6316  -23.8081 H         1 PCA         0.0802
    133 H49        -6.6938  -18.7271  -25.8834 H         1 PCA         0.0313
    134 H50        -5.7225  -17.4068  -25.1485 H         1 PCA         0.0313
    135 H51        -8.6849  -17.4914  -25.7934 H         1 PCA         0.0287
    136 H52        -7.5359  -16.1135  -25.8817 H         1 PCA         0.0287
    137 H53        -7.6493  -15.7061  -23.5693 H         1 PCA         0.0524
    138 H54        -9.3124  -16.3202  -23.8587 H         1 PCA         0.0524
    139 H55        -5.0920  -20.3335  -23.3654 H         1 PCA         0.1883
    140 H56        -3.8597  -18.9831  -21.0522 H         1 PCA         0.0800
    141 H57        -2.4976  -21.0550  -20.8938 H         1 PCA         0.0312
    142 H58        -3.2750  -21.6624  -22.3949 H         1 PCA         0.0312
    143 H59        -4.3679  -22.7108  -20.5200 H         1 PCA         0.0269
    144 H60        -5.5038  -21.5015  -21.2086 H         1 PCA         0.0269
    145 H61        -5.1564  -19.9891  -19.4310 H         1 PCA         0.0317
    146 H62        -3.6503  -20.8144  -18.9044 H         1 PCA         0.0317
    147 H63        -4.9423  -22.7733  -18.1923 H         1 PCA         0.0813
    148 H64        -6.4580  -22.0115  -18.7831 H         1 PCA         0.0813
    149 H65        -6.1908  -21.7521  -16.4034 H         1 PCA         0.1994
    150 H66        -6.1406  -20.2778  -17.1336 H         1 PCA         0.1994
    151 H67        -4.7516  -20.9758  -16.5922 H         1 PCA         0.1994
    152 H68        -1.8374  -18.0928  -21.0396 H         1 PCA         0.1883
    153 H69        -0.4401  -17.7890  -23.6538 H         1 PCA         0.0803
    154 H70        -0.6597  -15.4087  -23.6834 H         1 PCA         0.0345
    155 H71        -0.2128  -15.0692  -21.3164 H         1 PCA         0.0267
    156 H72        -1.7906  -15.8094  -20.8814 H         1 PCA         0.0267
    157 H73        -2.7325  -16.5696  -24.3964 H         1 PCA         0.0235
    158 H74        -3.1192  -15.0199  -23.5747 H         1 PCA         0.0235
    159 H75        -3.3190  -16.5753  -22.6986 H         1 PCA         0.0235
    160 H76        -1.8380  -13.4112  -20.6814 H         1 PCA         0.0230
    161 H77        -2.9454  -13.9887  -21.9723 H         1 PCA         0.0230
    162 H78        -1.3676  -13.2485  -22.4073 H         1 PCA         0.0230
    163 H79         3.0354  -17.6046  -21.0034 H         1 PCA         0.0802
    164 H80         4.3963  -17.6478  -22.9223 H         1 PCA         0.0313
    165 H81         4.8108  -15.9846  -22.3849 H         1 PCA         0.0313
    166 H82         3.7849  -16.5470  -24.8017 H         1 PCA         0.0287
    167 H83         3.4772  -15.0092  -23.9257 H         1 PCA         0.0287
    168 H84         1.2537  -15.5640  -24.0764 H         1 PCA         0.0524
    169 H85         1.6232  -17.2701  -24.5000 H         1 PCA         0.0524
    170 H86         3.0857  -14.0311  -18.3245 H         1 PCA         0.0728
    171 H87         4.8219  -14.9112  -17.0528 H         1 PCA         0.0306
    172 H88         5.8452  -13.7571  -17.9734 H         1 PCA         0.0306
    173 H89         6.2879  -16.3731  -17.9495 H         1 PCA         0.0286
    174 H90         6.5995  -15.3426  -19.3874 H         1 PCA         0.0286
    175 H91         5.2102  -16.8653  -20.4089 H         1 PCA         0.0524
    176 H92         4.3928  -17.3072  -18.8716 H         1 PCA         0.0524
@<TRIPOS>BOND
     1    1    2 1  
     2    1    5 am 
     3    2    3 1  
     4    2    7 1  
     5    3    4 1  
     6    4    5 1  
     7    5    6 2  
     8    7    8 2  
     9    7    9 am 
    10    9   10 1  
    11   10   11 1  
    12   11   12 2  
    13   11   13 am 
    14   13   14 1  
    15   14   15 1  
    16   14   17 1  
    17   15   16 2  
    18   15   21 am 
    19   17   18 1  
    20   18   19 1  
    21   18   20 1  
    22   21   22 1  
    23   21   27 1  
    24   22   23 1  
    25   22   25 1  
    26   23   24 2  
    27   23   28 am 
    28   25   26 1  
    29   26   27 1  
    30   28   29 1  
    31   28   34 1  
    32   29   30 1  
    33   29   32 1  
    34   30   31 2  
    35   30   35 am 
    36   32   33 1  
    37   33   34 1  
    38   35   36 1  
    39   36   37 1  
    40   36   39 1  
    41   37   38 2  
    42   37   46 am 
    43   39   40 1  
    44   40   41 1  
    45   41   42 1  
    46   42   43 ar 
    47   43   44 ar 
    48   43   45 ar 
    49   46   47 1  
    50   46   52 1  
    51   47   48 1  
    52   47   50 1  
    53   48   49 2  
    54   48   53 am 
    55   50   51 1  
    56   51   52 1  
    57   53   54 1  
    58   54   55 1  
    59   54   57 1  
    60   55   56 2  
    61   55   62 am 
    62   57   58 1  
    63   58   59 1  
    64   59   60 1  
    65   60   61 1  
    66   62   63 1  
    67   63   64 1  
    68   63   66 1  
    69   64   65 2  
    70   64   70 am 
    71   66   67 1  
    72   66   68 1  
    73   67   69 1  
    74   70   71 1  
    75   70   76 1  
    76   71   72 1  
    77   71   74 1  
    78   72   73 2  
    79   72   77 am 
    80   74   75 1  
    81   75   76 1  
    82   77   78 1  
    83   77   83 1  
    84   78   79 1  
    85   78   81 1  
    86   79   80 ar 
    87   79   84 ar 
    88   81   82 1  
    89   82   83 1  
    90    1   85 1  
    91    2   86 1  
    92    3   87 1  
    93    3   88 1  
    94    4   89 1  
    95    4   90 1  
    96    9   91 1  
    97   10   92 1  
    98   10   93 1  
    99   13   94 1  
   100   14   95 1  
   101   17   96 1  
   102   17   97 1  
   103   18   98 1  
   104   19   99 1  
   105   19  100 1  
   106   19  101 1  
   107   20  102 1  
   108   20  103 1  
   109   20  104 1  
   110   22  105 1  
   111   25  106 1  
   112   25  107 1  
   113   26  108 1  
   114   26  109 1  
   115   27  110 1  
   116   27  111 1  
   117   29  112 1  
   118   32  113 1  
   119   32  114 1  
   120   33  115 1  
   121   33  116 1  
   122   34  117 1  
   123   34  118 1  
   124   35  119 1  
   125   36  120 1  
   126   39  121 1  
   127   39  122 1  
   128   40  123 1  
   129   40  124 1  
   130   41  125 1  
   131   41  126 1  
   132   42  127 1  
   133   44  128 1  
   134   44  129 1  
   135   45  130 1  
   136   45  131 1  
   137   47  132 1  
   138   50  133 1  
   139   50  134 1  
   140   51  135 1  
   141   51  136 1  
   142   52  137 1  
   143   52  138 1  
   144   53  139 1  
   145   54  140 1  
   146   57  141 1  
   147   57  142 1  
   148   58  143 1  
   149   58  144 1  
   150   59  145 1  
   151   59  146 1  
   152   60  147 1  
   153   60  148 1  
   154   61  149 1  
   155   61  150 1  
   156   61  151 1  
   157   62  152 1  
   158   63  153 1  
   159   66  154 1  
   160   67  155 1  
   161   67  156 1  
   162   68  157 1  
   163   68  158 1  
   164   68  159 1  
   165   69  160 1  
   166   69  161 1  
   167   69  162 1  
   168   71  163 1  
   169   74  164 1  
   170   74  165 1  
   171   75  166 1  
   172   75  167 1  
   173   76  168 1  
   174   76  169 1  
   175   78  170 1  
   176   81  171 1  
   177   81  172 1  
   178   82  173 1  
   179   82  174 1  
   180   83  175 1  
   181   83  176 1  
@<TRIPOS>SUBSTRUCTURE
     1 PCA         1

