6qs1_ligand
  -I-interpret- 

176181  0  0  0  0  0  0  0  0999 V2000
  -16.5720  -18.4290  -15.4470 N   0  0  0  0  0
  -17.9590  -17.8920  -15.1930 C   0  0  0  0  0
  -18.0470  -17.2400  -13.8260 C   0  0  0  0  0
  -16.6110  -17.0870  -13.3360 C   0  0  0  0  0
  -15.7960  -17.9060  -14.3140 C   0  0  0  0  0
  -14.5830  -18.1300  -14.1520 O   0  0  0  0  0
  -18.3380  -16.8780  -16.2580 C   0  0  0  0  0
  -17.4740  -16.1290  -16.7190 O   0  0  0  0  0
  -19.6080  -16.8590  -16.6600 N   0  0  0  0  0
  -20.0810  -15.9250  -17.6700 C   0  0  0  0  0
  -19.5380  -16.1540  -19.0700 C   0  0  0  0  0
  -20.3100  -16.3190  -20.0220 O   0  0  0  0  0
  -18.1990  -16.1720  -19.2030 N   0  0  0  0  0
  -17.5590  -16.3980  -20.4950 C   0  0  0  0  0
  -16.7400  -17.6800  -20.5160 C   0  0  0  0  0
  -16.5940  -18.3420  -19.4730 O   0  0  0  0  0
  -16.6620  -15.2120  -20.8480 C   0  0  0  0  0
  -17.3860  -13.8600  -20.8470 C   0  0  0  0  0
  -16.4340  -12.7350  -21.3110 C   0  0  0  0  0
  -18.6660  -13.9260  -21.7110 C   0  0  0  0  0
  -16.2200  -18.0840  -21.6650 N   0  0  0  0  0
  -15.2010  -19.1360  -21.6950 C   0  0  0  0  0
  -13.9520  -18.6770  -20.9830 C   0  0  0  0  0
  -13.6340  -17.4630  -20.9630 O   0  0  0  0  0
  -14.9400  -19.3680  -23.1840 C   0  0  0  0  0
  -16.1010  -18.7870  -23.8940 C   0  0  0  0  0
  -16.6750  -17.7030  -23.0210 C   0  0  0  0  0
  -13.1790  -19.5920  -20.3890 N   0  0  0  0  0
  -11.9410  -19.1830  -19.7180 C   0  0  0  0  0
  -10.9580  -18.5810  -20.7190 C   0  0  0  0  0
  -10.9930  -18.8780  -21.9190 O   0  0  0  0  0
  -11.4120  -20.4860  -19.0950 C   0  0  0  0  0
  -12.5810  -21.4470  -19.0920 C   0  0  0  0  0
  -13.3950  -21.0550  -20.3040 C   0  0  0  0  0
  -10.0920  -17.6980  -20.2160 N   0  0  0  0  0
   -9.1450  -17.0090  -21.0860 C   0  0  0  0  0
   -8.3130  -18.0480  -21.8500 C   0  0  0  0  0
   -7.9690  -19.0950  -21.3040 O   0  0  0  0  0
   -8.2000  -16.1100  -20.2750 C   0  0  0  0  0
   -8.8320  -15.1860  -19.2430 C   0  0  0  0  0
   -9.9000  -14.3000  -19.8590 C   0  0  0  0  0
   -9.3660  -13.2880  -20.7630 N   0  0  0  0  0
   -9.5540  -13.2580  -22.0850 C   0  0  0  0  0
   -9.0170  -12.2690  -22.8050 N   0  0  0  0  0
  -10.2680  -14.2040  -22.6960 N   0  0  0  0  0
   -7.9390  -17.7670  -23.1060 N   0  0  0  0  0
   -6.8750  -18.5760  -23.7200 C   0  0  0  0  0
   -5.6240  -18.4580  -22.8590 C   0  0  0  0  0
   -5.3640  -17.4210  -22.2380 O   0  0  0  0  0
   -6.6780  -17.9500  -25.1050 C   0  0  0  0  0
   -7.8470  -16.9870  -25.2900 C   0  0  0  0  0
   -8.2420  -16.5690  -23.9070 C   0  0  0  0  0
   -4.8570  -19.5400  -22.8040 N   0  0  0  0  0
   -3.6800  -19.6000  -21.9450 C   0  0  0  0  0
   -2.4770  -19.0420  -22.6940 C   0  0  0  0  0
   -2.2280  -19.4250  -23.8430 O   0  0  0  0  0
   -3.4160  -21.0400  -21.4990 C   0  0  0  0  0
   -4.5560  -21.6370  -20.6670 C   0  0  0  0  0
   -4.6610  -20.9640  -19.3120 C   0  0  0  0  0
   -5.4680  -21.8190  -18.3440 C   0  0  0  0  0
   -5.6530  -21.1510  -17.0080 N   0  3  0  0  0
   -1.7180  -18.1750  -22.0290 N   0  0  0  0  0
   -0.7120  -17.3340  -22.6900 C   0  0  0  0  0
    0.5350  -17.2410  -21.8100 C   0  0  0  0  0
    0.5000  -17.4890  -20.6100 O   0  0  0  0  0
   -1.2760  -15.9370  -22.9410 C   0  0  0  0  0
   -1.2600  -15.1990  -21.6270 C   0  0  0  0  0
   -2.7110  -16.0320  -23.4370 C   0  0  0  0  0
   -1.8920  -13.8800  -21.6750 C   0  0  0  0  0
    1.6570  -16.8340  -22.4180 N   0  0  0  0  0
    2.8940  -16.7180  -21.6390 C   0  0  0  0  0
    2.8780  -15.4800  -20.7620 C   0  0  0  0  0
    2.0780  -14.5500  -20.9780 O   0  0  0  0  0
    3.9950  -16.6450  -22.7140 C   0  0  0  0  0
    3.3460  -16.1010  -23.8970 C   0  0  0  0  0
    1.8680  -16.4400  -23.8210 C   0  0  0  0  0
    3.7520  -15.4570  -19.7300 N   0  0  0  0  0
    3.9700  -14.2610  -18.9370 C   0  0  0  0  0
    4.2880  -13.0890  -19.8160 C   0  0  0  0  0
    4.8530  -13.2010  -20.9180 O   0  0  0  0  0
    5.1630  -14.6160  -18.0560 C   0  0  0  0  0
    5.8250  -15.7190  -18.7030 C   0  0  0  0  0
    4.7950  -16.4750  -19.4680 C   0  0  0  0  0
    3.9940  -11.9980  -19.3460 O   0  0  0  0  0
  -16.2507  -19.0137  -16.2186 H   0  0  0  0  0
  -18.6522  -18.7324  -15.2286 H   0  0  0  0  0
  -18.6351  -17.8470  -13.1377 H   0  0  0  0  0
  -18.5486  -16.2739  -13.8824 H   0  0  0  0  0
  -16.4879  -17.4306  -12.3089 H   0  0  0  0  0
  -16.2945  -16.0443  -13.3086 H   0  0  0  0  0
  -20.2679  -17.5185  -16.2476 H   0  0  0  0  0
  -19.7440  -14.9351  -17.3623 H   0  0  0  0  0
  -21.1621  -16.0507  -17.7298 H   0  0  0  0  0
  -17.6161  -16.0238  -18.3792 H   0  0  0  0  0
  -18.3526  -16.5000  -21.2352 H   0  0  0  0  0
  -16.2891  -15.3783  -21.8587 H   0  0  0  0  0
  -15.8806  -15.1608  -20.0898 H   0  0  0  0  0
  -17.6944  -13.6275  -19.8277 H   0  0  0  0  0
  -15.5809  -12.6807  -20.6346 H   0  0  0  0  0
  -16.0853  -12.9495  -22.3212 H   0  0  0  0  0
  -16.9665  -11.7840  -21.3033 H   0  0  0  0  0
  -18.3981  -14.1825  -22.7360 H   0  0  0  0  0
  -19.3359  -14.6857  -21.3083 H   0  0  0  0  0
  -19.1634  -12.9562  -21.6959 H   0  0  0  0  0
  -15.5183  -20.0486  -21.1904 H   0  0  0  0  0
  -14.8309  -20.4296  -23.4061 H   0  0  0  0  0
  -14.0078  -18.8998  -23.5001 H   0  0  0  0  0
  -16.8502  -19.5546  -24.0880 H   0  0  0  0  0
  -15.7915  -18.3763  -24.8550 H   0  0  0  0  0
  -16.3405  -16.7074  -23.3124 H   0  0  0  0  0
  -17.7602  -17.6333  -23.0961 H   0  0  0  0  0
  -12.0931  -18.4074  -18.9674 H   0  0  0  0  0
  -11.0346  -20.3181  -18.0863 H   0  0  0  0  0
  -10.5725  -20.8851  -19.6644 H   0  0  0  0  0
  -13.1611  -21.3824  -18.1715 H   0  0  0  0  0
  -12.2560  -22.4865  -19.1365 H   0  0  0  0  0
  -13.0883  -21.5812  -21.2079 H   0  0  0  0  0
  -14.4476  -21.3227  -20.2114 H   0  0  0  0  0
  -10.0925  -17.5034  -19.2147 H   0  0  0  0  0
   -9.7078  -16.3845  -21.7798 H   0  0  0  0  0
   -7.7183  -15.4558  -21.0017 H   0  0  0  0  0
   -7.5586  -16.7876  -19.7115 H   0  0  0  0  0
   -8.0511  -14.5462  -18.8320 H   0  0  0  0  0
   -9.2986  -15.8004  -18.4730 H   0  0  0  0  0
  -10.4032  -13.7790  -19.0445 H   0  0  0  0  0
  -10.5627  -14.9414  -20.4400 H   0  0  0  0  0
   -8.8034  -12.5428  -20.3525 H   0  0  0  0  0
   -9.1544  -12.2410  -23.8153 H   0  0  0  0  0
   -8.4696  -11.5419  -22.3444 H   0  0  0  0  0
  -10.6789  -14.9634  -22.1530 H   0  0  0  0  0
   -7.1071  -19.6379  -23.8010 H   0  0  0  0  0
   -6.6599  -18.7095  -25.8866 H   0  0  0  0  0
   -5.7209  -17.4332  -25.1762 H   0  0  0  0  0
   -8.6756  -17.4604  -25.8167 H   0  0  0  0  0
   -7.5660  -16.1299  -25.9019 H   0  0  0  0  0
   -7.7094  -15.6824  -23.5630 H   0  0  0  0  0
   -9.2863  -16.2647  -23.8374 H   0  0  0  0  0
   -5.0967  -20.3493  -23.3766 H   0  0  0  0  0
   -3.8554  -18.9977  -21.0536 H   0  0  0  0  0
   -2.5224  -21.0325  -20.8750 H   0  0  0  0  0
   -3.3107  -21.6485  -22.3972 H   0  0  0  0  0
   -4.3546  -22.6971  -20.5130 H   0  0  0  0  0
   -5.4928  -21.4853  -21.2031 H   0  0  0  0  0
   -5.1623  -20.0039  -19.4345 H   0  0  0  0  0
   -3.6576  -20.8284  -18.9084 H   0  0  0  0  0
   -4.9258  -22.7508  -18.1836 H   0  0  0  0  0
   -6.4538  -21.9829  -18.7791 H   0  0  0  0  0
   -6.1972  -21.7601  -16.3971 H   0  0  0  0  0
   -4.7403  -20.9742  -16.5883 H   0  0  0  0  0
   -6.1464  -20.2675  -17.1364 H   0  0  0  0  0
   -1.8397  -18.0911  -21.0198 H   0  0  0  0  0
   -0.4465  -17.7818  -23.6476 H   0  0  0  0  0
   -0.6793  -15.4208  -23.6931 H   0  0  0  0  0
   -0.2155  -15.0465  -21.3554 H   0  0  0  0  0
   -1.8222  -15.8002  -20.9125 H   0  0  0  0  0
   -2.7358  -16.6002  -24.3669 H   0  0  0  0  0
   -3.3210  -16.5345  -22.6863 H   0  0  0  0  0
   -3.1008  -15.0292  -23.6119 H   0  0  0  0  0
   -1.3715  -13.2553  -22.4009 H   0  0  0  0  0
   -2.9357  -13.9891  -21.9698 H   0  0  0  0  0
   -1.8379  -13.4165  -20.6899 H   0  0  0  0  0
    3.0417  -17.5489  -20.9492 H   0  0  0  0  0
    4.4275  -17.6260  -22.9106 H   0  0  0  0  0
    4.8277  -16.0199  -22.3917 H   0  0  0  0  0
    3.7845  -16.5307  -24.7976 H   0  0  0  0  0
    3.4823  -15.0203  -23.9373 H   0  0  0  0  0
    1.2385  -15.5984  -24.1101 H   0  0  0  0  0
    1.5926  -17.2333  -24.5159 H   0  0  0  0  0
    3.0911  -13.9747  -18.3593 H   0  0  0  0  0
    4.9974  -14.1306  -21.1093 H   0  0  0  0  0
    4.8424  -14.8853  -17.0496 H   0  0  0  0  0
    5.8352  -13.7655  -17.9429 H   0  0  0  0  0
    6.3000  -16.3643  -17.9640 H   0  0  0  0  0
    6.6051  -15.3553  -19.3718 H   0  0  0  0  0
    5.1908  -16.9161  -20.3828 H   0  0  0  0  0
    4.4131  -17.3365  -18.9203 H   0  0  0  0  0
  1  2  1  0  0  0
  1  5  1  0  0  0
  2  3  1  0  0  0
  2  7  1  0  0  0
  3  4  1  0  0  0
  4  5  1  0  0  0
  5  6  2  0  0  0
  7  8  2  0  0  0
  7  9  1  0  0  0
  9 10  1  0  0  0
 10 11  1  0  0  0
 11 12  2  0  0  0
 11 13  1  0  0  0
 13 14  1  0  0  0
 14 15  1  0  0  0
 14 17  1  0  0  0
 15 16  2  0  0  0
 15 21  1  0  0  0
 17 18  1  0  0  0
 18 19  1  0  0  0
 18 20  1  0  0  0
 21 22  1  0  0  0
 21 27  1  0  0  0
 22 23  1  0  0  0
 22 25  1  0  0  0
 23 24  2  0  0  0
 23 28  1  0  0  0
 25 26  1  0  0  0
 26 27  1  0  0  0
 28 29  1  0  0  0
 28 34  1  0  0  0
 29 30  1  0  0  0
 29 32  1  0  0  0
 30 31  2  0  0  0
 30 35  1  0  0  0
 32 33  1  0  0  0
 33 34  1  0  0  0
 35 36  1  0  0  0
 36 37  1  0  0  0
 36 39  1  0  0  0
 37 38  2  0  0  0
 37 46  1  0  0  0
 39 40  1  0  0  0
 40 41  1  0  0  0
 41 42  1  0  0  0
 42 43  1  0  0  0
 43 44  1  0  0  0
 43 45  2  0  0  0
 46 47  1  0  0  0
 46 52  1  0  0  0
 47 48  1  0  0  0
 47 50  1  0  0  0
 48 49  2  0  0  0
 48 53  1  0  0  0
 50 51  1  0  0  0
 51 52  1  0  0  0
 53 54  1  0  0  0
 54 55  1  0  0  0
 54 57  1  0  0  0
 55 56  2  0  0  0
 55 62  1  0  0  0
 57 58  1  0  0  0
 58 59  1  0  0  0
 59 60  1  0  0  0
 60 61  1  0  0  0
 62 63  1  0  0  0
 63 64  1  0  0  0
 63 66  1  0  0  0
 64 65  2  0  0  0
 64 70  1  0  0  0
 66 67  1  0  0  0
 66 68  1  0  0  0
 67 69  1  0  0  0
 70 71  1  0  0  0
 70 76  1  0  0  0
 71 72  1  0  0  0
 71 74  1  0  0  0
 72 73  2  0  0  0
 72 77  1  0  0  0
 74 75  1  0  0  0
 75 76  1  0  0  0
 77 78  1  0  0  0
 77 83  1  0  0  0
 78 79  1  0  0  0
 78 81  1  0  0  0
 79 80  1  0  0  0
 79 84  2  0  0  0
 81 82  1  0  0  0
 82 83  1  0  0  0
  1 85  1  0  0  0
  2 86  1  0  0  0
  3 87  1  0  0  0
  3 88  1  0  0  0
  4 89  1  0  0  0
  4 90  1  0  0  0
  9 91  1  0  0  0
 10 92  1  0  0  0
 10 93  1  0  0  0
 13 94  1  0  0  0
 14 95  1  0  0  0
 17 96  1  0  0  0
 17 97  1  0  0  0
 18 98  1  0  0  0
 19 99  1  0  0  0
 19100  1  0  0  0
 19101  1  0  0  0
 20102  1  0  0  0
 20103  1  0  0  0
 20104  1  0  0  0
 22105  1  0  0  0
 25106  1  0  0  0
 25107  1  0  0  0
 26108  1  0  0  0
 26109  1  0  0  0
 27110  1  0  0  0
 27111  1  0  0  0
 29112  1  0  0  0
 32113  1  0  0  0
 32114  1  0  0  0
 33115  1  0  0  0
 33116  1  0  0  0
 34117  1  0  0  0
 34118  1  0  0  0
 35119  1  0  0  0
 36120  1  0  0  0
 39121  1  0  0  0
 39122  1  0  0  0
 40123  1  0  0  0
 40124  1  0  0  0
 41125  1  0  0  0
 41126  1  0  0  0
 42127  1  0  0  0
 44128  1  0  0  0
 44129  1  0  0  0
 45130  1  0  0  0
 47131  1  0  0  0
 50132  1  0  0  0
 50133  1  0  0  0
 51134  1  0  0  0
 51135  1  0  0  0
 52136  1  0  0  0
 52137  1  0  0  0
 53138  1  0  0  0
 54139  1  0  0  0
 57140  1  0  0  0
 57141  1  0  0  0
 58142  1  0  0  0
 58143  1  0  0  0
 59144  1  0  0  0
 59145  1  0  0  0
 60146  1  0  0  0
 60147  1  0  0  0
 61148  1  0  0  0
 61149  1  0  0  0
 61150  1  0  0  0
 62151  1  0  0  0
 63152  1  0  0  0
 66153  1  0  0  0
 67154  1  0  0  0
 67155  1  0  0  0
 68156  1  0  0  0
 68157  1  0  0  0
 68158  1  0  0  0
 69159  1  0  0  0
 69160  1  0  0  0
 69161  1  0  0  0
 71162  1  0  0  0
 74163  1  0  0  0
 74164  1  0  0  0
 75165  1  0  0  0
 75166  1  0  0  0
 76167  1  0  0  0
 76168  1  0  0  0
 78169  1  0  0  0
 80170  1  0  0  0
 81171  1  0  0  0
 81172  1  0  0  0
 82173  1  0  0  0
 82174  1  0  0  0
 83175  1  0  0  0
 83176  1  0  0  0
M  END
$$$$
