5yr6_ligand
  -I-interpret- 

 52 53  0  0  0  0  0  0  0  0999 V2000
   20.2060   -3.6740   12.1690 C   0  0  0  0  0
   20.0080   -4.2540   13.6110 C   0  0  0  0  0
   19.6560   -3.1090   14.5900 C   0  0  0  0  0
   18.3700   -2.4330   14.1930 C   0  0  0  0  0
   18.3550   -1.9580   12.7290 C   0  0  0  0  0
   18.8760   -3.0280   11.7610 C   0  0  0  0  0
   20.4720   -4.7410   11.1540 C   0  0  0  0  0
   21.3010   -2.7040   12.1720 O   0  0  0  0  0
   21.1250   -4.9440   14.4270 C   0  0  0  0  0
   21.4440   -6.2500   13.6910 C   0  0  0  0  0
   22.6320   -7.1680   13.4070 C   0  0  0  0  0
   23.4590   -6.5920   12.2490 C   0  0  0  0  0
   23.8030   -7.2280   11.1230 C   0  0  0  0  0
   22.5260   -4.2710   14.4620 C   0  0  0  0  0
   20.9150   -6.2400   14.9560 O   0  0  0  0  0
   24.5630   -6.4580   10.1030 C   0  0  0  0  0
   23.4340   -8.6220   10.7880 C   0  0  0  0  0
   19.7120   -2.5670   16.9180 C   0  0  0  0  0
   19.5890   -3.6300   15.9490 O   0  0  0  0  0
   16.6460   -3.5340   15.5980 C   0  0  0  0  0
   17.3480   -3.4110   14.3630 O   0  0  0  0  0
   16.1530   -4.7620   15.8730 N   0  0  0  0  0
   16.5230   -2.5150   16.2640 O   0  0  0  0  0
   19.2879   -5.0234   13.3325 H   0  0  0  0  0
   20.4397   -2.3526   14.5476 H   0  0  0  0  0
   18.2333   -1.5418   14.8056 H   0  0  0  0  0
   19.0057   -1.0870   12.6506 H   0  0  0  0  0
   17.3235   -1.7323   12.4585 H   0  0  0  0  0
   18.1316   -3.8240   11.7396 H   0  0  0  0  0
   19.0454   -2.5332   10.8047 H   0  0  0  0  0
   20.5543   -4.2883   10.1659 H   0  0  0  0  0
   21.4035   -5.2508   11.4002 H   0  0  0  0  0
   19.6514   -5.4584   11.1592 H   0  0  0  0  0
   21.1225   -2.0236   12.8253 H   0  0  0  0  0
   21.2849   -6.4742   12.6362 H   0  0  0  0  0
   22.2684   -8.1591   13.1358 H   0  0  0  0  0
   23.2559   -7.2407   14.2978 H   0  0  0  0  0
   23.8001   -5.5621   12.3545 H   0  0  0  0  0
   23.2232   -4.9139   14.9993 H   0  0  0  0  0
   22.8808   -4.1202   13.4425 H   0  0  0  0  0
   22.4528   -3.3087   14.9687 H   0  0  0  0  0
   23.9711   -5.6013    9.7809 H   0  0  0  0  0
   25.5011   -6.1109   10.5362 H   0  0  0  0  0
   24.7720   -7.0994    9.2468 H   0  0  0  0  0
   23.8371   -9.2951   11.5447 H   0  0  0  0  0
   22.3481   -8.7125   10.7608 H   0  0  0  0  0
   23.8461   -8.8812    9.8127 H   0  0  0  0  0
   20.6691   -2.0632   16.7832 H   0  0  0  0  0
   18.9009   -1.8527   16.7767 H   0  0  0  0  0
   19.6585   -2.9853   17.9231 H   0  0  0  0  0
   15.6074   -4.9143   16.7212 H   0  0  0  0  0
   16.3265   -5.5365   15.2323 H   0  0  0  0  0
  1  2  1  0  0  0
  1  6  1  0  0  0
  1  7  1  0  0  0
  1  8  1  0  0  0
  2  3  1  0  0  0
  2  9  1  0  0  0
  3  4  1  0  0  0
  3 19  1  0  0  0
  4  5  1  0  0  0
  4 21  1  0  0  0
  5  6  1  0  0  0
  9 10  1  0  0  0
  9 14  1  0  0  0
  9 15  1  0  0  0
 10 11  1  0  0  0
 10 15  1  0  0  0
 11 12  1  0  0  0
 12 13  2  0  0  0
 13 16  1  0  0  0
 13 17  1  0  0  0
 19 18  1  0  0  0
 21 20  1  0  0  0
 20 22  1  0  0  0
 20 23  2  0  0  0
  2 24  1  0  0  0
  3 25  1  0  0  0
  4 26  1  0  0  0
  5 27  1  0  0  0
  5 28  1  0  0  0
  6 29  1  0  0  0
  6 30  1  0  0  0
  7 31  1  0  0  0
  7 32  1  0  0  0
  7 33  1  0  0  0
  8 34  1  0  0  0
 10 35  1  0  0  0
 11 36  1  0  0  0
 11 37  1  0  0  0
 12 38  1  0  0  0
 14 39  1  0  0  0
 14 40  1  0  0  0
 14 41  1  0  0  0
 16 42  1  0  0  0
 16 43  1  0  0  0
 16 44  1  0  0  0
 17 45  1  0  0  0
 17 46  1  0  0  0
 17 47  1  0  0  0
 18 48  1  0  0  0
 18 49  1  0  0  0
 18 50  1  0  0  0
 22 51  1  0  0  0
 22 52  1  0  0  0
M  END
$$$$
