4xct_ligand
  -I-interpret- 

 52 53  0  0  0  0  0  0  0  0999 V2000
   15.6420  -20.3360   18.4020 O   0  0  0  0  0
   16.5790  -19.3450   17.8770 S   0  0  0  0  0
   16.2030  -18.9270   16.5200 O   0  0  0  0  0
   17.9640  -19.8790   17.9560 N   0  0  0  0  0
   18.0350  -21.0780   18.3630 O   0  0  0  0  0
   18.3210  -21.3320   19.7450 C   0  0  0  0  0
   17.3600  -22.3860   20.3190 C   0  0  0  0  0
   19.7600  -21.8150   19.9280 C   0  0  0  0  0
   18.8060  -19.5610   16.9080 C   0  0  0  0  0
   19.8660  -20.6600   16.5750 C   0  0  0  0  0
   19.3240  -21.7790   15.6710 C   0  0  0  0  0
   21.0650  -20.0570   15.8440 C   0  0  0  0  0
   19.6060  -18.3340   17.3940 C   0  0  0  0  0
   20.2800  -18.4110   18.3690 O   0  0  0  0  0
   19.5620  -17.0850   16.6670 N   0  0  0  0  0
   20.2050  -16.1780   17.0550 O   0  0  0  0  0
   16.6290  -17.8530   18.9560 C   0  0  0  0  0
   16.7560  -16.5550   18.3680 C   0  0  0  0  0
   16.8190  -15.3860   19.2490 C   0  0  0  0  0
   16.7530  -15.5510   20.6720 C   0  0  0  0  0
   16.6410  -16.8460   21.2600 C   0  0  0  0  0
   16.5740  -18.0150   20.3820 C   0  0  0  0  0
   16.8240  -14.2910   21.5710 C   0  0  0  0  0
   17.5180  -14.3450   22.9420 C   0  0  0  0  0
   17.5470  -13.2230   23.7470 C   0  0  0  0  0
   16.8450  -11.9300   23.2740 C   0  0  0  0  0
   16.2070  -11.8950   22.0860 C   0  0  0  0  0
   16.1720  -13.1660   21.1740 C   0  0  0  0  0
   18.1880  -20.3925   20.2815 H   0  0  0  0  0
   17.5007  -23.3296   19.7917 H   0  0  0  0  0
   17.5683  -22.5264   21.3797 H   0  0  0  0  0
   16.3321  -22.0466   20.1911 H   0  0  0  0  0
   19.9620  -21.9569   20.9897 H   0  0  0  0  0
   19.8944  -22.7600   19.4018 H   0  0  0  0  0
   20.4459  -21.0712   19.5226 H   0  0  0  0  0
   18.1970  -19.4175   16.0155 H   0  0  0  0  0
   20.1450  -21.0791   17.5418 H   0  0  0  0  0
   18.4868  -22.2709   16.1662 H   0  0  0  0  0
   18.9885  -21.3508   14.7265 H   0  0  0  0  0
   20.1138  -22.5059   15.4816 H   0  0  0  0  0
   20.7291  -19.5997   14.9134 H   0  0  0  0  0
   21.5305  -19.2999   16.4751 H   0  0  0  0  0
   21.7876  -20.8429   15.6240 H   0  0  0  0  0
   16.8050  -16.4380   17.2854 H   0  0  0  0  0
   16.9163  -14.3880   18.8216 H   0  0  0  0  0
   16.6060  -16.9626   22.3432 H   0  0  0  0  0
   16.4820  -19.0124   20.8120 H   0  0  0  0  0
   17.9874  -15.2693   23.2788 H   0  0  0  0  0
   18.0608  -13.2493   24.7080 H   0  0  0  0  0
   16.8655  -11.0409   23.9042 H   0  0  0  0  0
   15.7145  -10.9788   21.7604 H   0  0  0  0  0
   15.6296  -13.1496   20.2287 H   0  0  0  0  0
  1  2  2  0  0  0
  2  3  2  0  0  0
  2  4  1  0  0  0
  2 17  1  0  0  0
  4  5  1  0  0  0
  4  9  1  0  0  0
  5  6  1  0  0  0
  6  7  1  0  0  0
  6  8  1  0  0  0
  9 10  1  0  0  0
  9 13  1  0  0  0
 10 11  1  0  0  0
 10 12  1  0  0  0
 13 14  2  0  0  0
 13 15  1  0  0  0
 15 16  2  0  0  0
 17 18  4  0  0  0
 17 22  4  0  0  0
 18 19  4  0  0  0
 19 20  4  0  0  0
 20 21  4  0  0  0
 20 23  1  0  0  0
 21 22  4  0  0  0
 23 24  4  0  0  0
 23 28  4  0  0  0
 24 25  4  0  0  0
 25 26  4  0  0  0
 26 27  4  0  0  0
 27 28  4  0  0  0
  6 29  1  0  0  0
  7 30  1  0  0  0
  7 31  1  0  0  0
  7 32  1  0  0  0
  8 33  1  0  0  0
  8 34  1  0  0  0
  8 35  1  0  0  0
  9 36  1  0  0  0
 10 37  1  0  0  0
 11 38  1  0  0  0
 11 39  1  0  0  0
 11 40  1  0  0  0
 12 41  1  0  0  0
 12 42  1  0  0  0
 12 43  1  0  0  0
 18 44  1  0  0  0
 19 45  1  0  0  0
 21 46  1  0  0  0
 22 47  1  0  0  0
 24 48  1  0  0  0
 25 49  1  0  0  0
 26 50  1  0  0  0
 27 51  1  0  0  0
 28 52  1  0  0  0
M  END
$$$$
