3uvw_ligand
  -I-interpret- 

161160  0  0  0  0  0  0  0  0999 V2000
   27.8490   46.0160   23.4570 N   0  3  0  0  0
   27.4220   44.6410   23.8360 C   0  0  0  0  0
   25.9700   44.3060   23.7260 C   0  0  0  0  0
   25.1480   45.2190   23.9580 O   0  0  0  0  0
   28.1210   44.0330   25.0470 C   0  0  0  0  0
   27.5920   44.6470   26.2140 O   0  0  0  0  0
   25.6300   43.0510   23.4370 N   0  0  0  0  0
   24.2590   42.6000   23.4910 C   0  0  0  0  0
   23.9920   41.7770   24.7460 C   0  0  0  0  0
   24.6650   41.9240   25.7660 O   0  0  0  0  0
   22.9710   40.9430   24.6980 N   0  0  0  0  0
   22.5190   40.2620   25.9130 C   0  0  0  0  0
   23.4850   39.1850   26.3970 C   0  0  0  0  0
   23.4540   38.8210   27.5730 O   0  0  0  0  0
   21.0860   39.7110   25.7890 C   0  0  0  0  0
   20.8170   38.6580   24.7780 C   0  0  0  0  0
   19.4620   37.9320   25.0580 C   0  0  0  0  0
   18.3090   38.8200   24.8980 N   0  0  0  0  0
   17.0420   38.4580   25.0460 C   0  0  0  0  0
   16.7560   37.2020   25.3180 N   0  0  0  0  0
   16.0670   39.3550   24.9350 N   0  0  0  0  0
   24.3600   38.7020   25.5180 N   0  0  0  0  0
   25.3280   37.6670   25.8990 C   0  0  0  0  0
   24.7370   36.2700   25.9120 C   0  0  0  0  0
   23.5330   36.0490   25.6900 O   0  0  0  0  0
   29.4140   35.3470   20.1670 O   0  0  0  0  0
   29.2660   34.1570   19.8920 C   0  0  0  0  0
   30.2210   33.3940   18.9940 C   0  0  0  0  0
   28.2560   33.4520   20.4250 N   0  0  0  0  0
   27.1970   33.9950   21.2950 C   0  0  0  0  0
   27.3740   33.4180   22.6860 C   0  0  0  0  0
   26.2900   33.9220   23.6090 C   0  0  0  0  0
   26.4890   33.3170   24.9990 C   0  0  0  0  0
   25.4610   33.8840   25.9390 C   0  0  0  0  0
   25.7430   35.3020   26.2220 N   0  0  0  0  0
   25.3630   33.1110   27.2090 C   0  0  0  0  0
   25.0890   31.9000   27.2780 O   0  0  0  0  0
   25.8930   33.7940   28.5200 N   0  0  0  0  0
   25.7910   32.9410   29.7180 C   0  0  0  0  0
   27.0580   32.1790   29.9500 C   0  0  0  0  0
   28.0350   32.2440   29.1860 O   0  0  0  0  0
   27.0360   31.4570   31.0500 N   0  0  0  0  0
   28.1680   30.6740   31.4540 C   0  0  0  0  0
   28.4000   29.5170   30.5100 C   0  0  0  0  0
   27.4780   28.9290   29.9520 O   0  0  0  0  0
   28.5930   30.1060   22.7820 O   0  0  0  0  0
   27.8020   29.7340   23.6930 C   0  0  0  0  0
   26.4740   29.1140   23.4170 C   0  0  0  0  0
   28.1030   29.9460   24.9950 N   0  0  0  0  0
   29.3690   30.5830   25.4120 C   0  0  0  0  0
   30.3270   29.6040   26.1060 C   0  0  0  0  0
   29.8030   29.1900   27.4550 C   0  0  0  0  0
   30.8590   28.5000   28.3070 C   0  0  0  0  0
   30.1220   27.9970   29.5260 C   0  0  0  0  0
   29.7840   29.0930   30.4290 N   0  0  0  0  0
   30.9770   27.0910   30.3170 C   0  0  0  0  0
   31.8270   26.3680   29.9010 O   0  0  0  0  0
   30.6460   26.8740   31.8300 N   0  0  0  0  0
   31.3610   25.8260   32.5980 C   0  0  0  0  0
   32.8330   26.0840   32.8400 C   0  0  0  0  0
   33.5930   25.1300   33.0070 O   0  0  0  0  0
   33.2440   27.3530   32.9100 N   0  0  0  0  0
   34.6240   27.6760   33.2950 C   0  0  0  0  0
   34.7800   28.1850   34.7490 C   0  0  0  0  0
   35.8930   28.1930   35.2900 O   0  0  0  0  0
   35.1760   28.7810   32.4070 C   0  0  0  0  0
   35.0290   28.6490   30.9020 C   0  0  0  0  0
   35.7670   29.8270   30.2430 C   0  0  0  0  0
   35.5160   27.3030   30.3610 C   0  0  0  0  0
   33.6910   28.6800   35.3360 N   0  0  0  0  0
   33.7740   29.7070   36.3980 C   0  0  0  0  0
   34.1420   29.2180   37.7830 C   0  0  0  0  0
   34.7000   28.1350   37.9270 O   0  0  0  0  0
   33.8580   30.0060   38.8280 N   0  0  0  0  0
   33.3500   31.3910   38.7550 C   0  0  0  0  0
   33.7000   32.0530   40.0930 C   0  0  0  0  0
   33.7800   33.2820   40.2150 O   0  0  0  0  0
   31.8280   31.4330   38.5240 C   0  0  0  0  0
   33.9350   31.3320   41.0890 O   0  0  0  0  0
   27.3205   46.3218   22.6400 H   0  0  0  0  0
   27.6729   46.6519   24.2348 H   0  0  0  0  0
   28.8451   46.0130   23.2375 H   0  0  0  0  0
   27.8341   44.0941   22.9880 H   0  0  0  0  0
   29.1958   44.2036   24.9862 H   0  0  0  0  0
   27.9517   42.9567   25.0783 H   0  0  0  0  0
   28.0195   44.2778   26.9902 H   0  0  0  0  0
   26.3589   42.3894   23.1698 H   0  0  0  0  0
   24.0664   41.9741   22.6196 H   0  0  0  0  0
   23.6079   43.4740   23.5057 H   0  0  0  0  0
   22.4951   40.7720   23.8122 H   0  0  0  0  0
   22.5041   41.0363   26.6800 H   0  0  0  0  0
   20.4789   40.5626   25.4819 H   0  0  0  0  0
   20.8766   39.2427   26.7508 H   0  0  0  0  0
   21.6198   37.9220   24.8226 H   0  0  0  0  0
   20.7619   39.1272   23.7957 H   0  0  0  0  0
   19.4753   37.5794   26.0893 H   0  0  0  0  0
   19.3618   37.1170   24.3411 H   0  0  0  0  0
   18.4948   39.7927   24.6537 H   0  0  0  0  0
   17.5060   36.5172   25.4131 H   0  0  0  0  0
   15.0956   39.0705   25.0606 H   0  0  0  0  0
   16.2904   40.3277   24.7242 H   0  0  0  0  0
   24.3577   39.0578   24.5621 H   0  0  0  0  0
   25.6689   37.8903   26.9099 H   0  0  0  0  0
   26.1307   37.6787   25.1617 H   0  0  0  0  0
   30.2440   33.8615   18.0096 H   0  0  0  0  0
   31.2200   33.4120   19.4296 H   0  0  0  0  0
   29.8829   32.3621   18.8997 H   0  0  0  0  0
   28.2179   32.4557   20.2098 H   0  0  0  0  0
   26.2172   33.7241   20.9018 H   0  0  0  0  0
   27.2666   35.0822   21.3316 H   0  0  0  0  0
   28.3437   33.7263   23.0767 H   0  0  0  0  0
   27.3139   32.3312   22.6291 H   0  0  0  0  0
   25.3145   33.6301   23.2201 H   0  0  0  0  0
   26.3413   35.0089   23.6732 H   0  0  0  0  0
   27.4881   33.5576   25.3623 H   0  0  0  0  0
   26.3768   32.2341   24.9453 H   0  0  0  0  0
   24.4959   33.8044   25.4387 H   0  0  0  0  0
   26.6340   35.5864   26.6291 H   0  0  0  0  0
   26.2728   34.7404   28.5407 H   0  0  0  0  0
   24.9792   32.2289   29.5697 H   0  0  0  0  0
   25.6046   33.5774   30.5831 H   0  0  0  0  0
   26.1956   31.4541   31.6280 H   0  0  0  0  0
   27.9768   30.2759   32.4505 H   0  0  0  0  0
   29.0520   31.3117   31.4453 H   0  0  0  0  0
   25.8603   29.8114   22.8469 H   0  0  0  0  0
   26.6143   28.1982   22.8428 H   0  0  0  0  0
   25.9802   28.8808   24.3603 H   0  0  0  0  0
   27.4356   29.6573   25.7103 H   0  0  0  0  0
   29.1269   31.3734   26.1224 H   0  0  0  0  0
   29.8651   30.9575   24.5166 H   0  0  0  0  0
   31.2886   30.0984   26.2440 H   0  0  0  0  0
   30.4249   28.7144   25.4838 H   0  0  0  0  0
   28.9873   28.4848   27.2958 H   0  0  0  0  0
   29.4831   30.0895   27.9809 H   0  0  0  0  0
   31.6642   29.1827   28.5785 H   0  0  0  0  0
   31.3418   27.6861   27.7660 H   0  0  0  0  0
   29.2288   27.4949   29.1544 H   0  0  0  0  0
   30.5039   29.5493   30.9893 H   0  0  0  0  0
   29.9405   27.4515   32.2872 H   0  0  0  0  0
   31.2995   24.9122   32.0070 H   0  0  0  0  0
   30.8882   25.7838   33.5792 H   0  0  0  0  0
   32.5917   28.1067   32.6935 H   0  0  0  0  0
   35.1612   26.7334   33.1898 H   0  0  0  0  0
   36.2509   28.7791   32.5878 H   0  0  0  0  0
   34.6022   29.6694   32.6707 H   0  0  0  0  0
   33.9682   28.6809   30.6535 H   0  0  0  0  0
   35.3276   30.7650   30.5825 H   0  0  0  0  0
   36.8203   29.7958   30.5217 H   0  0  0  0  0
   35.6741   29.7519   29.1596 H   0  0  0  0  0
   36.5720   27.1773   30.6002 H   0  0  0  0  0
   34.9401   26.4989   30.8191 H   0  0  0  0  0
   35.3816   27.2774   29.2796 H   0  0  0  0  0
   32.7740   28.3413   35.0449 H   0  0  0  0  0
   32.7747   30.1338   36.4841 H   0  0  0  0  0
   34.5695   30.3888   36.0972 H   0  0  0  0  0
   34.0058   29.6144   39.7582 H   0  0  0  0  0
   33.8039   31.9132   37.9128 H   0  0  0  0  0
   31.5902   30.9316   37.5858 H   0  0  0  0  0
   31.3229   30.9264   39.3464 H   0  0  0  0  0
   31.4974   32.4706   38.4769 H   0  0  0  0  0
   33.8347   30.4089   40.8452 H   0  0  0  0  0
  2  1  1  0  0  0
  3  2  1  0  0  0
  2  5  1  0  0  0
  3  4  2  0  0  0
  7  3  1  0  0  0
  5  6  1  0  0  0
  8  7  1  0  0  0
  9  8  1  0  0  0
  9 10  2  0  0  0
 11  9  1  0  0  0
 12 11  1  0  0  0
 13 12  1  0  0  0
 12 15  1  0  0  0
 13 14  2  0  0  0
 22 13  1  0  0  0
 15 16  1  0  0  0
 16 17  1  0  0  0
 17 18  1  0  0  0
 18 19  1  0  0  0
 19 20  2  0  0  0
 19 21  1  0  0  0
 23 22  1  0  0  0
 24 23  1  0  0  0
 24 25  2  0  0  0
 35 24  1  0  0  0
 27 26  2  0  0  0
 27 28  1  0  0  0
 29 27  1  0  0  0
 30 29  1  0  0  0
 31 30  1  0  0  0
 32 31  1  0  0  0
 33 32  1  0  0  0
 34 33  1  0  0  0
 34 35  1  0  0  0
 36 34  1  0  0  0
 36 37  2  0  0  0
 38 36  1  0  0  0
 39 38  1  0  0  0
 40 39  1  0  0  0
 40 41  2  0  0  0
 42 40  1  0  0  0
 43 42  1  0  0  0
 44 43  1  0  0  0
 44 45  2  0  0  0
 55 44  1  0  0  0
 47 46  2  0  0  0
 47 48  1  0  0  0
 49 47  1  0  0  0
 50 49  1  0  0  0
 51 50  1  0  0  0
 52 51  1  0  0  0
 53 52  1  0  0  0
 54 53  1  0  0  0
 54 55  1  0  0  0
 54 56  1  0  0  0
 56 57  2  0  0  0
 56 58  1  0  0  0
 58 59  1  0  0  0
 59 60  1  0  0  0
 60 61  2  0  0  0
 60 62  1  0  0  0
 62 63  1  0  0  0
 63 64  1  0  0  0
 63 66  1  0  0  0
 64 65  2  0  0  0
 64 70  1  0  0  0
 66 67  1  0  0  0
 67 68  1  0  0  0
 67 69  1  0  0  0
 70 71  1  0  0  0
 71 72  1  0  0  0
 72 73  2  0  0  0
 72 74  1  0  0  0
 74 75  1  0  0  0
 75 76  1  0  0  0
 75 78  1  0  0  0
 76 77  2  0  0  0
 76 79  1  0  0  0
  1 80  1  0  0  0
  1 81  1  0  0  0
  1 82  1  0  0  0
  2 83  1  0  0  0
  5 84  1  0  0  0
  5 85  1  0  0  0
  6 86  1  0  0  0
  7 87  1  0  0  0
  8 88  1  0  0  0
  8 89  1  0  0  0
 11 90  1  0  0  0
 12 91  1  0  0  0
 15 92  1  0  0  0
 15 93  1  0  0  0
 16 94  1  0  0  0
 16 95  1  0  0  0
 17 96  1  0  0  0
 17 97  1  0  0  0
 18 98  1  0  0  0
 20 99  1  0  0  0
 21100  1  0  0  0
 21101  1  0  0  0
 22102  1  0  0  0
 23103  1  0  0  0
 23104  1  0  0  0
 28105  1  0  0  0
 28106  1  0  0  0
 28107  1  0  0  0
 29108  1  0  0  0
 30109  1  0  0  0
 30110  1  0  0  0
 31111  1  0  0  0
 31112  1  0  0  0
 32113  1  0  0  0
 32114  1  0  0  0
 33115  1  0  0  0
 33116  1  0  0  0
 34117  1  0  0  0
 35118  1  0  0  0
 38119  1  0  0  0
 39120  1  0  0  0
 39121  1  0  0  0
 42122  1  0  0  0
 43123  1  0  0  0
 43124  1  0  0  0
 48125  1  0  0  0
 48126  1  0  0  0
 48127  1  0  0  0
 49128  1  0  0  0
 50129  1  0  0  0
 50130  1  0  0  0
 51131  1  0  0  0
 51132  1  0  0  0
 52133  1  0  0  0
 52134  1  0  0  0
 53135  1  0  0  0
 53136  1  0  0  0
 54137  1  0  0  0
 55138  1  0  0  0
 58139  1  0  0  0
 59140  1  0  0  0
 59141  1  0  0  0
 62142  1  0  0  0
 63143  1  0  0  0
 66144  1  0  0  0
 66145  1  0  0  0
 67146  1  0  0  0
 68147  1  0  0  0
 68148  1  0  0  0
 68149  1  0  0  0
 69150  1  0  0  0
 69151  1  0  0  0
 69152  1  0  0  0
 70153  1  0  0  0
 71154  1  0  0  0
 71155  1  0  0  0
 74156  1  0  0  0
 75157  1  0  0  0
 78158  1  0  0  0
 78159  1  0  0  0
 78160  1  0  0  0
 79161  1  0  0  0
M  END
$$$$
