### 
### Created by X-TOOL on Mon Sep 10 21:13:08 2018
### 

@<TRIPOS>MOLECULE
3uvw_ligand
  161   160     1     0     0
SMALL
GAST_HUCK


@<TRIPOS>ATOM
      1 N          27.8490   46.0160   23.4570 N.4       1 SER         0.2396
      2 CA         27.4220   44.6410   23.8360 C.3       1 SER         0.0884
      3 C          25.9700   44.3060   23.7260 C.2       1 SER         0.2288
      4 O          25.1480   45.2190   23.9580 O.2       1 SER        -0.3906
      5 CB         28.1210   44.0330   25.0470 C.3       1 SER         0.1041
      6 OG         27.5920   44.6470   26.2140 O.3       1 SER        -0.3870
      7 N          25.6300   43.0510   23.4370 N.am      1 GLY        -0.2636
      8 CA         24.2590   42.6000   23.4910 C.3       1 GLY         0.1202
      9 C          23.9920   41.7770   24.7460 C.2       1 GLY         0.2007
     10 O          24.6650   41.9240   25.7660 O.2       1 GLY        -0.3947
     11 N          22.9710   40.9430   24.6980 N.am      1 ARG        -0.2640
     12 CA         22.5190   40.2620   25.9130 C.3       1 ARG         0.1311
     13 C          23.4850   39.1850   26.3970 C.2       1 ARG         0.2037
     14 O          23.4540   38.8210   27.5730 O.2       1 ARG        -0.3944
     15 CB         21.0860   39.7110   25.7890 C.3       1 ARG        -0.0092
     16 CG         20.8170   38.6580   24.7780 C.3       1 ARG        -0.0156
     17 CD         19.4620   37.9320   25.0580 C.3       1 ARG         0.0627
     18 NE         18.3090   38.8200   24.8980 N.pl3     1 ARG        -0.2723
     19 CZ         17.0420   38.4580   25.0460 C.cat     1 ARG         0.2882
     20 NH1        16.7560   37.2020   25.3180 N.pl3     1 ARG        -0.2849
     21 NH2        16.0670   39.3550   24.9350 N.pl3     1 ARG        -0.2849
     22 N          24.3600   38.7020   25.5180 N.am      1 GLY        -0.2664
     23 CA         25.3280   37.6670   25.8990 C.3       1 GLY         0.1201
     24 C          24.7370   36.2700   25.9120 C.2       1 GLY         0.2007
     25 O          23.5330   36.0490   25.6900 O.2       1 GLY        -0.3947
     26 OH         29.4140   35.3470   20.1670 O.2       1 ALY        -0.3974
     27 CH         29.2660   34.1570   19.8920 C.2       1 ALY         0.1729
     28 CH3        30.2210   33.3940   18.9940 C.3       1 ALY         0.0256
     29 NZ         28.2560   33.4520   20.4250 N.am      1 ALY        -0.2872
     30 CE         27.1970   33.9950   21.2950 C.3       1 ALY         0.0309
     31 CD         27.3740   33.4180   22.6860 C.3       1 ALY        -0.0325
     32 CG         26.2900   33.9220   23.6090 C.3       1 ALY        -0.0470
     33 CB         26.4890   33.3170   24.9990 C.3       1 ALY        -0.0123
     34 CA         25.4610   33.8840   25.9390 C.3       1 ALY         0.1310
     35 N          25.7430   35.3020   26.2220 N.am      1 ALY        -0.2640
     36 C          25.3630   33.1110   27.2090 C.2       1 ALY         0.2037
     37 O          25.0890   31.9000   27.2780 O.2       1 ALY        -0.3944
     38 N          25.8930   33.7940   28.5200 N.am      1 GLY        -0.2664
     39 CA         25.7910   32.9410   29.7180 C.3       1 GLY         0.1201
     40 C          27.0580   32.1790   29.9500 C.2       1 GLY         0.2005
     41 O          28.0350   32.2440   29.1860 O.2       1 GLY        -0.3947
     42 N          27.0360   31.4570   31.0500 N.am      1 GLY        -0.2666
     43 CA         28.1680   30.6740   31.4540 C.3       1 GLY         0.1201
     44 C          28.4000   29.5170   30.5100 C.2       1 GLY         0.2007
     45 O          27.4780   28.9290   29.9520 O.2       1 GLY        -0.3947
     46 OH         28.5930   30.1060   22.7820 O.2       1 ALY        -0.3974
     47 CH         27.8020   29.7340   23.6930 C.2       1 ALY         0.1729
     48 CH3        26.4740   29.1140   23.4170 C.3       1 ALY         0.0256
     49 NZ         28.1030   29.9460   24.9950 N.am      1 ALY        -0.2872
     50 CE         29.3690   30.5830   25.4120 C.3       1 ALY         0.0309
     51 CD         30.3270   29.6040   26.1060 C.3       1 ALY        -0.0325
     52 CG         29.8030   29.1900   27.4550 C.3       1 ALY        -0.0470
     53 CB         30.8590   28.5000   28.3070 C.3       1 ALY        -0.0123
     54 CA         30.1220   27.9970   29.5260 C.3       1 ALY         0.1310
     55 N          29.7840   29.0930   30.4290 N.am      1 ALY        -0.2640
     56 C          30.9770   27.0910   30.3170 C.2       1 ALY         0.2037
     57 O          31.8270   26.3680   29.9010 O.2       1 ALY        -0.3944
     58 N          30.6460   26.8740   31.8300 N.am      1 GLY        -0.2664
     59 CA         31.3610   25.8260   32.5980 C.3       1 GLY         0.1201
     60 C          32.8330   26.0840   32.8400 C.2       1 GLY         0.2007
     61 O          33.5930   25.1300   33.0070 O.2       1 GLY        -0.3947
     62 N          33.2440   27.3530   32.9100 N.am      1 LEU        -0.2640
     63 CA         34.6240   27.6760   33.2950 C.3       1 LEU         0.1312
     64 C          34.7800   28.1850   34.7490 C.2       1 LEU         0.2037
     65 O          35.8930   28.1930   35.2900 O.2       1 LEU        -0.3944
     66 CB         35.1760   28.7810   32.4070 C.3       1 LEU        -0.0101
     67 CG         35.0290   28.6490   30.9020 C.3       1 LEU        -0.0425
     68 CD1        35.7670   29.8270   30.2430 C.3       1 LEU        -0.0625
     69 CD2        35.5160   27.3030   30.3610 C.3       1 LEU        -0.0625
     70 N          33.6910   28.6800   35.3360 N.am      1 GLY        -0.2664
     71 CA         33.7740   29.7070   36.3980 C.3       1 GLY         0.1201
     72 C          34.1420   29.2180   37.7830 C.2       1 GLY         0.2002
     73 O          34.7000   28.1350   37.9270 O.2       1 GLY        -0.3947
     74 N          33.8580   30.0060   38.8280 N.am      1 TYR        -0.2700
     75 CA         33.3500   31.3910   38.7550 C.3       1 TYR         0.0916
     76 C          33.7000   32.0530   40.0930 C.2       1 TYR         0.0598
     77 O          33.7800   33.2820   40.2150 O.co2     1 TYR        -0.5666
     78 CB         31.8280   31.4330   38.5240 C.3       1 TYR        -0.0300
     79 OXT        33.9350   31.3320   41.0890 O.co2     1 TYR        -0.5666
     80 H          27.3205   46.3218   22.6400 H         1 SER         0.2016
     81 H          27.6729   46.6519   24.2348 H         1 SER         0.2016
     82 H          28.8451   46.0130   23.2375 H         1 SER         0.2016
     83 H          27.8341   44.0941   22.9880 H         1 SER         0.1122
     84 H          29.1958   44.2036   24.9862 H         1 SER         0.0640
     85 H          27.9517   42.9567   25.0783 H         1 SER         0.0640
     86 H          26.6471   44.4839   26.2597 H         1 SER         0.2099
     87 H          26.3589   42.3894   23.1698 H         1 GLY         0.1882
     88 H          24.0664   41.9741   22.6196 H         1 GLY         0.0763
     89 H          23.6079   43.4740   23.5057 H         1 GLY         0.0763
     90 H          22.4951   40.7720   23.8122 H         1 ARG         0.1883
     91 H          22.5041   41.0363   26.6800 H         1 ARG         0.0800
     92 H          20.4789   40.5626   25.4819 H         1 ARG         0.0313
     93 H          20.8766   39.2427   26.7508 H         1 ARG         0.0313
     94 H          21.6198   37.9220   24.8226 H         1 ARG         0.0301
     95 H          20.7619   39.1272   23.7957 H         1 ARG         0.0301
     96 H          19.4753   37.5794   26.0893 H         1 ARG         0.0689
     97 H          19.3618   37.1170   24.3411 H         1 ARG         0.0689
     98 H          18.4948   39.7927   24.6537 H         1 ARG         0.2642
     99 H          17.5060   36.5172   25.4131 H         1 ARG         0.2615
    100 H          15.7845   36.9137   25.4337 H         1 ARG         0.2615
    101 H          16.2911   40.3297   24.7346 H         1 ARG         0.2615
    102 H          15.0949   39.0685   25.0502 H         1 ARG         0.2615
    103 H          24.3577   39.0578   24.5621 H         1 GLY         0.1881
    104 H          25.6689   37.8903   26.9099 H         1 GLY         0.0763
    105 H          26.1307   37.6787   25.1617 H         1 GLY         0.0763
    106 H          30.2440   33.8615   18.0096 H         1 ALY         0.0467
    107 H          31.2200   33.4120   19.4296 H         1 ALY         0.0467
    108 H          29.8829   32.3621   18.8997 H         1 ALY         0.0467
    109 H          28.2179   32.4557   20.2098 H         1 ALY         0.1850
    110 H          26.2172   33.7241   20.9018 H         1 ALY         0.0520
    111 H          27.2666   35.0822   21.3316 H         1 ALY         0.0520
    112 H          28.3437   33.7263   23.0767 H         1 ALY         0.0285
    113 H          27.3139   32.3312   22.6291 H         1 ALY         0.0285
    114 H          25.3145   33.6301   23.2201 H         1 ALY         0.0268
    115 H          26.3413   35.0089   23.6732 H         1 ALY         0.0268
    116 H          27.4881   33.5576   25.3623 H         1 ALY         0.0312
    117 H          26.3768   32.2341   24.9453 H         1 ALY         0.0312
    118 H          24.4959   33.8044   25.4387 H         1 ALY         0.0800
    119 H          26.6340   35.5864   26.6291 H         1 ALY         0.1883
    120 H          26.2728   34.7404   28.5407 H         1 GLY         0.1881
    121 H          24.9792   32.2289   29.5697 H         1 GLY         0.0763
    122 H          25.6046   33.5774   30.5831 H         1 GLY         0.0763
    123 H          26.1956   31.4541   31.6280 H         1 GLY         0.1881
    124 H          27.9768   30.2759   32.4505 H         1 GLY         0.0763
    125 H          29.0520   31.3117   31.4453 H         1 GLY         0.0763
    126 H          25.8603   29.8114   22.8469 H         1 ALY         0.0467
    127 H          26.6143   28.1982   22.8428 H         1 ALY         0.0467
    128 H          25.9802   28.8808   24.3603 H         1 ALY         0.0467
    129 H          27.4356   29.6573   25.7103 H         1 ALY         0.1850
    130 H          29.1269   31.3734   26.1224 H         1 ALY         0.0520
    131 H          29.8651   30.9575   24.5166 H         1 ALY         0.0520
    132 H          31.2886   30.0984   26.2440 H         1 ALY         0.0285
    133 H          30.4249   28.7144   25.4838 H         1 ALY         0.0285
    134 H          28.9873   28.4848   27.2958 H         1 ALY         0.0268
    135 H          29.4831   30.0895   27.9809 H         1 ALY         0.0268
    136 H          31.6642   29.1827   28.5785 H         1 ALY         0.0312
    137 H          31.3418   27.6861   27.7660 H         1 ALY         0.0312
    138 H          29.2288   27.4949   29.1544 H         1 ALY         0.0800
    139 H          30.5039   29.5493   30.9893 H         1 ALY         0.1883
    140 H          29.9405   27.4515   32.2872 H         1 GLY         0.1881
    141 H          31.2995   24.9122   32.0070 H         1 GLY         0.0763
    142 H          30.8882   25.7838   33.5792 H         1 GLY         0.0763
    143 H          32.5917   28.1067   32.6935 H         1 LEU         0.1883
    144 H          35.1612   26.7334   33.1898 H         1 LEU         0.0800
    145 H          36.2509   28.7791   32.5878 H         1 LEU         0.0315
    146 H          34.6022   29.6694   32.6707 H         1 LEU         0.0315
    147 H          33.9682   28.6809   30.6535 H         1 LEU         0.0298
    148 H          35.3276   30.7650   30.5825 H         1 LEU         0.0232
    149 H          36.8203   29.7958   30.5217 H         1 LEU         0.0232
    150 H          35.6741   29.7519   29.1596 H         1 LEU         0.0232
    151 H          36.5720   27.1773   30.6002 H         1 LEU         0.0232
    152 H          34.9401   26.4989   30.8191 H         1 LEU         0.0232
    153 H          35.3816   27.2774   29.2796 H         1 LEU         0.0232
    154 H          32.7740   28.3413   35.0449 H         1 GLY         0.1881
    155 H          32.7747   30.1338   36.4841 H         1 GLY         0.0763
    156 H          34.5695   30.3888   36.0972 H         1 GLY         0.0763
    157 H          34.0058   29.6144   39.7582 H         1 TYR         0.1875
    158 H          33.8039   31.9132   37.9128 H         1 TYR         0.0723
    159 H          31.5902   30.9316   37.5858 H         1 TYR         0.0270
    160 H          31.3229   30.9264   39.3464 H         1 TYR         0.0270
    161 H          31.4974   32.4706   38.4769 H         1 TYR         0.0270
@<TRIPOS>BOND
     1    2    1 1  
     2    3    2 1  
     3    2    5 1  
     4    3    4 2  
     5    7    3 am 
     6    5    6 1  
     7    8    7 1  
     8    9    8 1  
     9    9   10 2  
    10   11    9 am 
    11   12   11 1  
    12   13   12 1  
    13   12   15 1  
    14   13   14 2  
    15   22   13 am 
    16   15   16 1  
    17   16   17 1  
    18   17   18 1  
    19   18   19 ar 
    20   19   20 ar 
    21   19   21 ar 
    22   23   22 1  
    23   24   23 1  
    24   24   25 2  
    25   35   24 am 
    26   27   26 2  
    27   27   28 1  
    28   29   27 am 
    29   30   29 1  
    30   31   30 1  
    31   32   31 1  
    32   33   32 1  
    33   34   33 1  
    34   34   35 1  
    35   36   34 1  
    36   36   37 2  
    37   38   36 am 
    38   39   38 1  
    39   40   39 1  
    40   40   41 2  
    41   42   40 am 
    42   43   42 1  
    43   44   43 1  
    44   44   45 2  
    45   55   44 am 
    46   47   46 2  
    47   47   48 1  
    48   49   47 am 
    49   50   49 1  
    50   51   50 1  
    51   52   51 1  
    52   53   52 1  
    53   54   53 1  
    54   54   55 1  
    55   54   56 1  
    56   56   57 2  
    57   56   58 am 
    58   58   59 1  
    59   59   60 1  
    60   60   61 2  
    61   60   62 am 
    62   62   63 1  
    63   63   64 1  
    64   63   66 1  
    65   64   65 2  
    66   64   70 am 
    67   66   67 1  
    68   67   68 1  
    69   67   69 1  
    70   70   71 1  
    71   71   72 1  
    72   72   73 2  
    73   72   74 am 
    74   74   75 1  
    75   75   76 1  
    76   75   78 1  
    77   76   77 ar 
    78   76   79 ar 
    79    1   80 1  
    80    1   81 1  
    81    1   82 1  
    82    2   83 1  
    83    5   84 1  
    84    5   85 1  
    85    6   86 1  
    86    7   87 1  
    87    8   88 1  
    88    8   89 1  
    89   11   90 1  
    90   12   91 1  
    91   15   92 1  
    92   15   93 1  
    93   16   94 1  
    94   16   95 1  
    95   17   96 1  
    96   17   97 1  
    97   18   98 1  
    98   20   99 1  
    99   20  100 1  
   100   21  101 1  
   101   21  102 1  
   102   22  103 1  
   103   23  104 1  
   104   23  105 1  
   105   28  106 1  
   106   28  107 1  
   107   28  108 1  
   108   29  109 1  
   109   30  110 1  
   110   30  111 1  
   111   31  112 1  
   112   31  113 1  
   113   32  114 1  
   114   32  115 1  
   115   33  116 1  
   116   33  117 1  
   117   34  118 1  
   118   35  119 1  
   119   38  120 1  
   120   39  121 1  
   121   39  122 1  
   122   42  123 1  
   123   43  124 1  
   124   43  125 1  
   125   48  126 1  
   126   48  127 1  
   127   48  128 1  
   128   49  129 1  
   129   50  130 1  
   130   50  131 1  
   131   51  132 1  
   132   51  133 1  
   133   52  134 1  
   134   52  135 1  
   135   53  136 1  
   136   53  137 1  
   137   54  138 1  
   138   55  139 1  
   139   58  140 1  
   140   59  141 1  
   141   59  142 1  
   142   62  143 1  
   143   63  144 1  
   144   66  145 1  
   145   66  146 1  
   146   67  147 1  
   147   68  148 1  
   148   68  149 1  
   149   68  150 1  
   150   69  151 1  
   151   69  152 1  
   152   69  153 1  
   153   70  154 1  
   154   71  155 1  
   155   71  156 1  
   156   74  157 1  
   157   75  158 1  
   158   78  159 1  
   159   78  160 1  
   160   78  161 1  
@<TRIPOS>SUBSTRUCTURE
     1 SER         1

