3wbl_ligand
  -I-interpret- 

 54 57  0  0  0  0  0  0  0  0999 V2000
   25.1200   62.0390   11.0040 C   0  0  0  0  0
   24.1410   62.0040   12.1770 C   0  0  0  0  0
   24.7440   62.7200   13.3970 C   0  0  0  0  0
   25.3240   64.0270   13.0680 N   0  3  0  0  0
   26.1520   64.2120   11.8850 C   0  0  0  0  0
   25.5750   63.4660   10.6610 C   0  0  0  0  0
   26.5340   63.3840    9.5600 N   0  0  0  0  0
   27.1090   64.4670    8.9410 C   0  0  0  0  0
   28.3350   64.2240    8.1050 C   0  0  0  0  0
   28.8800   62.8130    7.9940 C   0  0  0  0  0
   26.6030   65.7400    9.0670 N   0  0  0  0  0
   27.1960   66.7830    8.4110 C   0  0  0  0  0
   26.7740   68.1570    8.3730 C   0  0  0  0  0
   27.7360   68.7580    7.5490 C   0  0  0  0  0
   28.6870   67.8690    7.0620 N   0  0  0  0  0
   28.3390   66.6440    7.6120 N   0  0  0  0  0
   28.9880   65.3970    7.4270 C   0  0  0  0  0
   30.1030   65.3480    6.6500 N   0  0  0  0  0
   31.0720   64.3900    6.6780 C   0  0  0  0  0
   31.6300   63.8960    7.8770 C   0  0  0  0  0
   32.6150   62.8950    7.8240 C   0  0  0  0  0
   31.5080   63.8920    5.4460 C   0  0  0  0  0
   32.4890   62.9070    5.3950 C   0  0  0  0  0
   33.0570   62.4050    6.5810 C   0  0  0  0  0
   34.0310   61.4180    6.5340 O   0  0  0  0  0
   34.8230   61.1220    5.3720 C   0  0  0  0  0
   36.2150   61.7260    5.5020 C   0  0  0  0  0
   24.6137   61.6280   10.1306 H   0  0  0  0  0
   26.0018   61.4627   11.2841 H   0  0  0  0  0
   23.9364   60.9659   12.4389 H   0  0  0  0  0
   23.2199   62.5096   11.8870 H   0  0  0  0  0
   25.5439   62.0914   13.7883 H   0  0  0  0  0
   23.9406   62.8852   14.1149 H   0  0  0  0  0
   25.9596   64.2148   13.8433 H   0  0  0  0  0
   24.5115   64.6182   12.8928 H   0  0  0  0  0
   27.1442   63.8122   12.0944 H   0  0  0  0  0
   26.1868   65.2765   11.6533 H   0  0  0  0  0
   24.7125   64.0566   10.3522 H   0  0  0  0  0
   26.7947   62.4555    9.2277 H   0  0  0  0  0
   29.1476   62.4491    8.9860 H   0  0  0  0  0
   28.1190   62.1640    7.5606 H   0  0  0  0  0
   29.7637   62.8154    7.3559 H   0  0  0  0  0
   25.9170   68.6180    8.8640 H   0  0  0  0  0
   27.7379   69.8221    7.3126 H   0  0  0  0  0
   30.2267   66.1052    5.9779 H   0  0  0  0  0
   31.2988   64.2887    8.8383 H   0  0  0  0  0
   33.0372   62.4976    8.7470 H   0  0  0  0  0
   31.0773   64.2773    4.5218 H   0  0  0  0  0
   32.8199   62.5215    4.4306 H   0  0  0  0  0
   34.3348   61.5469    4.4949 H   0  0  0  0  0
   34.9157   60.0403    5.2746 H   0  0  0  0  0
   36.1320   62.8078    5.6066 H   0  0  0  0  0
   36.7089   61.3116    6.3809 H   0  0  0  0  0
   36.7970   61.4894    4.6113 H   0  0  0  0  0
  1  2  1  0  0  0
  1  6  1  0  0  0
  2  3  1  0  0  0
  3  4  1  0  0  0
  4  5  1  0  0  0
  5  6  1  0  0  0
  6  7  1  0  0  0
  7  8  1  0  0  0
  8  9  4  0  0  0
  8 11  4  0  0  0
  9 10  1  0  0  0
  9 17  4  0  0  0
 11 12  4  0  0  0
 12 13  4  0  0  0
 12 16  4  0  0  0
 13 14  4  0  0  0
 14 15  4  0  0  0
 15 16  4  0  0  0
 16 17  4  0  0  0
 17 18  1  0  0  0
 18 19  1  0  0  0
 19 20  4  0  0  0
 19 22  4  0  0  0
 20 21  4  0  0  0
 21 24  4  0  0  0
 22 23  4  0  0  0
 23 24  4  0  0  0
 24 25  1  0  0  0
 25 26  1  0  0  0
 26 27  1  0  0  0
  1 28  1  0  0  0
  1 29  1  0  0  0
  2 30  1  0  0  0
  2 31  1  0  0  0
  3 32  1  0  0  0
  3 33  1  0  0  0
  4 34  1  0  0  0
  4 35  1  0  0  0
  5 36  1  0  0  0
  5 37  1  0  0  0
  6 38  1  0  0  0
  7 39  1  0  0  0
 10 40  1  0  0  0
 10 41  1  0  0  0
 10 42  1  0  0  0
 13 43  1  0  0  0
 14 44  1  0  0  0
 18 45  1  0  0  0
 20 46  1  0  0  0
 21 47  1  0  0  0
 22 48  1  0  0  0
 23 49  1  0  0  0
 26 50  1  0  0  0
 26 51  1  0  0  0
 27 52  1  0  0  0
 27 53  1  0  0  0
 27 54  1  0  0  0
M  END
$$$$
