5dhg_ligand
  -I-interpret- 

 67 70  0  0  0  0  0  0  0  0999 V2000
  -12.0180   32.7290    3.3000 Cl  0  0  0  0  0
  -10.3440   33.3070    3.4120 C   0  0  0  0  0
   -9.8840   33.8500    4.6000 C   0  0  0  0  0
   -8.6200   34.3010    4.6970 C   0  0  0  0  0
   -7.7650   34.2240    3.6500 C   0  0  0  0  0
   -8.1820   33.6840    2.4340 C   0  0  0  0  0
   -7.0060   33.6270    1.0980 Cl  0  0  0  0  0
   -9.4940   33.2010    2.2840 C   0  0  0  0  0
  -10.1130   32.5650    0.9720 C   0  0  0  0  0
   -9.2790   31.5720    0.2530 C   0  0  0  0  0
   -9.9750   31.1040   -0.9830 C   0  0  0  0  0
  -10.5160   33.6640   -0.0010 C   0  0  0  0  0
  -11.1240   32.9590   -1.2750 C   0  0  0  0  0
  -10.2910   32.0440   -1.8210 N   0  3  0  0  0
  -11.0160   31.4930   -2.7390 C   0  0  0  0  0
  -10.1140   31.1220   -3.9360 C   0  0  0  0  0
  -10.9820   30.3410   -4.9590 C   0  0  0  0  0
  -10.0660   29.7830   -6.0130 N   0  0  0  0  0
  -10.1460   28.3360   -6.4240 C   0  0  0  0  0
  -10.9670   27.7340   -5.8450 O   0  0  0  0  0
   -7.2130   27.1270   -8.4110 C   0  0  0  0  0
   -8.1210   27.7230   -9.5460 C   0  0  0  0  0
   -9.4850   27.9960   -8.8590 C   0  0  0  0  0
   -9.3390   27.4270   -7.4640 C   0  0  0  0  0
   -7.9230   27.4210   -7.1930 N   0  3  0  0  0
   -7.4770   28.6510   -6.6010 C   0  0  0  0  0
   -7.2390   28.7260   -5.0850 C   0  0  0  0  0
   -7.2950   27.6570   -4.3340 C   0  0  0  0  0
   -7.0410   27.7850   -2.8240 C   0  0  0  0  0
   -6.7710   28.9510   -2.2990 C   0  0  0  0  0
   -6.7040   30.1940   -3.1850 C   0  0  0  0  0
   -6.9190   30.0910   -4.4810 C   0  0  0  0  0
  -10.5494   33.9124    5.4611 H   0  0  0  0  0
   -8.2780   34.7364    5.6359 H   0  0  0  0  0
   -6.7429   34.5869    3.7585 H   0  0  0  0  0
  -10.9696   32.0004    1.3401 H   0  0  0  0  0
   -9.1027   30.7173    0.9061 H   0  0  0  0  0
   -8.3343   32.0382   -0.0267 H   0  0  0  0  0
  -10.9077   30.6393   -0.6634 H   0  0  0  0  0
   -9.2849   30.4381   -1.5010 H   0  0  0  0  0
   -9.6527   34.2711   -0.2734 H   0  0  0  0  0
  -11.2479   34.3309    0.4548 H   0  0  0  0  0
  -11.3084   33.7289   -2.0242 H   0  0  0  0  0
  -12.0310   32.4395   -0.9658 H   0  0  0  0  0
   -9.4257   32.4831   -2.1355 H   0  0  0  0  0
  -11.7899   32.1887   -3.0634 H   0  0  0  0  0
  -11.4901   30.5947   -2.3434 H   0  0  0  0  0
   -9.2767   30.5085   -3.6034 H   0  0  0  0  0
   -9.7051   32.0220   -4.3953 H   0  0  0  0  0
  -11.7189   31.0041   -5.4123 H   0  0  0  0  0
  -11.5186   29.5340   -4.4600 H   0  0  0  0  0
   -9.3799   30.3938   -6.4565 H   0  0  0  0  0
   -6.2129   27.5603   -8.4168 H   0  0  0  0  0
   -7.0458   26.0576   -8.5396 H   0  0  0  0  0
   -8.2204   27.0381  -10.3881 H   0  0  0  0  0
   -7.6933   28.6296   -9.9741 H   0  0  0  0  0
  -10.3106   27.5340   -9.4003 H   0  0  0  0  0
   -9.7228   29.0596   -8.8396 H   0  0  0  0  0
   -9.7473   26.4203   -7.3745 H   0  0  0  0  0
   -7.7253   26.6943   -6.5051 H   0  0  0  0  0
   -8.2885   29.3547   -6.7864 H   0  0  0  0  0
   -6.4959   28.8276   -7.0418 H   0  0  0  0  0
   -7.5195   26.6855   -4.7744 H   0  0  0  0  0
   -7.0861   26.9005   -2.1886 H   0  0  0  0  0
   -6.5933   29.0369   -1.2270 H   0  0  0  0  0
   -6.4785   31.1655   -2.7452 H   0  0  0  0  0
   -6.8687   30.9745   -5.1174 H   0  0  0  0  0
  2  1  1  0  0  0
  2  3  4  0  0  0
  8  2  4  0  0  0
  3  4  4  0  0  0
  5  4  4  0  0  0
  6  5  4  0  0  0
  6  7  1  0  0  0
  8  6  4  0  0  0
  9  8  1  0  0  0
 10  9  1  0  0  0
 12  9  1  0  0  0
 11 10  1  0  0  0
 14 11  1  0  0  0
 13 12  1  0  0  0
 14 13  1  0  0  0
 15 14  1  0  0  0
 16 15  1  0  0  0
 17 16  1  0  0  0
 18 17  1  0  0  0
 19 18  1  0  0  0
 19 20  2  0  0  0
 24 19  1  0  0  0
 22 21  1  0  0  0
 21 25  1  0  0  0
 23 22  1  0  0  0
 23 24  1  0  0  0
 24 25  1  0  0  0
 25 26  1  0  0  0
 26 27  1  0  0  0
 27 28  4  0  0  0
 27 32  4  0  0  0
 28 29  4  0  0  0
 29 30  4  0  0  0
 30 31  4  0  0  0
 31 32  4  0  0  0
  3 33  1  0  0  0
  4 34  1  0  0  0
  5 35  1  0  0  0
  9 36  1  0  0  0
 10 37  1  0  0  0
 10 38  1  0  0  0
 11 39  1  0  0  0
 11 40  1  0  0  0
 12 41  1  0  0  0
 12 42  1  0  0  0
 13 43  1  0  0  0
 13 44  1  0  0  0
 14 45  1  0  0  0
 15 46  1  0  0  0
 15 47  1  0  0  0
 16 48  1  0  0  0
 16 49  1  0  0  0
 17 50  1  0  0  0
 17 51  1  0  0  0
 18 52  1  0  0  0
 21 53  1  0  0  0
 21 54  1  0  0  0
 22 55  1  0  0  0
 22 56  1  0  0  0
 23 57  1  0  0  0
 23 58  1  0  0  0
 24 59  1  0  0  0
 25 60  1  0  0  0
 26 61  1  0  0  0
 26 62  1  0  0  0
 28 63  1  0  0  0
 29 64  1  0  0  0
 30 65  1  0  0  0
 31 66  1  0  0  0
 32 67  1  0  0  0
M  END
$$$$
