4y0a_ligand
  -I-interpret- 

 24 24  0  0  0  0  0  0  0  0999 V2000
    3.0520    9.6830   20.0410 O   0  0  0  0  0
    4.1300   10.6260   20.0370 C   0  0  0  0  0
    5.2510   10.2410   20.7920 C   0  0  0  0  0
    6.2870   11.2570   20.7390 O   0  0  0  0  0
    5.9420    8.8870   20.2880 C   0  0  0  0  0
    6.0080    8.7230   18.7980 C   0  0  0  0  0
    6.7120    7.6110   18.1580 C   0  0  0  0  0
    6.8570    6.5550   18.8570 O   0  0  0  0  0
    7.0900    7.6870   16.9380 O   0  0  0  0  0
    5.3410    9.7610   17.9060 C   0  0  0  0  0
    4.5800   10.8410   18.4240 C   0  0  0  0  0
    3.3800   11.0020   17.6020 O   0  0  0  0  0
    2.7643    9.5314   20.9442 H   0  0  0  0  0
    3.7755   11.5420   20.5096 H   0  0  0  0  0
    4.8577   10.0958   21.7982 H   0  0  0  0  0
    5.9257   12.0965   21.0329 H   0  0  0  0  0
    5.3356    8.0648   20.6678 H   0  0  0  0  0
    6.9708    8.9068   20.6476 H   0  0  0  0  0
    6.0340    7.9390   19.5549 H   0  0  0  0  0
    6.8910    8.5618   16.5964 H   0  0  0  0  0
    4.6050    9.1791   17.3512 H   0  0  0  0  0
    6.1839   10.2565   17.4243 H   0  0  0  0  0
    5.2089   11.7306   18.3912 H   0  0  0  0  0
    2.8557   11.7306   17.9424 H   0  0  0  0  0
  1  2  1  0  0  0
  2  3  1  0  0  0
  2 11  1  0  0  0
  3  4  1  0  0  0
  3  5  1  0  0  0
  5  6  1  0  0  0
  6  7  1  0  0  0
  6 10  1  0  0  0
  7  8  2  0  0  0
  7  9  1  0  0  0
 10 11  1  0  0  0
 11 12  1  0  0  0
  1 13  1  0  0  0
  2 14  1  0  0  0
  3 15  1  0  0  0
  4 16  1  0  0  0
  5 17  1  0  0  0
  5 18  1  0  0  0
  6 19  1  0  0  0
  9 20  1  0  0  0
 10 21  1  0  0  0
 10 22  1  0  0  0
 11 23  1  0  0  0
 12 24  1  0  0  0
M  END
$$$$
