3zm6_ligand
  -I-interpret- 

 67 72  0  0  0  0  0  0  0  0999 V2000
   28.8350   40.2950    4.0350 O   0  0  0  0  0
   27.9670   40.6770    2.9610 S   0  0  0  0  0
   28.3410   41.9140    2.3580 O   0  0  0  0  0
   26.4060   40.8590    3.6050 N   0  0  0  0  0
   26.0320   42.2320    3.9300 C   0  0  0  0  0
   24.5210   42.1240    3.9000 C   0  0  0  0  0
   24.0830   41.1800    4.8800 O   0  0  0  0  0
   24.5450   39.8570    4.5840 C   0  0  0  0  0
   26.0760   39.8720    4.6000 C   0  0  0  0  0
   27.8870   39.4450    1.8990 C   0  0  0  0  0
   28.7780   38.4010    2.0730 C   0  0  0  0  0
   26.9330   39.3770    0.8740 C   0  0  0  0  0
   25.7360   40.6340    0.5320 Cl  0  0  0  0  0
   26.9020   38.2960    0.0120 C   0  0  0  0  0
   27.8130   37.2760    0.1490 C   0  0  0  0  0
   27.6890   35.9240   -0.9970 Cl  0  0  0  0  0
   28.7420   37.3140    1.1930 C   0  0  0  0  0
   29.7780   36.2750    1.3660 C   0  0  0  0  0
   30.0090   35.8050    2.4660 O   0  0  0  0  0
   30.5810   35.9880    0.1880 N   0  0  0  0  0
   31.5640   35.0640    0.2900 C   0  0  0  0  0
   32.4070   34.6700   -0.7470 C   0  0  0  0  0
   32.3050   35.2280   -2.0370 C   0  0  0  0  0
   32.2390   35.7320   -3.0890 N   0  0  0  0  0
   32.0000   34.2250    1.7130 S   0  0  0  0  0
   33.2690   33.2890    0.9140 C   0  0  0  0  0
   34.0460   32.3210    1.7150 C   0  0  0  0  0
   34.9070   31.5690    0.8200 N   0  3  0  0  0
   34.9850   31.7280   -0.6370 C   0  0  0  0  0
   34.4450   32.9960   -1.2970 C   0  0  0  0  0
   33.4220   33.6360   -0.4060 C   0  0  0  0  0
   35.7400   30.5780    1.4710 C   0  0  0  0  0
   36.2520   29.4820    0.5460 C   0  0  0  0  0
   35.4630   28.9210   -0.4630 C   0  0  0  0  0
   35.9800   27.9230   -1.2870 C   0  0  0  0  0
   37.2970   27.4900   -1.0770 C   0  0  0  0  0
   38.0880   28.0470   -0.0640 C   0  0  0  0  0
   37.5650   29.0460    0.7450 C   0  0  0  0  0
   37.9100   26.4310   -1.9350 C   0  0  0  0  0
   37.7560   26.3410   -3.2820 N   0  0  0  0  0
   38.7360   25.4450   -1.5060 N   0  0  0  0  0
   39.1220   24.6740   -2.6130 N   0  0  0  0  0
   38.4970   25.2370   -3.7380 N   0  0  0  0  0
   26.4382   42.9773    3.2462 H   0  0  0  0  0
   26.4335   42.5897    4.8781 H   0  0  0  0  0
   24.2032   41.7911    2.9119 H   0  0  0  0  0
   24.0858   43.0990    4.1192 H   0  0  0  0  0
   24.1829   39.5433    3.6049 H   0  0  0  0  0
   24.1688   39.1532    5.3264 H   0  0  0  0  0
   26.4838   40.1122    5.5819 H   0  0  0  0  0
   26.5083   38.8952    4.3828 H   0  0  0  0  0
   29.5013   38.4252    2.8881 H   0  0  0  0  0
   26.1528   38.2528   -0.7785 H   0  0  0  0  0
   30.4074   36.4713   -0.6933 H   0  0  0  0  0
   33.3708   31.6439    2.2381 H   0  0  0  0  0
   34.6481   32.8485    2.4548 H   0  0  0  0  0
   34.5481   32.1603    0.0704 H   0  0  0  0  0
   34.3598   30.9275   -1.0324 H   0  0  0  0  0
   36.0533   31.7421   -0.8528 H   0  0  0  0  0
   33.9824   32.7376   -2.2495 H   0  0  0  0  0
   35.2658   33.6938   -1.4627 H   0  0  0  0  0
   35.1271   30.0945    2.2317 H   0  0  0  0  0
   36.6130   31.1006    1.8621 H   0  0  0  0  0
   34.4389   29.2658   -0.6057 H   0  0  0  0  0
   35.3720   27.4872   -2.0798 H   0  0  0  0  0
   39.1092   27.6975    0.0881 H   0  0  0  0  0
   38.1754   29.4887    1.5321 H   0  0  0  0  0
  1  2  2  0  0  0
  2  3  2  0  0  0
  2  4  1  0  0  0
  2 10  1  0  0  0
  4  5  1  0  0  0
  4  9  1  0  0  0
  5  6  1  0  0  0
  6  7  1  0  0  0
  7  8  1  0  0  0
  8  9  1  0  0  0
 10 11  4  0  0  0
 10 12  4  0  0  0
 11 17  4  0  0  0
 12 13  1  0  0  0
 12 14  4  0  0  0
 14 15  4  0  0  0
 15 16  1  0  0  0
 15 17  4  0  0  0
 17 18  1  0  0  0
 18 19  2  0  0  0
 18 20  1  0  0  0
 20 21  1  0  0  0
 21 22  4  0  0  0
 21 25  4  0  0  0
 22 23  1  0  0  0
 22 31  4  0  0  0
 23 24  3  0  0  0
 25 26  4  0  0  0
 26 27  1  0  0  0
 26 31  4  0  0  0
 27 28  1  0  0  0
 28 29  1  0  0  0
 28 32  1  0  0  0
 29 30  1  0  0  0
 30 31  1  0  0  0
 32 33  1  0  0  0
 33 34  4  0  0  0
 33 38  4  0  0  0
 34 35  4  0  0  0
 35 36  4  0  0  0
 36 37  4  0  0  0
 36 39  1  0  0  0
 37 38  4  0  0  0
 39 40  4  0  0  0
 39 41  4  0  0  0
 40 43  4  0  0  0
 41 42  4  0  0  0
 42 43  4  0  0  0
  5 44  1  0  0  0
  5 45  1  0  0  0
  6 46  1  0  0  0
  6 47  1  0  0  0
  8 48  1  0  0  0
  8 49  1  0  0  0
  9 50  1  0  0  0
  9 51  1  0  0  0
 11 52  1  0  0  0
 14 53  1  0  0  0
 20 54  1  0  0  0
 27 55  1  0  0  0
 27 56  1  0  0  0
 28 57  1  0  0  0
 29 58  1  0  0  0
 29 59  1  0  0  0
 30 60  1  0  0  0
 30 61  1  0  0  0
 32 62  1  0  0  0
 32 63  1  0  0  0
 34 64  1  0  0  0
 35 65  1  0  0  0
 37 66  1  0  0  0
 38 67  1  0  0  0
M  END
$$$$
