2qp8_ligand
  -I-interpret- 

 84 86  0  0  0  0  0  0  0  0999 V2000
   26.7980   11.1020   18.9300 F   0  0  0  0  0
   22.6980   13.4690   18.4630 F   0  0  0  0  0
   26.8900   15.5380   24.5010 C   0  0  0  0  0
   27.0410   14.3580   23.7240 C   0  0  0  0  0
   25.8960   13.5540   23.4110 C   0  0  0  0  0
   24.6080   13.9450   23.8700 C   0  0  0  0  0
   24.4570   15.1350   24.6360 C   0  0  0  0  0
   25.5980   15.9260   24.9520 C   0  0  0  0  0
   28.3720   13.9440   23.2960 C   0  0  0  0  0
   28.6340   13.7350   21.9750 N   0  0  0  0  0
   29.2470   13.7730   24.1410 O   0  0  0  0  0
   29.9800   13.2970   21.6310 C   0  0  0  0  0
   27.6810   13.9310   20.8860 C   0  0  0  0  0
   28.2480   15.0030   19.9460 C   0  0  0  0  0
   28.8740   16.2060   20.7110 C   0  0  0  0  0
   29.9330   11.8140   21.1640 C   0  0  0  0  0
   29.0850   10.8990   22.0660 C   0  0  0  0  0
   25.4250   17.1550   25.7530 C   0  0  0  0  0
   23.4280   13.1540   23.5430 C   0  0  0  0  0
   22.3200   13.6550   23.4000 O   0  0  0  0  0
   23.6590   11.8240   23.4120 N   0  0  0  0  0
   22.5540   10.9140   23.0530 C   0  0  0  0  0
   22.0350   10.0930   24.2620 C   0  0  0  0  0
   21.0190    9.1660   23.8190 O   0  0  0  0  0
   23.0400    9.9800   21.9220 C   0  0  0  0  0
   23.6410   10.7890   20.7880 C   0  0  0  0  0
   24.9840   10.5600   20.3790 C   0  0  0  0  0
   25.5450   11.3190   19.3110 C   0  0  0  0  0
   24.7680   12.3100   18.6570 C   0  0  0  0  0
   23.4300   12.5370   19.0710 C   0  0  0  0  0
   22.8630   11.7820   20.1300 C   0  0  0  0  0
   21.4040   10.9750   25.3310 C   0  0  0  0  0
   20.1920   11.7470   24.7670 C   0  0  0  0  0
   19.3930   12.4410   25.8540 C   0  0  0  0  0
   19.0170   11.4570   26.9580 C   0  0  0  0  0
   20.2560   10.7860   27.5320 C   0  0  0  0  0
   20.9960   10.0930   26.4420 N   0  3  0  0  0
   18.2350   12.9880   25.2360 O   0  0  0  0  0
   17.4450   13.6970   26.1740 C   0  0  0  0  0
   16.4120   14.5050   25.3830 C   0  0  0  0  0
   27.7612   16.1437   24.7506 H   0  0  0  0  0
   26.0125   12.6443   22.8220 H   0  0  0  0  0
   23.4690   15.4405   24.9804 H   0  0  0  0  0
   30.6270   13.3849   22.5038 H   0  0  0  0  0
   30.3731   13.9206   20.8281 H   0  0  0  0  0
   26.7170   14.2498   21.2824 H   0  0  0  0  0
   27.5309   12.9970   20.3446 H   0  0  0  0  0
   27.4261   15.3840   19.3398 H   0  0  0  0  0
   29.0344   14.5414   19.3489 H   0  0  0  0  0
   28.1117   16.6763   21.3322 H   0  0  0  0  0
   29.6890   15.8498   21.3411 H   0  0  0  0  0
   29.2580   16.9311   19.9934 H   0  0  0  0  0
   30.9547   11.4350   21.1889 H   0  0  0  0  0
   29.4788   11.8016   20.1732 H   0  0  0  0  0
   29.4948   10.9057   23.0760 H   0  0  0  0  0
   28.0577   11.2627   22.0870 H   0  0  0  0  0
   29.1042    9.8831   21.6714 H   0  0  0  0  0
   26.0080   17.0743   26.6704 H   0  0  0  0  0
   25.7689   18.0140   25.1769 H   0  0  0  0  0
   24.3709   17.2804   26.0007 H   0  0  0  0  0
   24.5971   11.4524   23.5617 H   0  0  0  0  0
   21.7088   11.5140   22.7156 H   0  0  0  0  0
   22.8976    9.5784   24.6853 H   0  0  0  0  0
   20.7001    8.6597   24.5697 H   0  0  0  0  0
   22.1909    9.4124   21.5414 H   0  0  0  0  0
   23.8002    9.3075   22.3195 H   0  0  0  0  0
   25.5849    9.8030   20.8830 H   0  0  0  0  0
   25.1963   12.8931   17.8418 H   0  0  0  0  0
   21.8334   11.9624   20.4389 H   0  0  0  0  0
   22.1181   11.7217   25.6782 H   0  0  0  0  0
   19.5366   11.0310   24.2712 H   0  0  0  0  0
   20.5657   12.5095   24.0836 H   0  0  0  0  0
   19.9801   13.2299   26.3241 H   0  0  0  0  0
   18.3661   10.6904   26.5376 H   0  0  0  0  0
   18.5117   12.0014   27.7558 H   0  0  0  0  0
   19.9581   10.0591   28.2877 H   0  0  0  0  0
   20.8997   11.5396   27.9857 H   0  0  0  0  0
   21.8487    9.7122   26.8523 H   0  0  0  0  0
   20.3685    9.3895   26.0526 H   0  0  0  0  0
   18.0679   14.3582   26.7765 H   0  0  0  0  0
   16.9494   13.0063   26.8563 H   0  0  0  0  0
   16.9268   15.1965   24.7160 H   0  0  0  0  0
   15.7928   13.8259   24.7969 H   0  0  0  0  0
   15.7838   15.0657   26.0751 H   0  0  0  0  0
 28  1  1  0  0  0
 30  2  1  0  0  0
  4  3  4  0  0  0
  8  3  4  0  0  0
  5  4  4  0  0  0
  4  9  1  0  0  0
  6  5  4  0  0  0
  6  7  4  0  0  0
 19  6  1  0  0  0
  7  8  4  0  0  0
  8 18  1  0  0  0
  9 10  1  0  0  0
  9 11  2  0  0  0
 10 12  1  0  0  0
 10 13  1  0  0  0
 12 16  1  0  0  0
 13 14  1  0  0  0
 14 15  1  0  0  0
 16 17  1  0  0  0
 19 20  2  0  0  0
 21 19  1  0  0  0
 22 21  1  0  0  0
 22 23  1  0  0  0
 25 22  1  0  0  0
 23 24  1  0  0  0
 23 32  1  0  0  0
 26 25  1  0  0  0
 27 26  4  0  0  0
 26 31  4  0  0  0
 28 27  4  0  0  0
 29 28  4  0  0  0
 29 30  4  0  0  0
 30 31  4  0  0  0
 32 33  1  0  0  0
 32 37  1  0  0  0
 33 34  1  0  0  0
 34 35  1  0  0  0
 34 38  1  0  0  0
 35 36  1  0  0  0
 36 37  1  0  0  0
 38 39  1  0  0  0
 39 40  1  0  0  0
  3 41  1  0  0  0
  5 42  1  0  0  0
  7 43  1  0  0  0
 12 44  1  0  0  0
 12 45  1  0  0  0
 13 46  1  0  0  0
 13 47  1  0  0  0
 14 48  1  0  0  0
 14 49  1  0  0  0
 15 50  1  0  0  0
 15 51  1  0  0  0
 15 52  1  0  0  0
 16 53  1  0  0  0
 16 54  1  0  0  0
 17 55  1  0  0  0
 17 56  1  0  0  0
 17 57  1  0  0  0
 18 58  1  0  0  0
 18 59  1  0  0  0
 18 60  1  0  0  0
 21 61  1  0  0  0
 22 62  1  0  0  0
 23 63  1  0  0  0
 24 64  1  0  0  0
 25 65  1  0  0  0
 25 66  1  0  0  0
 27 67  1  0  0  0
 29 68  1  0  0  0
 31 69  1  0  0  0
 32 70  1  0  0  0
 33 71  1  0  0  0
 33 72  1  0  0  0
 34 73  1  0  0  0
 35 74  1  0  0  0
 35 75  1  0  0  0
 36 76  1  0  0  0
 36 77  1  0  0  0
 37 78  1  0  0  0
 37 79  1  0  0  0
 39 80  1  0  0  0
 39 81  1  0  0  0
 40 82  1  0  0  0
 40 83  1  0  0  0
 40 84  1  0  0  0
M  END
$$$$
