4aq3_ligand
  -I-interpret- 

 94 99  0  0  0  0  0  0  0  0999 V2000
  -22.6270    1.5700   -9.9880 O   0  0  0  0  0
  -22.5310    2.6470   -9.4610 C   0  0  0  0  0
  -22.2930    2.7670   -8.1400 N   0  0  0  0  0
  -22.0550    4.0520   -7.4770 C   0  0  0  0  0
  -20.7410    3.8810   -6.7250 C   0  0  0  0  0
  -20.1460    4.9670   -6.0960 C   0  0  0  0  0
  -18.9350    4.7600   -5.4260 C   0  0  0  0  0
  -18.3090    3.4960   -5.3150 C   0  0  0  0  0
  -18.8830    2.3710   -5.9240 C   0  0  0  0  0
  -20.0830    2.5280   -6.6210 C   0  0  0  0  0
  -20.7580    1.3160   -7.2300 C   0  0  0  0  0
  -22.2690    1.5770   -7.2460 C   0  0  0  0  0
  -22.7280    3.8120  -10.3790 C   0  0  0  0  0
  -21.6290    4.1860  -11.2780 C   0  0  0  0  0
  -20.5480    3.4220  -11.3250 N   0  0  0  0  0
  -19.8030    3.1280  -10.1790 N   0  0  0  0  0
  -18.8260    2.3050  -10.5670 C   0  0  0  0  0
  -17.7960    1.6280   -9.7380 C   0  0  0  0  0
  -18.0750    0.5030   -9.3420 O   0  0  0  0  0
  -16.6370    2.1490   -9.3910 N   0  0  0  0  0
  -16.4590    3.4660   -8.8080 C   0  0  0  0  0
  -16.6810    4.5510   -9.8430 C   0  0  0  0  0
  -17.6320    5.5980   -9.2470 C   0  0  0  0  0
  -16.9910    6.5890   -8.2890 C   0  0  0  0  0
  -15.4370    1.3180   -9.5430 C   0  0  0  0  0
  -15.0020    1.0630   -8.1350 C   0  0  0  0  0
  -13.5160    0.8270   -8.1650 C   0  0  0  0  0
  -13.2780   -0.0370   -9.3680 C   0  0  0  0  0
  -19.1210    2.0220  -11.9810 C   0  0  0  0  0
  -18.2010    0.9220  -13.1250 Cl  0  0  0  0  0
  -20.2810    2.7580  -12.4610 C   0  0  0  0  0
  -20.9220    2.7980  -13.8530 C   0  0  0  0  0
  -21.8570    5.2660  -12.1310 C   0  0  0  0  0
  -23.0430    5.9570  -12.1310 C   0  0  0  0  0
  -24.0550    5.6180  -11.2380 C   0  0  0  0  0
  -23.9090    4.5440  -10.3640 C   0  0  0  0  0
  -25.3140    6.4220  -11.2330 C   0  0  0  0  0
  -25.4460    7.2750  -12.0690 O   0  0  0  0  0
  -26.2460    6.1250  -10.3460 N   0  0  0  0  0
  -27.6500    6.8810  -10.2360 S   0  0  0  0  0
  -28.4000    6.8080  -11.4500 O   0  0  0  0  0
  -28.3230    6.1570   -9.1890 O   0  0  0  0  0
  -27.4990    8.4550   -9.8030 C   0  0  0  0  0
  -27.4750    9.4460  -10.7860 C   0  0  0  0  0
  -27.3570   10.7790  -10.4430 C   0  0  0  0  0
  -27.3240   11.7290  -11.4660 C   0  0  0  0  0
  -27.2060   13.0700  -11.1750 C   0  0  0  0  0
  -27.2390   14.4560  -12.7720 I   0  0  0  0  0
  -27.1360   13.4660   -9.8140 C   0  0  0  0  0
  -27.1730   12.5230   -8.7660 C   0  0  0  0  0
  -27.2850   11.1680   -9.0890 C   0  0  0  0  0
  -27.2950   10.1990   -8.1070 C   0  0  0  0  0
  -27.4210    8.8500   -8.4530 C   0  0  0  0  0
  -22.8712    4.3124   -6.8032 H   0  0  0  0  0
  -22.0018    4.8698   -8.1957 H   0  0  0  0  0
  -20.6095    5.9532   -6.1235 H   0  0  0  0  0
  -18.4477    5.6190   -4.9647 H   0  0  0  0  0
  -17.3790    3.3966   -4.7552 H   0  0  0  0  0
  -18.4029    1.3948   -5.8549 H   0  0  0  0  0
  -20.5349    0.4248   -6.6434 H   0  0  0  0  0
  -20.3927    1.1497   -8.2434 H   0  0  0  0  0
  -22.8761    0.7371   -7.5838 H   0  0  0  0  0
  -22.7184    1.7311   -6.2650 H   0  0  0  0  0
  -15.4401    3.5465   -8.4291 H   0  0  0  0  0
  -17.1845    3.5944   -8.0047 H   0  0  0  0  0
  -17.1151    4.1228  -10.7465 H   0  0  0  0  0
  -15.7311    5.0159  -10.1070 H   0  0  0  0  0
  -18.3796    5.0496   -8.6740 H   0  0  0  0  0
  -18.0193    6.1793  -10.0837 H   0  0  0  0  0
  -16.5573    6.0497   -7.4468 H   0  0  0  0  0
  -16.2090    7.1418   -8.8096 H   0  0  0  0  0
  -17.7486    7.2835   -7.9260 H   0  0  0  0  0
  -14.6639    1.8081  -10.1348 H   0  0  0  0  0
  -15.6358    0.3965  -10.0902 H   0  0  0  0  0
  -15.5203    0.1968   -7.7237 H   0  0  0  0  0
  -15.2430    1.9143   -7.4984 H   0  0  0  0  0
  -13.1669    0.3474   -7.2506 H   0  0  0  0  0
  -12.9617    1.7635   -8.2270 H   0  0  0  0  0
  -13.8299   -0.9705   -9.2582 H   0  0  0  0  0
  -13.6190    0.4852  -10.2620 H   0  0  0  0  0
  -12.2128   -0.2512   -9.4549 H   0  0  0  0  0
  -21.9732    2.5204  -13.7756 H   0  0  0  0  0
  -20.8400    3.8056  -14.2605 H   0  0  0  0  0
  -20.4069    2.0963  -14.5091 H   0  0  0  0  0
  -21.0685    5.5707  -12.8192 H   0  0  0  0  0
  -23.1930    6.7760  -12.8345 H   0  0  0  0  0
  -24.7121    4.2804   -9.6758 H   0  0  0  0  0
  -26.0584    5.3663   -9.6906 H   0  0  0  0  0
  -27.5502    9.1647  -11.8364 H   0  0  0  0  0
  -27.3923   11.4061  -12.5048 H   0  0  0  0  0
  -27.0515   14.5256   -9.5726 H   0  0  0  0  0
  -27.1155   12.8443   -7.7260 H   0  0  0  0  0
  -27.2045   10.4856   -7.0592 H   0  0  0  0  0
  -27.4594    8.0945   -7.6682 H   0  0  0  0  0
  1  2  2  0  0  0
  2  3  1  0  0  0
  2 13  1  0  0  0
  3  4  1  0  0  0
  3 12  1  0  0  0
  4  5  1  0  0  0
  5  6  4  0  0  0
  5 10  4  0  0  0
  6  7  4  0  0  0
  7  8  4  0  0  0
  8  9  4  0  0  0
  9 10  4  0  0  0
 10 11  1  0  0  0
 11 12  1  0  0  0
 13 14  4  0  0  0
 13 36  4  0  0  0
 14 15  1  0  0  0
 14 33  4  0  0  0
 15 16  4  0  0  0
 15 31  4  0  0  0
 16 17  4  0  0  0
 17 18  1  0  0  0
 17 29  4  0  0  0
 18 19  2  0  0  0
 18 20  1  0  0  0
 20 21  1  0  0  0
 20 25  1  0  0  0
 21 22  1  0  0  0
 22 23  1  0  0  0
 23 24  1  0  0  0
 25 26  1  0  0  0
 26 27  1  0  0  0
 27 28  1  0  0  0
 29 30  1  0  0  0
 29 31  4  0  0  0
 31 32  1  0  0  0
 33 34  4  0  0  0
 34 35  4  0  0  0
 35 36  4  0  0  0
 35 37  1  0  0  0
 37 38  2  0  0  0
 37 39  1  0  0  0
 39 40  1  0  0  0
 40 41  2  0  0  0
 40 42  2  0  0  0
 40 43  1  0  0  0
 43 44  4  0  0  0
 43 53  4  0  0  0
 44 45  4  0  0  0
 45 46  4  0  0  0
 45 51  4  0  0  0
 46 47  4  0  0  0
 47 48  1  0  0  0
 47 49  4  0  0  0
 49 50  4  0  0  0
 50 51  4  0  0  0
 51 52  4  0  0  0
 52 53  4  0  0  0
  4 54  1  0  0  0
  4 55  1  0  0  0
  6 56  1  0  0  0
  7 57  1  0  0  0
  8 58  1  0  0  0
  9 59  1  0  0  0
 11 60  1  0  0  0
 11 61  1  0  0  0
 12 62  1  0  0  0
 12 63  1  0  0  0
 21 64  1  0  0  0
 21 65  1  0  0  0
 22 66  1  0  0  0
 22 67  1  0  0  0
 23 68  1  0  0  0
 23 69  1  0  0  0
 24 70  1  0  0  0
 24 71  1  0  0  0
 24 72  1  0  0  0
 25 73  1  0  0  0
 25 74  1  0  0  0
 26 75  1  0  0  0
 26 76  1  0  0  0
 27 77  1  0  0  0
 27 78  1  0  0  0
 28 79  1  0  0  0
 28 80  1  0  0  0
 28 81  1  0  0  0
 32 82  1  0  0  0
 32 83  1  0  0  0
 32 84  1  0  0  0
 33 85  1  0  0  0
 34 86  1  0  0  0
 36 87  1  0  0  0
 39 88  1  0  0  0
 44 89  1  0  0  0
 46 90  1  0  0  0
 49 91  1  0  0  0
 50 92  1  0  0  0
 52 93  1  0  0  0
 53 94  1  0  0  0
M  END
$$$$
