6tel_ligand
  -I-interpret- 

 73 78  0  0  0  0  0  0  0  0999 V2000
   31.6300  -10.4020   10.8160 C   0  0  0  0  0
   31.3990  -10.8480    9.5000 C   0  0  0  0  0
   30.2200  -11.5390    9.2160 C   0  0  0  0  0
   31.3500   -8.5580   17.8080 C   0  0  0  0  0
   32.8100   -8.7710   18.3360 C   0  0  0  0  0
   32.0020  -10.8140   19.6800 C   0  0  0  0  0
   30.5850  -10.5630   19.0710 C   0  0  0  0  0
   26.6840  -11.1830    9.2120 C   0  0  0  0  0
   33.8640   -9.5530   10.2490 C   0  0  0  0  0
   33.6440   -8.2980    9.3730 C   0  0  0  0  0
   33.8530   -8.3540    7.9860 C   0  0  0  0  0
   33.6450   -7.2780    7.1530 C   0  0  0  0  0
   33.2510   -6.0140    7.6360 C   0  0  0  0  0
   33.0270   -5.9220    9.0170 C   0  0  0  0  0
   33.1720   -7.0600    9.8500 C   0  0  0  0  0
   35.1570   -9.3020   11.0360 C   0  0  0  0  0
   36.4280   -9.7300   10.5590 C   0  0  0  0  0
   37.5950   -9.4300   11.2720 C   0  0  0  0  0
   37.4900   -8.6490   12.4360 C   0  0  0  0  0
   36.2120   -8.2340   12.8730 C   0  0  0  0  0
   34.4590   -8.9160    5.9710 C   0  0  0  0  0
   29.2260  -11.6970   10.1950 C   0  0  0  0  0
   29.4320  -11.2060   11.4910 C   0  0  0  0  0
   30.6530  -10.5660   11.8100 C   0  0  0  0  0
   30.8810  -10.0380   13.0540 N   0  0  0  0  0
   27.7190  -12.5510    9.8010 S   0  0  0  0  0
   27.1610  -13.0860   11.0040 O   0  0  0  0  0
   28.0490  -13.4390    8.7170 O   0  0  0  0  0
   35.0960   -8.5720   12.1820 N   0  0  0  0  0
   36.5600  -10.6640    9.0940 Cl  0  0  0  0  0
   32.7830   -9.8200   11.1780 N   0  0  0  0  0
   34.2220   -9.4800    7.2840 O   0  0  0  0  0
   33.9980   -7.5400    5.8380 O   0  0  0  0  0
   35.7320   -9.0510    5.6090 F   0  0  0  0  0
   33.8020   -9.6780    5.0790 F   0  0  0  0  0
   30.5270  -10.6330   14.2250 C   0  0  0  0  0
   30.7920  -10.0100   15.3900 N   0  0  0  0  0
   30.4270  -10.5390   16.5790 C   0  0  0  0  0
   29.8260  -11.7690   16.5540 N   0  0  0  0  0
   29.5320  -12.4150   15.4000 C   0  0  0  0  0
   29.9170  -11.8420   14.2470 N   0  0  0  0  0
   28.9230  -13.6820   15.4370 O   0  0  0  0  0
   28.3620  -14.2250   14.2180 C   0  0  0  0  0
   30.7420   -9.8970   17.7510 N   0  0  0  0  0
   32.9140   -9.6300   19.5640 N   0  3  0  0  0
   32.1303  -10.6563    8.7148 H   0  0  0  0  0
   30.0691  -11.9610    8.2224 H   0  0  0  0  0
   31.3495   -8.0813   16.8277 H   0  0  0  0  0
   30.7853   -7.8948   18.4632 H   0  0  0  0  0
   33.1977   -7.7878   18.6027 H   0  0  0  0  0
   33.3624   -9.2791   17.5456 H   0  0  0  0  0
   32.4573  -11.6364   19.1282 H   0  0  0  0  0
   31.8720  -11.0276   20.7409 H   0  0  0  0  0
   30.0033   -9.9274   19.7386 H   0  0  0  0  0
   30.0632  -11.5118   18.9463 H   0  0  0  0  0
   25.6768  -11.5500    9.0146 H   0  0  0  0  0
   26.6456  -10.4041    9.9736 H   0  0  0  0  0
   27.1098  -10.7756    8.2950 H   0  0  0  0  0
   33.9138  -10.4274    9.6002 H   0  0  0  0  0
   33.1275   -5.1570    6.9739 H   0  0  0  0  0
   32.7386   -4.9662    9.4545 H   0  0  0  0  0
   32.9070   -6.9730   10.9037 H   0  0  0  0  0
   38.5643   -9.7943   10.9317 H   0  0  0  0  0
   38.3828   -8.3672   12.9942 H   0  0  0  0  0
   36.1223   -7.6337   13.7784 H   0  0  0  0  0
   28.6564  -11.3164   12.2489 H   0  0  0  0  0
   31.3500   -9.1337   13.1055 H   0  0  0  0  0
   32.9054   -9.5521   12.1545 H   0  0  0  0  0
   27.5841  -13.5569   13.8484 H   0  0  0  0  0
   29.1478  -14.3195   13.4685 H   0  0  0  0  0
   27.9332  -15.2060   14.4224 H   0  0  0  0  0
   32.6622   -9.0195   20.3413 H   0  0  0  0  0
   33.8570  -10.0181   19.5415 H   0  0  0  0  0
  1  2  4  0  0  0
 24  1  4  0  0  0
  1 31  1  0  0  0
  2  3  4  0  0  0
 22  3  4  0  0  0
  4  5  1  0  0  0
 44  4  1  0  0  0
  5 45  1  0  0  0
  7  6  1  0  0  0
  6 45  1  0  0  0
 44  7  1  0  0  0
 26  8  1  0  0  0
  9 10  1  0  0  0
  9 16  1  0  0  0
 31  9  1  0  0  0
 10 11  4  0  0  0
 10 15  4  0  0  0
 11 12  4  0  0  0
 11 32  1  0  0  0
 12 13  4  0  0  0
 12 33  1  0  0  0
 14 13  4  0  0  0
 15 14  4  0  0  0
 16 17  4  0  0  0
 16 29  4  0  0  0
 17 18  4  0  0  0
 17 30  1  0  0  0
 18 19  4  0  0  0
 20 19  4  0  0  0
 29 20  4  0  0  0
 32 21  1  0  0  0
 21 33  1  0  0  0
 21 34  1  0  0  0
 21 35  1  0  0  0
 23 22  4  0  0  0
 22 26  1  0  0  0
 24 23  4  0  0  0
 25 24  1  0  0  0
 36 25  1  0  0  0
 26 27  2  0  0  0
 26 28  2  0  0  0
 37 36  4  0  0  0
 36 41  4  0  0  0
 38 37  4  0  0  0
 38 39  4  0  0  0
 38 44  1  0  0  0
 39 40  4  0  0  0
 40 41  4  0  0  0
 40 42  1  0  0  0
 42 43  1  0  0  0
  2 46  1  0  0  0
  3 47  1  0  0  0
  4 48  1  0  0  0
  4 49  1  0  0  0
  5 50  1  0  0  0
  5 51  1  0  0  0
  6 52  1  0  0  0
  6 53  1  0  0  0
  7 54  1  0  0  0
  7 55  1  0  0  0
  8 56  1  0  0  0
  8 57  1  0  0  0
  8 58  1  0  0  0
  9 59  1  0  0  0
 13 60  1  0  0  0
 14 61  1  0  0  0
 15 62  1  0  0  0
 18 63  1  0  0  0
 19 64  1  0  0  0
 20 65  1  0  0  0
 23 66  1  0  0  0
 25 67  1  0  0  0
 31 68  1  0  0  0
 43 69  1  0  0  0
 43 70  1  0  0  0
 43 71  1  0  0  0
 45 72  1  0  0  0
 45 73  1  0  0  0
M  END
$$$$
