### 
### Created by X-TOOL on Mon Aug  2 16:16:54 2021
### 

@<TRIPOS>MOLECULE
6tel_ligand
   73    78     1     0     0
SMALL
GAST_HUCK


@<TRIPOS>ATOM
      1 C1         31.6300  -10.4020   10.8160 C.ar      1 N4Z         0.0684
      2 C2         31.3990  -10.8480    9.5000 C.ar      1 N4Z        -0.0507
      3 C3         30.2200  -11.5390    9.2160 C.ar      1 N4Z        -0.0602
      4 C41        31.3500   -8.5580   17.8080 C.3       1 N4Z         0.0756
      5 C42        32.8100   -8.7710   18.3360 C.3       1 N4Z        -0.0120
      6 C44        32.0020  -10.8140   19.6800 C.3       1 N4Z        -0.0120
      7 C45        30.5850  -10.5630   19.0710 C.3       1 N4Z         0.0756
      8 C11        26.6840  -11.1830    9.2120 C.3       1 N4Z         0.0578
      9 C12        33.8640   -9.5530   10.2490 C.3       1 N4Z         0.1117
     10 C13        33.6440   -8.2980    9.3730 C.ar      1 N4Z         0.0161
     11 C14        33.8530   -8.3540    7.9860 C.ar      1 N4Z         0.1348
     12 C15        33.6450   -7.2780    7.1530 C.ar      1 N4Z         0.1235
     13 C16        33.2510   -6.0140    7.6360 C.ar      1 N4Z        -0.0475
     14 C17        33.0270   -5.9220    9.0170 C.ar      1 N4Z        -0.0875
     15 C18        33.1720   -7.0600    9.8500 C.ar      1 N4Z        -0.0752
     16 C19        35.1570   -9.3020   11.0360 C.ar      1 N4Z         0.0752
     17 C20        36.4280   -9.7300   10.5590 C.ar      1 N4Z         0.0731
     18 C21        37.5950   -9.4300   11.2720 C.ar      1 N4Z        -0.0347
     19 C22        37.4900   -8.6490   12.4360 C.ar      1 N4Z        -0.0406
     20 C23        36.2120   -8.2340   12.8730 C.ar      1 N4Z         0.0031
     21 C28        34.4590   -8.9160    5.9710 C.3       1 N4Z         0.5255
     22 C4         29.2260  -11.6970   10.1950 C.ar      1 N4Z         0.0655
     23 C5         29.4320  -11.2060   11.4910 C.ar      1 N4Z        -0.0237
     24 C6         30.6530  -10.5660   11.8100 C.ar      1 N4Z         0.0891
     25 N7         30.8810  -10.0380   13.0540 N.pl3     1 N4Z        -0.2455
     26 S8         27.7190  -12.5510    9.8010 S.o2      1 N4Z        -0.0139
     27 O9         27.1610  -13.0860   11.0040 O.2       1 N4Z        -0.1714
     28 O10        28.0490  -13.4390    8.7170 O.2       1 N4Z        -0.1714
     29 N24        35.0960   -8.5720   12.1820 N.ar      1 N4Z        -0.2936
     30 CL1        36.5600  -10.6640    9.0940 Cl        1 N4Z        -0.0668
     31 N26        32.7830   -9.8200   11.1780 N.pl3     1 N4Z        -0.3009
     32 O27        34.2220   -9.4800    7.2840 O.3       1 N4Z        -0.2342
     33 O29        33.9980   -7.5400    5.8380 O.3       1 N4Z        -0.2323
     34 F30        35.7320   -9.0510    5.6090 F         1 N4Z        -0.1404
     35 F31        33.8020   -9.6780    5.0790 F         1 N4Z        -0.1404
     36 C32        30.5270  -10.6330   14.2250 C.ar      1 N4Z         0.1920
     37 N33        30.7920  -10.0100   15.3900 N.ar      1 N4Z        -0.2305
     38 C34        30.4270  -10.5390   16.5790 C.ar      1 N4Z         0.1782
     39 N35        29.8260  -11.7690   16.5540 N.ar      1 N4Z        -0.2235
     40 C36        29.5320  -12.4150   15.4000 C.ar      1 N4Z         0.2287
     41 N37        29.9170  -11.8420   14.2470 N.ar      1 N4Z        -0.2209
     42 O38        28.9230  -13.6820   15.4370 O.3       1 N4Z        -0.2788
     43 C39        28.3620  -14.2250   14.2180 C.3       1 N4Z         0.0702
     44 N40        30.7420   -9.8970   17.7510 N.pl3     1 N4Z        -0.2644
     45 N43        32.9140   -9.6300   19.5640 N.4       1 N4Z         0.2299
     46 H1         32.1263  -10.6573    8.7192 H         1 N4Z         0.0481
     47 H2         30.0700  -11.9587    8.2279 H         1 N4Z         0.0508
     48 H3         31.3679   -8.1031   16.8067 H         1 N4Z         0.0585
     49 H4         30.7854   -7.9105   18.4949 H         1 N4Z         0.0585
     50 H5         33.2369   -7.7847   18.5706 H         1 N4Z         0.0835
     51 H6         33.3981   -9.2443   17.5360 H         1 N4Z         0.0835
     52 H7         32.4630  -11.6629   19.1540 H         1 N4Z         0.0835
     53 H8         31.8855  -11.0622   20.7453 H         1 N4Z         0.0835
     54 H9         30.0024   -9.9168   19.7441 H         1 N4Z         0.0585
     55 H10        30.0631  -11.5225   18.9412 H         1 N4Z         0.0585
     56 H11        25.6948  -11.5690    8.9249 H         1 N4Z         0.0466
     57 H12        27.1608  -10.7115    8.3400 H         1 N4Z         0.0466
     58 H13        26.5686  -10.4389   10.0138 H         1 N4Z         0.0466
     59 H14        33.9854  -10.4296    9.5957 H         1 N4Z         0.0873
     60 H15        33.1282   -5.1617    6.9775 H         1 N4Z         0.0459
     61 H16        32.7401   -4.9715    9.4520 H         1 N4Z         0.0480
     62 H17        32.9085   -6.9735   10.8979 H         1 N4Z         0.0443
     63 H18        38.5590   -9.7923   10.9336 H         1 N4Z         0.0724
     64 H19        38.3779   -8.3688   12.9911 H         1 N4Z         0.0652
     65 H20        36.1228   -7.6370   13.7734 H         1 N4Z         0.0803
     66 H21        28.6607  -11.3158   12.2447 H         1 N4Z         0.0518
     67 H22        31.3546   -9.1248   13.1061 H         1 N4Z         0.2177
     68 H23        32.9066   -9.5495   12.1641 H         1 N4Z         0.1780
     69 H24        27.9289  -15.2151   14.4230 H         1 N4Z         0.0595
     70 H25        29.1541  -14.3210   13.4608 H         1 N4Z         0.0595
     71 H26        27.5767  -13.5516   13.8440 H         1 N4Z         0.0595
     72 H27        32.7363   -9.0369   20.3595 H         1 N4Z         0.2015
     73 H28        33.8598   -9.9760   19.6074 H         1 N4Z         0.2015
@<TRIPOS>BOND
     1    1    2 ar 
     2   24    1 ar 
     3    1   31 1  
     4    2    3 ar 
     5   22    3 ar 
     6    4    5 1  
     7   44    4 1  
     8    5   45 1  
     9    7    6 1  
    10    6   45 1  
    11   44    7 1  
    12   26    8 1  
    13    9   10 1  
    14    9   16 1  
    15   31    9 1  
    16   10   11 ar 
    17   10   15 ar 
    18   11   12 ar 
    19   11   32 1  
    20   12   13 ar 
    21   12   33 1  
    22   14   13 ar 
    23   15   14 ar 
    24   16   17 ar 
    25   16   29 ar 
    26   17   18 ar 
    27   17   30 1  
    28   18   19 ar 
    29   20   19 ar 
    30   29   20 ar 
    31   32   21 1  
    32   21   33 1  
    33   21   34 1  
    34   21   35 1  
    35   23   22 ar 
    36   22   26 1  
    37   24   23 ar 
    38   25   24 1  
    39   36   25 1  
    40   26   27 2  
    41   26   28 2  
    42   37   36 ar 
    43   36   41 ar 
    44   38   37 ar 
    45   38   39 ar 
    46   38   44 1  
    47   39   40 ar 
    48   40   41 ar 
    49   40   42 1  
    50   42   43 1  
    51    2   46 1  
    52    3   47 1  
    53    4   48 1  
    54    4   49 1  
    55    5   50 1  
    56    5   51 1  
    57    6   52 1  
    58    6   53 1  
    59    7   54 1  
    60    7   55 1  
    61    8   56 1  
    62    8   57 1  
    63    8   58 1  
    64    9   59 1  
    65   13   60 1  
    66   14   61 1  
    67   15   62 1  
    68   18   63 1  
    69   19   64 1  
    70   20   65 1  
    71   23   66 1  
    72   25   67 1  
    73   31   68 1  
    74   43   69 1  
    75   43   70 1  
    76   43   71 1  
    77   45   72 1  
    78   45   73 1  
@<TRIPOS>SUBSTRUCTURE
     1 N4Z         1

