3fgc_ligand
  -I-interpret- 

 52 54  0  0  0  0  0  0  0  0999 V2000
    0.6980   19.8780   31.6080 N   0  0  0  0  0
    0.5930   21.2340   31.3070 C   0  0  0  0  0
   -0.0780   22.0100   32.0040 O   0  0  0  0  0
    1.2490   21.7130   30.1990 N   0  0  0  0  0
    1.9920   20.8670   29.4230 C   0  0  0  0  0
    2.6010   21.3700   28.4930 O   0  0  0  0  0
    2.0910   19.4950   29.7370 C   0  0  0  0  0
    2.8350   18.6230   28.9460 N   0  0  0  0  0
    2.9470   17.2810   29.2490 C   0  0  0  0  0
    3.7170   16.4640   28.4270 C   0  0  0  0  0
    3.8500   15.1030   28.6970 C   0  0  0  0  0
    4.6790   14.2220   27.8090 C   0  0  0  0  0
    3.2160   14.5580   29.8010 C   0  0  0  0  0
    3.3620   13.0760   30.0470 C   0  0  0  0  0
    2.4400   15.3860   30.6280 C   0  0  0  0  0
    2.2940   16.7620   30.3710 C   0  0  0  0  0
    1.5050   17.6260   31.1750 N   0  0  0  0  0
    1.4350   18.9940   30.8500 C   0  0  0  0  0
    0.4220   17.0450   32.0760 C   0  0  0  0  0
   -0.9920   16.9490   31.4480 C   0  0  0  0  0
   -1.5620   18.2530   31.2870 O   0  0  0  0  0
   -2.0040   16.1120   32.2870 C   0  0  0  0  0
   -1.9390   16.4810   33.6530 O   0  0  0  0  0
   -1.9020   14.5720   32.3210 C   0  0  0  0  0
   -0.5890   14.0860   32.1410 O   0  0  0  0  0
   -2.8650   13.8400   31.3920 C   0  0  0  0  0
   -4.0770   14.5360   31.2150 O   0  0  0  0  0
   -5.5200   13.9260   31.6380 P   0  0  0  0  0
   -5.7590   14.2650   33.1030 O   0  0  0  0  0
   -6.5370   14.5580   30.7280 O   0  0  0  0  0
   -5.5000   12.4200   31.4940 O   0  0  0  0  0
    1.1817   22.7011   29.9549 H   0  0  0  0  0
    4.2221   16.8933   27.5618 H   0  0  0  0  0
    4.2745   14.2446   26.7971 H   0  0  0  0  0
    5.7073   14.5833   27.7987 H   0  0  0  0  0
    4.6552   13.2005   28.1885 H   0  0  0  0  0
    2.9648   12.5265   29.1936 H   0  0  0  0  0
    4.4164   12.8330   30.1785 H   0  0  0  0  0
    2.8099   12.8021   30.9460 H   0  0  0  0  0
    1.9373   14.9515   31.4920 H   0  0  0  0  0
    0.3363   17.7172   32.9298 H   0  0  0  0  0
    0.7273   16.0247   32.3083 H   0  0  0  0  0
   -0.8365   16.4484   30.4923 H   0  0  0  0  0
   -2.4358   18.1732   30.8975 H   0  0  0  0  0
   -2.9202   16.3527   31.7478 H   0  0  0  0  0
   -2.5674   15.9570   34.1551 H   0  0  0  0  0
   -2.2143   14.3394   33.3391 H   0  0  0  0  0
   -0.5970   13.1266   32.1728 H   0  0  0  0  0
   -3.0946   12.8730   31.8395 H   0  0  0  0  0
   -2.3859   13.7454   30.4175 H   0  0  0  0  0
   -5.0875   13.8407   33.6421 H   0  0  0  0  0
   -4.8416   12.0516   32.0876 H   0  0  0  0  0
  1  2  1  0  0  0
  1 18  2  0  0  0
  2  3  2  0  0  0
  2  4  1  0  0  0
  4  5  1  0  0  0
  5  6  2  0  0  0
  5  7  1  0  0  0
  7  8  2  0  0  0
  7 18  1  0  0  0
  8  9  1  0  0  0
  9 10  4  0  0  0
  9 16  4  0  0  0
 10 11  4  0  0  0
 11 12  1  0  0  0
 11 13  4  0  0  0
 13 14  1  0  0  0
 13 15  4  0  0  0
 15 16  4  0  0  0
 16 17  1  0  0  0
 17 18  1  0  0  0
 17 19  1  0  0  0
 19 20  1  0  0  0
 20 21  1  0  0  0
 20 22  1  0  0  0
 22 23  1  0  0  0
 22 24  1  0  0  0
 24 25  1  0  0  0
 24 26  1  0  0  0
 26 27  1  0  0  0
 27 28  1  0  0  0
 28 29  1  0  0  0
 28 30  2  0  0  0
 28 31  1  0  0  0
  4 32  1  0  0  0
 10 33  1  0  0  0
 12 34  1  0  0  0
 12 35  1  0  0  0
 12 36  1  0  0  0
 14 37  1  0  0  0
 14 38  1  0  0  0
 14 39  1  0  0  0
 15 40  1  0  0  0
 19 41  1  0  0  0
 19 42  1  0  0  0
 20 43  1  0  0  0
 21 44  1  0  0  0
 22 45  1  0  0  0
 23 46  1  0  0  0
 24 47  1  0  0  0
 25 48  1  0  0  0
 26 49  1  0  0  0
 26 50  1  0  0  0
 29 51  1  0  0  0
 31 52  1  0  0  0
M  END
$$$$
