### 
### Created by X-TOOL on Sun Sep  9 21:51:00 2018
### 

@<TRIPOS>MOLECULE
3fgc_ligand
   50    52     1     0     0
SMALL
GAST_HUCK


@<TRIPOS>ATOM
      1 N1          0.6980   19.8780   31.6080 N.2       1 NON        -0.2549
      2 C2          0.5930   21.2340   31.3070 C.2       1 NON         0.2439
      3 O2         -0.0780   22.0100   32.0040 O.2       1 NON        -0.3902
      4 N3          1.2490   21.7130   30.1990 N.am      1 NON        -0.1938
      5 C4          1.9920   20.8670   29.4230 C.2       1 NON         0.2704
      6 O4          2.6010   21.3700   28.4930 O.2       1 NON        -0.3655
      7 C4A         2.0910   19.4950   29.7370 C.2       1 NON         0.2076
      8 N5          2.8350   18.6230   28.9460 N.2       1 NON        -0.2387
      9 C5A         2.9470   17.2810   29.2490 C.ar      1 NON         0.0856
     10 C6          3.7170   16.4640   28.4270 C.ar      1 NON        -0.0403
     11 C7          3.8500   15.1030   28.6970 C.ar      1 NON        -0.0428
     12 C7M         4.6790   14.2220   27.8090 C.3       1 NON        -0.0352
     13 C8          3.2160   14.5580   29.8010 C.ar      1 NON        -0.0416
     14 C8M         3.3620   13.0760   30.0470 C.3       1 NON        -0.0312
     15 C9          2.4400   15.3860   30.6280 C.ar      1 NON        -0.0258
     16 C9A         2.2940   16.7620   30.3710 C.ar      1 NON         0.1048
     17 N10         1.5050   17.6260   31.1750 N.pl3     1 NON        -0.2138
     18 C10         1.4350   18.9940   30.8500 C.2       1 NON         0.1894
     19 C1'         0.4220   17.0450   32.0760 C.3       1 NON         0.0886
     20 C2'        -0.9920   16.9490   31.4480 C.3       1 NON         0.1102
     21 O2'        -1.5620   18.2530   31.2870 O.3       1 NON        -0.3865
     22 C3'        -2.0040   16.1120   32.2870 C.3       1 NON         0.1118
     23 O3'        -1.9390   16.4810   33.6530 O.3       1 NON        -0.3865
     24 C4'        -1.9020   14.5720   32.3210 C.3       1 NON         0.1111
     25 O4'        -0.5890   14.0860   32.1410 O.3       1 NON        -0.3865
     26 C5'        -2.8650   13.8400   31.3920 C.3       1 NON         0.1068
     27 O5'        -4.0770   14.5360   31.2150 O.3       1 NON        -0.2734
     28 P          -5.5200   13.9260   31.6380 P.3       1 NON         0.2008
     29 O1P        -5.7590   14.2650   33.1030 O.co2     1 NON        -0.5537
     30 O2P        -6.5370   14.5580   30.7280 O.co2     1 NON        -0.5537
     31 O3P        -5.5000   12.4200   31.4940 O.co2     1 NON        -0.5537
     32 H           1.1817   22.7011   29.9549 H         1 NON         0.2248
     33 H           4.2221   16.8933   27.5618 H         1 NON         0.0564
     34 H           5.4872   13.7791   28.3911 H         1 NON         0.0366
     35 H           4.0520   13.4320   27.3956 H         1 NON         0.0366
     36 H           5.0979   14.8173   26.9976 H         1 NON         0.0366
     37 H           2.9648   12.5265   29.1936 H         1 NON         0.0395
     38 H           4.4164   12.8330   30.1785 H         1 NON         0.0395
     39 H           2.8099   12.8021   30.9460 H         1 NON         0.0395
     40 H           1.9373   14.9515   31.4920 H         1 NON         0.0493
     41 H           0.3363   17.7172   32.9298 H         1 NON         0.0631
     42 H           0.7273   16.0247   32.3083 H         1 NON         0.0631
     43 H          -0.8365   16.4484   30.4923 H         1 NON         0.0647
     44 H          -1.0006   18.7776   30.7115 H         1 NON         0.2100
     45 H          -2.9202   16.3527   31.7478 H         1 NON         0.0647
     46 H          -2.5674   15.9570   34.1551 H         1 NON         0.2100
     47 H          -2.2143   14.3394   33.3391 H         1 NON         0.0646
     48 H          -0.5969   13.1266   32.1728 H         1 NON         0.2100
     49 H          -3.0946   12.8730   31.8395 H         1 NON         0.0639
     50 H          -2.3859   13.7454   30.4175 H         1 NON         0.0639
@<TRIPOS>BOND
     1    1    2 1  
     2    1   18 2  
     3    2    3 2  
     4    2    4 am 
     5    4    5 am 
     6    5    6 2  
     7    5    7 1  
     8    7    8 2  
     9    7   18 1  
    10    8    9 1  
    11    9   10 ar 
    12    9   16 ar 
    13   10   11 ar 
    14   11   12 1  
    15   11   13 ar 
    16   13   14 1  
    17   13   15 ar 
    18   15   16 ar 
    19   16   17 1  
    20   17   18 1  
    21   17   19 1  
    22   19   20 1  
    23   20   21 1  
    24   20   22 1  
    25   22   23 1  
    26   22   24 1  
    27   24   25 1  
    28   24   26 1  
    29   26   27 1  
    30   27   28 1  
    31   28   29 ar 
    32   28   30 ar 
    33   28   31 ar 
    34    4   32 1  
    35   10   33 1  
    36   12   34 1  
    37   12   35 1  
    38   12   36 1  
    39   14   37 1  
    40   14   38 1  
    41   14   39 1  
    42   15   40 1  
    43   19   41 1  
    44   19   42 1  
    45   20   43 1  
    46   21   44 1  
    47   22   45 1  
    48   23   46 1  
    49   24   47 1  
    50   25   48 1  
    51   26   49 1  
    52   26   50 1  
@<TRIPOS>SUBSTRUCTURE
     1 NON         1

