6o48_ligand
  -I-interpret- 

130130  0  0  0  0  0  0  0  0999 V2000
   23.9270   27.9190   17.3200 N   0  3  0  0  0
   23.1960   26.7410   17.7510 C   0  0  0  0  0
   21.7110   26.8760   17.4770 C   0  0  0  0  0
   21.0830   27.8850   17.7670 O   0  0  0  0  0
   23.4370   26.4970   19.2470 C   0  0  0  0  0
   24.8480   25.9870   19.5600 C   0  0  0  0  0
   24.7470   24.7930   20.4930 C   0  0  0  0  0
   25.9120   23.9760   20.6700 N   0  0  0  0  0
   26.9760   23.7400   19.9150 C   0  0  0  0  0
   27.1680   24.2980   18.7220 N   0  0  0  0  0
   27.9110   22.9050   20.3850 N   0  0  0  0  0
   21.1260   25.8440   16.9180 N   0  0  0  0  0
   19.7330   25.8520   16.5070 C   0  0  0  0  0
   19.0500   24.6660   17.1770 C   0  0  0  0  0
   19.2900   23.5160   16.7880 O   0  0  0  0  0
   19.6400   25.7760   14.9750 C   0  0  0  0  0
   18.2030   25.7440   14.4790 C   0  0  0  0  0
   20.3870   26.9440   14.3470 C   0  0  0  0  0
   18.2180   24.9050   18.1790 N   0  0  0  0  0
   17.6600   23.7930   18.9240 C   0  0  0  0  0
   16.1470   23.6720   18.7520 C   0  0  0  0  0
   18.0140   23.8440   20.4130 C   0  0  0  0  0
   19.5430   23.6030   20.5540 C   0  0  0  0  0
   20.1290   24.7830   21.2870 C   0  0  0  0  0
   19.7710   22.2440   21.1710 C   0  0  0  0  0
   15.8460   23.5540   17.3590 N   0  3  0  0  0
   14.6140   22.8690   17.0080 C   0  0  0  0  0
   14.6400   21.4190   17.4730 C   0  0  0  0  0
   15.6200   20.6350   17.5220 O   0  0  0  0  0
   14.4240   23.0690   15.4990 C   0  0  0  0  0
   13.5890   21.9900   14.8520 C   0  0  0  0  0
   12.2220   22.0330   15.0290 C   0  0  0  0  0
   14.1710   20.9860   14.1100 C   0  0  0  0  0
   11.3890   21.0790   14.4850 C   0  0  0  0  0
   13.3490   20.0320   13.5610 C   0  0  0  0  0
   11.9720   20.0570   13.7400 C   0  0  0  0  0
   13.4540   20.9740   17.8690 N   0  0  0  0  0
   13.3120   19.5880   18.3050 C   0  0  0  0  0
   11.8930   19.0910   18.0450 C   0  0  0  0  0
   10.8990   19.7490   18.3390 O   0  0  0  0  0
   13.6610   19.4570   19.7930 C   0  0  0  0  0
   13.6360   18.0570   20.4090 C   0  0  0  0  0
   12.2780   17.5550   20.8750 C   0  0  0  0  0
   11.4300   18.4710   21.0230 O   0  0  0  0  0
   11.9520   16.3550   20.9980 O   0  0  0  0  0
   11.8070   17.8290   17.6170 N   0  0  0  0  0
   10.5060   17.1480   17.4990 C   0  0  0  0  0
   10.6420   15.6330   17.5040 C   0  0  0  0  0
   11.6310   15.0230   17.0870 O   0  0  0  0  0
    9.8590   17.6340   16.2210 C   0  0  0  0  0
    9.6180   14.9180   17.9890 N   0  0  0  0  0
    9.6610   13.4590   17.9390 C   0  0  0  0  0
    9.7820   13.0090   16.4790 C   0  0  0  0  0
    9.1750   13.6650   15.6170 O   0  0  0  0  0
    8.4300   12.7610   18.4970 C   0  0  0  0  0
    8.2240   11.3330   18.0000 C   0  0  0  0  0
    7.8820   10.2980   19.0490 C   0  0  0  0  0
    6.9870    9.1640   18.5700 C   0  0  0  0  0
   10.5930   11.8390   16.1670 N   0  0  0  0  0
   23.7623   28.0749   16.3255 H   0  0  0  0  0
   23.6065   28.7294   17.8501 H   0  0  0  0  0
   24.9239   27.7774   17.4826 H   0  0  0  0  0
   23.5628   25.8884   17.1794 H   0  0  0  0  0
   22.7312   25.7332   19.5735 H   0  0  0  0  0
   23.3104   27.4502   19.7603 H   0  0  0  0  0
   25.4272   26.7778   20.0367 H   0  0  0  0  0
   25.3448   25.6904   18.6362 H   0  0  0  0  0
   24.0002   24.1380   20.0443 H   0  0  0  0  0
   24.5357   25.2121   21.4768 H   0  0  0  0  0
   25.9248   23.4740   21.5578 H   0  0  0  0  0
   26.4760   24.9452   18.3444 H   0  0  0  0  0
   28.7454   22.7101   19.8316 H   0  0  0  0  0
   27.7890   22.4637   21.2965 H   0  0  0  0  0
   21.6740   24.9975   16.7649 H   0  0  0  0  0
   19.2352   26.7731   16.8102 H   0  0  0  0  0
   20.1042   24.8379   14.6707 H   0  0  0  0  0
   17.6975   24.8701   14.8900 H   0  0  0  0  0
   17.6881   26.6487   14.8023 H   0  0  0  0  0
   18.1969   25.6903   13.3903 H   0  0  0  0  0
   19.9455   27.8809   14.6867 H   0  0  0  0  0
   21.4349   26.9057   14.6447 H   0  0  0  0  0
   20.3138   26.8789   13.2614 H   0  0  0  0  0
   17.9715   25.8637   18.4249 H   0  0  0  0  0
   18.1223   22.9031   18.4969 H   0  0  0  0  0
   15.6582   24.5565   19.1605 H   0  0  0  0  0
   15.7856   22.7911   19.2825 H   0  0  0  0  0
   17.4611   23.0783   20.9572 H   0  0  0  0  0
   17.7466   24.8150   20.8298 H   0  0  0  0  0
   20.0695   23.5584   19.6006 H   0  0  0  0  0
   19.9396   25.6932   20.7179 H   0  0  0  0  0
   19.6659   24.8648   22.2703 H   0  0  0  0  0
   21.2037   24.6412   21.4008 H   0  0  0  0  0
   19.3004   22.2089   22.1535 H   0  0  0  0  0
   19.3348   21.4777   20.5302 H   0  0  0  0  0
   20.8418   22.0678   21.2731 H   0  0  0  0  0
   16.5996   22.9965   16.9569 H   0  0  0  0  0
   15.7428   24.5083   17.0140 H   0  0  0  0  0
   13.7442   23.2799   17.5205 H   0  0  0  0  0
   15.4109   23.0423   15.0370 H   0  0  0  0  0
   13.9048   24.0167   15.3558 H   0  0  0  0  0
   11.7885   22.8434   15.6150 H   0  0  0  0  0
   15.2504   20.9496   13.9630 H   0  0  0  0  0
   10.3100   21.1230   14.6330 H   0  0  0  0  0
   13.7906   19.2317   12.9673 H   0  0  0  0  0
   11.3493   19.2789   13.2986 H   0  0  0  0  0
   12.6463   21.5969   17.8687 H   0  0  0  0  0
   14.0047   18.9719   17.7316 H   0  0  0  0  0
   12.8946   20.0225   20.3231 H   0  0  0  0  0
   14.6932   19.7960   19.8813 H   0  0  0  0  0
   14.2656   18.1033   21.2976 H   0  0  0  0  0
   13.9618   17.3729   19.6254 H   0  0  0  0  0
   11.8543   19.3223   20.8932 H   0  0  0  0  0
   12.6588   17.3267   17.3669 H   0  0  0  0  0
    9.8875   17.3892   18.3635 H   0  0  0  0  0
    9.7230   18.7143   16.2721 H   0  0  0  0  0
   10.4993   17.3868   15.3743 H   0  0  0  0  0
    8.8900   17.1499   16.0989 H   0  0  0  0  0
    8.8098   15.3918   18.3924 H   0  0  0  0  0
   10.5141   13.1822   18.5584 H   0  0  0  0  0
    7.5642   13.3376   18.1712 H   0  0  0  0  0
    8.5608   12.7043   19.5776 H   0  0  0  0  0
    9.1754   11.0229   17.5679 H   0  0  0  0  0
    7.3719   11.3689   17.3213 H   0  0  0  0  0
    7.3356   10.8178   19.8360 H   0  0  0  0  0
    8.8229    9.8447   19.3608 H   0  0  0  0  0
    6.0409    9.5740   18.2165 H   0  0  0  0  0
    7.4805    8.6322   17.7565 H   0  0  0  0  0
    6.8008    8.4765   19.3951 H   0  0  0  0  0
   10.6824   11.5232   15.2012 H   0  0  0  0  0
   11.0712   11.3359   16.9144 H   0  0  0  0  0
  1  2  1  0  0  0
  2  3  1  0  0  0
  2  5  1  0  0  0
  3  4  2  0  0  0
  3 12  1  0  0  0
  5  6  1  0  0  0
  6  7  1  0  0  0
  7  8  1  0  0  0
  8  9  1  0  0  0
  9 10  2  0  0  0
  9 11  1  0  0  0
 12 13  1  0  0  0
 13 14  1  0  0  0
 13 16  1  0  0  0
 14 15  2  0  0  0
 14 19  1  0  0  0
 16 17  1  0  0  0
 16 18  1  0  0  0
 19 20  1  0  0  0
 20 21  1  0  0  0
 20 22  1  0  0  0
 21 26  1  0  0  0
 22 23  1  0  0  0
 23 24  1  0  0  0
 23 25  1  0  0  0
 26 27  1  0  0  0
 27 28  1  0  0  0
 27 30  1  0  0  0
 28 29  2  0  0  0
 28 37  1  0  0  0
 30 31  1  0  0  0
 31 32  4  0  0  0
 31 33  4  0  0  0
 32 34  4  0  0  0
 33 35  4  0  0  0
 34 36  4  0  0  0
 35 36  4  0  0  0
 37 38  1  0  0  0
 38 39  1  0  0  0
 38 41  1  0  0  0
 39 40  2  0  0  0
 39 46  1  0  0  0
 41 42  1  0  0  0
 42 43  1  0  0  0
 43 44  1  0  0  0
 43 45  2  0  0  0
 46 47  1  0  0  0
 47 48  1  0  0  0
 47 50  1  0  0  0
 48 49  2  0  0  0
 48 51  1  0  0  0
 51 52  1  0  0  0
 52 53  1  0  0  0
 52 55  1  0  0  0
 53 54  2  0  0  0
 53 59  1  0  0  0
 55 56  1  0  0  0
 56 57  1  0  0  0
 57 58  1  0  0  0
  1 60  1  0  0  0
  1 61  1  0  0  0
  1 62  1  0  0  0
  2 63  1  0  0  0
  5 64  1  0  0  0
  5 65  1  0  0  0
  6 66  1  0  0  0
  6 67  1  0  0  0
  7 68  1  0  0  0
  7 69  1  0  0  0
  8 70  1  0  0  0
 10 71  1  0  0  0
 11 72  1  0  0  0
 11 73  1  0  0  0
 12 74  1  0  0  0
 13 75  1  0  0  0
 16 76  1  0  0  0
 17 77  1  0  0  0
 17 78  1  0  0  0
 17 79  1  0  0  0
 18 80  1  0  0  0
 18 81  1  0  0  0
 18 82  1  0  0  0
 19 83  1  0  0  0
 20 84  1  0  0  0
 21 85  1  0  0  0
 21 86  1  0  0  0
 22 87  1  0  0  0
 22 88  1  0  0  0
 23 89  1  0  0  0
 24 90  1  0  0  0
 24 91  1  0  0  0
 24 92  1  0  0  0
 25 93  1  0  0  0
 25 94  1  0  0  0
 25 95  1  0  0  0
 26 96  1  0  0  0
 26 97  1  0  0  0
 27 98  1  0  0  0
 30 99  1  0  0  0
 30100  1  0  0  0
 32101  1  0  0  0
 33102  1  0  0  0
 34103  1  0  0  0
 35104  1  0  0  0
 36105  1  0  0  0
 37106  1  0  0  0
 38107  1  0  0  0
 41108  1  0  0  0
 41109  1  0  0  0
 42110  1  0  0  0
 42111  1  0  0  0
 44112  1  0  0  0
 46113  1  0  0  0
 47114  1  0  0  0
 50115  1  0  0  0
 50116  1  0  0  0
 50117  1  0  0  0
 51118  1  0  0  0
 52119  1  0  0  0
 55120  1  0  0  0
 55121  1  0  0  0
 56122  1  0  0  0
 56123  1  0  0  0
 57124  1  0  0  0
 57125  1  0  0  0
 58126  1  0  0  0
 58127  1  0  0  0
 58128  1  0  0  0
 59129  1  0  0  0
 59130  1  0  0  0
M  END
$$$$
