2hnx_ligand
  -I-interpret- 

 50 49  0  0  0  0  0  0  0  0999 V2000
   26.2330   48.3590   15.4780 C   0  0  0  0  0
   26.4050   49.5320   15.0820 O   0  0  0  0  0
   26.9170   47.4610   14.9330 O   0  0  0  0  0
   25.2380   48.0670   16.5860 C   0  0  0  0  0
   25.4140   46.6810   17.2120 C   0  0  0  0  0
   25.0650   46.7170   18.7000 C   0  0  0  0  0
   26.0510   45.9340   19.5640 C   0  0  0  0  0
   25.5740   45.9000   21.0160 C   0  0  0  0  0
   26.7110   45.7960   22.0350 C   0  0  0  0  0
   26.6710   47.0280   22.9370 C   0  0  0  0  0
   27.9860   47.3890   23.6280 C   0  0  0  0  0
   29.2110   47.5290   22.7240 C   0  0  0  0  0
   28.9680   48.4640   21.5430 C   0  0  0  0  0
   30.1730   48.4630   20.6190 C   0  0  0  0  0
   30.1480   49.6910   19.7130 C   0  0  0  0  0
   31.0070   49.4950   18.4690 C   0  0  0  0  0
   30.5450   48.3090   17.6230 C   0  0  0  0  0
   29.1260   48.5050   17.1040 C   0  0  0  0  0
   26.6951   46.6114   15.3210 H   0  0  0  0  0
   24.2399   48.1060   16.1498 H   0  0  0  0  0
   25.3962   48.8050   17.3724 H   0  0  0  0  0
   26.4529   46.3710   17.0994 H   0  0  0  0  0
   24.7492   45.9785   16.7093 H   0  0  0  0  0
   24.0825   46.2609   18.8215 H   0  0  0  0  0
   25.0948   47.7577   19.0227 H   0  0  0  0  0
   27.0256   46.4202   19.5211 H   0  0  0  0  0
   26.1203   44.9131   19.1884 H   0  0  0  0  0
   24.9494   45.0144   21.1331 H   0  0  0  0  0
   25.0486   46.8354   21.2084 H   0  0  0  0  0
   27.6693   45.7454   21.5180 H   0  0  0  0  0
   26.5911   44.8933   22.6341 H   0  0  0  0  0
   25.9571   46.8059   23.7302 H   0  0  0  0  0
   26.4187   47.8718   22.2948 H   0  0  0  0  0
   28.2052   46.5680   24.3107 H   0  0  0  0  0
   27.8311   48.3675   24.0825 H   0  0  0  0  0
   29.4477   46.5422   22.3262 H   0  0  0  0  0
   30.0212   47.9477   23.3210 H   0  0  0  0  0
   28.8041   49.4752   21.9155 H   0  0  0  0  0
   28.0933   48.1215   20.9901 H   0  0  0  0  0
   30.1468   47.5651   20.0016 H   0  0  0  0  0
   31.0820   48.4832   21.2202 H   0  0  0  0  0
   30.5446   50.5378   20.2730 H   0  0  0  0  0
   29.1193   49.8613   19.3954 H   0  0  0  0  0
   32.0296   49.3005   18.7925 H   0  0  0  0  0
   30.9281   50.3952   17.8594 H   0  0  0  0  0
   30.5619   47.4152   18.2467 H   0  0  0  0  0
   31.2137   48.2167   16.7672 H   0  0  0  0  0
   28.4436   48.6119   17.9472 H   0  0  0  0  0
   29.0869   49.4028   16.4872 H   0  0  0  0  0
   28.8359   47.6400   16.5076 H   0  0  0  0  0
  1  2  2  0  0  0
  1  3  1  0  0  0
  1  4  1  0  0  0
  4  5  1  0  0  0
  5  6  1  0  0  0
  6  7  1  0  0  0
  7  8  1  0  0  0
  8  9  1  0  0  0
  9 10  1  0  0  0
 10 11  1  0  0  0
 11 12  1  0  0  0
 12 13  1  0  0  0
 13 14  1  0  0  0
 14 15  1  0  0  0
 15 16  1  0  0  0
 16 17  1  0  0  0
 17 18  1  0  0  0
  3 19  1  0  0  0
  4 20  1  0  0  0
  4 21  1  0  0  0
  5 22  1  0  0  0
  5 23  1  0  0  0
  6 24  1  0  0  0
  6 25  1  0  0  0
  7 26  1  0  0  0
  7 27  1  0  0  0
  8 28  1  0  0  0
  8 29  1  0  0  0
  9 30  1  0  0  0
  9 31  1  0  0  0
 10 32  1  0  0  0
 10 33  1  0  0  0
 11 34  1  0  0  0
 11 35  1  0  0  0
 12 36  1  0  0  0
 12 37  1  0  0  0
 13 38  1  0  0  0
 13 39  1  0  0  0
 14 40  1  0  0  0
 14 41  1  0  0  0
 15 42  1  0  0  0
 15 43  1  0  0  0
 16 44  1  0  0  0
 16 45  1  0  0  0
 17 46  1  0  0  0
 17 47  1  0  0  0
 18 48  1  0  0  0
 18 49  1  0  0  0
 18 50  1  0  0  0
M  END
$$$$
