4k6w_ligand
  -I-interpret- 

173178  0  0  0  0  0  0  0  0999 V2000
  -18.7360   17.9070  -29.5830 C   0  0  0  0  0
  -19.7180   17.4500  -28.5030 C   0  0  0  0  0
  -19.8570   15.9230  -28.3770 C   0  0  0  0  0
  -18.6470   15.2860  -27.6830 C   0  0  0  0  0
  -18.3660   15.9980  -26.3560 C   0  0  0  0  0
  -18.1660   17.4960  -26.6470 C   0  0  0  0  0
  -17.8350   18.3700  -25.4400 C   0  0  0  0  0
  -17.8010   19.8550  -25.8450 C   0  0  0  0  0
  -17.1290   20.7010  -24.7850 C   0  0  0  0  0
  -17.2990   14.7370  -24.5500 C   0  0  0  0  0
  -15.9990   14.2250  -23.9700 C   0  0  0  0  0
  -17.2040   15.4410  -25.6780 N   0  0  0  0  0
  -17.9650   18.8660  -29.3700 O   0  0  0  0  0
  -18.7350   17.3070  -30.6660 O   0  0  0  0  0
  -18.9140   13.8920  -27.4740 O   0  0  0  0  0
  -19.3710   18.0290  -27.2370 O   0  0  0  0  0
  -18.8150   18.1520  -24.3950 O   0  0  0  0  0
  -17.0690   20.0820  -27.0620 O   0  0  0  0  0
  -15.7470   20.2830  -24.7080 O   0  0  0  0  0
  -16.2530   13.0220  -22.9830 C   0  0  0  0  0
  -18.4050   14.5130  -24.0300 O   0  0  0  0  0
  -20.9760   18.0200  -28.7980 O   0  0  0  0  0
  -21.1620   19.4530  -28.8830 C   0  0  0  0  0
  -22.3270   19.6590  -29.8150 C   0  0  0  0  0
  -23.5770   19.4910  -29.1100 N   0  0  0  0  0
  -24.7560   19.8070  -29.5660 C   0  0  0  0  0
  -23.7390   19.0030  -27.9400 N   0  0  0  0  0
  -25.0150   19.0200  -27.6310 N   0  0  0  0  0
  -25.6500   19.5660  -28.6250 C   0  0  0  0  0
  -27.2320   19.7490  -28.7230 C   0  0  0  0  0
  -27.2560   18.3340  -29.4980 N   0  3  0  0  0
  -27.2450   18.2420  -30.9410 C   0  0  0  0  0
  -27.1900   16.7170  -31.4730 C   0  0  0  0  0
  -28.2680   15.9670  -31.6820 C   0  0  0  0  0
  -26.1500   15.9630  -31.8210 N   0  0  0  0  0
  -26.6300   14.7040  -32.2410 N   0  0  0  0  0
  -27.9010   14.7580  -32.1210 N   0  0  0  0  0
  -28.9600   13.8430  -32.3660 C   0  0  0  0  0
  -28.3820   12.4770  -32.4880 C   0  0  0  0  0
  -28.2080   11.9270  -31.1130 O   0  0  0  0  0
  -28.4580   17.4970  -29.1880 C   0  0  0  0  0
  -28.6700   17.6100  -27.6860 C   0  0  0  0  0
  -29.3260   16.7810  -26.8800 C   0  0  0  0  0
  -28.2650   18.6240  -26.9560 N   0  0  0  0  0
  -28.6360   18.4370  -25.7780 N   0  0  0  0  0
  -29.2600   17.3520  -25.6730 N   0  0  0  0  0
  -29.8360   16.8350  -24.4400 C   0  0  0  0  0
  -29.0680   17.4410  -23.2350 C   0  0  0  0  0
  -27.8310   16.6880  -23.0540 O   0  0  0  0  0
  -27.7550   16.8680  -20.6730 C   0  0  0  0  0
  -27.5860   15.9110  -21.8620 C   0  0  0  0  0
  -26.2090   15.2530  -21.9250 C   0  0  0  0  0
  -26.0650   14.1730  -20.8510 C   0  0  0  0  0
  -27.2140   13.1690  -20.9300 C   0  0  0  0  0
  -28.5220   13.9440  -20.7670 C   0  0  0  0  0
  -29.7890   13.0860  -20.7640 C   0  0  0  0  0
  -31.0800   13.9360  -20.7010 C   0  0  0  0  0
  -32.2720   13.1040  -20.2330 C   0  0  0  0  0
  -26.8770   10.8270  -20.2130 C   0  0  0  0  0
  -26.8450    9.8770  -19.0220 C   0  0  0  0  0
  -27.1040   12.1090  -19.9230 N   0  0  0  0  0
  -28.8020   16.8290  -19.9740 O   0  0  0  0  0
  -26.8600   17.6940  -20.4440 O   0  0  0  0  0
  -24.8150   13.4930  -21.0400 O   0  0  0  0  0
  -28.6080   14.9200  -21.8270 O   0  0  0  0  0
  -29.8070   12.2830  -21.9460 O   0  0  0  0  0
  -30.9050   15.0150  -19.7830 O   0  0  0  0  0
  -32.0580   12.6700  -18.8640 O   0  0  0  0  0
  -25.9410    8.6040  -19.2960 C   0  0  0  0  0
  -26.6750   10.4560  -21.3700 O   0  0  0  0  0
  -29.1110    9.7850  -31.4670 C   0  0  0  0  0
  -27.8530   10.5220  -31.0260 C   0  0  0  0  0
  -27.3430   10.1170  -29.6300 C   0  0  0  0  0
  -26.7150    8.7290  -29.6040 C   0  0  0  0  0
  -25.6130    8.6580  -30.6620 C   0  0  0  0  0
  -26.2440    8.9780  -32.0240 C   0  0  0  0  0
  -25.2890    8.8940  -33.2140 C   0  0  0  0  0
  -25.9420    9.3690  -34.5170 C   0  0  0  0  0
  -25.1250    8.9110  -35.7230 C   0  0  0  0  0
  -23.7100    7.1230  -30.3940 C   0  0  0  0  0
  -23.2210    5.7040  -30.5160 C   0  0  0  0  0
  -24.9820    7.3370  -30.7110 N   0  0  0  0  0
  -30.0590    9.6910  -30.6670 O   0  0  0  0  0
  -29.1930    9.3120  -32.6380 O   0  0  0  0  0
  -26.2100    8.4650  -28.2860 O   0  0  0  0  0
  -26.7950   10.3210  -31.9600 O   0  0  0  0  0
  -24.1610    9.7250  -32.9470 O   0  0  0  0  0
  -27.2600    8.8400  -34.6410 O   0  0  0  0  0
  -25.5250    9.6350  -36.9070 O   0  0  0  0  0
  -22.0800    5.4290  -29.4460 C   0  0  0  0  0
  -22.9900    8.0340  -29.9980 O   0  0  0  0  0
  -19.9305   15.5053  -29.3811 H   0  0  0  0  0
  -20.7420   15.7116  -27.7769 H   0  0  0  0  0
  -17.7607   15.3884  -28.3091 H   0  0  0  0  0
  -19.2131   15.8546  -25.6852 H   0  0  0  0  0
  -17.3002   17.5326  -27.3082 H   0  0  0  0  0
  -16.8493   18.0966  -25.0636 H   0  0  0  0  0
  -18.8466   20.1333  -25.9766 H   0  0  0  0  0
  -17.6219   20.5683  -23.8219 H   0  0  0  0  0
  -17.1940   21.7581  -25.0428 H   0  0  0  0  0
  -15.5206   15.0341  -23.4181 H   0  0  0  0  0
  -15.3652   13.8787  -24.7863 H   0  0  0  0  0
  -16.2804   15.5957  -26.0823 H   0  0  0  0  0
  -18.1101   19.2006  -28.4820 H   0  0  0  0  0
  -19.0864   13.4702  -28.3189 H   0  0  0  0  0
  -18.8234   17.2226  -24.1546 H   0  0  0  0  0
  -17.0779   21.0193  -27.2694 H   0  0  0  0  0
  -15.2930   20.8037  -24.0414 H   0  0  0  0  0
  -16.8937   13.3533  -22.1658 H   0  0  0  0  0
  -16.7397   12.2087  -23.5212 H   0  0  0  0  0
  -15.3005   12.6753  -22.5821 H   0  0  0  0  0
  -20.2646   19.9488  -29.2532 H   0  0  0  0  0
  -21.3563   19.8872  -27.9023 H   0  0  0  0  0
  -22.2721   18.9234  -30.6175 H   0  0  0  0  0
  -22.2821   20.6704  -30.2189 H   0  0  0  0  0
  -24.9686   20.2040  -30.5586 H   0  0  0  0  0
  -27.6826   20.6459  -29.1480 H   0  0  0  0  0
  -27.8460   19.9330  -27.8414 H   0  0  0  0  0
  -26.3490   18.0384  -29.1370 H   0  0  0  0  0
  -26.3516   18.7526  -31.3005 H   0  0  0  0  0
  -28.1672   18.6906  -31.3104 H   0  0  0  0  0
  -29.2966   16.2892  -31.5199 H   0  0  0  0  0
  -29.4796   14.1116  -33.2858 H   0  0  0  0  0
  -29.6762   13.8729  -31.5448 H   0  0  0  0  0
  -27.4216   12.5185  -33.0017 H   0  0  0  0  0
  -29.0463   11.8370  -33.0687 H   0  0  0  0  0
  -28.3060   16.4604  -29.4888 H   0  0  0  0  0
  -29.3332   17.8432  -29.7378 H   0  0  0  0  0
  -29.8113   15.8417  -27.1451 H   0  0  0  0  0
  -29.7532   15.7483  -24.4214 H   0  0  0  0  0
  -30.8894   17.1090  -24.3816 H   0  0  0  0  0
  -29.6782   17.3796  -22.3339 H   0  0  0  0  0
  -28.8424   18.4903  -23.4251 H   0  0  0  0  0
  -25.4496   16.0164  -21.7560 H   0  0  0  0  0
  -26.0884   14.7895  -22.9041 H   0  0  0  0  0
  -26.0923   14.6445  -19.8686 H   0  0  0  0  0
  -27.1816   12.6650  -21.8959 H   0  0  0  0  0
  -28.4842   14.4046  -19.7798 H   0  0  0  0  0
  -29.7673   12.4638  -19.8693 H   0  0  0  0  0
  -31.2753   14.3102  -21.7060 H   0  0  0  0  0
  -32.3783   12.2308  -20.8766 H   0  0  0  0  0
  -33.1772   13.7092  -20.2830 H   0  0  0  0  0
  -27.8628    9.5359  -18.8327 H   0  0  0  0  0
  -26.4259   10.4139  -18.1710 H   0  0  0  0  0
  -27.2073   12.3675  -18.9417 H   0  0  0  0  0
  -29.3755   16.1303  -20.2974 H   0  0  0  0  0
  -24.7172   12.8132  -20.3693 H   0  0  0  0  0
  -30.5996   11.7413  -21.9515 H   0  0  0  0  0
  -31.7092   15.5381  -19.7487 H   0  0  0  0  0
  -32.8094   12.1476  -18.5740 H   0  0  0  0  0
  -26.3338    8.0590  -20.1543 H   0  0  0  0  0
  -24.9195    8.9231  -19.5031 H   0  0  0  0  0
  -25.9503    7.9577  -18.4183 H   0  0  0  0  0
  -28.1984   10.1067  -28.9545 H   0  0  0  0  0
  -26.5760   10.8336  -29.3363 H   0  0  0  0  0
  -27.4561    7.9649  -29.8386 H   0  0  0  0  0
  -24.8341    9.3768  -30.4075 H   0  0  0  0  0
  -27.0023    8.2151  -32.2003 H   0  0  0  0  0
  -25.0025    7.8501  -33.3417 H   0  0  0  0  0
  -25.9825   10.4578  -34.4873 H   0  0  0  0  0
  -25.2955    7.8464  -35.8835 H   0  0  0  0  0
  -24.0694    9.1022  -35.5298 H   0  0  0  0  0
  -22.8191    5.5480  -31.5171 H   0  0  0  0  0
  -24.0521    5.0216  -30.3376 H   0  0  0  0  0
  -25.5484    6.5407  -31.0035 H   0  0  0  0  0
  -28.3718    9.4774  -33.1069 H   0  0  0  0  0
  -25.8134    7.5910  -28.2656 H   0  0  0  0  0
  -23.5512    9.6823  -33.6872 H   0  0  0  0  0
  -27.6514    9.1482  -35.4616 H   0  0  0  0  0
  -25.0030    9.3360  -37.6551 H   0  0  0  0  0
  -21.2484    6.1118  -29.6199 H   0  0  0  0  0
  -22.4780    5.5870  -28.4436 H   0  0  0  0  0
  -21.7333    4.4001  -29.5427 H   0  0  0  0  0
  2  1  1  0  0  0
  1 13  1  0  0  0
  1 14  2  0  0  0
  2  3  1  0  0  0
  2 16  1  0  0  0
 22  2  1  0  0  0
  3  4  1  0  0  0
  4  5  1  0  0  0
  4 15  1  0  0  0
  6  5  1  0  0  0
  5 12  1  0  0  0
  6  7  1  0  0  0
 16  6  1  0  0  0
  7  8  1  0  0  0
  7 17  1  0  0  0
  8  9  1  0  0  0
  8 18  1  0  0  0
  9 19  1  0  0  0
 10 11  1  0  0  0
 12 10  1  0  0  0
 10 21  2  0  0  0
 11 20  1  0  0  0
 23 22  1  0  0  0
 24 23  1  0  0  0
 25 24  1  0  0  0
 26 25  4  0  0  0
 27 25  4  0  0  0
 29 26  4  0  0  0
 28 27  4  0  0  0
 29 28  4  0  0  0
 30 29  1  0  0  0
 31 30  1  0  0  0
 32 31  1  0  0  0
 31 41  1  0  0  0
 33 32  1  0  0  0
 34 33  4  0  0  0
 35 33  4  0  0  0
 37 34  4  0  0  0
 36 35  4  0  0  0
 37 36  4  0  0  0
 38 37  1  0  0  0
 39 38  1  0  0  0
 40 39  1  0  0  0
 72 40  1  0  0  0
 41 42  1  0  0  0
 42 43  4  0  0  0
 42 44  4  0  0  0
 43 46  4  0  0  0
 44 45  4  0  0  0
 45 46  4  0  0  0
 46 47  1  0  0  0
 47 48  1  0  0  0
 48 49  1  0  0  0
 49 51  1  0  0  0
 51 50  1  0  0  0
 50 62  1  0  0  0
 50 63  2  0  0  0
 51 52  1  0  0  0
 51 65  1  0  0  0
 52 53  1  0  0  0
 53 54  1  0  0  0
 53 64  1  0  0  0
 55 54  1  0  0  0
 54 61  1  0  0  0
 55 56  1  0  0  0
 65 55  1  0  0  0
 56 57  1  0  0  0
 56 66  1  0  0  0
 57 58  1  0  0  0
 57 67  1  0  0  0
 58 68  1  0  0  0
 59 60  1  0  0  0
 61 59  1  0  0  0
 59 70  2  0  0  0
 60 69  1  0  0  0
 72 71  1  0  0  0
 71 83  2  0  0  0
 71 84  1  0  0  0
 73 72  1  0  0  0
 86 72  1  0  0  0
 74 73  1  0  0  0
 75 74  1  0  0  0
 74 85  1  0  0  0
 75 76  1  0  0  0
 82 75  1  0  0  0
 76 77  1  0  0  0
 76 86  1  0  0  0
 77 78  1  0  0  0
 77 87  1  0  0  0
 78 79  1  0  0  0
 78 88  1  0  0  0
 79 89  1  0  0  0
 80 81  1  0  0  0
 80 82  1  0  0  0
 80 91  2  0  0  0
 81 90  1  0  0  0
  3 92  1  0  0  0
  3 93  1  0  0  0
  4 94  1  0  0  0
  5 95  1  0  0  0
  6 96  1  0  0  0
  7 97  1  0  0  0
  8 98  1  0  0  0
  9 99  1  0  0  0
  9100  1  0  0  0
 11101  1  0  0  0
 11102  1  0  0  0
 12103  1  0  0  0
 13104  1  0  0  0
 15105  1  0  0  0
 17106  1  0  0  0
 18107  1  0  0  0
 19108  1  0  0  0
 20109  1  0  0  0
 20110  1  0  0  0
 20111  1  0  0  0
 23112  1  0  0  0
 23113  1  0  0  0
 24114  1  0  0  0
 24115  1  0  0  0
 26116  1  0  0  0
 30117  1  0  0  0
 30118  1  0  0  0
 31119  1  0  0  0
 32120  1  0  0  0
 32121  1  0  0  0
 34122  1  0  0  0
 38123  1  0  0  0
 38124  1  0  0  0
 39125  1  0  0  0
 39126  1  0  0  0
 41127  1  0  0  0
 41128  1  0  0  0
 43129  1  0  0  0
 47130  1  0  0  0
 47131  1  0  0  0
 48132  1  0  0  0
 48133  1  0  0  0
 52134  1  0  0  0
 52135  1  0  0  0
 53136  1  0  0  0
 54137  1  0  0  0
 55138  1  0  0  0
 56139  1  0  0  0
 57140  1  0  0  0
 58141  1  0  0  0
 58142  1  0  0  0
 60143  1  0  0  0
 60144  1  0  0  0
 61145  1  0  0  0
 62146  1  0  0  0
 64147  1  0  0  0
 66148  1  0  0  0
 67149  1  0  0  0
 68150  1  0  0  0
 69151  1  0  0  0
 69152  1  0  0  0
 69153  1  0  0  0
 73154  1  0  0  0
 73155  1  0  0  0
 74156  1  0  0  0
 75157  1  0  0  0
 76158  1  0  0  0
 77159  1  0  0  0
 78160  1  0  0  0
 79161  1  0  0  0
 79162  1  0  0  0
 81163  1  0  0  0
 81164  1  0  0  0
 82165  1  0  0  0
 84166  1  0  0  0
 85167  1  0  0  0
 87168  1  0  0  0
 88169  1  0  0  0
 89170  1  0  0  0
 90171  1  0  0  0
 90172  1  0  0  0
 90173  1  0  0  0
M  END
$$$$
