### 
### Created by X-TOOL on Mon Sep 10 21:13:16 2018
### 

@<TRIPOS>MOLECULE
4k6w_ligand
  170   175     1     0     0
SMALL
GAST_HUCK


@<TRIPOS>ATOM
      1 C1        -18.7360   17.9070  -29.5830 C.2       1 18D         0.1041
      2 C2        -19.7180   17.4500  -28.5030 C.3       1 18D         0.2205
      3 C3        -19.8570   15.9230  -28.3770 C.3       1 18D         0.0353
      4 C4        -18.6470   15.2860  -27.6830 C.3       1 18D         0.0850
      5 C5        -18.3660   15.9980  -26.3560 C.3       1 18D         0.0964
      6 C6        -18.1660   17.4960  -26.6470 C.3       1 18D         0.1143
      7 C7        -17.8350   18.3700  -25.4400 C.3       1 18D         0.1114
      8 C8        -17.8010   19.8550  -25.8450 C.3       1 18D         0.1065
      9 C9        -17.1290   20.7010  -24.7850 C.3       1 18D         0.0727
     10 C10       -17.2990   14.7370  -24.5500 C.2       1 18D         0.1761
     11 C11       -15.9990   14.2250  -23.9700 C.3       1 18D         0.0344
     12 N5        -17.2040   15.4410  -25.6780 N.am      1 18D        -0.2788
     13 O1        -17.9650   18.8660  -29.3700 O.co2     1 18D        -0.5426
     14 O3        -18.7350   17.3070  -30.6660 O.co2     1 18D        -0.5426
     15 O4        -18.9140   13.8920  -27.4740 O.3       1 18D        -0.3893
     16 O6        -19.3710   18.0290  -27.2370 O.3       1 18D        -0.3384
     17 O7        -18.8150   18.1520  -24.3950 O.3       1 18D        -0.3865
     18 O8        -17.0690   20.0820  -27.0620 O.3       1 18D        -0.3869
     19 O9        -15.7470   20.2830  -24.7080 O.3       1 18D        -0.3924
     20 C22       -16.2530   13.0220  -22.9830 C.3       1 18D        -0.0482
     21 O10       -18.4050   14.5130  -24.0300 O.2       1 18D        -0.3971
     22 OAA       -20.9760   18.0200  -28.7980 O.3       1 1P0        -0.3438
     23 CAG       -21.1620   19.4530  -28.8830 C.3       1 1P0         0.0801
     24 CAJ       -22.3270   19.6590  -29.8150 C.3       1 1P0         0.0987
     25 NAZ       -23.5770   19.4910  -29.1100 N.pl3     1 1P0        -0.1789
     26 CAD       -24.7560   19.8070  -29.5660 C.2       1 1P0         0.0745
     27 NAS       -23.7390   19.0030  -27.9400 N.2       1 1P0        -0.1017
     28 NAP       -25.0150   19.0200  -27.6310 N.2       1 1P0        -0.2212
     29 CAV       -25.6500   19.5660  -28.6250 C.2       1 1P0         0.0810
     30 CAM       -27.2320   19.7490  -28.7230 C.3       1 1P0         0.0053
     31 NAY       -27.2560   18.3340  -29.4980 N.4       1 1P0         0.2614
     32 CAO       -27.2450   18.2420  -30.9410 C.3       1 1P0         0.0053
     33 CAX       -27.1900   16.7170  -31.4730 C.2       1 1P0         0.0810
     34 CAF       -28.2680   15.9670  -31.6820 C.2       1 1P0         0.0745
     35 NAR       -26.1500   15.9630  -31.8210 N.2       1 1P0        -0.2212
     36 NAU       -26.6300   14.7040  -32.2410 N.2       1 1P0        -0.1017
     37 NBB       -27.9010   14.7580  -32.1210 N.pl3     1 1P0        -0.1789
     38 CAL       -28.9600   13.8430  -32.3660 C.3       1 1P0         0.0987
     39 CAI       -28.3820   12.4770  -32.4880 C.3       1 1P0         0.0801
     40 OAC       -28.2080   11.9270  -31.1130 O.3       1 1P0        -0.3438
     41 CAN       -28.4580   17.4970  -29.1880 C.3       1 1P0         0.0053
     42 CAW       -28.6700   17.6100  -27.6860 C.2       1 1P0         0.0810
     43 CAE       -29.3260   16.7810  -26.8800 C.2       1 1P0         0.0745
     44 NAQ       -28.2650   18.6240  -26.9560 N.2       1 1P0        -0.2212
     45 NAT       -28.6360   18.4370  -25.7780 N.2       1 1P0        -0.1017
     46 NBA       -29.2600   17.3520  -25.6730 N.pl3     1 1P0        -0.1789
     47 CAK       -29.8360   16.8350  -24.4400 C.3       1 1P0         0.0987
     48 CAH       -29.0680   17.4410  -23.2350 C.3       1 1P0         0.0801
     49 OAB       -27.8310   16.6880  -23.0540 O.3       1 1P0        -0.3438
     50 C1        -27.7550   16.8680  -20.6730 C.2       1 18D         0.1041
     51 C2        -27.5860   15.9110  -21.8620 C.3       1 18D         0.2205
     52 C3        -26.2090   15.2530  -21.9250 C.3       1 18D         0.0353
     53 C4        -26.0650   14.1730  -20.8510 C.3       1 18D         0.0850
     54 C5        -27.2140   13.1690  -20.9300 C.3       1 18D         0.0964
     55 C6        -28.5220   13.9440  -20.7670 C.3       1 18D         0.1143
     56 C7        -29.7890   13.0860  -20.7640 C.3       1 18D         0.1114
     57 C8        -31.0800   13.9360  -20.7010 C.3       1 18D         0.1065
     58 C9        -32.2720   13.1040  -20.2330 C.3       1 18D         0.0727
     59 C10       -26.8770   10.8270  -20.2130 C.2       1 18D         0.1761
     60 C11       -26.8450    9.8770  -19.0220 C.3       1 18D         0.0344
     61 N5        -27.1040   12.1090  -19.9230 N.am      1 18D        -0.2788
     62 O1        -28.8020   16.8290  -19.9740 O.co2     1 18D        -0.5426
     63 O3        -26.8600   17.6940  -20.4440 O.co2     1 18D        -0.5426
     64 O4        -24.8150   13.4930  -21.0400 O.3       1 18D        -0.3893
     65 O6        -28.6080   14.9200  -21.8270 O.3       1 18D        -0.3384
     66 O7        -29.8070   12.2830  -21.9460 O.3       1 18D        -0.3865
     67 O8        -30.9050   15.0150  -19.7830 O.3       1 18D        -0.3869
     68 O9        -32.0580   12.6700  -18.8640 O.3       1 18D        -0.3924
     69 C22       -25.9410    8.6040  -19.2960 C.3       1 18D        -0.0482
     70 O10       -26.6750   10.4560  -21.3700 O.2       1 18D        -0.3971
     71 C1        -29.1110    9.7850  -31.4670 C.2       1 18D         0.1041
     72 C2        -27.8530   10.5220  -31.0260 C.3       1 18D         0.2205
     73 C3        -27.3430   10.1170  -29.6300 C.3       1 18D         0.0353
     74 C4        -26.7150    8.7290  -29.6040 C.3       1 18D         0.0850
     75 C5        -25.6130    8.6580  -30.6620 C.3       1 18D         0.0964
     76 C6        -26.2440    8.9780  -32.0240 C.3       1 18D         0.1143
     77 C7        -25.2890    8.8940  -33.2140 C.3       1 18D         0.1114
     78 C8        -25.9420    9.3690  -34.5170 C.3       1 18D         0.1065
     79 C9        -25.1250    8.9110  -35.7230 C.3       1 18D         0.0727
     80 C10       -23.7100    7.1230  -30.3940 C.2       1 18D         0.1761
     81 C11       -23.2210    5.7040  -30.5160 C.3       1 18D         0.0344
     82 N5        -24.9820    7.3370  -30.7110 N.am      1 18D        -0.2788
     83 O1        -30.0590    9.6910  -30.6670 O.co2     1 18D        -0.5426
     84 O3        -29.1930    9.3120  -32.6380 O.co2     1 18D        -0.5426
     85 O4        -26.2100    8.4650  -28.2860 O.3       1 18D        -0.3893
     86 O6        -26.7950   10.3210  -31.9600 O.3       1 18D        -0.3384
     87 O7        -24.1610    9.7250  -32.9470 O.3       1 18D        -0.3865
     88 O8        -27.2600    8.8400  -34.6410 O.3       1 18D        -0.3869
     89 O9        -25.5250    9.6350  -36.9070 O.3       1 18D        -0.3924
     90 C22       -22.0800    5.4290  -29.4460 C.3       1 18D        -0.0482
     91 O10       -22.9900    8.0340  -29.9980 O.2       1 18D        -0.3971
     92 H1        -19.9550   15.4920  -29.3843 H         1 18D         0.0336
     93 H2        -20.7605   15.6967  -27.7918 H         1 18D         0.0336
     94 H3        -17.7643   15.3874  -28.3315 H         1 18D         0.0618
     95 H4        -19.2389   15.8760  -25.6979 H         1 18D         0.0608
     96 H5        -17.3390   17.5857  -27.3667 H         1 18D         0.0646
     97 H6        -16.8426   18.0868  -25.0592 H         1 18D         0.0647
     98 H7        -18.8381   20.1957  -25.9802 H         1 18D         0.0643
     99 H8        -17.6223   20.5482  -23.8138 H         1 18D         0.0584
    100 H9        -17.1850   21.7642  -25.0615 H         1 18D         0.0584
    101 H10       -15.5039   15.0405  -23.4225 H         1 18D         0.0500
    102 H11       -15.3486   13.8859  -24.7898 H         1 18D         0.0500
    103 H12       -16.2985   15.5926  -26.0744 H         1 18D         0.1856
    104 H13       -18.1605   13.4845  -27.0633 H         1 18D         0.2099
    105 H14       -18.5876   18.6748  -23.6351 H         1 18D         0.2100
    106 H15       -17.4548   19.5694  -27.7626 H         1 18D         0.2100
    107 H16       -15.3303   20.4138  -25.5516 H         1 18D         0.2095
    108 H17       -15.2924   12.6712  -22.5777 H         1 18D         0.0254
    109 H18       -16.7442   12.2004  -23.5250 H         1 18D         0.0254
    110 H19       -16.8995   13.3550  -22.1577 H         1 18D         0.0254
    111 H20       -20.2586   19.9336  -29.2866 H         1 18D         0.0589
    112 H21       -21.3869   19.8700  -27.8903 H         1 18D         0.0589
    113 H22       -22.2710   18.9245  -30.6319 H         1 18D         0.0671
    114 H23       -22.2810   20.6757  -30.2323 H         1 18D         0.0671
    115 H24       -24.9684   20.2037  -30.5577 H         1 18D         0.0900
    116 H25       -27.5607   20.6098  -29.3237 H         1 18D         0.0932
    117 H26       -27.7567   19.7547  -27.7563 H         1 18D         0.0932
    118 H27       -26.4338   17.8534  -29.1679 H         1 18D         0.2064
    119 H28       -26.3626   18.7781  -31.3203 H         1 18D         0.0932
    120 H29       -28.1578   18.7168  -31.3301 H         1 18D         0.0932
    121 H30       -29.2957   16.2889  -31.5200 H         1 18D         0.0900
    122 H31       -29.4756   14.1129  -33.2994 H         1 18D         0.0671
    123 H32       -29.6753   13.8704  -31.5308 H         1 18D         0.0671
    124 H33       -27.4077   12.5277  -32.9960 H         1 18D         0.0589
    125 H34       -29.0629   11.8334  -33.0642 H         1 18D         0.0589
    126 H35       -28.2779   16.4494  -29.4710 H         1 18D         0.0932
    127 H36       -29.3379   17.8766  -29.7280 H         1 18D         0.0932
    128 H37       -29.8108   15.8425  -27.1449 H         1 18D         0.0900
    129 H38       -29.7465   15.7388  -24.4216 H         1 18D         0.0671
    130 H39       -30.8975   17.1173  -24.3813 H         1 18D         0.0671
    131 H40       -29.6840   17.3680  -22.3266 H         1 18D         0.0589
    132 H41       -28.8345   18.4970  -23.4358 H         1 18D         0.0589
    133 H42       -25.4366   16.0204  -21.7686 H         1 18D         0.0336
    134 H43       -26.0749   14.7944  -22.9158 H         1 18D         0.0336
    135 H44       -26.0743   14.6486  -19.8592 H         1 18D         0.0618
    136 H45       -27.2002   12.6967  -21.9234 H         1 18D         0.0608
    137 H46       -28.4787   14.4714  -19.8027 H         1 18D         0.0646
    138 H47       -29.7630   12.4286  -19.8824 H         1 18D         0.0647
    139 H48       -31.2905   14.3373  -21.7033 H         1 18D         0.0643
    140 H49       -32.3811   12.2233  -20.8830 H         1 18D         0.0584
    141 H50       -33.1863   13.7134  -20.2847 H         1 18D         0.0584
    142 H51       -27.8709    9.5434  -18.8072 H         1 18D         0.0500
    143 H52       -26.4443   10.4150  -18.1503 H         1 18D         0.0500
    144 H53       -27.2052   12.3624  -18.9609 H         1 18D         0.1856
    145 H54       -24.7074   12.8363  -20.3621 H         1 18D         0.2099
    146 H55       -29.8543   12.8463  -22.7095 H         1 18D         0.2100
    147 H56       -30.1664   15.5459  -20.0571 H         1 18D         0.2100
    148 H57       -31.9643   13.4307  -18.3028 H         1 18D         0.2095
    149 H58       -25.9495    7.9509  -18.4109 H         1 18D         0.0254
    150 H59       -24.9098    8.9247  -19.5051 H         1 18D         0.0254
    151 H60       -26.3364    8.0530  -20.1620 H         1 18D         0.0254
    152 H61       -28.1910   10.1310  -28.9295 H         1 18D         0.0336
    153 H62       -26.5883   10.8490  -29.3067 H         1 18D         0.0336
    154 H63       -27.4830    7.9789  -29.8439 H         1 18D         0.0618
    155 H64       -24.8430    9.4080  -30.4285 H         1 18D         0.0608
    156 H65       -27.0597    8.2604  -32.1964 H         1 18D         0.0646
    157 H66       -24.9616    7.8511  -33.3371 H         1 18D         0.0647
    158 H67       -25.9919   10.4678  -34.5086 H         1 18D         0.0643
    159 H68       -25.2882    7.8351  -35.8838 H         1 18D         0.0584
    160 H69       -24.0580    9.0951  -35.5289 H         1 18D         0.0584
    161 H70       -22.8187    5.5429  -31.5270 H         1 18D         0.0500
    162 H71       -24.0591    5.0135  -30.3405 H         1 18D         0.0500
    163 H72       -25.5373    6.5563  -30.9978 H         1 18D         0.1856
    164 H73       -25.8297    7.5948  -28.2622 H         1 18D         0.2099
    165 H74       -23.5423    9.6574  -33.6647 H         1 18D         0.2100
    166 H75       -27.7822    9.1163  -33.8971 H         1 18D         0.2100
    167 H76       -25.0084    9.3392  -37.6473 H         1 18D         0.2095
    168 H77       -21.7293    4.3909  -29.5426 H         1 18D         0.0254
    169 H78       -22.4804    5.5880  -28.4339 H         1 18D         0.0254
    170 H79       -21.2400    6.1175  -29.6205 H         1 18D         0.0254
@<TRIPOS>BOND
     1    2    1 1  
     2    1   13 ar 
     3    1   14 ar 
     4    2    3 1  
     5    2   16 1  
     6   22    2 1  
     7    3    4 1  
     8    4    5 1  
     9    4   15 1  
    10    6    5 1  
    11    5   12 1  
    12    6    7 1  
    13   16    6 1  
    14    7    8 1  
    15    7   17 1  
    16    8    9 1  
    17    8   18 1  
    18    9   19 1  
    19   10   11 1  
    20   12   10 am 
    21   10   21 2  
    22   11   20 1  
    23   23   22 1  
    24   24   23 1  
    25   25   24 1  
    26   26   25 1  
    27   27   25 1  
    28   29   26 2  
    29   28   27 2  
    30   29   28 1  
    31   30   29 1  
    32   31   30 1  
    33   32   31 1  
    34   31   41 1  
    35   33   32 1  
    36   34   33 2  
    37   35   33 1  
    38   37   34 1  
    39   36   35 2  
    40   37   36 1  
    41   38   37 1  
    42   39   38 1  
    43   40   39 1  
    44   72   40 1  
    45   41   42 1  
    46   42   43 2  
    47   42   44 1  
    48   43   46 1  
    49   44   45 2  
    50   45   46 1  
    51   46   47 1  
    52   47   48 1  
    53   48   49 1  
    54   49   51 1  
    55   51   50 1  
    56   50   62 ar 
    57   50   63 ar 
    58   51   52 1  
    59   51   65 1  
    60   52   53 1  
    61   53   54 1  
    62   53   64 1  
    63   55   54 1  
    64   54   61 1  
    65   55   56 1  
    66   65   55 1  
    67   56   57 1  
    68   56   66 1  
    69   57   58 1  
    70   57   67 1  
    71   58   68 1  
    72   59   60 1  
    73   61   59 am 
    74   59   70 2  
    75   60   69 1  
    76   72   71 1  
    77   71   83 ar 
    78   71   84 ar 
    79   73   72 1  
    80   86   72 1  
    81   74   73 1  
    82   75   74 1  
    83   74   85 1  
    84   75   76 1  
    85   82   75 1  
    86   76   77 1  
    87   76   86 1  
    88   77   78 1  
    89   77   87 1  
    90   78   79 1  
    91   78   88 1  
    92   79   89 1  
    93   80   81 1  
    94   80   82 am 
    95   80   91 2  
    96   81   90 1  
    97    3   92 1  
    98    3   93 1  
    99    4   94 1  
   100    5   95 1  
   101    6   96 1  
   102    7   97 1  
   103    8   98 1  
   104    9   99 1  
   105    9  100 1  
   106   11  101 1  
   107   11  102 1  
   108   12  103 1  
   109   15  104 1  
   110   17  105 1  
   111   18  106 1  
   112   19  107 1  
   113   20  108 1  
   114   20  109 1  
   115   20  110 1  
   116   23  111 1  
   117   23  112 1  
   118   24  113 1  
   119   24  114 1  
   120   26  115 1  
   121   30  116 1  
   122   30  117 1  
   123   31  118 1  
   124   32  119 1  
   125   32  120 1  
   126   34  121 1  
   127   38  122 1  
   128   38  123 1  
   129   39  124 1  
   130   39  125 1  
   131   41  126 1  
   132   41  127 1  
   133   43  128 1  
   134   47  129 1  
   135   47  130 1  
   136   48  131 1  
   137   48  132 1  
   138   52  133 1  
   139   52  134 1  
   140   53  135 1  
   141   54  136 1  
   142   55  137 1  
   143   56  138 1  
   144   57  139 1  
   145   58  140 1  
   146   58  141 1  
   147   60  142 1  
   148   60  143 1  
   149   61  144 1  
   150   64  145 1  
   151   66  146 1  
   152   67  147 1  
   153   68  148 1  
   154   69  149 1  
   155   69  150 1  
   156   69  151 1  
   157   73  152 1  
   158   73  153 1  
   159   74  154 1  
   160   75  155 1  
   161   76  156 1  
   162   77  157 1  
   163   78  158 1  
   164   79  159 1  
   165   79  160 1  
   166   81  161 1  
   167   81  162 1  
   168   82  163 1  
   169   85  164 1  
   170   87  165 1  
   171   88  166 1  
   172   89  167 1  
   173   90  168 1  
   174   90  169 1  
   175   90  170 1  
@<TRIPOS>SUBSTRUCTURE
     1 18D         1

