6qfq_ligand
  -I-interpret- 

 56 60  0  0  0  0  0  0  0  0999 V2000
   15.0640  -19.9540   13.7820 C   0  0  0  0  0
   14.4260  -17.7690   14.3850 C   0  0  0  0  0
   11.6950  -20.1450   13.7370 C   0  0  0  0  0
   10.4250  -20.6190   14.0750 C   0  0  0  0  0
    9.9630  -20.6420   15.3910 C   0  0  0  0  0
   10.7890  -20.1790   16.4060 C   0  0  0  0  0
   10.6020  -20.0710   17.8670 C   0  0  0  0  0
    9.3980  -20.4580   18.6920 C   0  0  0  0  0
    9.6570  -21.7960   19.3730 C   0  0  0  0  0
    9.4740  -22.9510   18.3940 C   0  0  0  0  0
    7.8790  -23.6930   16.7300 C   0  0  0  0  0
    8.7540  -24.6950   16.3230 C   0  0  0  0  0
    6.1690  -24.6730   15.1220 C   0  0  0  0  0
    4.9050  -24.6480   14.5460 C   0  0  0  0  0
    4.0000  -23.6610   14.9270 C   0  0  0  0  0
    4.3350  -22.6960   15.8750 C   0  0  0  0  0
    6.5220  -23.6470   16.1280 C   0  0  0  0  0
   12.1160  -19.2170   19.7750 C   0  0  0  0  0
   13.0590  -18.4690   20.1120 O   0  0  0  0  0
   11.3540  -19.7430   20.6150 O   0  0  0  0  0
   11.8920  -19.4890   18.3270 C   0  0  0  0  0
   12.7230  -19.2830   17.2830 N   0  0  0  0  0
   12.1460  -19.6630   16.1230 C   0  0  0  0  0
   12.5780  -19.6650   14.7020 C   0  0  0  0  0
   13.9280  -19.1650   14.3170 C   0  0  0  0  0
   13.6600  -16.5650   14.8630 C   0  0  0  0  0
   15.7020  -17.7870   13.9360 N   0  0  0  0  0
   16.0780  -19.0980   13.5760 N   0  0  0  0  0
   15.0790  -21.4370   13.5200 C   0  0  0  0  0
    8.2610  -22.7690   17.6660 O   0  0  0  0  0
    5.5890  -22.6810   16.4790 C   0  0  0  0  0
    7.1100  -25.6360   14.7770 C   0  0  0  0  0
    8.3720  -25.6400   15.3690 C   0  0  0  0  0
   12.0030  -20.1508   12.6914 H   0  0  0  0  0
    9.7719  -20.9838   13.2822 H   0  0  0  0  0
    8.9660  -21.0188   15.6194 H   0  0  0  0  0
    8.5259  -20.5433   18.0438 H   0  0  0  0  0
    9.2157  -19.6948   19.4485 H   0  0  0  0  0
    8.9473  -21.9153   20.1916 H   0  0  0  0  0
   10.6828  -21.8085   19.7413 H   0  0  0  0  0
    9.4300  -23.8907   18.9446 H   0  0  0  0  0
   10.3142  -22.9759   17.7000 H   0  0  0  0  0
    9.7533  -24.7430   16.7556 H   0  0  0  0  0
    4.6244  -25.3942   13.8027 H   0  0  0  0  0
    3.0086  -23.6427   14.4743 H   0  0  0  0  0
    3.6008  -21.9383   16.1488 H   0  0  0  0  0
   10.6991  -20.2780   20.1605 H   0  0  0  0  0
   12.7755  -16.4282   14.2409 H   0  0  0  0  0
   13.3572  -16.7165   15.8991 H   0  0  0  0  0
   14.2945  -15.6814   14.7940 H   0  0  0  0  0
   14.8876  -21.9710   14.4507 H   0  0  0  0  0
   14.3060  -21.6839   12.7923 H   0  0  0  0  0
   16.0543  -21.7256   13.1280 H   0  0  0  0  0
    5.8355  -21.9196   17.2190 H   0  0  0  0  0
    6.8587  -26.3953   14.0365 H   0  0  0  0  0
    9.0868  -26.4091   15.0763 H   0  0  0  0  0
 25  1  4  0  0  0
  1 28  4  0  0  0
  1 29  1  0  0  0
 25  2  4  0  0  0
  2 26  1  0  0  0
  2 27  4  0  0  0
  3  4  4  0  0  0
 24  3  4  0  0  0
  4  5  4  0  0  0
  6  5  4  0  0  0
  6  7  4  0  0  0
 23  6  4  0  0  0
  7  8  1  0  0  0
 21  7  4  0  0  0
  8  9  1  0  0  0
  9 10  1  0  0  0
 10 30  1  0  0  0
 11 12  4  0  0  0
 11 17  4  0  0  0
 30 11  1  0  0  0
 12 33  4  0  0  0
 13 14  4  0  0  0
 17 13  4  0  0  0
 13 32  4  0  0  0
 14 15  4  0  0  0
 16 15  4  0  0  0
 31 16  4  0  0  0
 17 31  4  0  0  0
 18 19  2  0  0  0
 18 20  1  0  0  0
 21 18  1  0  0  0
 22 21  4  0  0  0
 23 22  4  0  0  0
 24 23  4  0  0  0
 24 25  1  0  0  0
 27 28  4  0  0  0
 32 33  4  0  0  0
  3 34  1  0  0  0
  4 35  1  0  0  0
  5 36  1  0  0  0
  8 37  1  0  0  0
  8 38  1  0  0  0
  9 39  1  0  0  0
  9 40  1  0  0  0
 10 41  1  0  0  0
 10 42  1  0  0  0
 12 43  1  0  0  0
 14 44  1  0  0  0
 15 45  1  0  0  0
 16 46  1  0  0  0
 20 47  1  0  0  0
 26 48  1  0  0  0
 26 49  1  0  0  0
 26 50  1  0  0  0
 29 51  1  0  0  0
 29 52  1  0  0  0
 29 53  1  0  0  0
 31 54  1  0  0  0
 32 55  1  0  0  0
 33 56  1  0  0  0
M  END
$$$$
