5htz_ligand
  -I-interpret- 

 43 45  0  0  0  0  0  0  0  0999 V2000
   26.4160   10.7780   19.8250 C   0  0  0  0  0
   22.2270    9.8980   23.7700 C   0  0  0  0  0
   20.4220    9.5370   20.5590 C   0  0  0  0  0
   23.2590   11.8860   24.9900 C   0  0  0  0  0
   24.0990   11.7140   19.2150 C   0  0  0  0  0
   24.9770   10.9010   19.9030 C   0  0  0  0  0
   29.2180    9.5310   21.8840 C   0  0  0  0  0
   22.7410   11.6280   19.6310 C   0  0  0  0  0
   30.5380    8.3470   23.8640 C   0  0  0  0  0
   21.3430   10.3480   21.4520 C   0  0  0  0  0
   27.1300   10.1830   20.8450 C   0  0  0  0  0
   29.1480   10.7410   19.7480 C   0  0  0  0  0
   27.1540   11.3290   18.7930 C   0  0  0  0  0
   22.5740   10.7430   20.6860 C   0  0  0  0  0
   20.5420   11.5340   21.9520 C   0  0  0  0  0
   28.5050   10.1420   20.8110 C   0  0  0  0  0
   28.4940   11.3330   18.7320 N   0  0  0  0  0
   21.4840   12.5120   23.0880 S   0  0  0  0  0
   22.3660   11.3100   23.9600 N   0  0  0  0  0
   21.5710    9.5070   22.6230 N   0  0  0  0  0
   22.7110    9.0740   24.6390 N   0  0  0  0  0
   20.5560   13.1420   24.0110 O   0  0  0  0  0
   22.4530   13.3010   22.3580 O   0  0  0  0  0
   24.0960   10.0520   21.1010 S   0  0  0  0  0
   21.4950   12.5720   18.9050 Cl  0  0  0  0  0
   29.7990    9.0050   22.7940 C   0  0  0  0  0
   20.1338   10.1371   19.6959 H   0  0  0  0  0
   20.9417    8.6400   20.2223 H   0  0  0  0  0
   19.5313    9.2535   21.1197 H   0  0  0  0  0
   22.9458   11.5403   25.9751 H   0  0  0  0  0
   24.2838   11.5666   24.8003 H   0  0  0  0  0
   23.2029   12.9738   24.9505 H   0  0  0  0  0
   24.4227   12.3746   18.4107 H   0  0  0  0  0
   30.5403    7.2704   23.6935 H   0  0  0  0  0
   31.5634    8.7164   23.8761 H   0  0  0  0  0
   30.0611    8.5638   24.8198 H   0  0  0  0  0
   26.5986    9.7403   21.6875 H   0  0  0  0  0
   30.2378   10.7345   19.7301 H   0  0  0  0  0
   26.6082   11.7927   17.9713 H   0  0  0  0  0
   19.6553   11.1626   22.4657 H   0  0  0  0  0
   20.2728   12.1561   21.0984 H   0  0  0  0  0
   21.2156    8.5515   22.5895 H   0  0  0  0  0
   23.1943    9.4287   25.4642 H   0  0  0  0  0
  1  6  1  0  0  0
 11  1  4  0  0  0
  1 13  4  0  0  0
  2 19  4  0  0  0
 20  2  1  0  0  0
  2 21  2  0  0  0
 10  3  1  0  0  0
 19  4  1  0  0  0
  6  5  4  0  0  0
  5  8  4  0  0  0
  6 24  4  0  0  0
 16  7  1  0  0  0
  7 26  3  0  0  0
  8 14  4  0  0  0
  8 25  1  0  0  0
 26  9  1  0  0  0
 14 10  1  0  0  0
 10 15  1  0  0  0
 10 20  1  0  0  0
 11 16  4  0  0  0
 16 12  4  0  0  0
 12 17  4  0  0  0
 13 17  4  0  0  0
 14 24  4  0  0  0
 15 18  1  0  0  0
 18 19  1  0  0  0
 18 22  2  0  0  0
 18 23  2  0  0  0
  3 27  1  0  0  0
  3 28  1  0  0  0
  3 29  1  0  0  0
  4 30  1  0  0  0
  4 31  1  0  0  0
  4 32  1  0  0  0
  5 33  1  0  0  0
  9 34  1  0  0  0
  9 35  1  0  0  0
  9 36  1  0  0  0
 11 37  1  0  0  0
 12 38  1  0  0  0
 13 39  1  0  0  0
 15 40  1  0  0  0
 15 41  1  0  0  0
 20 42  1  0  0  0
 21 43  1  0  0  0
M  END
$$$$
