4xbb_ligand
  -I-interpret- 

 63 65  0  0  0  0  0  0  0  0999 V2000
   39.4810   38.7400   12.5590 C   0  0  0  0  0
   40.2100   39.8590   11.8260 C   0  0  0  0  0
   39.5370   41.2290   12.0040 C   0  0  0  0  0
   38.1130   41.2620   11.4440 C   0  0  0  0  0
   37.5130   42.6660   11.5240 C   0  0  0  0  0
   38.4040   43.7050   10.8770 C   0  0  0  0  0
   39.8210   43.6560   11.4330 C   0  0  0  0  0
   40.3960   42.2600   11.2800 C   0  0  0  0  0
   40.1100   37.4160   12.2220 C   0  0  0  0  0
   38.7930   34.2750   11.4630 C   0  0  0  0  0
   38.9770   33.7850   12.8840 C   0  0  0  0  0
   39.6960   33.1580   14.9040 C   0  0  0  0  0
   38.0410   32.9190   13.4540 C   0  0  0  0  0
   39.9840   35.2230    9.3910 C   0  0  0  0  0
   38.2420   37.1270   14.6000 O   0  0  0  0  0
   38.9120   38.1290   14.8530 C   0  0  0  0  0
   39.1560   38.5220   16.2250 O   0  0  0  0  0
   38.5500   37.9000   17.3680 C   0  0  0  0  0
   37.2400   38.5780   17.7560 C   0  0  0  0  0
   37.1970   39.4400   18.6830 C   0  0  0  0  0
   36.1180   40.0320   19.0060 C   0  0  0  0  0
   34.9970   39.7150   18.5140 C   0  0  0  0  0
   34.9500   38.8070   17.5300 C   0  0  0  0  0
   33.4260   38.3110   16.7820 Cl  0  0  0  0  0
   36.1020   38.2490   17.1250 C   0  0  0  0  0
   39.4950   38.9450   13.9790 N   0  0  0  0  0
   39.4410   36.7390   11.3180 N   0  0  0  0  0
   39.5570   35.4080   10.8290 C   0  0  0  0  0
   40.0370   33.9120   13.7750 C   0  0  0  0  0
   38.4870   32.5460   14.6780 N   0  0  0  0  0
   36.9310   32.5430   12.8830 O   0  0  0  0  0
   40.9640   36.1910    8.9850 O   0  0  0  0  0
   41.1140   37.0100   12.7660 O   0  0  0  0  0
   38.4410   38.7433   12.2326 H   0  0  0  0  0
   40.2024   39.6203   10.7625 H   0  0  0  0  0
   41.2165   39.9266   12.2388 H   0  0  0  0  0
   39.4580   41.4449   13.0695 H   0  0  0  0  0
   37.4935   40.5872   12.0348 H   0  0  0  0  0
   38.1461   40.9594   10.3974 H   0  0  0  0  0
   37.3966   42.9261   12.5761 H   0  0  0  0  0
   36.5601   42.6588   10.9948 H   0  0  0  0  0
   37.9878   44.6911   11.0833 H   0  0  0  0  0
   38.4475   43.5021    9.8069 H   0  0  0  0  0
   39.7986   43.9187   12.4906 H   0  0  0  0  0
   40.4446   44.3610   10.8832 H   0  0  0  0  0
   40.4228   42.0085   10.2198 H   0  0  0  0  0
   41.3963   42.2458   11.7128 H   0  0  0  0  0
   37.7757   34.6658   11.4836 H   0  0  0  0  0
   39.1251   33.4171   10.8783 H   0  0  0  0  0
   40.2916   33.0708   15.8127 H   0  0  0  0  0
   39.1048   35.3460    8.7585 H   0  0  0  0  0
   40.4273   34.2319    9.2946 H   0  0  0  0  0
   39.2397   37.9825   18.2080 H   0  0  0  0  0
   38.3364   36.8606   17.1186 H   0  0  0  0  0
   38.1134   39.6824   19.2211 H   0  0  0  0  0
   36.1615   40.8423   19.7337 H   0  0  0  0  0
   34.0811   40.1744   18.8856 H   0  0  0  0  0
   36.1129   37.5402   16.2970 H   0  0  0  0  0
   39.9812   39.7658   14.3400 H   0  0  0  0  0
   38.6900   37.2723   10.8798 H   0  0  0  0  0
   40.4742   35.2252   11.3888 H   0  0  0  0  0
   40.9519   34.4850   13.6242 H   0  0  0  0  0
   41.2048   36.0360    8.0687 H   0  0  0  0  0
  1  2  1  0  0  0
  9  1  1  0  0  0
  1 26  1  0  0  0
  2  3  1  0  0  0
  3  4  1  0  0  0
  3  8  1  0  0  0
  4  5  1  0  0  0
  5  6  1  0  0  0
  7  6  1  0  0  0
  8  7  1  0  0  0
 27  9  1  0  0  0
  9 33  2  0  0  0
 10 11  1  0  0  0
 28 10  1  0  0  0
 11 13  1  0  0  0
 11 29  2  0  0  0
 29 12  1  0  0  0
 12 30  2  0  0  0
 13 30  1  0  0  0
 13 31  2  0  0  0
 28 14  1  0  0  0
 14 32  1  0  0  0
 16 15  2  0  0  0
 16 17  1  0  0  0
 26 16  1  0  0  0
 17 18  1  0  0  0
 18 19  1  0  0  0
 19 20  4  0  0  0
 19 25  4  0  0  0
 20 21  4  0  0  0
 21 22  4  0  0  0
 23 22  4  0  0  0
 23 24  1  0  0  0
 25 23  4  0  0  0
 27 28  1  0  0  0
  1 34  1  0  0  0
  2 35  1  0  0  0
  2 36  1  0  0  0
  3 37  1  0  0  0
  4 38  1  0  0  0
  4 39  1  0  0  0
  5 40  1  0  0  0
  5 41  1  0  0  0
  6 42  1  0  0  0
  6 43  1  0  0  0
  7 44  1  0  0  0
  7 45  1  0  0  0
  8 46  1  0  0  0
  8 47  1  0  0  0
 10 48  1  0  0  0
 10 49  1  0  0  0
 12 50  1  0  0  0
 14 51  1  0  0  0
 14 52  1  0  0  0
 18 53  1  0  0  0
 18 54  1  0  0  0
 20 55  1  0  0  0
 21 56  1  0  0  0
 22 57  1  0  0  0
 25 58  1  0  0  0
 26 59  1  0  0  0
 27 60  1  0  0  0
 28 61  1  0  0  0
 29 62  1  0  0  0
 32 63  1  0  0  0
M  END
$$$$
