4jg8_ligand
  -I-interpret- 

 60 62  0  0  0  0  0  0  0  0999 V2000
   14.6460    4.5620   21.2290 O   0  0  0  0  0
   13.7010    4.2330   20.5260 C   0  0  0  0  0
   13.7110    2.9380   19.8620 N   0  0  0  0  0
   14.8340    2.0260   20.0240 C   0  0  0  0  0
   16.0850    2.6650   19.5250 C   0  0  0  0  0
   14.9970    1.6560   21.4530 C   0  0  0  0  0
   14.5730    0.7860   19.2310 C   0  0  0  0  0
   14.1640    1.1410   17.9600 O   0  0  0  0  0
   12.5310    5.1790   20.3490 C   0  0  0  0  0
   12.1040    5.1020   18.9330 C   0  0  0  0  0
   11.7790    5.0300   17.8360 N   0  0  0  0  0
   12.9290    6.5940   20.7480 C   0  0  0  0  0
   11.7750    7.5820   20.6410 C   0  0  0  0  0
   11.3930    8.0870   19.4060 C   0  0  0  0  0
   10.3380    8.9990   19.3140 C   0  0  0  0  0
    9.6690    9.4170   20.4690 C   0  0  0  0  0
    8.6070   10.3000   20.6680 N   0  0  0  0  0
    8.3090   10.3820   21.9620 N   0  0  0  0  0
    9.1530    9.5650   22.6620 C   0  0  0  0  0
    9.1490    9.3680   24.1720 C   0  0  0  0  0
    9.0630   10.4620   25.0020 C   0  0  0  0  0
    9.0610   10.2790   26.4960 C   0  0  0  0  0
    8.9760   11.3800   27.3380 O   0  0  0  0  0
    7.7450   11.8320   27.7750 C   0  0  0  0  0
    9.1490    9.0200   27.0340 C   0  0  0  0  0
    9.1460    8.8610   28.4040 O   0  0  0  0  0
   10.3120    9.0650   29.1190 C   0  0  0  0  0
    9.2430    7.8250   26.1360 C   0  0  0  0  0
    9.3270    6.5630   26.6900 O   0  0  0  0  0
    8.1890    5.9720   27.2270 C   0  0  0  0  0
    9.2430    7.9900   24.7640 C   0  0  0  0  0
   10.0510    8.9240   21.7110 C   0  0  0  0  0
   11.1040    8.0080   21.8010 C   0  0  0  0  0
   12.9216    2.6661   19.2760 H   0  0  0  0  0
   16.9174    1.9709   19.6413 H   0  0  0  0  0
   15.9665    2.9190   18.4717 H   0  0  0  0  0
   16.2826    3.5706   20.0985 H   0  0  0  0  0
   14.0859    1.1748   21.8086 H   0  0  0  0  0
   15.8364    0.9683   21.5554 H   0  0  0  0  0
   15.1879    2.5543   22.0401 H   0  0  0  0  0
   13.7944    0.1972   19.7160 H   0  0  0  0  0
   15.4840    0.1905   19.1705 H   0  0  0  0  0
   13.9950    0.3479   17.4463 H   0  0  0  0  0
   11.6987    4.8969   20.9938 H   0  0  0  0  0
   13.7158    6.9240   20.0697 H   0  0  0  0  0
   13.2530    6.5695   21.7885 H   0  0  0  0  0
   11.9178    7.7711   18.5044 H   0  0  0  0  0
   10.0360    9.3852   18.3405 H   0  0  0  0  0
    8.9962   11.4634   24.5767 H   0  0  0  0  0
    7.1368   12.1138   26.9155 H   0  0  0  0  0
    7.2449   11.0393   28.3314 H   0  0  0  0  0
    7.8860   12.6982   28.4215 H   0  0  0  0  0
   11.0765    8.3705   28.7707 H   0  0  0  0  0
   10.6541   10.0890   28.9692 H   0  0  0  0  0
   10.1212    8.8957   30.1787 H   0  0  0  0  0
    7.8046    6.5946   28.0349 H   0  0  0  0  0
    7.4309    5.8740   26.4499 H   0  0  0  0  0
    8.4424    4.9857   27.6157 H   0  0  0  0  0
    9.3112    7.1201   24.1108 H   0  0  0  0  0
   11.4059    7.6225   22.7748 H   0  0  0  0  0
  1  2  2  0  0  0
  2  3  1  0  0  0
  2  9  1  0  0  0
  3  4  1  0  0  0
  4  5  1  0  0  0
  4  6  1  0  0  0
  4  7  1  0  0  0
  7  8  1  0  0  0
  9 10  1  0  0  0
  9 12  1  0  0  0
 10 11  3  0  0  0
 12 13  1  0  0  0
 13 14  4  0  0  0
 13 33  4  0  0  0
 14 15  4  0  0  0
 15 16  4  0  0  0
 16 17  4  0  0  0
 16 32  4  0  0  0
 17 18  4  0  0  0
 18 19  4  0  0  0
 19 20  1  0  0  0
 19 32  4  0  0  0
 20 21  4  0  0  0
 20 31  4  0  0  0
 21 22  4  0  0  0
 22 23  1  0  0  0
 22 25  4  0  0  0
 23 24  1  0  0  0
 25 26  1  0  0  0
 25 28  4  0  0  0
 26 27  1  0  0  0
 28 29  1  0  0  0
 28 31  4  0  0  0
 29 30  1  0  0  0
 32 33  4  0  0  0
  3 34  1  0  0  0
  5 35  1  0  0  0
  5 36  1  0  0  0
  5 37  1  0  0  0
  6 38  1  0  0  0
  6 39  1  0  0  0
  6 40  1  0  0  0
  7 41  1  0  0  0
  7 42  1  0  0  0
  8 43  1  0  0  0
  9 44  1  0  0  0
 12 45  1  0  0  0
 12 46  1  0  0  0
 14 47  1  0  0  0
 15 48  1  0  0  0
 21 49  1  0  0  0
 24 50  1  0  0  0
 24 51  1  0  0  0
 24 52  1  0  0  0
 27 53  1  0  0  0
 27 54  1  0  0  0
 27 55  1  0  0  0
 30 56  1  0  0  0
 30 57  1  0  0  0
 30 58  1  0  0  0
 31 59  1  0  0  0
 33 60  1  0  0  0
M  END
$$$$
