1nxy_ligand
  -I-interpret- 

 36 37  0  0  0  0  0  0  0  0999 V2000
   32.7700    6.1980   22.2480 C   0  0  0  0  0
   31.3800    6.4350   22.0450 C   0  0  0  0  0
   30.9840    7.6690   22.5300 C   0  0  0  0  0
   32.2980    8.5170   23.2260 S   0  0  0  0  0
   33.3780    7.2410   22.8710 C   0  0  0  0  0
   34.8700    7.2730   23.2140 C   0  0  0  0  0
   35.5380    8.5890   22.7550 C   0  0  0  0  0
   36.6010    8.9870   23.2150 O   0  0  0  0  0
   34.8470    9.2790   21.7930 N   0  0  0  0  0
   35.3570   10.5530   21.2690 C   0  0  0  0  0
   34.4390   11.7050   21.8790 B   0  0  0  0  0
   35.0520   12.8950   22.4930 O   0  0  0  0  0
   32.9660   11.5690   21.8750 O   0  0  0  0  0
   35.3020   10.5200   19.7470 C   0  0  0  0  0
   35.7760    9.3810   19.0330 C   0  0  0  0  0
   34.7640   11.6340   19.0350 C   0  0  0  0  0
   34.6980   11.6040   17.6090 C   0  0  0  0  0
   35.1720   10.4560   16.8930 C   0  0  0  0  0
   35.7150    9.3400   17.6080 C   0  0  0  0  0
   36.2230    8.1130   16.8640 C   0  0  0  0  0
   36.5550    7.0980   17.5260 O   0  0  0  0  0
   36.2880    8.1380   15.6100 O   0  0  0  0  0
   33.2846    5.2878   21.9400 H   0  0  0  0  0
   30.7063    5.7263   21.5634 H   0  0  0  0  0
   29.9650    8.0523   22.4758 H   0  0  0  0  0
   35.3571    6.4446   22.6996 H   0  0  0  0  0
   34.9739    7.1961   24.2963 H   0  0  0  0  0
   33.9682    8.9033   21.4368 H   0  0  0  0  0
   36.3946   10.7330   21.5501 H   0  0  0  0  0
   34.3614   13.4834   22.8069 H   0  0  0  0  0
   32.5728   12.3470   22.2772 H   0  0  0  0  0
   36.1888    8.5337   19.5805 H   0  0  0  0  0
   34.4038   12.5069   19.5794 H   0  0  0  0  0
   34.2871   12.4542   17.0646 H   0  0  0  0  0
   35.1192   10.4324   15.8045 H   0  0  0  0  0
   36.4351    7.2745   18.4620 H   0  0  0  0  0
  1  2  4  0  0  0
  1  5  4  0  0  0
  2  3  4  0  0  0
  3  4  4  0  0  0
  4  5  4  0  0  0
  5  6  1  0  0  0
  6  7  1  0  0  0
  7  8  2  0  0  0
  7  9  1  0  0  0
  9 10  1  0  0  0
 10 11  1  0  0  0
 10 14  1  0  0  0
 11 12  1  0  0  0
 11 13  1  0  0  0
 14 15  4  0  0  0
 14 16  4  0  0  0
 15 19  4  0  0  0
 16 17  4  0  0  0
 17 18  4  0  0  0
 18 19  4  0  0  0
 19 20  1  0  0  0
 20 21  1  0  0  0
 20 22  2  0  0  0
  1 23  1  0  0  0
  2 24  1  0  0  0
  3 25  1  0  0  0
  6 26  1  0  0  0
  6 27  1  0  0  0
  9 28  1  0  0  0
 10 29  1  0  0  0
 12 30  1  0  0  0
 13 31  1  0  0  0
 15 32  1  0  0  0
 16 33  1  0  0  0
 17 34  1  0  0  0
 18 35  1  0  0  0
 21 36  1  0  0  0
M  END
$$$$
