### 
### Created by X-TOOL on Mon Sep 10 21:12:49 2018
### 

@<TRIPOS>MOLECULE
1nxy_ligand
   35    36     1     0     0
SMALL
GAST_HUCK


@<TRIPOS>ATOM
      1 CAF        32.7700    6.1980   22.2480 C.2       1 SM2        -0.0791
      2 CAC        31.3800    6.4350   22.0450 C.2       1 SM2        -0.0924
      3 CAB        30.9840    7.6690   22.5300 C.2       1 SM2        -0.0189
      4 SAD        32.2980    8.5170   23.2260 S.3       1 SM2        -0.0419
      5 CAE        33.3780    7.2410   22.8710 C.2       1 SM2         0.0307
      6 CAG        34.8700    7.2730   23.2140 C.3       1 SM2         0.0818
      7 CAH        35.5380    8.5890   22.7550 C.2       1 SM2         0.1904
      8 OAI        36.6010    8.9870   23.2150 O.2       1 SM2        -0.3936
      9 NAJ        34.8470    9.2790   21.7930 N.am      1 SM2        -0.2815
     10 CAK        35.3570   10.5530   21.2690 C.3       1 SM2         0.0855
     11 B          34.4390   11.7050   21.8790 B         1 SM2         0.7343
     12 OAT        35.0520   12.8950   22.4930 O.3       1 SM2        -0.4949
     13 OAO        32.9660   11.5690   21.8750 O.3       1 SM2        -0.4949
     14 CAL        35.3020   10.5200   19.7470 C.ar      1 SM2        -0.0253
     15 CAQ        35.7760    9.3810   19.0330 C.ar      1 SM2        -0.0454
     16 CAM        34.7640   11.6340   19.0350 C.ar      1 SM2        -0.0569
     17 CAN        34.6980   11.6040   17.6090 C.ar      1 SM2        -0.0649
     18 CAS        35.1720   10.4560   16.8930 C.ar      1 SM2        -0.0545
     19 CAR        35.7150    9.3400   17.6080 C.ar      1 SM2         0.0035
     20 CAU        36.2230    8.1130   16.8640 C.2       1 SM2         0.0613
     21 OAW        36.5550    7.0980   17.5260 O.co2     1 SM2        -0.5607
     22 OAV        36.2880    8.1380   15.6100 O.co2     1 SM2        -0.5607
     23 H1         33.2842    5.2887   21.9403 H         1 SM2         0.0284
     24 H2         30.7069    5.7269   21.5638 H         1 SM2         0.0373
     25 H3         29.9660    8.0519   22.4758 H         1 SM2         0.0603
     26 H4         35.3679    6.4285   22.7152 H         1 SM2         0.0685
     27 H5         34.9868    7.1760   24.3035 H         1 SM2         0.0685
     28 H6         33.9854    8.9107   21.4437 H         1 SM2         0.1866
     29 H7         36.3985   10.7049   21.5885 H         1 SM2         0.0583
     30 H8         34.8086   12.9376   23.4103 H         1 SM2         0.1668
     31 H9         32.7254   10.7558   21.4470 H         1 SM2         0.1668
     32 H10        36.1865    8.5383   19.5775 H         1 SM2         0.0590
     33 H11        34.4058   12.5021   19.5765 H         1 SM2         0.0578
     34 H12        34.2893   12.4496   17.0676 H         1 SM2         0.0606
     35 H13        35.1195   10.4326   15.8105 H         1 SM2         0.0593
@<TRIPOS>BOND
     1    1    2 1  
     2    1    5 2  
     3    2    3 2  
     4    3    4 1  
     5    4    5 1  
     6    5    6 1  
     7    6    7 1  
     8    7    8 2  
     9    7    9 am 
    10    9   10 1  
    11   10   11 1  
    12   10   14 1  
    13   11   12 1  
    14   11   13 1  
    15   14   15 ar 
    16   14   16 ar 
    17   15   19 ar 
    18   16   17 ar 
    19   17   18 ar 
    20   18   19 ar 
    21   19   20 1  
    22   20   21 ar 
    23   20   22 ar 
    24    1   23 1  
    25    2   24 1  
    26    3   25 1  
    27    6   26 1  
    28    6   27 1  
    29    9   28 1  
    30   10   29 1  
    31   12   30 1  
    32   13   31 1  
    33   15   32 1  
    34   16   33 1  
    35   17   34 1  
    36   18   35 1  
@<TRIPOS>SUBSTRUCTURE
     1 SM2         1

