1nq7_ligand
  -I-interpret- 

 57 57  0  0  0  0  0  0  0  0999 V2000
   29.4730   25.8200   10.5960 C   0  0  0  0  0
   28.2120   25.0270   10.1460 C   0  0  0  0  0
   27.1010   25.8300    9.5470 C   0  0  0  0  0
   27.0650   27.1570    9.3530 C   0  0  0  0  0
   25.9720   27.9480    8.7790 C   0  0  0  0  0
   26.0390   29.1630    8.1030 C   0  0  0  0  0
   27.4130   29.8680    7.8650 C   0  0  0  0  0
   24.7640   29.8650    7.5910 C   0  0  0  0  0
   23.4430   29.2410    7.6550 C   0  0  0  0  0
   22.2030   29.8970    7.1850 C   0  0  0  0  0
   22.3610   31.2370    6.6270 C   0  0  0  0  0
   23.6410   31.9390    6.5230 C   0  0  0  0  0
   24.8180   31.2110    7.0160 C   0  0  0  0  0
   23.7890   33.4010    5.9150 C   0  0  0  0  0
   22.4540   34.1230    5.5530 C   0  0  0  0  0
   24.6250   33.3620    4.6300 C   0  0  0  0  0
   24.4790   34.3340    6.9430 C   0  0  0  0  0
   20.7870   29.1800    7.2770 C   0  0  0  0  0
   20.0370   29.0210    5.9380 C   0  0  0  0  0
   19.8360   29.9690    8.1910 C   0  0  0  0  0
   20.9070   27.7900    7.8860 C   0  0  0  0  0
   28.0320   23.6710   10.2480 C   0  0  0  0  0
   28.9430   22.6070   10.8000 C   0  0  0  0  0
   30.0230   22.8100   11.2630 O   0  0  0  0  0
   28.5350   21.4670   10.7540 O   0  0  0  0  0
   29.6297   25.6748   11.6649 H   0  0  0  0  0
   30.3428   25.4585   10.0476 H   0  0  0  0  0
   29.3267   26.8802   10.3897 H   0  0  0  0  0
   26.2189   25.2726    9.2318 H   0  0  0  0  0
   27.9522   27.7121    9.6578 H   0  0  0  0  0
   24.9730   27.5284    8.8975 H   0  0  0  0  0
   27.8815   30.0817    8.8257 H   0  0  0  0  0
   28.0599   29.2128    7.2816 H   0  0  0  0  0
   27.2527   30.7996    7.3222 H   0  0  0  0  0
   23.3678   28.2368    8.0721 H   0  0  0  0  0
   21.4685   31.7472    6.2647 H   0  0  0  0  0
   25.7891   31.7017    6.9499 H   0  0  0  0  0
   21.9149   33.5359    4.8095 H   0  0  0  0  0
   21.8430   34.2253    6.4498 H   0  0  0  0  0
   22.6748   35.1104    5.1477 H   0  0  0  0  0
   25.6161   32.9678    4.8547 H   0  0  0  0  0
   24.1345   32.7200    3.8983 H   0  0  0  0  0
   24.7166   34.3706    4.2269 H   0  0  0  0  0
   23.8769   34.3811    7.8504 H   0  0  0  0  0
   25.4677   33.9418    7.1814 H   0  0  0  0  0
   24.5758   35.3328    6.5175 H   0  0  0  0  0
   19.8575   30.0049    5.5045 H   0  0  0  0  0
   20.6409   28.4255    5.2533 H   0  0  0  0  0
   19.0847   28.5207    6.1136 H   0  0  0  0  0
   20.2647   30.0325    9.1911 H   0  0  0  0  0
   19.6975   30.9728    7.7893 H   0  0  0  0  0
   18.8737   29.4593    8.2385 H   0  0  0  0  0
   21.5651   27.1794    7.2678 H   0  0  0  0  0
   21.3211   27.8696    8.8911 H   0  0  0  0  0
   19.9204   27.3292    7.9336 H   0  0  0  0  0
   27.0775   23.3056    9.8691 H   0  0  0  0  0
   27.6596   21.4573   10.3600 H   0  0  0  0  0
  2  1  1  0  0  0
  2  3  1  0  0  0
  2 22  2  0  0  0
  3  4  2  0  0  0
  4  5  1  0  0  0
  5  6  2  0  0  0
  6  7  1  0  0  0
  6  8  1  0  0  0
  8  9  4  0  0  0
  8 13  4  0  0  0
  9 10  4  0  0  0
 10 11  4  0  0  0
 10 18  1  0  0  0
 11 12  4  0  0  0
 12 13  4  0  0  0
 12 14  1  0  0  0
 14 15  1  0  0  0
 14 16  1  0  0  0
 14 17  1  0  0  0
 18 19  1  0  0  0
 18 20  1  0  0  0
 18 21  1  0  0  0
 22 23  1  0  0  0
 23 24  2  0  0  0
 23 25  1  0  0  0
  1 26  1  0  0  0
  1 27  1  0  0  0
  1 28  1  0  0  0
  3 29  1  0  0  0
  4 30  1  0  0  0
  5 31  1  0  0  0
  7 32  1  0  0  0
  7 33  1  0  0  0
  7 34  1  0  0  0
  9 35  1  0  0  0
 11 36  1  0  0  0
 13 37  1  0  0  0
 15 38  1  0  0  0
 15 39  1  0  0  0
 15 40  1  0  0  0
 16 41  1  0  0  0
 16 42  1  0  0  0
 16 43  1  0  0  0
 17 44  1  0  0  0
 17 45  1  0  0  0
 17 46  1  0  0  0
 19 47  1  0  0  0
 19 48  1  0  0  0
 19 49  1  0  0  0
 20 50  1  0  0  0
 20 51  1  0  0  0
 20 52  1  0  0  0
 21 53  1  0  0  0
 21 54  1  0  0  0
 21 55  1  0  0  0
 22 56  1  0  0  0
 25 57  1  0  0  0
M  END
$$$$
