4b6s_ligand
  -I-interpret- 

 36 37  0  0  0  0  0  0  0  0999 V2000
   26.8880   48.9070  -15.2100 F   0  0  0  0  0
   25.8030   48.8670  -16.0050 C   0  0  0  0  0
   25.9910   48.6980  -17.3640 C   0  0  0  0  0
   27.2120   48.5840  -17.8740 F   0  0  0  0  0
   24.9280   48.6450  -18.2270 C   0  0  0  0  0
   25.1120   48.4680  -19.5320 F   0  0  0  0  0
   23.6640   48.7410  -17.7260 C   0  0  0  0  0
   22.6450   48.6830  -18.5810 F   0  0  0  0  0
   23.4670   48.9230  -16.3810 C   0  0  0  0  0
   22.1970   49.0150  -15.9890 F   0  0  0  0  0
   24.5240   48.9910  -15.4630 C   0  0  0  0  0
   24.3220   49.2180  -13.9430 C   0  0  0  0  0
   24.1800   47.9400  -13.1240 C   0  0  0  0  0
   24.1230   48.1590  -11.6040 C   0  0  0  0  0
   24.2260   46.9210  -10.9170 O   0  0  0  0  0
   25.3510   48.9740  -11.2690 C   0  0  0  0  0
   26.4230   48.3660  -11.2940 O   0  0  0  0  0
   25.1920   50.1640  -10.9830 O   0  0  0  0  0
   22.8630   47.3470  -13.5210 C   0  0  0  0  0
   22.9150   46.3940  -14.2890 O   0  0  0  0  0
   21.5280   47.9440  -13.0000 C   0  0  0  0  0
   20.4050   47.2260  -13.5120 O   0  0  0  0  0
   21.5600   48.0410  -11.4750 C   0  0  0  0  0
   20.4300   48.7930  -11.0820 O   0  0  0  0  0
   22.8260   48.8580  -11.1160 C   0  0  0  0  0
   23.3932   49.7762  -13.8253 H   0  0  0  0  0
   25.2103   49.7332  -13.5774 H   0  0  0  0  0
   25.0537   47.3192  -13.3223 H   0  0  0  0  0
   24.1886   47.0774   -9.9706 H   0  0  0  0  0
   24.2593   50.3839  -11.0406 H   0  0  0  0  0
   21.4115   48.9609  -13.3747 H   0  0  0  0  0
   19.5958   47.6165  -13.1739 H   0  0  0  0  0
   21.5632   47.0621  -10.9956 H   0  0  0  0  0
   20.4180   48.8743  -10.1255 H   0  0  0  0  0
   22.7562   49.8294  -11.6054 H   0  0  0  0  0
   22.8758   48.9524  -10.0312 H   0  0  0  0  0
  1  2  1  0  0  0
  2  3  4  0  0  0
  2 11  4  0  0  0
  3  4  1  0  0  0
  3  5  4  0  0  0
  5  6  1  0  0  0
  5  7  4  0  0  0
  7  8  1  0  0  0
  7  9  4  0  0  0
  9 10  1  0  0  0
  9 11  4  0  0  0
 11 12  1  0  0  0
 12 13  1  0  0  0
 13 14  1  0  0  0
 13 19  1  0  0  0
 14 15  1  0  0  0
 14 16  1  0  0  0
 14 25  1  0  0  0
 16 17  2  0  0  0
 16 18  1  0  0  0
 19 20  2  0  0  0
 19 21  1  0  0  0
 21 22  1  0  0  0
 21 23  1  0  0  0
 23 24  1  0  0  0
 23 25  1  0  0  0
 12 26  1  0  0  0
 12 27  1  0  0  0
 13 28  1  0  0  0
 15 29  1  0  0  0
 18 30  1  0  0  0
 21 31  1  0  0  0
 22 32  1  0  0  0
 23 33  1  0  0  0
 24 34  1  0  0  0
 25 35  1  0  0  0
 25 36  1  0  0  0
M  END
$$$$
