6bm5_ligand
  -I-interpret- 

 51 53  0  0  0  0  0  0  0  0999 V2000
  -10.1480   20.8060  -13.8870 N   0  3  0  0  0
   -9.5030   19.5220  -13.6700 C   0  0  0  0  0
   -8.5290   19.5720  -12.5080 C   0  0  0  0  0
   -8.3930   18.5930  -11.7470 O   0  0  0  0  0
   -7.8870   20.6090  -12.3000 O   0  0  0  0  0
   -8.7910   19.0660  -14.9490 C   0  0  0  0  0
   -7.9970   17.7640  -14.7730 C   0  0  0  0  0
   -8.9590   16.3500  -14.1490 S   0  0  0  0  0
   -7.6350   15.2990  -13.5130 C   0  0  0  0  0
   -9.4190   15.5270  -15.6960 C   0  0  0  0  0
   -8.2950   14.8190  -16.4490 C   0  0  0  0  0
   -8.0300   13.5230  -15.9050 O   0  0  0  0  0
   -8.7290   14.5550  -17.8810 C   0  0  0  0  0
   -8.4360   15.6260  -18.7490 O   0  0  0  0  0
   -7.9400   13.3360  -18.2550 C   0  0  0  0  0
   -6.6060   13.6920  -18.5450 O   0  0  0  0  0
   -7.9070   12.5880  -16.9540 C   0  0  0  0  0
   -8.9980   11.6220  -16.7790 N   0  0  0  0  0
  -10.1180   11.7340  -15.9990 C   0  0  0  0  0
  -10.8270   10.5830  -16.0850 N   0  0  0  0  0
  -10.1710    9.7440  -16.9230 C   0  0  0  0  0
  -10.4240    8.4570  -17.3820 C   0  0  0  0  0
  -11.5130    7.7680  -17.0130 N   0  0  0  0  0
   -9.4990    7.8950  -18.2280 N   0  0  0  0  0
   -8.3670    8.5680  -18.6350 C   0  0  0  0  0
   -8.1250    9.8490  -18.2040 N   0  0  0  0  0
   -9.0150   10.3880  -17.3530 C   0  0  0  0  0
  -10.6176   21.0984  -13.0301 H   0  0  0  0  0
   -9.4452   21.4990  -14.1444 H   0  0  0  0  0
  -10.8323   20.7187  -14.6384 H   0  0  0  0  0
  -10.2774   18.7984  -13.4157 H   0  0  0  0  0
   -8.9571   17.8760  -12.0459 H   0  0  0  0  0
   -8.0838   19.8472  -15.2279 H   0  0  0  0  0
   -9.5558   18.8851  -15.7043 H   0  0  0  0  0
   -7.2222   17.9668  -14.0336 H   0  0  0  0  0
   -7.6321   17.4834  -15.7610 H   0  0  0  0  0
   -6.9550   15.0420  -14.3252 H   0  0  0  0  0
   -7.0892   15.8345  -12.7362 H   0  0  0  0  0
   -8.0646   14.3885  -13.0952 H   0  0  0  0  0
   -9.7807   16.3118  -16.3603 H   0  0  0  0  0
  -10.1364   14.7524  -15.4249 H   0  0  0  0  0
   -7.4193   15.4641  -16.3768 H   0  0  0  0  0
   -9.8084   14.4272  -17.9627 H   0  0  0  0  0
   -8.7300   15.4070  -19.6362 H   0  0  0  0  0
   -8.3547   12.8032  -19.1107 H   0  0  0  0  0
   -6.1105   12.9050  -18.7829 H   0  0  0  0  0
   -6.9682   12.0341  -16.9498 H   0  0  0  0  0
  -10.3937   12.6062  -15.4062 H   0  0  0  0  0
  -12.1894    8.1867  -16.3746 H   0  0  0  0  0
  -11.6653    6.8250  -17.3706 H   0  0  0  0  0
   -7.6586    8.0796  -19.3041 H   0  0  0  0  0
  1  2  1  0  0  0
  2  3  1  0  0  0
  2  6  1  0  0  0
  3  4  1  0  0  0
  3  5  2  0  0  0
  6  7  1  0  0  0
  7  8  1  0  0  0
  8  9  1  0  0  0
  8 10  1  0  0  0
 10 11  1  0  0  0
 11 12  1  0  0  0
 11 13  1  0  0  0
 12 17  1  0  0  0
 13 14  1  0  0  0
 13 15  1  0  0  0
 15 16  1  0  0  0
 15 17  1  0  0  0
 17 18  1  0  0  0
 18 19  4  0  0  0
 18 27  4  0  0  0
 19 20  4  0  0  0
 20 21  4  0  0  0
 21 22  4  0  0  0
 21 27  4  0  0  0
 22 23  1  0  0  0
 22 24  4  0  0  0
 24 25  4  0  0  0
 25 26  4  0  0  0
 26 27  4  0  0  0
  1 28  1  0  0  0
  1 29  1  0  0  0
  1 30  1  0  0  0
  2 31  1  0  0  0
  4 32  1  0  0  0
  6 33  1  0  0  0
  6 34  1  0  0  0
  7 35  1  0  0  0
  7 36  1  0  0  0
  9 37  1  0  0  0
  9 38  1  0  0  0
  9 39  1  0  0  0
 10 40  1  0  0  0
 10 41  1  0  0  0
 11 42  1  0  0  0
 13 43  1  0  0  0
 14 44  1  0  0  0
 15 45  1  0  0  0
 16 46  1  0  0  0
 17 47  1  0  0  0
 19 48  1  0  0  0
 23 49  1  0  0  0
 23 50  1  0  0  0
 25 51  1  0  0  0
M  END
$$$$
