1dzj_ligand
  -I-interpret- 

 31 31  0  0  0  0  0  0  0  0999 V2000
    2.9710   26.0680   12.4140 C   0  0  0  0  0
    2.5240   26.4140   10.9970 C   0  0  0  0  0
    1.1060   26.9660   11.0290 C   0  0  0  0  0
    0.1530   25.9620   11.6730 C   0  0  0  0  0
    0.1960   27.1630   15.5320 C   0  0  0  0  0
   -0.0080   25.7390   15.0230 C   0  0  0  0  0
   -1.4800   25.4930   14.6900 C   0  0  0  0  0
   -1.6270   27.6650   11.6020 N   0  0  0  0  0
   -2.7270   28.1160   12.2280 C   0  0  0  0  0
   -3.3410   29.1710   11.7080 N   0  0  0  0  0
   -3.4050   27.2700   13.8150 S   0  0  0  0  0
   -1.9090   26.1760   13.4140 C   0  0  0  0  0
   -1.0960   26.6040   12.2330 C   0  0  0  0  0
    2.9452   26.9660   13.0312 H   0  0  0  0  0
    2.2994   25.3185   12.8326 H   0  0  0  0  0
    3.9866   25.6731   12.3870 H   0  0  0  0  0
    2.5490   25.5158   10.3800 H   0  0  0  0  0
    3.1951   27.1641   10.5787 H   0  0  0  0  0
    0.7787   27.1584   10.0072 H   0  0  0  0  0
    1.0981   27.8857   11.6139 H   0  0  0  0  0
    0.6811   25.4882   12.5005 H   0  0  0  0  0
   -0.1550   25.2562   10.9016 H   0  0  0  0  0
   -0.1161   27.8703   14.7637 H   0  0  0  0  0
   -0.4006   27.3149   16.4315 H   0  0  0  0  0
    1.2500   27.3174   15.7632 H   0  0  0  0  0
    0.3006   25.0386   15.7991 H   0  0  0  0  0
    0.5869   25.5975   14.1207 H   0  0  0  0  0
   -2.0802   25.8976   15.5050 H   0  0  0  0  0
   -1.6193   24.4199   14.5590 H   0  0  0  0  0
   -2.9746   29.6090   10.8628 H   0  0  0  0  0
   -4.1794   29.5440   12.1534 H   0  0  0  0  0
  2  1  1  0  0  0
  3  2  1  0  0  0
  4  3  1  0  0  0
 13  4  1  0  0  0
  6  5  1  0  0  0
  7  6  1  0  0  0
 12  7  1  0  0  0
  9  8  4  0  0  0
  8 13  4  0  0  0
  9 10  1  0  0  0
 11  9  4  0  0  0
 11 12  4  0  0  0
 12 13  4  0  0  0
  1 14  1  0  0  0
  1 15  1  0  0  0
  1 16  1  0  0  0
  2 17  1  0  0  0
  2 18  1  0  0  0
  3 19  1  0  0  0
  3 20  1  0  0  0
  4 21  1  0  0  0
  4 22  1  0  0  0
  5 23  1  0  0  0
  5 24  1  0  0  0
  5 25  1  0  0  0
  6 26  1  0  0  0
  6 27  1  0  0  0
  7 28  1  0  0  0
  7 29  1  0  0  0
 10 30  1  0  0  0
 10 31  1  0  0  0
M  END
$$$$
