3rul_ligand
  -I-interpret- 

152162  0  0  0  0  0  0  0  0999 V2000
    4.5440    2.2340   34.4010 C   0  0  0  0  0
    6.2840    1.0740   33.2450 N   0  3  0  0  0
    5.4440    2.8620   34.9340 O   0  0  0  0  0
    4.6840    2.3080   31.8900 C   0  0  0  0  0
    4.7090    3.7010   31.9140 C   0  0  0  0  0
    4.5430    4.4410   30.7310 C   0  0  0  0  0
    4.3580    3.8030   29.5180 C   0  0  0  0  0
    4.1890    4.5390   28.3690 O   0  0  0  0  0
    4.4860    1.6800   30.6660 C   0  0  0  0  0
    4.3300    2.4120   29.4870 C   0  0  0  0  0
    4.8580    1.4790   33.1200 C   0  0  0  0  0
    6.6970    0.0820   32.2350 C   0  0  0  0  0
    3.3120    2.1630   34.9120 N   0  0  0  0  0
    2.9590    2.8660   36.1630 C   0  0  0  0  0
    2.1490    4.1500   35.8940 C   0  0  0  0  0
    1.8800    4.9180   36.8170 O   0  0  0  0  0
    2.2200    1.9380   37.1540 C   0  0  0  0  0
    0.8570    1.5650   36.6440 C   0  0  0  0  0
    0.7200    0.6230   35.6340 C   0  0  0  0  0
   -0.2910    2.1960   37.1200 C   0  0  0  0  0
   -0.5060    0.3020   35.1230 C   0  0  0  0  0
   -1.5370    1.8730   36.6160 C   0  0  0  0  0
   -1.6330    0.9190   35.6190 C   0  0  0  0  0
   -2.8430    0.5910   35.0670 O   0  0  0  0  0
   -0.2260    5.7700   33.6200 C   0  0  0  0  0
    1.7320    4.3840   34.6480 N   0  0  0  0  0
   -0.8790    6.8430   33.7290 O   0  0  0  0  0
    1.8710    8.6550   35.0980 Cl  0  0  0  0  0
    2.2370    6.4780   33.4850 C   0  0  0  0  0
    2.5910    7.7920   33.7910 C   0  0  0  0  0
    3.5560    8.4490   33.0470 C   0  0  0  0  0
    3.8540    9.7320   33.3780 O   0  0  0  0  0
    4.1920    7.8080   31.9890 C   0  0  0  0  0
    4.5660    5.8060   30.7270 O   0  0  0  0  0
    2.8710    5.8360   32.4310 C   0  0  0  0  0
    3.8520    6.4940   31.6910 C   0  0  0  0  0
    1.1780    5.7210   34.3120 C   0  0  0  0  0
   -0.6640    4.7110   32.9340 N   0  0  0  0  0
   -2.0280    4.6800   32.3270 C   0  0  0  0  0
   -2.0260    5.0350   30.8320 C   0  0  0  0  0
   -1.1920    4.5430   30.0720 O   0  0  0  0  0
   -2.7330    3.3030   32.5450 C   0  0  0  0  0
   -2.4310    2.5260   33.6690 C   0  0  0  0  0
   -3.0770    1.2980   33.8910 C   0  0  0  0  0
   -4.0220    0.8360   32.9750 C   0  0  0  0  0
   -4.6290   -0.3630   33.1990 O   0  0  0  0  0
   -4.3340    1.5930   31.8410 C   0  0  0  0  0
   -3.6920    2.8250   31.6430 C   0  0  0  0  0
   -2.9520    5.9010   30.4220 N   0  0  0  0  0
   -3.3020    6.0470   28.9830 C   0  0  0  0  0
   -4.8250    6.3330   28.8440 C   0  0  0  0  0
   -5.4310    6.8640   29.7770 O   0  0  0  0  0
   -2.6030    7.1850   28.2150 C   0  0  0  0  0
   -1.7900    6.8950   27.1280 C   0  0  0  0  0
   -1.2150    7.9310   26.3950 C   0  0  0  0  0
   -1.4450    9.2630   26.7540 C   0  0  0  0  0
   -0.8870   10.2960   26.0640 O   0  0  0  0  0
   -2.2690    9.5500   27.8370 C   0  0  0  0  0
   -2.8540    8.5130   28.5510 C   0  0  0  0  0
   -5.4300    6.0130   27.6950 N   0  0  0  0  0
   -4.7530    5.3690   26.5390 C   0  0  0  0  0
   -5.2700    1.1050   30.9280 O   0  0  0  0  0
   -6.3800    2.7610   29.5870 C   0  0  0  0  0
   -4.4140    1.6580   28.7730 C   0  0  0  0  0
   -5.3570    1.8400   29.7770 C   0  0  0  0  0
   -5.5040    3.3030   27.3940 C   0  0  0  0  0
   -6.4490    3.4990   28.4040 C   0  0  0  0  0
   -4.4730    2.3880   27.5870 C   0  0  0  0  0
   -5.5500    4.1400   26.1170 C   0  0  0  0  0
   -3.1690    0.4930   29.0410 Cl  0  0  0  0  0
   -5.3160    7.3260   25.2300 O   0  0  0  0  0
   -4.5320    6.3970   25.4180 C   0  0  0  0  0
   -6.8950    4.5380   25.7680 O   0  0  0  0  0
   -3.2950    7.4600   22.5300 C   0  0  0  0  0
   -3.4310    6.2300   24.6940 N   0  0  0  0  0
   -3.7320    6.4690   21.9450 O   0  0  0  0  0
   -1.3100    7.2180   24.0520 C   0  0  0  0  0
   -0.6710    6.6830   22.9380 C   0  0  0  0  0
    0.7020    6.5180   22.9330 C   0  0  0  0  0
    1.3280    6.0010   21.8470 O   0  0  0  0  0
    1.4370    6.8820   24.0460 C   0  0  0  0  0
    0.7950    7.3990   25.1580 C   0  0  0  0  0
   -0.5820    7.5950   25.1910 C   0  0  0  0  0
   -2.8280    7.3650   23.9850 C   0  0  0  0  0
   -3.1980    8.6460   21.9100 N   0  0  0  0  0
   -3.7420    8.6520   20.5470 C   0  0  0  0  0
   -3.2500    9.9260   19.8480 C   0  0  0  0  0
   -3.6840   11.1890   20.6160 C   0  0  0  0  0
   -5.1500   11.3030   20.7370 N   0  3  0  0  0
   -5.4850   12.5130   21.5150 C   0  0  0  0  0
   -5.7530   11.4090   19.3960 C   0  0  0  0  0
    6.4049    0.6482   34.1639 H   0  0  0  0  0
    6.8552    1.9083   33.1104 H   0  0  0  0  0
    4.8588    4.2218   32.8597 H   0  0  0  0  0
    4.0744    3.9449   27.6237 H   0  0  0  0  0
    4.4517    0.5913   30.6254 H   0  0  0  0  0
    4.1859    1.8923   28.5397 H   0  0  0  0  0
    4.1730    0.6385   33.0086 H   0  0  0  0  0
    6.0886   -0.8163   32.3399 H   0  0  0  0  0
    6.5594    0.5012   31.2383 H   0  0  0  0  0
    7.7472   -0.1696   32.3829 H   0  0  0  0  0
    2.6012    1.6130   34.4295 H   0  0  0  0  0
    3.8978    3.1647   36.6295 H   0  0  0  0  0
    2.1028    2.4658   38.1005 H   0  0  0  0  0
    2.8050    1.0265   37.2764 H   0  0  0  0  0
    1.6084    0.1292   35.2404 H   0  0  0  0  0
   -0.2052    2.9534   37.8992 H   0  0  0  0  0
   -0.5915   -0.4381   34.3274 H   0  0  0  0  0
   -2.4318    2.3635   36.9991 H   0  0  0  0  0
    1.7928    3.6555   33.9367 H   0  0  0  0  0
    4.5333   10.0643   32.7867 H   0  0  0  0  0
    4.9473    8.3296   31.4013 H   0  0  0  0  0
    2.6002    4.8104   32.1800 H   0  0  0  0  0
    0.9707    6.2014   35.2682 H   0  0  0  0  0
   -0.0514    3.9032   32.8219 H   0  0  0  0  0
   -2.5951    5.4504   32.8494 H   0  0  0  0  0
   -1.6850    2.8779   34.3815 H   0  0  0  0  0
   -5.2488   -0.5443   32.4886 H   0  0  0  0  0
   -3.9453    3.4233   30.7678 H   0  0  0  0  0
   -3.4330    6.4783   31.1118 H   0  0  0  0  0
   -2.9702    5.1037   28.5492 H   0  0  0  0  0
   -1.6017    5.8585   26.8483 H   0  0  0  0  0
   -1.1602   11.1275   26.4585 H   0  0  0  0  0
   -2.4548   10.5850   28.1241 H   0  0  0  0  0
   -3.5179    8.7410   29.3848 H   0  0  0  0  0
   -6.4237    6.2253   27.6059 H   0  0  0  0  0
   -3.7582    5.0163   26.8114 H   0  0  0  0  0
   -7.1306    2.9076   30.3637 H   0  0  0  0  0
   -7.2443    4.2319   28.2677 H   0  0  0  0  0
   -3.7166    2.2432   26.8156 H   0  0  0  0  0
   -5.1722    3.6060   25.2451 H   0  0  0  0  0
   -7.3976    3.7645   25.5021 H   0  0  0  0  0
   -3.0017    5.3069   24.6303 H   0  0  0  0  0
   -1.2554    6.3925   22.0650 H   0  0  0  0  0
    2.2723    5.9570   22.0141 H   0  0  0  0  0
    2.5204    6.7620   24.0478 H   0  0  0  0  0
    1.3867    7.6607   26.0352 H   0  0  0  0  0
   -3.1465    8.2882   24.4691 H   0  0  0  0  0
   -2.7835    9.4693   22.3467 H   0  0  0  0  0
   -4.8315    8.6340   20.5755 H   0  0  0  0  0
   -3.4061    7.7693   20.0028 H   0  0  0  0  0
   -3.6824    9.9622   18.8481 H   0  0  0  0  0
   -2.1610    9.9013   19.8079 H   0  0  0  0  0
   -3.3242   12.0575   20.0643 H   0  0  0  0  0
   -3.2678   11.1299   21.6217 H   0  0  0  0  0
   -5.5137   10.4756   21.2097 H   0  0  0  0  0
   -5.0417   12.4392   22.5080 H   0  0  0  0  0
   -5.0917   13.3921   21.0045 H   0  0  0  0  0
   -6.5680   12.5975   21.6046 H   0  0  0  0  0
   -5.3618   12.2927   18.8919 H   0  0  0  0  0
   -5.5059   10.5194   18.8166 H   0  0  0  0  0
   -6.8356   11.4929   19.4914 H   0  0  0  0  0
  1  3  2  0  0  0
  1 11  1  0  0  0
 13  1  1  0  0  0
 11  2  1  0  0  0
  2 12  1  0  0  0
  5  4  4  0  0  0
  4  9  4  0  0  0
 11  4  1  0  0  0
  6  5  4  0  0  0
  6  7  4  0  0  0
 34  6  1  0  0  0
  7  8  1  0  0  0
  7 10  4  0  0  0
 10  9  4  0  0  0
 14 13  1  0  0  0
 15 14  1  0  0  0
 14 17  1  0  0  0
 15 16  2  0  0  0
 26 15  1  0  0  0
 17 18  1  0  0  0
 19 18  4  0  0  0
 20 18  4  0  0  0
 21 19  4  0  0  0
 22 20  4  0  0  0
 23 21  4  0  0  0
 23 22  4  0  0  0
 24 23  1  0  0  0
 44 24  1  0  0  0
 25 27  2  0  0  0
 25 37  1  0  0  0
 38 25  1  0  0  0
 37 26  1  0  0  0
 30 28  1  0  0  0
 29 30  4  0  0  0
 29 35  4  0  0  0
 37 29  1  0  0  0
 30 31  4  0  0  0
 31 32  1  0  0  0
 31 33  4  0  0  0
 36 33  4  0  0  0
 36 34  1  0  0  0
 35 36  4  0  0  0
 39 38  1  0  0  0
 40 39  1  0  0  0
 39 42  1  0  0  0
 40 41  2  0  0  0
 49 40  1  0  0  0
 42 43  4  0  0  0
 42 48  4  0  0  0
 43 44  4  0  0  0
 44 45  4  0  0  0
 45 46  1  0  0  0
 47 45  4  0  0  0
 48 47  4  0  0  0
 47 62  1  0  0  0
 50 49  1  0  0  0
 50 51  1  0  0  0
 53 50  1  0  0  0
 51 52  2  0  0  0
 51 60  1  0  0  0
 54 53  4  0  0  0
 53 59  4  0  0  0
 55 54  4  0  0  0
 55 56  4  0  0  0
 83 55  1  0  0  0
 56 57  1  0  0  0
 56 58  4  0  0  0
 58 59  4  0  0  0
 60 61  1  0  0  0
 61 69  1  0  0  0
 61 72  1  0  0  0
 62 65  1  0  0  0
 63 65  4  0  0  0
 67 63  4  0  0  0
 64 65  4  0  0  0
 68 64  4  0  0  0
 64 70  1  0  0  0
 66 67  4  0  0  0
 66 68  4  0  0  0
 69 66  1  0  0  0
 69 73  1  0  0  0
 72 71  2  0  0  0
 72 75  1  0  0  0
 74 76  2  0  0  0
 84 74  1  0  0  0
 74 85  1  0  0  0
 75 84  1  0  0  0
 77 78  4  0  0  0
 77 83  4  0  0  0
 77 84  1  0  0  0
 78 79  4  0  0  0
 79 80  1  0  0  0
 79 81  4  0  0  0
 81 82  4  0  0  0
 82 83  4  0  0  0
 85 86  1  0  0  0
 86 87  1  0  0  0
 87 88  1  0  0  0
 88 89  1  0  0  0
 89 90  1  0  0  0
 89 91  1  0  0  0
  2 92  1  0  0  0
  2 93  1  0  0  0
  5 94  1  0  0  0
  8 95  1  0  0  0
  9 96  1  0  0  0
 10 97  1  0  0  0
 11 98  1  0  0  0
 12 99  1  0  0  0
 12100  1  0  0  0
 12101  1  0  0  0
 13102  1  0  0  0
 14103  1  0  0  0
 17104  1  0  0  0
 17105  1  0  0  0
 19106  1  0  0  0
 20107  1  0  0  0
 21108  1  0  0  0
 22109  1  0  0  0
 26110  1  0  0  0
 32111  1  0  0  0
 33112  1  0  0  0
 35113  1  0  0  0
 37114  1  0  0  0
 38115  1  0  0  0
 39116  1  0  0  0
 43117  1  0  0  0
 46118  1  0  0  0
 48119  1  0  0  0
 49120  1  0  0  0
 50121  1  0  0  0
 54122  1  0  0  0
 57123  1  0  0  0
 58124  1  0  0  0
 59125  1  0  0  0
 60126  1  0  0  0
 61127  1  0  0  0
 63128  1  0  0  0
 67129  1  0  0  0
 68130  1  0  0  0
 69131  1  0  0  0
 73132  1  0  0  0
 75133  1  0  0  0
 78134  1  0  0  0
 80135  1  0  0  0
 81136  1  0  0  0
 82137  1  0  0  0
 84138  1  0  0  0
 85139  1  0  0  0
 86140  1  0  0  0
 86141  1  0  0  0
 87142  1  0  0  0
 87143  1  0  0  0
 88144  1  0  0  0
 88145  1  0  0  0
 89146  1  0  0  0
 90147  1  0  0  0
 90148  1  0  0  0
 90149  1  0  0  0
 91150  1  0  0  0
 91151  1  0  0  0
 91152  1  0  0  0
M  END
$$$$
