### 
### Created by X-TOOL on Mon Sep 10 21:13:11 2018
### 

@<TRIPOS>MOLECULE
3rul_ligand
  151   161     1     0     0
SMALL
GAST_HUCK


@<TRIPOS>ATOM
      1 C           4.5440    2.2340   34.4010 C.2       1 HGM         0.2368
      2 N           6.2840    1.0740   33.2450 N.4       1 HGM         0.2540
      3 O           5.4440    2.8620   34.9340 O.2       1 HGM        -0.3881
      4 C1          4.6840    2.3080   31.8900 C.ar      1 HGM         0.0051
      5 C2          4.7090    3.7010   31.9140 C.ar      1 HGM        -0.0272
      6 C3          4.5430    4.4410   30.7310 C.ar      1 HGM         0.1389
      7 C4          4.3580    3.8030   29.5180 C.ar      1 HGM         0.1144
      8 O4          4.1890    4.5390   28.3690 O.3       1 HGM        -0.3402
      9 C5          4.4860    1.6800   30.6660 C.ar      1 HGM        -0.0716
     10 C6          4.3300    2.4120   29.4870 C.ar      1 HGM        -0.0464
     11 CA          4.8580    1.4790   33.1200 C.3       1 HGM         0.0928
     12 CH3         6.6970    0.0820   32.2350 C.3       1 HGM        -0.0416
     13 N           3.3120    2.1630   34.9120 N.am      1 DTY        -0.2579
     14 CA          2.9590    2.8660   36.1630 C.3       1 DTY         0.1395
     15 C           2.1490    4.1500   35.8940 C.2       1 DTY         0.2075
     16 O           1.8800    4.9180   36.8170 O.2       1 DTY        -0.3941
     17 CB          2.2200    1.9380   37.1540 C.3       1 DTY         0.0166
     18 CG          0.8570    1.5650   36.6440 C.ar      1 DTY        -0.0487
     19 CD1         0.7200    0.6230   35.6340 C.ar      1 DTY        -0.0677
     20 CD2        -0.2910    2.1960   37.1200 C.ar      1 DTY        -0.0677
     21 CE1        -0.5060    0.3020   35.1230 C.ar      1 DTY        -0.0354
     22 CE2        -1.5370    1.8730   36.6160 C.ar      1 DTY        -0.0354
     23 CZ         -1.6330    0.9190   35.6190 C.ar      1 DTY         0.1058
     24 OH         -2.8430    0.5910   35.0670 O.3       1 DTY        -0.2703
     25 C          -0.2260    5.7700   33.6200 C.2       1 HCL         0.2171
     26 N           1.7320    4.3840   34.6480 N.am      1 HCL        -0.2532
     27 O          -0.8790    6.8430   33.7290 O.2       1 HCL        -0.3912
     28 CL          1.8710    8.6550   35.0980 Cl        1 HCL        -0.0944
     29 C1          2.2370    6.4780   33.4850 C.ar      1 HCL        -0.0015
     30 C2          2.5910    7.7920   33.7910 C.ar      1 HCL         0.0612
     31 C3          3.5560    8.4490   33.0470 C.ar      1 HCL         0.0881
     32 O3          3.8540    9.7320   33.3780 O.3       1 HCL        -0.3365
     33 C4          4.1920    7.8080   31.9890 C.ar      1 HCL        -0.0074
     34 O4          4.5660    5.8060   30.7270 O.3       1 HCL        -0.2671
     35 C5          2.8710    5.8360   32.4310 C.ar      1 HCL        -0.0337
     36 C6          3.8520    6.4940   31.6910 C.ar      1 HCL         0.0991
     37 CA          1.1780    5.7210   34.3120 C.3       1 HCL         0.1606
     38 N          -0.6640    4.7110   32.9340 N.am      1 GHP        -0.2531
     39 CA         -2.0280    4.6800   32.3270 C.3       1 GHP         0.1555
     40 C          -2.0260    5.0350   30.8320 C.2       1 GHP         0.2152
     41 O          -1.1920    4.5430   30.0720 O.2       1 GHP        -0.3916
     42 C1         -2.7330    3.3030   32.5450 C.ar      1 GHP        -0.0249
     43 C2         -2.4310    2.5260   33.6690 C.ar      1 GHP        -0.0411
     44 C3         -3.0770    1.2980   33.8910 C.ar      1 GHP         0.1300
     45 C4         -4.0220    0.8360   32.9750 C.ar      1 GHP         0.1465
     46 O4         -4.6290   -0.3630   33.1990 O.3       1 GHP        -0.3447
     47 C5         -4.3340    1.5930   31.8410 C.ar      1 GHP         0.1303
     48 C6         -3.6920    2.8250   31.6430 C.ar      1 GHP        -0.0411
     49 N          -2.9520    5.9010   30.4220 N.am      1 GHP        -0.2531
     50 CA         -3.3020    6.0470   28.9830 C.3       1 GHP         0.1592
     51 C          -4.8250    6.3330   28.8440 C.2       1 GHP         0.2141
     52 O          -5.4310    6.8640   29.7770 O.2       1 GHP        -0.3918
     53 C1         -2.6030    7.1850   28.2150 C.ar      1 GHP        -0.0116
     54 C2         -1.7900    6.8950   27.1280 C.ar      1 GHP        -0.0598
     55 C3         -1.2150    7.9310   26.3950 C.ar      1 GHP        -0.0032
     56 C4         -1.4450    9.2630   26.7540 C.ar      1 GHP         0.0872
     57 O4         -0.8870   10.2960   26.0640 O.3       1 GHP        -0.3364
     58 C5         -2.2690    9.5500   27.8370 C.ar      1 GHP        -0.0400
     59 C6         -2.8540    8.5130   28.5510 C.ar      1 GHP        -0.0660
     60 N          -5.4300    6.0130   27.6950 N.am      1 OMY        -0.2584
     61 CA         -4.7530    5.3690   26.5390 C.3       1 OMY         0.1655
     62 OCZ        -5.2700    1.1050   30.9280 O.3       1 OMY        -0.2694
     63 CE2        -6.3800    2.7610   29.5870 C.ar      1 OMY        -0.0346
     64 CE1        -4.4140    1.6580   28.7730 C.ar      1 OMY         0.0657
     65 CZ         -5.3570    1.8400   29.7770 C.ar      1 OMY         0.1201
     66 CG         -5.5040    3.3030   27.3940 C.ar      1 OMY        -0.0199
     67 CD2        -6.4490    3.4990   28.4040 C.ar      1 OMY        -0.0651
     68 CD1        -4.4730    2.3880   27.5870 C.ar      1 OMY        -0.0514
     69 CB         -5.5500    4.1400   26.1170 C.3       1 OMY         0.1244
     70 CL         -3.1690    0.4930   29.0410 Cl        1 OMY        -0.0796
     71 O          -5.3160    7.3260   25.2300 O.2       1 OMY        -0.3940
     72 C          -4.5320    6.3970   25.4180 C.2       1 OMY         0.2101
     73 ODE        -6.8950    4.5380   25.7680 O.3       1 OMY        -0.3762
     74 C          -3.2950    7.4600   22.5300 C.2       1 HG7         0.2135
     75 N          -3.4310    6.2300   24.6940 N.am      1 HG7        -0.2529
     76 O          -3.7320    6.4690   21.9450 O.2       1 HG7        -0.3914
     77 C1         -1.3100    7.2180   24.0520 C.ar      1 HG7        -0.0002
     78 C2         -0.6710    6.6830   22.9380 C.ar      1 HG7        -0.0271
     79 C3          0.7020    6.5180   22.9330 C.ar      1 HG7         0.0818
     80 O3          1.3280    6.0010   21.8470 O.3       1 HG7        -0.3346
     81 C4          1.4370    6.8820   24.0460 C.ar      1 HG7        -0.0396
     82 C5          0.7950    7.3990   25.1580 C.ar      1 HG7        -0.0698
     83 C6         -0.5820    7.5950   25.1910 C.ar      1 HG7        -0.0256
     84 CA         -2.8280    7.3650   23.9850 C.3       1 HG7         0.1627
     85 N1A        -3.1980    8.6460   21.9100 N.am      1 HG7        -0.2834
     86 C2A        -3.7420    8.6520   20.5470 C.3       1 HG7         0.0292
     87 C3A        -3.2500    9.9260   19.8480 C.3       1 HG7        -0.0514
     88 C4A        -3.6840   11.1890   20.6160 C.3       1 HG7        -0.1120
     89 N5A        -5.1500   11.3030   20.7370 N.4       1 HG7         0.3987
     90 C6A        -5.4850   12.5130   21.5150 C.3       1 HG7        -0.1260
     91 C7A        -5.7530   11.4090   19.3960 C.3       1 HG7        -0.1260
     92 H           6.4049    0.6482   34.1639 H         1 HGM         0.2045
     93 H           6.8552    1.9083   33.1104 H         1 HGM         0.2045
     94 H           4.8588    4.2218   32.8597 H         1 HGM         0.0467
     95 H           4.0744    3.9449   27.6237 H         1 HGM         0.2425
     96 H           4.4517    0.5913   30.6254 H         1 HGM         0.0448
     97 H           4.1859    1.8923   28.5397 H         1 HGM         0.0495
     98 H           4.1730    0.6385   33.0086 H         1 HGM         0.1237
     99 H           6.0886   -0.8163   32.3399 H         1 HGM         0.0777
    100 H           6.5594    0.5012   31.2383 H         1 HGM         0.0777
    101 H           7.7472   -0.1696   32.3829 H         1 HGM         0.0777
    102 H           2.6012    1.6130   34.4295 H         1 DTY         0.1887
    103 H           3.8978    3.1647   36.6295 H         1 DTY         0.0821
    104 H           2.1028    2.4658   38.1005 H         1 DTY         0.0454
    105 H           2.8050    1.0265   37.2764 H         1 DTY         0.0454
    106 H           1.6084    0.1292   35.2404 H         1 DTY         0.0531
    107 H          -0.2052    2.9534   37.8992 H         1 DTY         0.0531
    108 H          -0.5915   -0.4381   34.3274 H         1 DTY         0.0534
    109 H          -2.4318    2.3635   36.9991 H         1 DTY         0.0534
    110 H           1.7928    3.6555   33.9367 H         1 HCL         0.1909
    111 H           4.5333   10.0643   32.7867 H         1 HCL         0.2481
    112 H           4.9473    8.3296   31.4013 H         1 HCL         0.0419
    113 H           2.6002    4.8104   32.1800 H         1 HCL         0.0404
    114 H           0.9707    6.2014   35.2682 H         1 HCL         0.0959
    115 H          -0.0514    3.9032   32.8219 H         1 GHP         0.1908
    116 H          -2.5951    5.4504   32.8494 H         1 GHP         0.0937
    117 H          -1.6850    2.8779   34.3815 H         1 GHP         0.0383
    118 H          -5.2488   -0.5443   32.4887 H         1 GHP         0.2387
    119 H          -3.9453    3.4233   30.7678 H         1 GHP         0.0383
    120 H          -3.4330    6.4783   31.1118 H         1 GHP         0.1908
    121 H          -2.9702    5.1037   28.5492 H         1 GHP         0.0939
    122 H          -1.6017    5.8585   26.8483 H         1 GHP         0.0514
    123 H          -1.1602   11.1275   26.4585 H         1 GHP         0.2467
    124 H          -2.4548   10.5850   28.1241 H         1 GHP         0.0520
    125 H          -3.5179    8.7410   29.3848 H         1 GHP         0.0520
    126 H          -6.4237    6.2253   27.6059 H         1 OMY         0.1887
    127 H          -3.7582    5.0163   26.8114 H         1 OMY         0.0848
    128 H          -7.1306    2.9076   30.3637 H         1 OMY         0.0534
    129 H          -7.2443    4.2319   28.2677 H         1 OMY         0.0534
    130 H          -3.7166    2.2432   26.8156 H         1 OMY         0.0537
    131 H          -5.1722    3.6060   25.2451 H         1 OMY         0.0786
    132 H          -6.8743    5.0597   24.9624 H         1 OMY         0.2130
    133 H          -3.0017    5.3069   24.6303 H         1 HG7         0.1910
    134 H          -1.2554    6.3925   22.0650 H         1 HG7         0.0484
    135 H           2.2723    5.9570   22.0141 H         1 HG7         0.2483
    136 H           2.5204    6.7620   24.0478 H         1 HG7         0.0492
    137 H           1.3867    7.6607   26.0352 H         1 HG7         0.0568
    138 H          -3.1465    8.2882   24.4691 H         1 HG7         0.0962
    139 H          -2.7835    9.4693   22.3467 H         1 HG7         0.1853
    140 H          -4.8315    8.6340   20.5755 H         1 HG7         0.0519
    141 H          -3.4061    7.7693   20.0028 H         1 HG7         0.0519
    142 H          -3.6824    9.9622   18.8481 H         1 HG7         0.0265
    143 H          -2.1610    9.9013   19.8079 H         1 HG7         0.0265
    144 H          -3.3242   12.0575   20.0643 H         1 HG7         0.0017
    145 H          -3.2678   11.1299   21.6217 H         1 HG7         0.0017
    146 H          -5.0417   12.4392   22.5080 H         1 HG7        -0.0019
    147 H          -5.0917   13.3921   21.0045 H         1 HG7        -0.0019
    148 H          -6.5680   12.5975   21.6046 H         1 HG7        -0.0019
    149 H          -5.3618   12.2927   18.8919 H         1 HG7        -0.0019
    150 H          -5.5059   10.5194   18.8166 H         1 HG7        -0.0019
    151 H          -6.8356   11.4929   19.4914 H         1 HG7        -0.0019
@<TRIPOS>BOND
     1    1    3 2  
     2    1   11 1  
     3   13    1 am 
     4   11    2 1  
     5    2   12 1  
     6    5    4 ar 
     7    4    9 ar 
     8   11    4 1  
     9    6    5 ar 
    10    6    7 ar 
    11   34    6 1  
    12    7    8 1  
    13    7   10 ar 
    14   10    9 ar 
    15   14   13 1  
    16   15   14 1  
    17   14   17 1  
    18   15   16 2  
    19   26   15 am 
    20   17   18 1  
    21   19   18 ar 
    22   20   18 ar 
    23   21   19 ar 
    24   22   20 ar 
    25   23   21 ar 
    26   23   22 ar 
    27   24   23 1  
    28   44   24 1  
    29   25   27 2  
    30   25   37 1  
    31   38   25 am 
    32   37   26 1  
    33   30   28 1  
    34   29   30 ar 
    35   29   35 ar 
    36   37   29 1  
    37   30   31 ar 
    38   31   32 1  
    39   31   33 ar 
    40   36   33 ar 
    41   36   34 1  
    42   35   36 ar 
    43   39   38 1  
    44   40   39 1  
    45   39   42 1  
    46   40   41 2  
    47   49   40 am 
    48   42   43 ar 
    49   42   48 ar 
    50   43   44 ar 
    51   44   45 ar 
    52   45   46 1  
    53   47   45 ar 
    54   48   47 ar 
    55   47   62 1  
    56   50   49 1  
    57   50   51 1  
    58   53   50 1  
    59   51   52 2  
    60   51   60 am 
    61   54   53 ar 
    62   53   59 ar 
    63   55   54 ar 
    64   55   56 ar 
    65   83   55 1  
    66   56   57 1  
    67   56   58 ar 
    68   58   59 ar 
    69   60   61 1  
    70   61   69 1  
    71   61   72 1  
    72   62   65 1  
    73   63   65 ar 
    74   67   63 ar 
    75   64   65 ar 
    76   68   64 ar 
    77   64   70 1  
    78   66   67 ar 
    79   66   68 ar 
    80   69   66 1  
    81   69   73 1  
    82   72   71 2  
    83   72   75 am 
    84   74   76 2  
    85   84   74 1  
    86   74   85 am 
    87   75   84 1  
    88   77   78 ar 
    89   77   83 ar 
    90   77   84 1  
    91   78   79 ar 
    92   79   80 1  
    93   79   81 ar 
    94   81   82 ar 
    95   82   83 ar 
    96   85   86 1  
    97   86   87 1  
    98   87   88 1  
    99   88   89 1  
   100   89   90 1  
   101   89   91 1  
   102    2   92 1  
   103    2   93 1  
   104    5   94 1  
   105    8   95 1  
   106    9   96 1  
   107   10   97 1  
   108   11   98 1  
   109   12   99 1  
   110   12  100 1  
   111   12  101 1  
   112   13  102 1  
   113   14  103 1  
   114   17  104 1  
   115   17  105 1  
   116   19  106 1  
   117   20  107 1  
   118   21  108 1  
   119   22  109 1  
   120   26  110 1  
   121   32  111 1  
   122   33  112 1  
   123   35  113 1  
   124   37  114 1  
   125   38  115 1  
   126   39  116 1  
   127   43  117 1  
   128   46  118 1  
   129   48  119 1  
   130   49  120 1  
   131   50  121 1  
   132   54  122 1  
   133   57  123 1  
   134   58  124 1  
   135   59  125 1  
   136   60  126 1  
   137   61  127 1  
   138   63  128 1  
   139   67  129 1  
   140   68  130 1  
   141   69  131 1  
   142   73  132 1  
   143   75  133 1  
   144   78  134 1  
   145   80  135 1  
   146   81  136 1  
   147   82  137 1  
   148   84  138 1  
   149   85  139 1  
   150   86  140 1  
   151   86  141 1  
   152   87  142 1  
   153   87  143 1  
   154   88  144 1  
   155   88  145 1  
   156   90  146 1  
   157   90  147 1  
   158   90  148 1  
   159   91  149 1  
   160   91  150 1  
   161   91  151 1  
@<TRIPOS>SUBSTRUCTURE
     1 HGM         1

