5ljt_ligand
  -I-interpret- 

 37 39  0  0  0  0  0  0  0  0999 V2000
   -2.4840    5.7580   13.8660 C   0  0  0  0  0
   -3.8630    5.6570   14.2240 O   0  0  0  0  0
   -4.3390    4.4830   14.7490 C   0  0  0  0  0
   -5.6810    4.4490   15.0920 C   0  0  0  0  0
   -6.2140    3.3190   15.6890 C   0  0  0  0  0
   -5.3940    2.2290   15.9430 C   0  0  0  0  0
   -4.0580    2.2520   15.5790 C   0  0  0  0  0
   -3.5330    3.3780   14.9720 C   0  0  0  0  0
   -2.1310    7.1950   13.7280 C   0  0  0  0  0
   -2.2460    8.0230   12.6520 C   0  0  0  0  0
   -1.8090    9.2250   13.0800 N   0  0  0  0  0
   -1.4230    9.1520   14.3770 N   0  0  0  0  0
   -1.6230    7.9140   14.7660 N   0  0  0  0  0
   -1.7490   10.4640   12.3760 C   0  0  0  0  0
   -1.9170   11.6600   13.0630 C   0  0  0  0  0
   -1.9040   12.8550   12.3660 C   0  0  0  0  0
   -1.7260   12.8630   10.9940 C   0  0  0  0  0
   -1.5540   11.6710   10.3140 C   0  0  0  0  0
   -1.5630   10.4680   10.9990 C   0  0  0  0  0
   -6.0280    0.8400   16.8330 S   0  0  0  0  0
   -7.4500    0.8630   16.6790 O   0  0  0  0  0
   -5.4800    0.9090   18.1570 O   0  0  0  0  0
   -5.4740   -0.4890   16.1360 N   0  0  0  0  0
   -2.3078    5.2414   12.9225 H   0  0  0  0  0
   -1.8667    5.2977   14.6375 H   0  0  0  0  0
   -6.3169    5.3114   14.8920 H   0  0  0  0  0
   -7.2699    3.2861   15.9574 H   0  0  0  0  0
   -3.4234    1.3866   15.7701 H   0  0  0  0  0
   -2.4861    3.3965   14.6692 H   0  0  0  0  0
   -2.6128    7.7683   11.6577 H   0  0  0  0  0
   -2.0581   11.6567   14.1438 H   0  0  0  0  0
   -2.0348   13.7957   12.9009 H   0  0  0  0  0
   -1.7213   13.8074   10.4498 H   0  0  0  0  0
   -1.4107   11.6788    9.2335 H   0  0  0  0  0
   -1.4250    9.5298   10.4615 H   0  0  0  0  0
   -6.1212   -1.1377   15.6879 H   0  0  0  0  0
   -4.4736   -0.6877   16.1397 H   0  0  0  0  0
  1  2  1  0  0  0
  1  9  1  0  0  0
  2  3  1  0  0  0
  3  4  4  0  0  0
  3  8  4  0  0  0
  4  5  4  0  0  0
  5  6  4  0  0  0
  6  7  4  0  0  0
  6 20  1  0  0  0
  7  8  4  0  0  0
  9 10  4  0  0  0
  9 13  4  0  0  0
 10 11  4  0  0  0
 11 12  4  0  0  0
 11 14  1  0  0  0
 12 13  4  0  0  0
 14 15  4  0  0  0
 14 19  4  0  0  0
 15 16  4  0  0  0
 16 17  4  0  0  0
 17 18  4  0  0  0
 18 19  4  0  0  0
 20 21  2  0  0  0
 20 22  2  0  0  0
 20 23  1  0  0  0
  1 24  1  0  0  0
  1 25  1  0  0  0
  4 26  1  0  0  0
  5 27  1  0  0  0
  7 28  1  0  0  0
  8 29  1  0  0  0
 10 30  1  0  0  0
 15 31  1  0  0  0
 16 32  1  0  0  0
 17 33  1  0  0  0
 18 34  1  0  0  0
 19 35  1  0  0  0
 23 36  1  0  0  0
 23 37  1  0  0  0
M  END
$$$$
