3rt6_ligand
  -I-interpret- 

 24 24  0  0  0  0  0  0  0  0999 V2000
   22.6250   19.2340   15.7320 N   0  0  0  0  0
   23.1020   17.9990   15.5230 C   0  0  0  0  0
   22.3680   17.0880   15.3680 O   0  0  0  0  0
   24.4570   17.7820   15.5140 N   0  0  0  0  0
   25.3100   18.8350   15.7220 C   0  0  0  0  0
   26.6910   18.6030   15.6860 O   0  0  0  0  0
   24.8240   20.1140   15.9410 C   0  0  0  0  0
   25.6960   21.1420   16.1530 F   0  0  0  0  0
   23.5000   20.3270   15.9390 C   0  0  0  0  0
   21.2000   19.4480   15.6730 C   0  0  0  0  0
   20.7400   19.5900   14.2370 C   0  0  0  0  0
   20.8810   20.9230   13.7090 N   0  3  0  0  0
   19.4460   18.8860   13.8760 C   0  0  0  0  0
   18.4330   19.7760   13.5170 O   0  0  0  0  0
   19.0340   17.9860   14.8550 O   0  0  0  0  0
   24.8265   16.8449   15.3539 H   0  0  0  0  0
   23.1025   21.3299   16.0949 H   0  0  0  0  0
   20.9581   20.3634   16.2130 H   0  0  0  0  0
   20.6959   18.5921   16.1219 H   0  0  0  0  0
   21.4682   18.9977   13.6829 H   0  0  0  0  0
   20.5530   20.9414   12.7434 H   0  0  0  0  0
   20.3268   21.5700   14.2700 H   0  0  0  0  0
   21.8627   21.1981   13.7412 H   0  0  0  0  0
   18.7597   20.3757   12.8423 H   0  0  0  0  0
  1  2  1  0  0  0
  1  9  1  0  0  0
  1 10  1  0  0  0
  2  3  2  0  0  0
  2  4  1  0  0  0
  4  5  1  0  0  0
  5  6  2  0  0  0
  5  7  1  0  0  0
  7  8  1  0  0  0
  7  9  2  0  0  0
 10 11  1  0  0  0
 11 12  1  0  0  0
 11 13  1  0  0  0
 13 14  1  0  0  0
 13 15  2  0  0  0
  4 16  1  0  0  0
  9 17  1  0  0  0
 10 18  1  0  0  0
 10 19  1  0  0  0
 11 20  1  0  0  0
 12 21  1  0  0  0
 12 22  1  0  0  0
 12 23  1  0  0  0
 14 24  1  0  0  0
M  END
$$$$
