3l0v_ligand
  -I-interpret- 

 35 37  0  0  0  0  0  0  0  0999 V2000
    6.2900    8.8290   23.9920 N   0  0  0  0  0
    7.7050    8.7080   24.1490 N   0  0  0  0  0
    5.5620    8.8450   25.1420 C   0  0  0  0  0
    7.6460   11.7440   23.3250 N   0  0  0  0  0
    7.3290   10.9500   22.2400 C   0  0  0  0  0
    5.8300   10.5170   22.3130 C   0  0  0  0  0
    5.3970   11.3740   23.4450 N   0  0  0  0  0
    6.4560   12.0930   24.0150 C   0  0  0  0  0
    6.4030   12.9710   24.8730 O   0  0  0  0  0
    8.1130   10.5040   21.4200 O   0  0  0  0  0
    5.0900   10.8890   21.0080 C   0  0  0  0  0
    5.7180    8.9770   22.6910 C   0  0  0  0  0
    6.5750    8.7710   26.1830 C   0  0  0  0  0
    7.8350    8.6870   25.5340 C   0  0  0  0  0
    9.0210    8.5940   26.2540 C   0  0  0  0  0
    8.8980    8.6060   27.6310 C   0  0  0  0  0
    7.6060    8.6980   28.2670 C   0  0  0  0  0
    6.4290    8.7830   27.5240 C   0  0  0  0  0
    4.3420    8.9300   25.2740 O   0  0  0  0  0
    7.3530    8.7050   29.5950 O   0  0  0  0  0
    8.3710    8.2080   30.4920 C   0  0  0  0  0
    8.4297    8.6518   23.4334 H   0  0  0  0  0
    8.5876   12.0340   23.5888 H   0  0  0  0  0
    4.4328   11.4331   23.7725 H   0  0  0  0  0
    4.0172   10.7587   21.1504 H   0  0  0  0  0
    5.3008   11.9283   20.7559 H   0  0  0  0  0
    5.4320   10.2414   20.2007 H   0  0  0  0  0
    4.6779    8.6511   22.6854 H   0  0  0  0  0
    6.2450    8.3599   21.9633 H   0  0  0  0  0
    9.9904    8.5162   25.7618 H   0  0  0  0  0
    9.7943    8.5448   28.2482 H   0  0  0  0  0
    5.4502    8.8548   27.9981 H   0  0  0  0  0
    8.5862    7.1663   30.2538 H   0  0  0  0  0
    9.2769    8.8031   30.3768 H   0  0  0  0  0
    8.0150    8.2810   31.5197 H   0  0  0  0  0
  1  2  1  0  0  0
  1  3  1  0  0  0
 12  1  1  0  0  0
  2 14  1  0  0  0
  3 13  1  0  0  0
  3 19  2  0  0  0
  5  4  1  0  0  0
  4  8  1  0  0  0
  6  5  1  0  0  0
  5 10  2  0  0  0
  6  7  1  0  0  0
  6 11  1  0  0  0
  6 12  1  0  0  0
  7  8  1  0  0  0
  8  9  2  0  0  0
 13 14  4  0  0  0
 13 18  4  0  0  0
 14 15  4  0  0  0
 15 16  4  0  0  0
 16 17  4  0  0  0
 17 18  4  0  0  0
 17 20  1  0  0  0
 20 21  1  0  0  0
  2 22  1  0  0  0
  4 23  1  0  0  0
  7 24  1  0  0  0
 11 25  1  0  0  0
 11 26  1  0  0  0
 11 27  1  0  0  0
 12 28  1  0  0  0
 12 29  1  0  0  0
 15 30  1  0  0  0
 16 31  1  0  0  0
 18 32  1  0  0  0
 21 33  1  0  0  0
 21 34  1  0  0  0
 21 35  1  0  0  0
M  END
$$$$
