2jjk_ligand
  -I-interpret- 

 61 62  0  0  0  0  0  0  0  0999 V2000
    8.7430   59.9740   30.4230 S   0  0  0  0  0
   16.9850   59.0470   19.4940 S   0  0  0  0  0
   16.4590   60.0070   20.8020 N   0  0  0  0  0
    8.8540   60.3120   28.7850 N   0  0  0  0  0
    9.1950   59.3040   27.8890 C   0  0  0  0  0
   16.5520   59.5330   22.1110 C   0  0  0  0  0
    7.2490   59.0710   30.7210 C   0  0  0  0  0
   18.7430   58.8530   19.4830 C   0  0  0  0  0
    9.8900   59.1430   30.7690 O   0  0  0  0  0
   16.4010   57.7280   19.6380 O   0  0  0  0  0
   16.6690   59.7810   18.2630 O   0  0  0  0  0
    8.6750   61.2430   31.1850 O   0  0  0  0  0
    7.2990   57.6950   30.9180 C   0  0  0  0  0
   19.3270   57.6440   19.8710 C   0  0  0  0  0
    9.4020   58.1260   28.2250 O   0  0  0  0  0
   17.0140   58.3940   22.3910 O   0  0  0  0  0
    9.2500   59.7650   26.5930 N   0  0  0  0  0
   16.0900   60.4420   23.0590 N   0  0  0  0  0
    6.1300   56.9900   31.1510 C   0  0  0  0  0
   20.7060   57.5200   19.8410 C   0  0  0  0  0
    6.2160   55.2750   31.3940 Cl  0  0  0  0  0
   21.4520   56.0180   20.3100 Cl  0  0  0  0  0
    6.0290   59.7230   30.7660 C   0  0  0  0  0
   19.5310   59.9140   19.0500 C   0  0  0  0  0
    4.8540   59.0220   31.0140 C   0  0  0  0  0
   20.9060   59.7840   19.0370 C   0  0  0  0  0
    4.9110   57.6440   31.2030 C   0  0  0  0  0
   21.4920   58.5850   19.4290 C   0  0  0  0  0
   16.0940   60.1340   24.4840 C   0  0  0  0  0
    9.9580   59.0160   25.5600 C   0  0  0  0  0
   15.0640   59.0380   24.7820 C   0  0  0  0  0
   11.4650   58.9770   25.8370 C   0  0  0  0  0
   14.4100   59.2030   26.1560 C   0  0  0  0  0
   12.1700   60.2960   25.5030 C   0  0  0  0  0
   13.4990   60.4290   26.2540 C   0  0  0  0  0
   16.0735   60.9348   20.6259 H   0  0  0  0  0
    8.6716   61.2563   28.4454 H   0  0  0  0  0
    8.2555   57.1731   30.8891 H   0  0  0  0  0
   18.7048   56.8090   20.1932 H   0  0  0  0  0
    8.7894   60.6424   26.3514 H   0  0  0  0  0
   15.7392   61.3479   22.7481 H   0  0  0  0  0
    5.9887   60.8003   30.6049 H   0  0  0  0  0
   19.0657   60.8437   18.7225 H   0  0  0  0  0
    3.8991   59.5456   31.0599 H   0  0  0  0  0
   21.5306   60.6193   18.7202 H   0  0  0  0  0
    3.9971   57.0807   31.3917 H   0  0  0  0  0
   22.5770   58.4820   19.4121 H   0  0  0  0  0
   15.8381   61.0315   25.0472 H   0  0  0  0  0
   17.0851   59.7854   24.7744 H   0  0  0  0  0
    9.7935   59.5065   24.6006 H   0  0  0  0  0
    9.5797   57.9938   25.5508 H   0  0  0  0  0
   15.5817   58.0789   24.7699 H   0  0  0  0  0
   14.2798   59.1005   24.0275 H   0  0  0  0  0
   11.8983   58.2003   25.2069 H   0  0  0  0  0
   11.6020   58.7878   26.9017 H   0  0  0  0  0
   15.2090   59.3288   26.8866 H   0  0  0  0  0
   13.7940   58.3216   26.3341 H   0  0  0  0  0
   11.5211   61.1193   25.8016 H   0  0  0  0  0
   12.3750   60.3163   24.4326 H   0  0  0  0  0
   14.0374   61.2629   25.8036 H   0  0  0  0  0
   13.2572   60.5628   27.3084 H   0  0  0  0  0
  4  1  1  0  0  0
  1  7  1  0  0  0
  1  9  2  0  0  0
  1 12  2  0  0  0
  3  2  1  0  0  0
  2  8  1  0  0  0
  2 10  2  0  0  0
  2 11  2  0  0  0
  6  3  1  0  0  0
  5  4  1  0  0  0
  5 15  2  0  0  0
 17  5  1  0  0  0
  6 16  2  0  0  0
 18  6  1  0  0  0
  7 13  4  0  0  0
  7 23  4  0  0  0
  8 14  4  0  0  0
  8 24  4  0  0  0
 13 19  4  0  0  0
 14 20  4  0  0  0
 30 17  1  0  0  0
 29 18  1  0  0  0
 19 21  1  0  0  0
 19 27  4  0  0  0
 20 22  1  0  0  0
 20 28  4  0  0  0
 23 25  4  0  0  0
 24 26  4  0  0  0
 25 27  4  0  0  0
 26 28  4  0  0  0
 31 29  1  0  0  0
 32 30  1  0  0  0
 33 31  1  0  0  0
 34 32  1  0  0  0
 35 33  1  0  0  0
 34 35  1  0  0  0
  3 36  1  0  0  0
  4 37  1  0  0  0
 13 38  1  0  0  0
 14 39  1  0  0  0
 17 40  1  0  0  0
 18 41  1  0  0  0
 23 42  1  0  0  0
 24 43  1  0  0  0
 25 44  1  0  0  0
 26 45  1  0  0  0
 27 46  1  0  0  0
 28 47  1  0  0  0
 29 48  1  0  0  0
 29 49  1  0  0  0
 30 50  1  0  0  0
 30 51  1  0  0  0
 31 52  1  0  0  0
 31 53  1  0  0  0
 32 54  1  0  0  0
 32 55  1  0  0  0
 33 56  1  0  0  0
 33 57  1  0  0  0
 34 58  1  0  0  0
 34 59  1  0  0  0
 35 60  1  0  0  0
 35 61  1  0  0  0
M  END
$$$$
