3n7o_ligand
  -I-interpret- 

 43 45  0  0  0  0  0  0  0  0999 V2000
   -9.1710  -45.2550  -55.3240 C   0  0  0  0  0
   -5.4160  -45.1750  -54.7110 C   0  0  0  0  0
  -14.9290  -46.8920  -57.3610 C   0  0  0  0  0
  -16.3170  -47.6280  -55.4240 C   0  0  0  0  0
  -17.3220  -47.6490  -53.2360 C   0  0  0  0  0
  -15.6110  -46.4310  -55.1790 C   0  0  0  0  0
  -15.3660  -43.4430  -58.5240 C   0  0  0  0  0
  -14.6630  -43.2090  -56.9060 P   0  0  0  0  0
  -15.6900  -42.7460  -55.9340 O   0  0  0  0  0
  -13.5540  -42.1140  -57.1180 O   0  0  0  0  0
  -13.9020  -44.7680  -56.3070 C   0  0  0  0  0
  -12.4850  -44.9430  -56.9670 C   0  0  0  0  0
  -12.3190  -45.2640  -58.1180 O   0  0  0  0  0
  -11.4550  -45.0920  -55.9930 N   0  0  0  0  0
  -10.0790  -45.2930  -56.3110 C   0  0  0  0  0
   -7.7090  -45.2020  -55.5410 C   0  0  0  0  0
   -6.7840  -45.2150  -54.4840 C   0  0  0  0  0
   -4.9690  -45.1470  -56.0280 C   0  0  0  0  0
   -3.6660  -45.1120  -56.2790 F   0  0  0  0  0
   -5.8670  -45.1290  -57.0910 C   0  0  0  0  0
   -5.3870  -45.0840  -58.3430 F   0  0  0  0  0
   -7.2370  -45.1660  -56.8600 C   0  0  0  0  0
  -14.7910  -46.0040  -56.3470 C   0  0  0  0  0
  -15.9770  -48.2050  -57.0100 S   0  0  0  0  0
  -17.1500  -48.2370  -54.4800 C   0  0  0  0  0
  -16.6180  -46.4620  -53.0080 C   0  0  0  0  0
  -16.7660  -45.7410  -51.4420 Cl  0  0  0  0  0
  -15.7980  -45.8520  -53.9260 C   0  0  0  0  0
   -9.5341  -45.2638  -54.2963 H   0  0  0  0  0
   -4.7106  -45.1658  -53.8801 H   0  0  0  0  0
  -14.4182  -46.7819  -58.3176 H   0  0  0  0  0
  -17.9702  -48.0877  -52.4774 H   0  0  0  0  0
  -16.1568  -44.1912  -58.4704 H   0  0  0  0  0
  -15.7804  -42.4993  -58.8786 H   0  0  0  0  0
  -14.5899  -43.7813  -59.2105 H   0  0  0  0  0
  -12.9046  -42.4356  -57.7477 H   0  0  0  0  0
  -13.7661  -44.6657  -55.2304 H   0  0  0  0  0
  -11.7180  -45.0525  -55.0083 H   0  0  0  0  0
   -9.7699  -45.4747  -57.3403 H   0  0  0  0  0
   -7.1507  -45.2576  -53.4584 H   0  0  0  0  0
   -7.9368  -45.1670  -57.6957 H   0  0  0  0  0
  -17.6614  -49.1690  -54.7209 H   0  0  0  0  0
  -15.2954  -44.9180  -53.6747 H   0  0  0  0  0
  1 15  2  0  0  0
 16  1  1  0  0  0
 17  2  4  0  0  0
  2 18  4  0  0  0
 23  3  4  0  0  0
  3 24  4  0  0  0
  6  4  4  0  0  0
  4 24  4  0  0  0
  4 25  4  0  0  0
 25  5  4  0  0  0
  5 26  4  0  0  0
 23  6  4  0  0  0
  6 28  4  0  0  0
  8  7  1  0  0  0
  8  9  2  0  0  0
  8 10  1  0  0  0
 11  8  1  0  0  0
 12 11  1  0  0  0
 11 23  1  0  0  0
 12 13  2  0  0  0
 14 12  1  0  0  0
 15 14  1  0  0  0
 16 17  4  0  0  0
 16 22  4  0  0  0
 18 19  1  0  0  0
 18 20  4  0  0  0
 20 21  1  0  0  0
 20 22  4  0  0  0
 26 27  1  0  0  0
 26 28  4  0  0  0
  1 29  1  0  0  0
  2 30  1  0  0  0
  3 31  1  0  0  0
  5 32  1  0  0  0
  7 33  1  0  0  0
  7 34  1  0  0  0
  7 35  1  0  0  0
 10 36  1  0  0  0
 11 37  1  0  0  0
 14 38  1  0  0  0
 15 39  1  0  0  0
 17 40  1  0  0  0
 22 41  1  0  0  0
 25 42  1  0  0  0
 28 43  1  0  0  0
M  END
$$$$
