6qi4_ligand
  -I-interpret- 

 38 40  0  0  0  0  0  0  0  0999 V2000
  -10.1070  -20.8040  -14.0590 C   0  0  0  0  0
  -14.0130  -19.5220  -14.0000 N   0  0  0  0  0
  -10.6790  -20.1380  -12.9800 C   0  0  0  0  0
  -11.0370  -16.5870  -10.2250 N   0  0  0  0  0
  -12.0040  -19.7480  -13.0290 C   0  0  0  0  0
  -12.1490  -15.9120   -9.7680 N   0  0  0  0  0
  -12.8850  -19.0350  -12.1350 C   0  0  0  0  0
  -15.3430  -12.0220   -5.8740 N   0  0  0  0  0
  -14.0940  -18.9350  -12.7720 C   0  0  0  0  0
  -12.7680  -20.0250  -14.1870 C   0  0  0  0  0
  -12.1870  -20.7070  -15.2630 C   0  0  0  0  0
  -10.8590  -21.0920  -15.1850 C   0  0  0  0  0
  -12.5130  -18.4470  -10.8070 C   0  0  0  0  0
  -11.1350  -17.8250  -10.7350 C   0  0  0  0  0
  -12.1270  -15.7620   -8.5010 C   0  0  0  0  0
  -13.1560  -15.0500   -7.7590 C   0  0  0  0  0
  -12.7640  -14.5180   -6.5380 C   0  0  0  0  0
  -13.5300  -13.5890   -5.8920 C   0  0  0  0  0
  -14.7250  -13.1930   -6.4410 C   0  0  0  0  0
  -15.2280  -13.7990   -7.6140 C   0  0  0  0  0
  -14.4240  -14.7260   -8.2520 C   0  0  0  0  0
  -10.1350  -18.4350  -11.0900 O   0  0  0  0  0
  -16.4450  -13.4730   -8.1330 O   0  0  0  0  0
  -16.5610  -11.9870   -5.7720 O   0  0  0  0  0
  -14.6100  -11.1070   -5.5440 O   0  0  0  0  0
   -9.0591  -21.1012  -14.0176 H   0  0  0  0  0
  -10.0811  -19.9233  -12.0942 H   0  0  0  0  0
  -10.1228  -16.1374  -10.1747 H   0  0  0  0  0
  -14.9840  -18.4592  -12.3602 H   0  0  0  0  0
  -12.7741  -20.9327  -16.1532 H   0  0  0  0  0
  -10.4018  -21.6266  -16.0177 H   0  0  0  0  0
  -12.5216  -19.2679  -10.0899 H   0  0  0  0  0
  -13.2263  -17.6466  -10.6104 H   0  0  0  0  0
  -11.2929  -16.1901   -7.9451 H   0  0  0  0  0
  -11.8282  -14.8474   -6.0865 H   0  0  0  0  0
  -13.1944  -13.1644   -4.9459 H   0  0  0  0  0
  -14.7858  -15.2138   -9.1571 H   0  0  0  0  0
  -16.6028  -13.9912   -8.9256 H   0  0  0  0  0
  3  1  4  0  0  0
  1 12  4  0  0  0
  9  2  4  0  0  0
  2 10  4  0  0  0
  5  3  4  0  0  0
  6  4  1  0  0  0
  4 14  1  0  0  0
  7  5  4  0  0  0
  5 10  4  0  0  0
 15  6  2  0  0  0
  7  9  4  0  0  0
 13  7  1  0  0  0
 19  8  1  0  0  0
  8 24  2  0  0  0
  8 25  2  0  0  0
 10 11  4  0  0  0
 11 12  4  0  0  0
 14 13  1  0  0  0
 14 22  2  0  0  0
 16 15  1  0  0  0
 17 16  4  0  0  0
 16 21  4  0  0  0
 18 17  4  0  0  0
 18 19  4  0  0  0
 19 20  4  0  0  0
 20 21  4  0  0  0
 20 23  1  0  0  0
  1 26  1  0  0  0
  3 27  1  0  0  0
  4 28  1  0  0  0
  9 29  1  0  0  0
 11 30  1  0  0  0
 12 31  1  0  0  0
 13 32  1  0  0  0
 13 33  1  0  0  0
 15 34  1  0  0  0
 17 35  1  0  0  0
 18 36  1  0  0  0
 21 37  1  0  0  0
 23 38  1  0  0  0
M  END
$$$$
