3u7l_ligand
  -I-interpret- 

 61 62  0  0  0  0  0  0  0  0999 V2000
  -16.8740  144.9230   44.9580 C   0  0  0  0  0
  -16.0370  146.3170   46.6820 N   0  0  0  0  0
  -16.1710  145.5090   44.1420 O   0  0  0  0  0
  -10.0940  148.6320   48.9380 F   0  0  0  0  0
  -12.7090  146.9320   52.5120 F   0  0  0  0  0
  -17.2370  145.6380   46.2460 C   0  0  0  0  0
  -18.3630  146.6740   46.0830 C   0  0  0  0  0
  -18.0210  147.6830   44.9910 C   0  0  0  0  0
  -18.5920  147.4650   47.3790 C   0  0  0  0  0
  -19.6630  145.9920   45.6880 C   0  0  0  0  0
  -15.4730  146.1870   47.8710 C   0  0  0  0  0
  -15.9510  145.4760   48.7450 O   0  0  0  0  0
  -14.3870  146.9440   47.9520 N   0  0  0  0  0
  -13.4380  147.1800   48.9520 C   0  0  0  0  0
  -12.2530  147.7720   48.5040 C   0  0  0  0  0
  -11.2310  148.0700   49.3920 C   0  0  0  0  0
  -11.3950  147.7910   50.7490 C   0  0  0  0  0
  -12.5790  147.2020   51.2000 C   0  0  0  0  0
  -13.6180  146.8950   50.3060 C   0  0  0  0  0
  -17.2940  143.6740   44.7090 N   0  0  0  0  0
  -16.9020  143.0530   43.4470 C   0  0  0  0  0
  -18.0650  142.6620   42.5580 C   0  0  0  0  0
  -19.0850  143.3490   42.4650 O   0  0  0  0  0
  -17.8610  141.5300   41.8770 N   0  0  0  0  0
  -18.8110  141.0260   40.9920 O   0  0  0  0  0
  -18.1250  142.8400   45.5890 C   0  0  0  0  0
  -17.2410  142.1170   46.6130 C   0  0  0  0  0
  -16.5180  140.9070   46.0340 C   0  0  0  0  0
  -16.3880  139.8960   47.1750 C   0  0  0  0  0
  -17.3700  140.3160   48.2650 C   0  0  0  0  0
  -18.0800  141.5750   47.7750 C   0  0  0  0  0
  -15.5887  146.9481   46.0178 H   0  0  0  0  0
  -17.6062  144.9029   46.9611 H   0  0  0  0  0
  -18.8486  148.3823   44.8722 H   0  0  0  0  0
  -17.1200  148.2286   45.2715 H   0  0  0  0  0
  -17.8509  147.1564   44.0519 H   0  0  0  0  0
  -17.6849  148.0130   47.6338 H   0  0  0  0  0
  -19.4134  148.1668   47.2345 H   0  0  0  0  0
  -18.8397  146.7748   48.1855 H   0  0  0  0  0
  -20.4516  146.7393   45.5999 H   0  0  0  0  0
  -19.5307  145.4869   44.7312 H   0  0  0  0  0
  -19.9355  145.2625   46.4507 H   0  0  0  0  0
  -14.2036  147.4695   47.0973 H   0  0  0  0  0
  -12.1316  148.0016   47.4454 H   0  0  0  0  0
  -10.6011  148.0320   51.4559 H   0  0  0  0  0
  -14.5443  146.4441   50.6621 H   0  0  0  0  0
  -16.3640  142.1375   43.6931 H   0  0  0  0  0
  -16.3108  143.7862   42.8984 H   0  0  0  0  0
  -16.9865  141.0219   42.0090 H   0  0  0  0  0
  -18.4839  140.2116   40.6029 H   0  0  0  0  0
  -18.6555  142.1016   44.9878 H   0  0  0  0  0
  -18.8389  143.4738   46.1151 H   0  0  0  0  0
  -16.5196  142.8684   46.9343 H   0  0  0  0  0
  -15.5389  141.1855   45.6442 H   0  0  0  0  0
  -17.0725  140.4832   45.1967 H   0  0  0  0  0
  -15.3688  139.8825   47.5613 H   0  0  0  0  0
  -16.6131  138.8893   46.8230 H   0  0  0  0  0
  -16.8443  140.5118   49.1995 H   0  0  0  0  0
  -18.0901  139.5210   48.4590 H   0  0  0  0  0
  -19.0972  141.3515   47.4534 H   0  0  0  0  0
  -18.1667  142.3121   48.5733 H   0  0  0  0  0
  1  3  2  0  0  0
  6  1  1  0  0  0
  1 20  1  0  0  0
  2  6  1  0  0  0
 11  2  1  0  0  0
 16  4  1  0  0  0
 18  5  1  0  0  0
  6  7  1  0  0  0
  7  8  1  0  0  0
  7  9  1  0  0  0
  7 10  1  0  0  0
 11 12  2  0  0  0
 13 11  1  0  0  0
 14 13  1  0  0  0
 15 14  4  0  0  0
 14 19  4  0  0  0
 16 15  4  0  0  0
 17 16  4  0  0  0
 17 18  4  0  0  0
 18 19  4  0  0  0
 20 21  1  0  0  0
 20 26  1  0  0  0
 21 22  1  0  0  0
 22 23  2  0  0  0
 22 24  1  0  0  0
 24 25  1  0  0  0
 26 27  1  0  0  0
 27 28  1  0  0  0
 27 31  1  0  0  0
 28 29  1  0  0  0
 29 30  1  0  0  0
 30 31  1  0  0  0
  2 32  1  0  0  0
  6 33  1  0  0  0
  8 34  1  0  0  0
  8 35  1  0  0  0
  8 36  1  0  0  0
  9 37  1  0  0  0
  9 38  1  0  0  0
  9 39  1  0  0  0
 10 40  1  0  0  0
 10 41  1  0  0  0
 10 42  1  0  0  0
 13 43  1  0  0  0
 15 44  1  0  0  0
 17 45  1  0  0  0
 19 46  1  0  0  0
 21 47  1  0  0  0
 21 48  1  0  0  0
 24 49  1  0  0  0
 25 50  1  0  0  0
 26 51  1  0  0  0
 26 52  1  0  0  0
 27 53  1  0  0  0
 28 54  1  0  0  0
 28 55  1  0  0  0
 29 56  1  0  0  0
 29 57  1  0  0  0
 30 58  1  0  0  0
 30 59  1  0  0  0
 31 60  1  0  0  0
 31 61  1  0  0  0
M  END
$$$$
