1c3x_ligand
  -I-interpret- 

 15 16  0  0  0  0  0  0  0  0999 V2000
   11.5710  -22.0780    0.2450 I   0  0  0  0  0
   12.8870  -17.6580   -4.0870 O   0  0  0  0  0
   11.7540  -20.0820   -0.4660 C   0  0  0  0  0
   11.4030  -18.9810    0.2830 N   0  0  0  0  0
   11.5660  -14.4200   -1.0230 N   0  0  0  0  0
   12.2190  -16.0950   -2.5220 N   0  0  0  0  0
   11.7280  -15.7480   -1.2290 C   0  0  0  0  0
   11.4390  -16.6470   -0.2180 N   0  0  0  0  0
   11.6570  -17.9640   -0.5910 C   0  0  0  0  0
   12.1240  -18.4460   -1.7910 C   0  0  0  0  0
   12.4490  -17.4500   -2.8850 C   0  0  0  0  0
   12.1700  -19.8240   -1.7120 N   0  0  0  0  0
   11.2304  -14.0810   -0.1214 H   0  0  0  0  0
   11.7795  -13.7583   -1.7694 H   0  0  0  0  0
   12.4089  -15.3566   -3.1996 H   0  0  0  0  0
  3  1  1  0  0  0
 11  2  2  0  0  0
 11  6  1  0  0  0
 10 11  1  0  0  0
 10 12  4  0  0  0
  9 10  4  0  0  0
  9  8  1  0  0  0
  4  9  4  0  0  0
  4  3  4  0  0  0
 12  3  4  0  0  0
  8  7  2  0  0  0
  7  6  1  0  0  0
  7  5  1  0  0  0
  5 13  1  0  0  0
  5 14  1  0  0  0
  6 15  1  0  0  0
M  END
$$$$
