5etm_ligand
  -I-interpret- 

 28 30  0  0  0  0  0  0  0  0999 V2000
   -0.1030   -2.3490    0.8420 C   0  0  0  0  0
    1.1950   -4.2670    0.4170 C   0  0  0  0  0
    1.0270   -1.5700    0.9840 C   0  0  0  0  0
    2.3320   -3.4830    0.5440 C   0  0  0  0  0
   -0.0590   -3.6920    0.5680 C   0  0  0  0  0
    2.2550   -2.1500    0.8320 C   0  0  0  0  0
   -0.1670   -8.3430    2.3530 C   0  0  0  0  0
    0.3920   -7.4860    3.2830 C   0  0  0  0  0
   -1.2680   -6.5160    2.1800 C   0  0  0  0  0
    0.3330   -9.6620    2.1960 C   0  0  0  0  0
    1.9100   -8.8590    4.0240 C   0  0  0  0  0
   -1.3260   -4.5470    0.3650 C   0  0  0  0  0
   -1.2190   -7.7310    1.6880 N   0  0  0  0  0
    1.4430   -7.6660    4.1620 N   0  0  0  0  0
   -0.3170   -6.3260    3.1550 N   0  0  0  0  0
    1.4330   -9.7950    3.1090 N   0  0  0  0  0
    2.9750   -9.2660    4.7990 N   0  0  0  0  0
   -0.0860  -10.5390    1.3970 O   0  0  0  0  0
    3.3550   -1.3850    0.9780 F   0  0  0  0  0
   -2.3950   -5.2630    1.6670 S   0  0  0  0  0
   -1.0777   -1.8740    0.9530 H   0  0  0  0  0
    1.2860   -5.3312    0.1993 H   0  0  0  0  0
    0.9415   -0.5080    1.2140 H   0  0  0  0  0
    3.3116   -3.9421    0.4106 H   0  0  0  0  0
   -0.9100   -5.4452   -0.0914 H   0  0  0  0  0
   -2.0011   -3.8269   -0.0974 H   0  0  0  0  0
    1.7933   -6.9660    4.8159 H   0  0  0  0  0
    3.3631  -10.2019    4.6814 H   0  0  0  0  0
  1  3  4  0  0  0
  5  1  4  0  0  0
  2  4  4  0  0  0
  5  2  4  0  0  0
  3  6  4  0  0  0
  4  6  4  0  0  0
 12  5  1  0  0  0
  6 19  1  0  0  0
  8  7  4  0  0  0
  7 10  1  0  0  0
 13  7  4  0  0  0
  8 14  1  0  0  0
 15  8  4  0  0  0
  9 13  4  0  0  0
  9 15  4  0  0  0
 20  9  1  0  0  0
 10 16  1  0  0  0
 10 18  2  0  0  0
 14 11  1  0  0  0
 11 16  4  0  0  0
 11 17  2  0  0  0
 12 20  1  0  0  0
  1 21  1  0  0  0
  2 22  1  0  0  0
  3 23  1  0  0  0
  4 24  1  0  0  0
 12 25  1  0  0  0
 12 26  1  0  0  0
 14 27  1  0  0  0
 17 28  1  0  0  0
M  END
$$$$
