3khv_ligand
  -I-interpret- 

 22 22  0  0  0  0  0  0  0  0999 V2000
  -31.8330   89.8330  -10.8480 C   0  0  0  0  0
  -27.0910   85.9170  -12.6690 N   0  3  0  0  0
  -31.8060   90.4570  -11.9290 O   0  0  0  0  0
  -30.7840   88.9910  -11.1730 C   0  0  0  0  0
  -30.0510   88.5180  -10.1830 C   0  0  0  0  0
  -29.0160   87.7450  -10.2350 C   0  0  0  0  0
  -28.6230   87.4110  -11.4140 C   0  0  0  0  0
  -29.3270   87.8610  -12.4710 C   0  0  0  0  0
  -30.3950   88.6880  -12.4000 C   0  0  0  0  0
  -27.4590   86.4960  -11.4890 C   0  0  0  0  0
  -32.7768   89.3676  -10.5639 H   0  0  0  0  0
  -31.7390   90.4168   -9.9323 H   0  0  0  0  0
  -26.2738   85.3261  -12.5161 H   0  0  0  0  0
  -27.8612   85.3493  -13.0225 H   0  0  0  0  0
  -26.8640   86.6444  -13.3470 H   0  0  0  0  0
  -32.4896   91.1310  -11.9253 H   0  0  0  0  0
  -30.3610   88.8209   -9.1829 H   0  0  0  0  0
  -28.5076   87.3976   -9.3356 H   0  0  0  0  0
  -29.0110   87.5328  -13.4612 H   0  0  0  0  0
  -30.8968   89.0752  -13.2867 H   0  0  0  0  0
  -26.6099   87.1286  -11.2303 H   0  0  0  0  0
  -27.7461   85.6530  -10.8605 H   0  0  0  0  0
  1  3  1  0  0  0
  4  1  1  0  0  0
 10  2  1  0  0  0
  5  4  4  0  0  0
  4  9  4  0  0  0
  6  5  4  0  0  0
  7  6  4  0  0  0
  7  8  4  0  0  0
  7 10  1  0  0  0
  8  9  4  0  0  0
  1 11  1  0  0  0
  1 12  1  0  0  0
  2 13  1  0  0  0
  2 14  1  0  0  0
  2 15  1  0  0  0
  3 16  1  0  0  0
  5 17  1  0  0  0
  6 18  1  0  0  0
  8 19  1  0  0  0
  9 20  1  0  0  0
 10 21  1  0  0  0
 10 22  1  0  0  0
M  END
$$$$
