6n17_ligand
  -I-interpret- 

 31 31  0  0  0  0  0  0  0  0999 V2000
    5.9930  -15.5970  -33.7040 C   0  0  0  0  0
    6.9080  -12.0690  -34.6650 C   0  0  0  0  0
    9.5490  -13.4940  -34.8810 C   0  0  0  0  0
    8.3490  -15.5790  -34.1720 C   0  0  0  0  0
    8.0920  -21.0620  -35.7360 C   0  0  0  0  0
    8.6830  -21.1200  -34.3290 C   0  0  0  0  0
    8.0060  -20.1080  -33.4100 C   0  0  0  0  0
    8.1600  -18.6730  -33.9180 C   0  0  0  0  0
    7.1980  -16.2700  -33.8000 C   0  0  0  0  0
    5.9230  -14.2470  -33.9930 C   0  0  0  0  0
    7.0570  -13.5620  -34.3740 C   0  0  0  0  0
    8.2730  -14.2260  -34.4650 C   0  0  0  0  0
    7.2110  -17.6850  -33.4500 N   0  0  0  0  0
    6.9160  -20.6360  -35.9040 O   0  0  0  0  0
    8.7820  -21.4300  -36.7250 O   0  0  0  0  0
    9.0180  -18.4010  -34.6900 O   0  0  0  0  0
    7.6700  -11.2370  -34.1270 O   0  0  0  0  0
    5.9870  -11.6650  -35.4130 O   0  0  0  0  0
   10.5900  -13.6270  -34.1870 O   0  0  0  0  0
    9.5650  -12.7560  -35.9020 O   0  0  0  0  0
    5.0947  -16.1338  -33.3991 H   0  0  0  0  0
    9.3048  -16.0995  -34.2324 H   0  0  0  0  0
    9.7458  -20.8846  -34.3860 H   0  0  0  0  0
    8.5258  -22.1199  -33.9245 H   0  0  0  0  0
    8.4764  -20.1729  -32.4289 H   0  0  0  0  0
    6.9421  -20.3423  -33.3726 H   0  0  0  0  0
    4.9698  -13.7234  -33.9195 H   0  0  0  0  0
    6.4820  -18.0099  -32.8149 H   0  0  0  0  0
    6.5376  -20.4007  -35.0537 H   0  0  0  0  0
    5.4936  -12.4180  -35.7465 H   0  0  0  0  0
    8.6983  -12.7637  -36.3147 H   0  0  0  0  0
  1  9  4  0  0  0
 10  1  4  0  0  0
 11  2  1  0  0  0
  2 17  2  0  0  0
  2 18  1  0  0  0
 12  3  1  0  0  0
  3 19  2  0  0  0
  3 20  1  0  0  0
  9  4  4  0  0  0
  4 12  4  0  0  0
  6  5  1  0  0  0
  5 14  1  0  0  0
  5 15  2  0  0  0
  7  6  1  0  0  0
  8  7  1  0  0  0
 13  8  1  0  0  0
  8 16  2  0  0  0
  9 13  1  0  0  0
 10 11  4  0  0  0
 11 12  4  0  0  0
  1 21  1  0  0  0
  4 22  1  0  0  0
  6 23  1  0  0  0
  6 24  1  0  0  0
  7 25  1  0  0  0
  7 26  1  0  0  0
 10 27  1  0  0  0
 13 28  1  0  0  0
 14 29  1  0  0  0
 18 30  1  0  0  0
 20 31  1  0  0  0
M  END
$$$$
