4a0j_ligand
  -I-interpret- 

 98 97  0  0  0  0  0  0  0  0999 V2000
   -3.5910  -44.7810   30.1140 N   0  3  0  0  0
   -2.7210  -44.6460   31.2800 C   0  0  0  0  0
   -3.2820  -43.6650   32.3130 C   0  0  0  0  0
   -4.3730  -43.1280   32.1360 O   0  0  0  0  0
   -1.3410  -44.2260   30.8480 C   0  0  0  0  0
   -2.5330  -43.4380   33.3890 N   0  0  0  0  0
   -2.9520  -42.5070   34.4370 C   0  0  0  0  0
   -2.2790  -41.1510   34.2820 C   0  0  0  0  0
   -1.2060  -41.0500   33.6920 O   0  0  0  0  0
   -2.5890  -43.0400   35.8270 C   0  0  0  0  0
   -3.2010  -44.3660   36.2070 C   0  0  0  0  0
   -2.8320  -44.7120   37.6410 C   0  0  0  0  0
   -1.4340  -44.3940   37.9340 N   0  0  0  0  0
   -0.4140  -45.2240   37.7280 C   0  0  0  0  0
   -0.6250  -46.4310   37.2220 N   0  0  0  0  0
    0.8210  -44.8490   38.0280 N   0  0  0  0  0
   -2.9050  -40.1170   34.8360 N   0  0  0  0  0
   -2.2300  -38.8410   35.0410 C   0  0  0  0  0
   -3.2430  -37.7390   35.3970 C   0  0  0  0  0
   -2.5270  -36.4910   35.9280 C   0  0  0  0  0
   -4.0310  -37.3860   34.2540 O   0  0  0  0  0
   -5.4840  -36.9470   34.7930 P   0  0  0  0  0
   -6.5420  -37.4520   33.8880 O   0  0  0  0  0
   -5.6740  -37.5460   36.2760 O   0  0  0  0  0
   -5.5970  -35.3420   34.8530 O   0  0  0  0  0
   -1.2170  -39.0320   36.1690 C   0  0  0  0  0
   -1.5330  -39.6260   37.2010 O   0  0  0  0  0
    0.0020  -38.5440   35.9670 N   0  0  0  0  0
    1.0700  -38.7110   36.9520 C   0  0  0  0  0
    0.6620  -38.2360   38.3480 C   0  0  0  0  0
   -0.1270  -37.2970   38.4940 O   0  0  0  0  0
    2.3440  -37.9840   36.5020 C   0  0  0  0  0
    3.4860  -38.0700   37.5060 C   0  0  0  0  0
    4.5650  -37.0150   37.2660 C   0  0  0  0  0
    5.5740  -37.0360   38.4120 C   0  0  0  0  0
    6.5380  -35.9060   38.3630 N   0  3  0  0  0
    1.2060  -38.8920   39.3680 N   0  0  0  0  0
    0.9370  -38.5170   40.7500 C   0  0  0  0  0
    2.2400  -38.1750   41.4760 C   0  0  0  0  0
    3.2660  -38.8230   41.2650 O   0  0  0  0  0
    0.1950  -39.6470   41.4660 C   0  0  0  0  0
    2.1930  -37.1470   42.3210 N   0  0  0  0  0
    3.3590  -36.7030   43.0910 C   0  0  0  0  0
    4.4630  -36.0980   42.2160 C   0  0  0  0  0
    5.0150  -35.0360   42.5310 O   0  0  0  0  0
    3.9470  -37.8430   43.9590 C   0  0  0  0  0
    4.8135  -36.6906   41.1608 O   0  0  0  0  0
   -4.5224  -45.0655   30.4173 H   0  0  0  0  0
   -3.6488  -43.8856   29.6290 H   0  0  0  0  0
   -3.2070  -45.4858   29.4846 H   0  0  0  0  0
   -2.6675  -45.6213   31.7637 H   0  0  0  0  0
   -1.3876  -43.2317   30.4038 H   0  0  0  0  0
   -0.6802  -44.2076   31.7147 H   0  0  0  0  0
   -0.9597  -44.9358   30.1139 H   0  0  0  0  0
   -1.6427  -43.9262   33.4859 H   0  0  0  0  0
   -4.0324  -42.4028   34.3374 H   0  0  0  0  0
   -2.9683  -42.3111   36.5432 H   0  0  0  0  0
   -1.5094  -43.1903   35.8251 H   0  0  0  0  0
   -2.8230  -45.1414   35.5407 H   0  0  0  0  0
   -4.2855  -44.3004   36.1199 H   0  0  0  0  0
   -2.9769  -45.7829   37.7833 H   0  0  0  0  0
   -3.4639  -44.1260   38.3084 H   0  0  0  0  0
   -1.2271  -43.4738   38.3225 H   0  0  0  0  0
    0.1602  -47.0632   37.0664 H   0  0  0  0  0
   -1.5726  -46.7275   36.9883 H   0  0  0  0  0
    0.9920  -43.9221   38.4179 H   0  0  0  0  0
   -3.8783  -40.2186   35.1237 H   0  0  0  0  0
   -1.7247  -38.5281   34.1273 H   0  0  0  0  0
   -3.8981  -38.1308   36.1751 H   0  0  0  0  0
   -1.9614  -36.7512   36.8227 H   0  0  0  0  0
   -1.8477  -36.1111   35.1649 H   0  0  0  0  0
   -3.2648  -35.7268   36.1725 H   0  0  0  0  0
   -4.9805  -37.2083   36.8476 H   0  0  0  0  0
   -4.9175  -34.9961   35.4363 H   0  0  0  0  0
    0.1982  -38.0397   35.1024 H   0  0  0  0  0
    1.2684  -39.7808   37.0168 H   0  0  0  0  0
    2.0929  -36.9299   36.3839 H   0  0  0  0  0
    2.6828  -38.4601   35.5819 H   0  0  0  0  0
    3.9491  -39.0512   37.4020 H   0  0  0  0  0
    3.0705  -37.9029   38.4997 H   0  0  0  0  0
    4.1005  -36.0303   37.2132 H   0  0  0  0  0
    5.0790  -37.2321   36.3296 H   0  0  0  0  0
    6.1448  -37.9612   38.3330 H   0  0  0  0  0
    5.0163  -36.9546   39.3450 H   0  0  0  0  0
    7.1822  -35.9758   39.1508 H   0  0  0  0  0
    7.0623  -35.9456   37.4890 H   0  0  0  0  0
    6.0288  -35.0238   38.4158 H   0  0  0  0  0
    1.8277  -39.6781   39.1784 H   0  0  0  0  0
    0.3041  -37.6296   40.7569 H   0  0  0  0  0
   -0.7492  -39.8399   40.9566 H   0  0  0  0  0
    0.8077  -40.5484   41.4519 H   0  0  0  0  0
   -0.0004  -39.3550   42.4978 H   0  0  0  0  0
    1.3107  -36.6486   42.4372 H   0  0  0  0  0
    2.9867  -35.9152   43.7458 H   0  0  0  0  0
    3.1884  -38.1932   44.6590 H   0  0  0  0  0
    4.2562  -38.6660   43.3147 H   0  0  0  0  0
    4.8087  -37.4693   44.5121 H   0  0  0  0  0
    4.2955  -37.4923   41.0582 H   0  0  0  0  0
  1  2  1  0  0  0
  2  3  1  0  0  0
  2  5  1  0  0  0
  3  4  2  0  0  0
  3  6  1  0  0  0
  6  7  1  0  0  0
  7  8  1  0  0  0
  7 10  1  0  0  0
  8  9  2  0  0  0
  8 17  1  0  0  0
 10 11  1  0  0  0
 11 12  1  0  0  0
 12 13  1  0  0  0
 13 14  1  0  0  0
 14 15  1  0  0  0
 14 16  2  0  0  0
 17 18  1  0  0  0
 18 19  1  0  0  0
 18 26  1  0  0  0
 19 20  1  0  0  0
 19 21  1  0  0  0
 21 22  1  0  0  0
 22 23  2  0  0  0
 22 24  1  0  0  0
 22 25  1  0  0  0
 26 27  2  0  0  0
 26 28  1  0  0  0
 28 29  1  0  0  0
 29 30  1  0  0  0
 29 32  1  0  0  0
 30 31  2  0  0  0
 30 37  1  0  0  0
 32 33  1  0  0  0
 33 34  1  0  0  0
 34 35  1  0  0  0
 35 36  1  0  0  0
 37 38  1  0  0  0
 38 39  1  0  0  0
 38 41  1  0  0  0
 39 40  2  0  0  0
 39 42  1  0  0  0
 42 43  1  0  0  0
 43 44  1  0  0  0
 43 46  1  0  0  0
 44 45  2  0  0  0
 44 47  1  0  0  0
  1 48  1  0  0  0
  1 49  1  0  0  0
  1 50  1  0  0  0
  2 51  1  0  0  0
  5 52  1  0  0  0
  5 53  1  0  0  0
  5 54  1  0  0  0
  6 55  1  0  0  0
  7 56  1  0  0  0
 10 57  1  0  0  0
 10 58  1  0  0  0
 11 59  1  0  0  0
 11 60  1  0  0  0
 12 61  1  0  0  0
 12 62  1  0  0  0
 13 63  1  0  0  0
 15 64  1  0  0  0
 15 65  1  0  0  0
 16 66  1  0  0  0
 17 67  1  0  0  0
 18 68  1  0  0  0
 19 69  1  0  0  0
 20 70  1  0  0  0
 20 71  1  0  0  0
 20 72  1  0  0  0
 24 73  1  0  0  0
 25 74  1  0  0  0
 28 75  1  0  0  0
 29 76  1  0  0  0
 32 77  1  0  0  0
 32 78  1  0  0  0
 33 79  1  0  0  0
 33 80  1  0  0  0
 34 81  1  0  0  0
 34 82  1  0  0  0
 35 83  1  0  0  0
 35 84  1  0  0  0
 36 85  1  0  0  0
 36 86  1  0  0  0
 36 87  1  0  0  0
 37 88  1  0  0  0
 38 89  1  0  0  0
 41 90  1  0  0  0
 41 91  1  0  0  0
 41 92  1  0  0  0
 42 93  1  0  0  0
 43 94  1  0  0  0
 46 95  1  0  0  0
 46 96  1  0  0  0
 46 97  1  0  0  0
 47 98  1  0  0  0
M  END
$$$$
