### 
### Created by X-TOOL on Mon Sep 10 21:13:07 2018
### 

@<TRIPOS>MOLECULE
4a0j_ligand
   96    95     1     0     0
SMALL
GAST_HUCK


@<TRIPOS>ATOM
      1 N          -3.5910  -44.7810   30.1140 N.4       1 ALA         0.2377
      2 CA         -2.7210  -44.6460   31.2800 C.3       1 ALA         0.0621
      3 C          -3.2820  -43.6650   32.3130 C.2       1 ALA         0.2264
      4 O          -4.3730  -43.1280   32.1360 O.2       1 ALA        -0.3907
      5 CB         -1.3410  -44.2260   30.8480 C.3       1 ALA        -0.0040
      6 N          -2.5330  -43.4380   33.3890 N.am      1 ARG        -0.2610
      7 CA         -2.9520  -42.5070   34.4370 C.3       1 ARG         0.1312
      8 C          -2.2790  -41.1510   34.2820 C.2       1 ARG         0.2040
      9 O          -1.2060  -41.0500   33.6920 O.2       1 ARG        -0.3944
     10 CB         -2.5890  -43.0400   35.8270 C.3       1 ARG        -0.0092
     11 CG         -3.2010  -44.3660   36.2070 C.3       1 ARG        -0.0156
     12 CD         -2.8320  -44.7120   37.6410 C.3       1 ARG         0.0627
     13 NE         -1.4340  -44.3940   37.9340 N.pl3     1 ARG        -0.2723
     14 CZ         -0.4140  -45.2240   37.7280 C.cat     1 ARG         0.2882
     15 NH1        -0.6250  -46.4310   37.2220 N.pl3     1 ARG        -0.2849
     16 NH2         0.8210  -44.8490   38.0280 N.pl3     1 ARG        -0.2849
     17 N          -2.9050  -40.1170   34.8360 N.am      1 TPO        -0.2611
     18 CA         -2.2300  -38.8410   35.0410 C.3       1 TPO         0.1612
     19 CB         -3.2430  -37.7390   35.3970 C.3       1 TPO         0.1262
     20 CG2        -2.5270  -36.4910   35.9280 C.3       1 TPO        -0.0298
     21 OG1        -4.0310  -37.3860   34.2540 O.3       1 TPO        -0.2685
     22 P          -5.4840  -36.9470   34.7930 P.3       1 TPO         0.2014
     23 O1P        -6.5420  -37.4520   33.8880 O.co2     1 TPO        -0.5537
     24 O2P        -5.6740  -37.5460   36.2760 O.co2     1 TPO        -0.5537
     25 O3P        -5.5970  -35.3420   34.8530 O.co2     1 TPO        -0.5537
     26 C          -1.2170  -39.0320   36.1690 C.2       1 TPO         0.2068
     27 O          -1.5330  -39.6260   37.2010 O.2       1 TPO        -0.3943
     28 N           0.0020  -38.5440   35.9670 N.am      1 LYS        -0.2636
     29 CA          1.0700  -38.7110   36.9520 C.3       1 LYS         0.1310
     30 C           0.6620  -38.2360   38.3480 C.2       1 LYS         0.2039
     31 O          -0.1270  -37.2970   38.4940 O.2       1 LYS        -0.3944
     32 CB          2.3440  -37.9840   36.5020 C.3       1 LYS        -0.0122
     33 CG          3.4860  -38.0700   37.5060 C.3       1 LYS        -0.0440
     34 CD          4.5650  -37.0150   37.2660 C.3       1 LYS        -0.0124
     35 CE          5.5740  -37.0360   38.4120 C.3       1 LYS        -0.0354
     36 NZ          6.5380  -35.9060   38.3630 N.4       1 LYS         0.2185
     37 N           1.2060  -38.8920   39.3680 N.am      1 GLN        -0.2640
     38 CA          0.9370  -38.5170   40.7500 C.3       1 GLN         0.1282
     39 C           2.2400  -38.1750   41.4760 C.2       1 GLN         0.2031
     40 O           3.2660  -38.8230   41.2650 O.2       1 GLN        -0.3944
     41 CB          0.1950  -39.6470   41.4660 C.3       1 GLN        -0.0244
     42 N           2.1930  -37.1470   42.3210 N.am      1 THR        -0.2698
     43 CA          3.3590  -36.7030   43.0910 C.3       1 THR         0.0916
     44 C           4.4630  -36.0980   42.2160 C.2       1 THR         0.0598
     45 O           5.0150  -35.0360   42.5310 O.co2     1 THR        -0.5666
     46 CB          3.9470  -37.8430   43.9590 C.3       1 THR        -0.0300
     47 H          -4.5224  -45.0655   30.4173 H         1 ALA         0.2015
     48 H          -3.6488  -43.8856   29.6290 H         1 ALA         0.2015
     49 H          -3.2070  -45.4858   29.4846 H         1 ALA         0.2015
     50 H          -2.6675  -45.6213   31.7637 H         1 ALA         0.1095
     51 H          -1.3876  -43.2317   30.4038 H         1 ALA         0.0310
     52 H          -0.6802  -44.2076   31.7147 H         1 ALA         0.0310
     53 H          -0.9597  -44.9358   30.1139 H         1 ALA         0.0310
     54 H          -1.6427  -43.9262   33.4859 H         1 ARG         0.1884
     55 H          -4.0324  -42.4028   34.3374 H         1 ARG         0.0800
     56 H          -2.9683  -42.3111   36.5432 H         1 ARG         0.0313
     57 H          -1.5094  -43.1903   35.8251 H         1 ARG         0.0313
     58 H          -2.8230  -45.1414   35.5407 H         1 ARG         0.0301
     59 H          -4.2855  -44.3004   36.1199 H         1 ARG         0.0301
     60 H          -2.9769  -45.7829   37.7833 H         1 ARG         0.0689
     61 H          -3.4639  -44.1260   38.3084 H         1 ARG         0.0689
     62 H          -1.2271  -43.4738   38.3225 H         1 ARG         0.2642
     63 H          -1.5726  -46.7276   36.9885 H         1 ARG         0.2615
     64 H           0.1602  -47.0631   37.0662 H         1 ARG         0.2615
     65 H           0.9920  -43.9221   38.4179 H         1 ARG         0.2615
     66 H           1.6006  -45.4872   37.8690 H         1 ARG         0.2615
     67 H          -3.8783  -40.2186   35.1237 H         1 TPO         0.1884
     68 H          -1.7247  -38.5281   34.1273 H         1 TPO         0.0830
     69 H          -3.8981  -38.1308   36.1751 H         1 TPO         0.0695
     70 H          -1.9614  -36.7512   36.8227 H         1 TPO         0.0260
     71 H          -1.8477  -36.1111   35.1649 H         1 TPO         0.0260
     72 H          -3.2648  -35.7268   36.1725 H         1 TPO         0.0260
     73 H           0.1982  -38.0397   35.1024 H         1 LYS         0.1883
     74 H           1.2684  -39.7808   37.0168 H         1 LYS         0.0800
     75 H           2.0929  -36.9299   36.3839 H         1 LYS         0.0312
     76 H           2.6828  -38.4601   35.5819 H         1 LYS         0.0312
     77 H           3.9491  -39.0512   37.4020 H         1 LYS         0.0269
     78 H           3.0705  -37.9029   38.4997 H         1 LYS         0.0269
     79 H           4.1005  -36.0303   37.2132 H         1 LYS         0.0317
     80 H           5.0790  -37.2321   36.3296 H         1 LYS         0.0317
     81 H           6.1448  -37.9612   38.3330 H         1 LYS         0.0813
     82 H           5.0163  -36.9546   39.3450 H         1 LYS         0.0813
     83 H           7.1822  -35.9758   39.1508 H         1 LYS         0.1994
     84 H           7.0623  -35.9456   37.4890 H         1 LYS         0.1994
     85 H           6.0288  -35.0238   38.4158 H         1 LYS         0.1994
     86 H           1.8277  -39.6781   39.1784 H         1 GLN         0.1883
     87 H           0.3041  -37.6296   40.7569 H         1 GLN         0.0797
     88 H          -0.7492  -39.8399   40.9566 H         1 GLN         0.0277
     89 H           0.8077  -40.5484   41.4519 H         1 GLN         0.0277
     90 H          -0.0004  -39.3550   42.4978 H         1 GLN         0.0277
     91 H           1.3107  -36.6486   42.4372 H         1 THR         0.1875
     92 H           2.9867  -35.9152   43.7458 H         1 THR         0.0723
     93 O1          4.8135  -36.6906   41.1608 O.co2     1 THR        -0.5666
     94 H           3.1884  -38.1932   44.6590 H         1 THR         0.0270
     95 H           4.2562  -38.6660   43.3147 H         1 THR         0.0270
     96 H           4.8087  -37.4693   44.5121 H         1 THR         0.0270
@<TRIPOS>BOND
     1    1    2 1  
     2    2    3 1  
     3    2    5 1  
     4    3    4 2  
     5    3    6 am 
     6    6    7 1  
     7    7    8 1  
     8    7   10 1  
     9    8    9 2  
    10    8   17 am 
    11   10   11 1  
    12   11   12 1  
    13   12   13 1  
    14   13   14 ar 
    15   14   15 ar 
    16   14   16 ar 
    17   17   18 1  
    18   18   19 1  
    19   18   26 1  
    20   19   20 1  
    21   19   21 1  
    22   21   22 1  
    23   22   23 ar 
    24   22   24 ar 
    25   22   25 ar 
    26   26   27 2  
    27   26   28 am 
    28   28   29 1  
    29   29   30 1  
    30   29   32 1  
    31   30   31 2  
    32   30   37 am 
    33   32   33 1  
    34   33   34 1  
    35   34   35 1  
    36   35   36 1  
    37   37   38 1  
    38   38   39 1  
    39   38   41 1  
    40   39   40 2  
    41   39   42 am 
    42   42   43 1  
    43   43   44 1  
    44   43   46 1  
    45   44   45 ar 
    46    1   47 1  
    47    1   48 1  
    48    1   49 1  
    49    2   50 1  
    50    5   51 1  
    51    5   52 1  
    52    5   53 1  
    53    6   54 1  
    54    7   55 1  
    55   10   56 1  
    56   10   57 1  
    57   11   58 1  
    58   11   59 1  
    59   12   60 1  
    60   12   61 1  
    61   13   62 1  
    62   15   63 1  
    63   15   64 1  
    64   16   65 1  
    65   16   66 1  
    66   17   67 1  
    67   18   68 1  
    68   19   69 1  
    69   20   70 1  
    70   20   71 1  
    71   20   72 1  
    72   28   73 1  
    73   29   74 1  
    74   32   75 1  
    75   32   76 1  
    76   33   77 1  
    77   33   78 1  
    78   34   79 1  
    79   34   80 1  
    80   35   81 1  
    81   35   82 1  
    82   36   83 1  
    83   36   84 1  
    84   36   85 1  
    85   37   86 1  
    86   38   87 1  
    87   41   88 1  
    88   41   89 1  
    89   41   90 1  
    90   42   91 1  
    91   43   92 1  
    92   44   93 ar 
    93   46   94 1  
    94   46   95 1  
    95   46   96 1  
@<TRIPOS>SUBSTRUCTURE
     1 ALA         1

