2xfk_ligand
  -I-interpret- 

 94 97  0  0  0  0  0  0  0  0999 V2000
   27.5630   -3.5650   34.1790 C   0  0  0  0  0
   29.0610   -3.7920   34.0990 C   0  0  0  0  0
   29.6140   -3.5750   35.4280 N   0  0  0  0  0
   30.0220   -2.2520   35.7330 C   0  0  0  0  0
   30.6320   -2.0560   36.9640 C   0  0  0  0  0
   31.0850   -0.8140   37.3490 C   0  0  0  0  0
   30.9370    0.2760   36.5180 C   0  0  0  0  0
   30.3320    0.0870   35.2900 C   0  0  0  0  0
   29.8860   -1.1610   34.8850 C   0  0  0  0  0
   30.1900    1.2500   34.4000 C   0  0  0  0  0
   31.1230    2.0300   34.2560 O   0  0  0  0  0
   28.9870    1.3640   33.7580 N   0  0  0  0  0
   28.8060    2.3140   32.6780 C   0  0  0  0  0
   28.1680    1.5970   31.4960 C   0  0  0  0  0
   28.8370    0.2890   31.1760 C   0  0  0  0  0
   30.2070    0.2350   30.9830 C   0  0  0  0  0
   30.7950   -0.9860   30.6990 C   0  0  0  0  0
   30.0390   -2.1370   30.6040 C   0  0  0  0  0
   28.6780   -2.0860   30.7990 C   0  0  0  0  0
   28.0800   -0.8700   31.0830 C   0  0  0  0  0
   28.0030    3.5130   33.1880 C   0  0  0  0  0
   27.6660    4.4140   32.1310 O   0  0  0  0  0
   28.7760    4.3690   34.1860 C   0  0  0  0  0
   27.9320    5.5060   34.5710 N   0  3  0  0  0
   28.6770    6.6800   35.0680 C   0  0  0  0  0
   29.3050    6.3930   36.4160 C   0  0  0  0  0
   29.7100    7.1320   34.0590 C   0  0  0  0  0
   30.9010    6.8360   34.1300 O   0  0  0  0  0
   29.1840    7.9150   33.0650 N   0  0  0  0  0
   30.0620    8.3430   31.9630 C   0  0  0  0  0
   29.3110    8.1870   30.6640 C   0  0  0  0  0
   30.1140    8.6680   29.4700 C   0  0  0  0  0
   30.3660   10.1480   29.6630 C   0  0  0  0  0
   31.1780   10.3720   30.9270 C   0  0  0  0  0
   30.4750    9.7930   32.1570 C   0  0  0  0  0
   31.7320   -0.6130   38.6070 N   0  0  0  0  0
   33.0590   -0.0680   38.5710 C   0  0  0  0  0
   33.2700    1.2070   39.0430 C   0  0  0  0  0
   34.5430    1.7380   39.0150 C   0  0  0  0  0
   35.5790    0.9900   38.5040 C   0  0  0  0  0
   35.3570   -0.2840   38.0210 C   0  0  0  0  0
   34.0820   -0.8290   38.0550 C   0  0  0  0  0
   31.2370   -1.3210   40.0560 S   0  0  0  0  0
   32.1890   -2.8120   40.1570 C   0  0  0  0  0
   29.8380   -1.6560   39.8980 O   0  0  0  0  0
   31.6580   -0.4500   41.1410 O   0  0  0  0  0
   27.1279   -4.2671   34.8902 H   0  0  0  0  0
   27.3686   -2.5444   34.5088 H   0  0  0  0  0
   27.1201   -3.7209   33.1953 H   0  0  0  0  0
   29.5110   -3.1031   33.3841 H   0  0  0  0  0
   29.2731   -4.8064   33.7613 H   0  0  0  0  0
   29.7031   -4.3341   36.1035 H   0  0  0  0  0
   30.7550   -2.9023   37.6398 H   0  0  0  0  0
   31.2883    1.2621   36.8219 H   0  0  0  0  0
   29.4295   -1.2858   33.9031 H   0  0  0  0  0
   28.2067    0.7723   34.0433 H   0  0  0  0  0
   29.7579    2.7125   32.3271 H   0  0  0  0  0
   28.2639    2.2428   30.6231 H   0  0  0  0  0
   27.1303    1.3861   31.7547 H   0  0  0  0  0
   30.8125    1.1386   31.0535 H   0  0  0  0  0
   31.8732   -1.0392   30.5479 H   0  0  0  0  0
   30.5208   -3.0874   30.3742 H   0  0  0  0  0
   28.0772   -2.9929   30.7307 H   0  0  0  0  0
   27.0017   -0.8227   31.2353 H   0  0  0  0  0
   27.1246    3.0623   33.6500 H   0  0  0  0  0
   27.1645    5.1508   32.4878 H   0  0  0  0  0
   29.7007    4.7269   33.7333 H   0  0  0  0  0
   29.0307    3.7783   35.0659 H   0  0  0  0  0
   27.3322    5.1885   35.3324 H   0  0  0  0  0
   27.4305    5.8028   33.7338 H   0  0  0  0  0
   27.9697    7.4983   35.2033 H   0  0  0  0  0
   28.5234    6.1444   37.1340 H   0  0  0  0  0
   29.9947    5.5541   36.3229 H   0  0  0  0  0
   29.8472    7.2746   36.7579 H   0  0  0  0  0
   28.2037    8.1958   33.0880 H   0  0  0  0  0
   30.9629    7.7297   31.9467 H   0  0  0  0  0
   28.4040    8.7884   30.7246 H   0  0  0  0  0
   29.0985    7.1273   30.5226 H   0  0  0  0  0
   29.5668    8.4905   28.5442 H   0  0  0  0  0
   31.0566    8.1253   29.3990 H   0  0  0  0  0
   29.4117   10.6672   29.7513 H   0  0  0  0  0
   30.9191   10.5338   28.8066 H   0  0  0  0  0
   31.2997   11.4453   31.0729 H   0  0  0  0  0
   32.1396    9.8718   30.8122 H   0  0  0  0  0
   31.1724    9.8349   32.9937 H   0  0  0  0  0
   29.5731   10.3785   32.3355 H   0  0  0  0  0
   32.4386    1.7925   39.4356 H   0  0  0  0  0
   34.7269    2.7429   39.3949 H   0  0  0  0  0
   36.5854    1.4079   38.4804 H   0  0  0  0  0
   36.1852   -0.8627   37.6121 H   0  0  0  0  0
   33.8952   -1.8360   37.6818 H   0  0  0  0  0
   31.8546   -3.3978   41.0133 H   0  0  0  0  0
   32.0529   -3.3910   39.2436 H   0  0  0  0  0
   33.2431   -2.5612   40.2760 H   0  0  0  0  0
  1  2  1  0  0  0
  2  3  1  0  0  0
  3  4  1  0  0  0
  4  5  4  0  0  0
  4  9  4  0  0  0
  5  6  4  0  0  0
  6  7  4  0  0  0
  6 36  1  0  0  0
  7  8  4  0  0  0
  8  9  4  0  0  0
  8 10  1  0  0  0
 10 11  2  0  0  0
 10 12  1  0  0  0
 12 13  1  0  0  0
 13 14  1  0  0  0
 13 21  1  0  0  0
 14 15  1  0  0  0
 15 16  4  0  0  0
 15 20  4  0  0  0
 16 17  4  0  0  0
 17 18  4  0  0  0
 18 19  4  0  0  0
 19 20  4  0  0  0
 21 22  1  0  0  0
 21 23  1  0  0  0
 23 24  1  0  0  0
 24 25  1  0  0  0
 25 26  1  0  0  0
 25 27  1  0  0  0
 27 28  2  0  0  0
 27 29  1  0  0  0
 29 30  1  0  0  0
 30 31  1  0  0  0
 30 35  1  0  0  0
 31 32  1  0  0  0
 32 33  1  0  0  0
 33 34  1  0  0  0
 34 35  1  0  0  0
 36 37  1  0  0  0
 36 43  1  0  0  0
 37 38  4  0  0  0
 37 42  4  0  0  0
 38 39  4  0  0  0
 39 40  4  0  0  0
 40 41  4  0  0  0
 41 42  4  0  0  0
 43 44  1  0  0  0
 43 45  2  0  0  0
 43 46  2  0  0  0
  1 47  1  0  0  0
  1 48  1  0  0  0
  1 49  1  0  0  0
  2 50  1  0  0  0
  2 51  1  0  0  0
  3 52  1  0  0  0
  5 53  1  0  0  0
  7 54  1  0  0  0
  9 55  1  0  0  0
 12 56  1  0  0  0
 13 57  1  0  0  0
 14 58  1  0  0  0
 14 59  1  0  0  0
 16 60  1  0  0  0
 17 61  1  0  0  0
 18 62  1  0  0  0
 19 63  1  0  0  0
 20 64  1  0  0  0
 21 65  1  0  0  0
 22 66  1  0  0  0
 23 67  1  0  0  0
 23 68  1  0  0  0
 24 69  1  0  0  0
 24 70  1  0  0  0
 25 71  1  0  0  0
 26 72  1  0  0  0
 26 73  1  0  0  0
 26 74  1  0  0  0
 29 75  1  0  0  0
 30 76  1  0  0  0
 31 77  1  0  0  0
 31 78  1  0  0  0
 32 79  1  0  0  0
 32 80  1  0  0  0
 33 81  1  0  0  0
 33 82  1  0  0  0
 34 83  1  0  0  0
 34 84  1  0  0  0
 35 85  1  0  0  0
 35 86  1  0  0  0
 38 87  1  0  0  0
 39 88  1  0  0  0
 40 89  1  0  0  0
 41 90  1  0  0  0
 42 91  1  0  0  0
 44 92  1  0  0  0
 44 93  1  0  0  0
 44 94  1  0  0  0
M  END
$$$$
