3zc6_ligand
  -I-interpret- 

 51 55  0  0  0  0  0  0  0  0999 V2000
   10.1120   -2.8960   38.7100 F   0  0  0  0  0
    9.9400   -3.1260   39.9990 C   0  0  0  0  0
   10.3960   -2.1720   40.9120 C   0  0  0  0  0
   10.2370   -2.3750   42.2770 C   0  0  0  0  0
    9.6220   -3.5440   42.7090 C   0  0  0  0  0
    9.3270   -4.2970   40.4360 C   0  0  0  0  0
    9.1830   -4.4740   41.8060 C   0  0  0  0  0
    8.6340   -5.4760   42.5040 N   0  0  0  0  0
    8.0310   -6.6930   41.9270 C   0  0  0  0  0
    8.7170   -5.2270   43.7440 N   0  0  0  0  0
    9.3180   -4.0410   43.9530 C   0  0  0  0  0
    9.5740   -3.4610   45.2900 C   0  0  0  0  0
   10.3890   -2.3340   45.4780 N   0  0  0  0  0
    8.9730   -4.0490   46.4100 C   0  0  0  0  0
    9.1520   -3.5380   47.7060 N   0  0  0  0  0
    9.9680   -2.4380   47.8500 C   0  0  0  0  0
   10.3160   -1.7760   48.9600 N   0  0  0  0  0
   11.1220   -0.7580   48.6140 C   0  0  0  0  0
   11.3140   -0.7920   47.2460 C   0  0  0  0  0
   10.5580   -1.8490   46.7730 C   0  0  0  0  0
   12.0850    0.1870   46.4600 C   0  0  0  0  0
   12.6500    1.1250   46.9850 O   0  0  0  0  0
   12.0670    0.0810   45.0960 N   0  0  0  0  0
   12.7210    1.0080   44.1700 C   0  0  0  0  0
   11.6540    1.6410   43.2920 C   0  0  0  0  0
   13.6300    0.3140   43.2160 C   0  0  0  0  0
   13.2830   -0.7500   42.7130 O   0  0  0  0  0
   14.8190    0.9600   42.9240 N   0  0  0  0  0
   15.4280    2.2050   43.3920 C   0  0  0  0  0
   16.6570    1.9080   42.5700 C   0  0  0  0  0
   15.9570    0.6650   42.0640 C   0  0  0  0  0
   17.8460    1.6380   43.3670 C   0  0  0  0  0
   18.7730    1.4050   44.0330 N   0  0  0  0  0
   10.8790   -1.2638   40.5515 H   0  0  0  0  0
   10.5873   -1.6328   42.9943 H   0  0  0  0  0
    8.9731   -5.0473   39.7290 H   0  0  0  0  0
    7.2017   -6.4131   41.2774 H   0  0  0  0  0
    8.7825   -7.2299   41.3481 H   0  0  0  0  0
    7.6650   -7.3317   42.7308 H   0  0  0  0  0
    8.3469   -4.9305   46.2717 H   0  0  0  0  0
   11.5526   -0.0271   49.2985 H   0  0  0  0  0
   11.5581   -0.7055   44.6924 H   0  0  0  0  0
   13.2807    1.7177   44.7792 H   0  0  0  0  0
   11.1340    0.8615   42.7352 H   0  0  0  0  0
   10.9420    2.1786   43.9182 H   0  0  0  0  0
   12.1236    2.3353   42.5952 H   0  0  0  0  0
   15.5193    2.4008   44.4604 H   0  0  0  0  0
   14.9022    3.1515   43.2665 H   0  0  0  0  0
   17.0755    2.6428   41.8822 H   0  0  0  0  0
   15.8096    0.5183   40.9940 H   0  0  0  0  0
   16.4519   -0.3042   42.1260 H   0  0  0  0  0
  1  2  1  0  0  0
  2  3  4  0  0  0
  2  6  4  0  0  0
  3  4  4  0  0  0
  4  5  4  0  0  0
  5  7  4  0  0  0
  5 11  4  0  0  0
  6  7  4  0  0  0
  7  8  4  0  0  0
  8  9  1  0  0  0
  8 10  4  0  0  0
 10 11  4  0  0  0
 11 12  1  0  0  0
 12 13  4  0  0  0
 12 14  4  0  0  0
 13 20  4  0  0  0
 14 15  4  0  0  0
 15 16  4  0  0  0
 16 17  4  0  0  0
 16 20  4  0  0  0
 17 18  4  0  0  0
 18 19  4  0  0  0
 19 20  4  0  0  0
 19 21  1  0  0  0
 21 22  2  0  0  0
 21 23  1  0  0  0
 23 24  1  0  0  0
 24 25  1  0  0  0
 24 26  1  0  0  0
 26 27  2  0  0  0
 26 28  1  0  0  0
 28 29  1  0  0  0
 28 31  1  0  0  0
 29 30  1  0  0  0
 30 31  1  0  0  0
 30 32  1  0  0  0
 32 33  3  0  0  0
  3 34  1  0  0  0
  4 35  1  0  0  0
  6 36  1  0  0  0
  9 37  1  0  0  0
  9 38  1  0  0  0
  9 39  1  0  0  0
 14 40  1  0  0  0
 18 41  1  0  0  0
 23 42  1  0  0  0
 24 43  1  0  0  0
 25 44  1  0  0  0
 25 45  1  0  0  0
 25 46  1  0  0  0
 29 47  1  0  0  0
 29 48  1  0  0  0
 30 49  1  0  0  0
 31 50  1  0  0  0
 31 51  1  0  0  0
M  END
$$$$
