1d4l_ligand
  -I-interpret- 

 91 93  0  0  0  0  0  0  0  0999 V2000
    5.1510    4.3240    9.0720 C   0  0  0  0  0
    3.6790    4.2760    9.3940 C   0  0  0  0  0
    3.4000    3.6170   10.7330 C   0  0  0  0  0
    3.3390    4.3030   11.7430 O   0  0  0  0  0
    5.4690    3.2480    8.0750 C   0  0  0  0  0
    6.7590    3.5080    7.3360 C   0  0  0  0  0
    3.2850    2.2900   10.7580 N   0  0  0  0  0
    2.9890    1.5710   12.0090 C   0  0  0  0  0
    1.6300    0.8350   11.9090 C   0  0  0  0  0
    1.4080   -0.0300   13.1370 C   0  0  0  0  0
    0.4900    1.8410   11.7620 C   0  0  0  0  0
    4.0760    0.5840   12.4740 C   0  0  0  0  0
    4.2760   -0.4770   11.8620 O   0  0  0  0  0
    4.7620    0.9370   13.5590 N   0  0  0  0  0
    5.8280    0.0830   14.1300 C   0  0  0  0  0
    7.1720    0.8230   14.0930 C   0  0  0  0  0
    7.5030    1.3940   12.7250 C   0  0  0  0  0
    7.4430    2.7600   12.5010 C   0  0  0  0  0
    7.7320    3.2910   11.2830 C   0  0  0  0  0
    7.8670    0.5650   11.6590 C   0  0  0  0  0
    8.1580    1.0900   10.4220 C   0  0  0  0  0
    8.0900    2.4590   10.2510 C   0  0  0  0  0
    8.3870    3.0540    9.0620 O   0  0  0  0  0
    7.8550    2.5870    7.8380 C   0  0  0  0  0
    5.4820   -0.3440   15.5620 C   0  0  0  0  0
    5.5310    0.7920   16.4260 O   0  0  0  0  0
    6.4660   -1.3970   16.0790 C   0  0  0  0  0
    6.2750   -2.7170   15.4530 N   0  0  0  0  0
    5.4210   -3.6300   16.2260 C   0  0  0  0  0
    4.1490   -3.7130   15.4020 C   0  0  0  0  0
    3.1700   -4.7920   15.8750 C   0  0  0  0  0
    2.7980   -4.5160   17.3240 C   0  0  0  0  0
    1.9470   -4.8430   14.9680 C   0  0  0  0  0
    7.4780   -3.3320   14.5100 S   0  0  0  0  0
    8.2000   -2.2340   13.8740 O   0  0  0  0  0
    6.8820   -4.1890   13.4940 O   0  0  0  0  0
    8.5160   -4.1960   15.4480 C   0  0  0  0  0
    9.5590   -3.5470   16.0840 C   0  0  0  0  0
    8.3080   -5.5440   15.7010 C   0  0  0  0  0
   10.3840   -4.2140   16.9740 C   0  0  0  0  0
    9.1310   -6.2260   16.5980 C   0  0  0  0  0
   10.1680   -5.5490   17.2290 C   0  0  0  0  0
   10.9710   -6.1750   18.1590 N   0  0  0  0  0
    5.4041    5.2984    8.6542 H   0  0  0  0  0
    5.7313    4.1657    9.9810 H   0  0  0  0  0
    3.1837    3.6897    8.6201 H   0  0  0  0  0
    3.3104    5.3008    9.4394 H   0  0  0  0  0
    4.6620    3.2187    7.3429 H   0  0  0  0  0
    5.5753    2.3082    8.6168 H   0  0  0  0  0
    6.6012    3.3238    6.2733 H   0  0  0  0  0
    7.0609    4.5417    7.5043 H   0  0  0  0  0
    3.4043    1.7615    9.8938 H   0  0  0  0  0
    2.9527    2.3512   12.7693 H   0  0  0  0  0
    1.6471    0.1947   11.0270 H   0  0  0  0  0
    2.2080   -0.7667   13.2103 H   0  0  0  0  0
    1.4084    0.5986   14.0275 H   0  0  0  0  0
    0.4488   -0.5406   13.0516 H   0  0  0  0  0
    0.4747    2.5002   12.6299 H   0  0  0  0  0
    0.6423    2.4313   10.8584 H   0  0  0  0  0
   -0.4576    1.3068   11.6931 H   0  0  0  0  0
    4.5460    1.8251   14.0118 H   0  0  0  0  0
    5.9088   -0.8196   13.5243 H   0  0  0  0  0
    7.9515    0.1053   14.3488 H   0  0  0  0  0
    7.1096    1.6565   14.7926 H   0  0  0  0  0
    7.1582    3.4228   13.3181 H   0  0  0  0  0
    7.6799    4.3685   11.1271 H   0  0  0  0  0
    7.9208   -0.5130   11.8111 H   0  0  0  0  0
    8.4367    0.4392    9.5932 H   0  0  0  0  0
    7.4331    1.5944    7.9957 H   0  0  0  0  0
    8.6542    2.5579    7.0974 H   0  0  0  0  0
    4.4799   -0.7727   15.5519 H   0  0  0  0  0
    5.3140    0.5214   17.3212 H   0  0  0  0  0
    6.3003   -1.5097   17.1504 H   0  0  0  0  0
    7.4735   -1.0574   15.8387 H   0  0  0  0  0
    5.2385   -3.2722   17.2393 H   0  0  0  0  0
    5.8836   -4.6052   16.3777 H   0  0  0  0  0
    4.4401   -3.9649   14.3822 H   0  0  0  0  0
    3.6411   -2.7529   15.4935 H   0  0  0  0  0
    3.6402   -5.7738   15.8193 H   0  0  0  0  0
    3.6976   -4.5376   17.9392 H   0  0  0  0  0
    2.3299   -3.5343   17.3969 H   0  0  0  0  0
    2.1010   -5.2790   17.6705 H   0  0  0  0  0
    1.4430   -3.8767   14.9851 H   0  0  0  0  0
    2.2608   -5.0726   13.9497 H   0  0  0  0  0
    1.2653   -5.6161   15.3225 H   0  0  0  0  0
    9.7348   -2.4906   15.8808 H   0  0  0  0  0
    7.4986   -6.0724   15.1972 H   0  0  0  0  0
   11.1986   -3.6854   17.4690 H   0  0  0  0  0
    8.9617   -7.2832   16.8026 H   0  0  0  0  0
   11.7023   -5.6492   18.6377 H   0  0  0  0  0
   10.8337   -7.1638   18.3682 H   0  0  0  0  0
  1  5  1  0  0  0
  1  2  1  0  0  0
  2  3  1  0  0  0
  3  7  1  0  0  0
  3  4  2  0  0  0
  7  8  1  0  0  0
  8 12  1  0  0  0
  8  9  1  0  0  0
  9 11  1  0  0  0
  9 10  1  0  0  0
 12 14  1  0  0  0
 12 13  2  0  0  0
 14 15  1  0  0  0
 15 25  1  0  0  0
 15 16  1  0  0  0
 16 17  1  0  0  0
 17 20  4  0  0  0
 17 18  4  0  0  0
 18 19  4  0  0  0
 19 22  4  0  0  0
 22 23  1  0  0  0
 22 21  4  0  0  0
 20 21  4  0  0  0
 23 24  1  0  0  0
 24  6  1  0  0  0
  6  5  1  0  0  0
 25 27  1  0  0  0
 25 26  1  0  0  0
 27 28  1  0  0  0
 28 34  1  0  0  0
 28 29  1  0  0  0
 29 30  1  0  0  0
 30 31  1  0  0  0
 31 33  1  0  0  0
 31 32  1  0  0  0
 34 37  1  0  0  0
 34 36  2  0  0  0
 34 35  2  0  0  0
 37 39  4  0  0  0
 37 38  4  0  0  0
 38 40  4  0  0  0
 40 42  4  0  0  0
 42 43  1  0  0  0
 42 41  4  0  0  0
 41 39  4  0  0  0
  1 44  1  0  0  0
  1 45  1  0  0  0
  2 46  1  0  0  0
  2 47  1  0  0  0
  5 48  1  0  0  0
  5 49  1  0  0  0
  6 50  1  0  0  0
  6 51  1  0  0  0
  7 52  1  0  0  0
  8 53  1  0  0  0
  9 54  1  0  0  0
 10 55  1  0  0  0
 10 56  1  0  0  0
 10 57  1  0  0  0
 11 58  1  0  0  0
 11 59  1  0  0  0
 11 60  1  0  0  0
 14 61  1  0  0  0
 15 62  1  0  0  0
 16 63  1  0  0  0
 16 64  1  0  0  0
 18 65  1  0  0  0
 19 66  1  0  0  0
 20 67  1  0  0  0
 21 68  1  0  0  0
 24 69  1  0  0  0
 24 70  1  0  0  0
 25 71  1  0  0  0
 26 72  1  0  0  0
 27 73  1  0  0  0
 27 74  1  0  0  0
 29 75  1  0  0  0
 29 76  1  0  0  0
 30 77  1  0  0  0
 30 78  1  0  0  0
 31 79  1  0  0  0
 32 80  1  0  0  0
 32 81  1  0  0  0
 32 82  1  0  0  0
 33 83  1  0  0  0
 33 84  1  0  0  0
 33 85  1  0  0  0
 38 86  1  0  0  0
 39 87  1  0  0  0
 40 88  1  0  0  0
 41 89  1  0  0  0
 43 90  1  0  0  0
 43 91  1  0  0  0
M  END
$$$$
