5wg9_ligand
  -I-interpret- 

 63 66  0  0  0  0  0  0  0  0999 V2000
  492.3570  196.7140  553.7600 C   0  0  0  0  0
  493.7240  194.2270  544.4430 C   0  0  0  0  0
  493.5760  193.1150  545.2380 C   0  0  0  0  0
  494.2330  193.0240  546.4550 C   0  0  0  0  0
  492.0480  194.7230  552.4470 C   0  0  0  0  0
  491.2340  193.5090  552.0440 C   0  0  0  0  0
  491.1200  193.1860  549.5840 C   0  0  0  0  0
  489.8480  193.9950  549.5650 C   0  0  0  0  0
  489.9080  195.1930  548.6340 C   0  0  0  0  0
  491.0980  196.0860  548.8830 C   0  0  0  0  0
  492.2930  195.9330  548.1840 C   0  0  0  0  0
  493.5950  196.8560  553.1370 C   0  0  0  0  0
  493.3750  196.7590  548.4150 C   0  0  0  0  0
  493.2880  197.7600  549.3540 C   0  0  0  0  0
  492.1260  197.9400  550.0620 C   0  0  0  0  0
  491.0450  197.1090  549.8240 C   0  0  0  0  0
  492.7030  191.8780  550.9970 C   0  0  0  0  0
  492.8250  191.8210  552.5090 C   0  0  0  0  0
  491.4570  192.3040  552.9690 C   0  0  0  0  0
  494.0020  195.9380  552.2150 C   0  0  0  0  0
  495.3390  196.0510  551.5310 C   0  0  0  0  0
  496.8470  194.9810  549.9150 C   0  0  0  0  0
  496.5900  195.0550  548.4310 C   0  0  0  0  0
  495.0470  194.0670  546.8700 C   0  0  0  0  0
  495.1990  195.1900  546.0710 C   0  0  0  0  0
  494.5320  195.2590  544.8580 C   0  0  0  0  0
  495.6160  195.0600  550.6850 N   0  0  0  0  0
  493.2430  194.8860  551.8750 N   0  0  0  0  0
  491.6720  192.9030  550.7750 N   0  0  0  0  0
  491.6020  195.6180  553.3900 N   0  0  0  0  0
  491.9190  197.5050  554.6100 O   0  0  0  0  0
  494.3260  197.9170  553.5080 O   0  0  0  0  0
  495.7000  193.9930  548.0730 O   0  0  0  0  0
  496.1010  196.9870  551.7660 O   0  0  0  0  0
  491.6360  192.7610  548.5550 O   0  0  0  0  0
  489.5830  197.3730  550.7430 Cl  0  0  0  0  0
  493.2029  194.2901  543.4877 H   0  0  0  0  0
  492.9357  192.2970  544.9079 H   0  0  0  0  0
  494.1108  192.1399  547.0807 H   0  0  0  0  0
  490.2233  193.9172  552.0371 H   0  0  0  0  0
  489.6835  194.3718  550.5745 H   0  0  0  0  0
  489.0497  193.3432  549.2101 H   0  0  0  0  0
  489.0101  195.7869  548.8044 H   0  0  0  0  0
  489.9891  194.8138  547.6153 H   0  0  0  0  0
  492.3759  195.1431  547.4375 H   0  0  0  0  0
  494.2982  196.6177  547.8531 H   0  0  0  0  0
  494.1429  198.4112  549.5362 H   0  0  0  0  0
  492.0549  198.7324  550.8070 H   0  0  0  0  0
  492.4354  190.9148  550.5625 H   0  0  0  0  0
  493.6472  192.1224  550.5103 H   0  0  0  0  0
  493.6439  192.4285  552.8943 H   0  0  0  0  0
  493.0735  190.8266  552.8799 H   0  0  0  0  0
  490.6777  191.5455  552.8948 H   0  0  0  0  0
  491.4149  192.5529  554.0294 H   0  0  0  0  0
  497.4787  195.8243  550.1942 H   0  0  0  0  0
  497.3238  194.0250  550.1313 H   0  0  0  0  0
  497.5280  194.9556  547.8847 H   0  0  0  0  0
  496.1441  196.0167  548.1773 H   0  0  0  0  0
  495.8379  196.0119  546.3942 H   0  0  0  0  0
  494.6492  196.1400  544.2270 H   0  0  0  0  0
  494.9273  194.3163  550.5712 H   0  0  0  0  0
  490.6923  195.4694  553.8268 H   0  0  0  0  0
  493.8430  198.4228  554.1656 H   0  0  0  0  0
 12  1  1  0  0  0
  1 30  1  0  0  0
  1 31  2  0  0  0
  3  2  4  0  0  0
  2 26  4  0  0  0
  4  3  4  0  0  0
 24  4  4  0  0  0
  5  6  1  0  0  0
 28  5  2  0  0  0
  5 30  1  0  0  0
  6 19  1  0  0  0
  6 29  1  0  0  0
  7  8  1  0  0  0
 29  7  1  0  0  0
  7 35  2  0  0  0
  8  9  1  0  0  0
  9 10  1  0  0  0
 10 11  4  0  0  0
 10 16  4  0  0  0
 11 13  4  0  0  0
 20 12  2  0  0  0
 12 32  1  0  0  0
 13 14  4  0  0  0
 15 14  4  0  0  0
 16 15  4  0  0  0
 16 36  1  0  0  0
 17 18  1  0  0  0
 29 17  1  0  0  0
 19 18  1  0  0  0
 21 20  1  0  0  0
 20 28  1  0  0  0
 27 21  1  0  0  0
 21 34  2  0  0  0
 23 22  1  0  0  0
 22 27  1  0  0  0
 33 23  1  0  0  0
 24 25  4  0  0  0
 24 33  1  0  0  0
 25 26  4  0  0  0
  2 37  1  0  0  0
  3 38  1  0  0  0
  4 39  1  0  0  0
  6 40  1  0  0  0
  8 41  1  0  0  0
  8 42  1  0  0  0
  9 43  1  0  0  0
  9 44  1  0  0  0
 11 45  1  0  0  0
 13 46  1  0  0  0
 14 47  1  0  0  0
 15 48  1  0  0  0
 17 49  1  0  0  0
 17 50  1  0  0  0
 18 51  1  0  0  0
 18 52  1  0  0  0
 19 53  1  0  0  0
 19 54  1  0  0  0
 22 55  1  0  0  0
 22 56  1  0  0  0
 23 57  1  0  0  0
 23 58  1  0  0  0
 25 59  1  0  0  0
 26 60  1  0  0  0
 27 61  1  0  0  0
 30 62  1  0  0  0
 32 63  1  0  0  0
M  END
$$$$
