2hjb_ligand
  -I-interpret- 

 22 22  0  0  0  0  0  0  0  0999 V2000
   53.8730   22.3300   28.2520 N   0  3  0  0  0
   52.4950   21.8040   28.4060 C   0  0  0  0  0
   51.6170   22.3080   29.5140 C   0  0  0  0  0
   50.4170   22.9920   29.2560 C   0  0  0  0  0
   49.5770   23.4960   30.3030 C   0  0  0  0  0
   49.9260   23.3390   31.6580 C   0  0  0  0  0
   51.0920   22.6960   31.9910 C   0  0  0  0  0
   52.0260   22.1390   30.8160 C   0  0  0  0  0
   49.1370   23.8450   32.7260 O   0  0  0  0  0
   48.4520   25.0640   32.5330 C   0  0  0  0  0
   54.3205   21.8792   27.4539 H   0  0  0  0  0
   53.8358   23.3376   28.0981 H   0  0  0  0  0
   54.4072   22.1337   29.0985 H   0  0  0  0  0
   52.6312   20.7454   28.6272 H   0  0  0  0  0
   51.9836   22.1100   27.4933 H   0  0  0  0  0
   50.1131   23.1453   28.2205 H   0  0  0  0  0
   48.6511   24.0102   30.0452 H   0  0  0  0  0
   51.3766   22.5671   33.0353 H   0  0  0  0  0
   52.9662   21.6365   31.0432 H   0  0  0  0  0
   49.1718   25.8535   32.3170 H   0  0  0  0  0
   47.7605   24.9622   31.6966 H   0  0  0  0  0
   47.8966   25.3143   33.4369 H   0  0  0  0  0
  1  2  1  0  0  0
  2  3  1  0  0  0
  3  4  4  0  0  0
  3  8  4  0  0  0
  4  5  4  0  0  0
  5  6  4  0  0  0
  6  7  4  0  0  0
  6  9  1  0  0  0
  7  8  4  0  0  0
  9 10  1  0  0  0
  1 11  1  0  0  0
  1 12  1  0  0  0
  1 13  1  0  0  0
  2 14  1  0  0  0
  2 15  1  0  0  0
  4 16  1  0  0  0
  5 17  1  0  0  0
  7 18  1  0  0  0
  8 19  1  0  0  0
 10 20  1  0  0  0
 10 21  1  0  0  0
 10 22  1  0  0  0
M  END
$$$$
