6f7i_ligand
  -I-interpret- 

 53 56  0  0  0  0  0  0  0  0999 V2000
    7.3060   -3.9580   22.5290 C   0  0  0  0  0
    6.1770   -3.1540   22.8120 C   0  0  0  0  0
    4.9570   -3.4680   22.1990 C   0  0  0  0  0
   11.0750   -2.1530   25.0580 C   0  0  0  0  0
   12.2050   -1.4730   24.6690 C   0  0  0  0  0
   10.5220   -1.9160   26.4330 C   0  0  0  0  0
   12.2950   -0.4330   26.7410 C   0  0  0  0  0
   14.0150    0.8480   26.4560 C   0  0  0  0  0
   12.9880    0.4710   27.4370 C   0  0  0  0  0
   12.9020   -1.5760   23.2810 C   0  0  0  0  0
   12.0600   -0.8800   22.1640 C   0  0  0  0  0
    9.0580   -2.8580   23.9050 C   0  0  0  0  0
   13.9280   -3.7990   23.6470 C   0  0  0  0  0
    2.5100   -4.9230   18.3700 C   0  0  0  0  0
    3.2400   -4.8830   16.9960 C   0  0  0  0  0
    4.8930   -4.5820   21.3430 C   0  0  0  0  0
    6.0010   -5.3040   21.0810 N   0  0  0  0  0
    7.1960   -5.0300   21.6330 C   0  0  0  0  0
    3.5390   -2.4970   22.4910 Cl  0  0  0  0  0
    3.6890   -4.9430   20.5240 C   0  0  0  0  0
    2.8320   -5.6550   21.0420 O   0  0  0  0  0
    3.6250   -4.5210   19.2270 N   0  0  0  0  0
    8.5990   -3.8070   23.0750 N   0  0  0  0  0
   11.1140   -1.1030   27.1990 N   0  0  0  0  0
   12.7830   -0.6540   25.5360 N   0  0  0  0  0
   13.8580    0.1530   25.4150 N   0  0  0  0  0
   15.3140    1.9540   26.7330 Cl  0  0  0  0  0
   13.0920   -2.9500   22.8300 O   0  0  0  0  0
   10.3780   -2.9460   24.2070 N   0  0  0  0  0
    8.3130   -1.9960   24.3590 O   0  0  0  0  0
    4.1580   -3.6390   17.1020 C   0  0  0  0  0
    4.6470   -3.6880   18.5780 C   0  0  0  0  0
    6.2547   -2.3069   23.4935 H   0  0  0  0  0
    9.6241   -2.4366   26.7659 H   0  0  0  0  0
   12.8342    0.8309   28.4543 H   0  0  0  0  0
   13.8668   -1.0912   23.4302 H   0  0  0  0  0
   12.6070   -0.9174   21.2219 H   0  0  0  0  0
   11.1072   -1.3977   22.0532 H   0  0  0  0  0
   11.8805    0.1590   22.4403 H   0  0  0  0  0
   14.9279   -3.3698   23.7101 H   0  0  0  0  0
   13.5000   -3.8746   24.6466 H   0  0  0  0  0
   13.9846   -4.7909   23.1986 H   0  0  0  0  0
    2.0547   -5.8804   18.6233 H   0  0  0  0  0
    1.6231   -4.2932   18.4403 H   0  0  0  0  0
    2.5455   -4.8164   16.1586 H   0  0  0  0  0
    3.8001   -5.7966   16.7966 H   0  0  0  0  0
    8.0689   -5.6345   21.3865 H   0  0  0  0  0
    9.2778   -4.5172   22.8007 H   0  0  0  0  0
   10.9023   -3.6885   23.7441 H   0  0  0  0  0
    3.6405   -2.7108   16.8596 H   0  0  0  0  0
    4.9786   -3.6578   16.3848 H   0  0  0  0  0
    5.6540   -4.0925   18.6800 H   0  0  0  0  0
    4.7406   -2.7000   19.0288 H   0  0  0  0  0
  2  1  4  0  0  0
 18  1  4  0  0  0
  1 23  1  0  0  0
  3  2  4  0  0  0
 16  3  4  0  0  0
  3 19  1  0  0  0
  4  5  4  0  0  0
  4  6  4  0  0  0
 29  4  1  0  0  0
  5 10  1  0  0  0
  5 25  4  0  0  0
  6 24  4  0  0  0
  7  9  4  0  0  0
 24  7  4  0  0  0
 25  7  4  0  0  0
  9  8  4  0  0  0
  8 26  4  0  0  0
  8 27  1  0  0  0
 10 11  1  0  0  0
 10 28  1  0  0  0
 23 12  1  0  0  0
 12 29  1  0  0  0
 12 30  2  0  0  0
 28 13  1  0  0  0
 14 15  1  0  0  0
 22 14  1  0  0  0
 15 31  1  0  0  0
 16 17  4  0  0  0
 20 16  1  0  0  0
 17 18  4  0  0  0
 20 21  2  0  0  0
 20 22  1  0  0  0
 22 32  1  0  0  0
 25 26  4  0  0  0
 31 32  1  0  0  0
  2 33  1  0  0  0
  6 34  1  0  0  0
  9 35  1  0  0  0
 10 36  1  0  0  0
 11 37  1  0  0  0
 11 38  1  0  0  0
 11 39  1  0  0  0
 13 40  1  0  0  0
 13 41  1  0  0  0
 13 42  1  0  0  0
 14 43  1  0  0  0
 14 44  1  0  0  0
 15 45  1  0  0  0
 15 46  1  0  0  0
 18 47  1  0  0  0
 23 48  1  0  0  0
 29 49  1  0  0  0
 31 50  1  0  0  0
 31 51  1  0  0  0
 32 52  1  0  0  0
 32 53  1  0  0  0
M  END
$$$$
