5dya_ligand
  -I-interpret- 

 28 29  0  0  0  0  0  0  0  0999 V2000
   14.7330    0.8080   -8.6240 O   0  0  0  0  0
   14.8090    1.3990   -7.5500 C   0  0  0  0  0
   13.6190    1.6970   -6.8760 N   0  0  0  0  0
   13.6250    2.3730   -5.6520 C   0  0  0  0  0
   12.4360    2.6280   -4.9810 C   0  0  0  0  0
   12.4660    3.3060   -3.7660 C   0  0  0  0  0
   11.2860    3.5770   -3.0830 C   0  0  0  0  0
   11.3230    4.2440   -2.0250 O   0  0  0  0  0
   10.1910    3.1780   -3.5360 O   0  0  0  0  0
   13.6770    3.7250   -3.2250 C   0  0  0  0  0
   14.8660    3.4680   -3.8980 C   0  0  0  0  0
   14.8320    2.7880   -5.1090 C   0  0  0  0  0
   16.0220    2.5350   -5.7910 N   0  0  0  0  0
   16.0690    1.7240   -7.0300 C   0  0  0  0  0
   16.8790    2.4610   -8.0960 C   0  0  0  0  0
   16.2230    3.8200   -8.3480 C   0  0  0  0  0
   12.7287    1.4151   -7.2863 H   0  0  0  0  0
   11.4862    2.2995   -5.4030 H   0  0  0  0  0
   12.2340    4.4677   -1.8208 H   0  0  0  0  0
   13.6938    4.2552   -2.2728 H   0  0  0  0  0
   15.8169    3.7972   -3.4791 H   0  0  0  0  0
   16.8912    2.9222   -5.4236 H   0  0  0  0  0
   16.5427    0.7815   -6.7555 H   0  0  0  0  0
   16.8982    1.8796   -9.0178 H   0  0  0  0  0
   17.9049    2.5998   -7.7549 H   0  0  0  0  0
   15.2003    3.6698   -8.6938 H   0  0  0  0  0
   16.2141    4.3950   -7.4220 H   0  0  0  0  0
   16.7889    4.3600   -9.1071 H   0  0  0  0  0
  1  2  2  0  0  0
  2  3  1  0  0  0
  2 14  1  0  0  0
  3  4  1  0  0  0
  4  5  4  0  0  0
  4 12  4  0  0  0
  5  6  4  0  0  0
  6  7  1  0  0  0
  6 10  4  0  0  0
  7  8  1  0  0  0
  7  9  2  0  0  0
 10 11  4  0  0  0
 11 12  4  0  0  0
 12 13  1  0  0  0
 13 14  1  0  0  0
 14 15  1  0  0  0
 15 16  1  0  0  0
  3 17  1  0  0  0
  5 18  1  0  0  0
  8 19  1  0  0  0
 10 20  1  0  0  0
 11 21  1  0  0  0
 13 22  1  0  0  0
 14 23  1  0  0  0
 15 24  1  0  0  0
 15 25  1  0  0  0
 16 26  1  0  0  0
 16 27  1  0  0  0
 16 28  1  0  0  0
M  END
$$$$
