4gts_ligand
  -I-interpret- 

 76 81  0  0  0  0  0  0  0  0999 V2000
    1.8770   17.8240   32.1160 C   0  0  0  0  0
    3.2840   17.3430   32.0180 O   0  0  0  0  0
    4.0980   18.1560   31.2360 C   0  0  0  0  0
    3.8360   19.5290   31.1940 C   0  0  0  0  0
    4.6140   20.3930   30.4220 C   0  0  0  0  0
    5.1760   17.6620   30.4690 C   0  0  0  0  0
    5.9600   18.5240   29.6800 C   0  0  0  0  0
    5.6760   19.9080   29.6450 C   0  0  0  0  0
    6.6140   21.0990   28.6760 S   0  0  0  0  0
    8.0230   20.5950   28.4810 O   0  0  0  0  0
    6.6950   22.4120   29.4100 O   0  0  0  0  0
    5.9390   21.4300   27.0730 N   0  0  0  0  0
    4.6170   22.1250   26.9970 C   0  0  0  0  0
    3.4660   21.3460   27.6500 C   0  0  0  0  0
    2.6910   22.1480   28.4850 C   0  0  0  0  0
    1.5850   21.6110   29.1670 C   0  0  0  0  0
    0.8750   22.4690   30.0270 C   0  0  0  0  0
    0.6010   23.7640   29.6880 O   0  0  0  0  0
    0.4390   22.2700   31.2840 C   0  0  0  0  0
   -0.1290   23.4040   31.7330 C   0  0  0  0  0
   -0.0200   24.3140   30.7600 C   0  0  0  0  0
   -0.5260   25.7640   30.7830 C   0  0  0  0  0
    0.2430   26.7270   30.8480 O   0  0  0  0  0
    1.2830   20.2460   29.0150 C   0  0  0  0  0
    2.0650   19.4430   28.1680 C   0  0  0  0  0
    3.1670   19.9990   27.4810 C   0  0  0  0  0
    3.8850   19.1780   26.6930 N   0  0  0  0  0
    3.8870   17.7090   26.9060 C   0  0  0  0  0
    2.7840   17.0550   26.0510 C   0  0  0  0  0
    1.7990   17.7190   25.4410 C   0  0  0  0  0
    1.0250   16.8410   24.8120 N   0  0  0  0  0
    1.5160   15.6180   25.0100 C   0  0  0  0  0
    2.5960   15.7490   25.7810 N   0  0  0  0  0
    3.4460   14.5720   26.2290 C   0  0  0  0  0
    4.7250   19.6930   25.5920 C   0  0  0  0  0
    6.0670   20.2940   26.1110 C   0  0  0  0  0
    6.9520   20.7200   24.9170 C   0  0  0  0  0
    6.6910   22.1600   24.4330 C   0  0  0  0  0
    7.3300   23.2260   25.0720 C   0  0  0  0  0
    7.1060   24.5260   24.6450 C   0  0  0  0  0
    6.2490   24.7760   23.5660 C   0  0  0  0  0
    6.0270   26.0630   23.1380 O   0  0  0  0  0
    5.6110   23.7010   22.9260 C   0  0  0  0  0
    5.8330   22.3900   23.3520 C   0  0  0  0  0
    1.8648   18.8198   32.5590 H   0  0  0  0  0
    1.4374   17.8629   31.1193 H   0  0  0  0  0
    1.3032   17.1398   32.7411 H   0  0  0  0  0
    3.0074   19.9326   31.7760 H   0  0  0  0  0
    4.3930   21.4604   30.4230 H   0  0  0  0  0
    5.4043   16.5964   30.4885 H   0  0  0  0  0
    6.7878   18.1235   29.0948 H   0  0  0  0  0
    4.3720   22.2410   25.9412 H   0  0  0  0  0
    4.7155   23.0685   27.5338 H   0  0  0  0  0
    2.9443   23.2007   28.6106 H   0  0  0  0  0
    0.5309   21.3412   31.8471 H   0  0  0  0  0
   -0.5919   23.5529   32.7085 H   0  0  0  0  0
   -1.5994   25.9485   30.7405 H   0  0  0  0  0
    0.4418   19.8108   29.5546 H   0  0  0  0  0
    1.8208   18.3884   28.0406 H   0  0  0  0  0
    3.6994   17.4976   27.9587 H   0  0  0  0  0
    4.8561   17.3042   26.6144 H   0  0  0  0  0
    1.6543   18.7992   25.4565 H   0  0  0  0  0
    1.1110   14.6860   24.6158 H   0  0  0  0  0
    4.4609   14.6934   25.8503 H   0  0  0  0  0
    3.4654   14.5332   27.3181 H   0  0  0  0  0
    3.0193   13.6480   25.8388 H   0  0  0  0  0
    4.1725   20.4830   25.0834 H   0  0  0  0  0
    4.9591   18.8628   24.9256 H   0  0  0  0  0
    6.5297   19.4890   26.6819 H   0  0  0  0  0
    6.7229   20.0513   24.0873 H   0  0  0  0  0
    7.9896   20.6708   25.2472 H   0  0  0  0  0
    8.0048   23.0354   25.9065 H   0  0  0  0  0
    7.5987   25.3563   25.1509 H   0  0  0  0  0
    5.4189   26.0516   22.3953 H   0  0  0  0  0
    4.9375   23.8915   22.0904 H   0  0  0  0  0
    5.3439   21.5560   22.8486 H   0  0  0  0  0
  1  2  1  0  0  0
  2  3  1  0  0  0
  3  4  4  0  0  0
  3  6  4  0  0  0
  4  5  4  0  0  0
  5  8  4  0  0  0
  6  7  4  0  0  0
  7  8  4  0  0  0
  8  9  1  0  0  0
  9 10  2  0  0  0
  9 11  2  0  0  0
  9 12  1  0  0  0
 12 13  1  0  0  0
 12 36  1  0  0  0
 13 14  1  0  0  0
 14 15  4  0  0  0
 14 26  4  0  0  0
 15 16  4  0  0  0
 16 17  1  0  0  0
 16 24  4  0  0  0
 17 18  4  0  0  0
 17 19  4  0  0  0
 18 21  4  0  0  0
 19 20  4  0  0  0
 20 21  4  0  0  0
 21 22  1  0  0  0
 22 23  2  0  0  0
 24 25  4  0  0  0
 25 26  4  0  0  0
 26 27  1  0  0  0
 27 28  1  0  0  0
 27 35  1  0  0  0
 28 29  1  0  0  0
 29 30  4  0  0  0
 29 33  4  0  0  0
 30 31  4  0  0  0
 31 32  4  0  0  0
 32 33  4  0  0  0
 33 34  1  0  0  0
 35 36  1  0  0  0
 36 37  1  0  0  0
 37 38  1  0  0  0
 38 39  4  0  0  0
 38 44  4  0  0  0
 39 40  4  0  0  0
 40 41  4  0  0  0
 41 42  1  0  0  0
 41 43  4  0  0  0
 43 44  4  0  0  0
  1 45  1  0  0  0
  1 46  1  0  0  0
  1 47  1  0  0  0
  4 48  1  0  0  0
  5 49  1  0  0  0
  6 50  1  0  0  0
  7 51  1  0  0  0
 13 52  1  0  0  0
 13 53  1  0  0  0
 15 54  1  0  0  0
 19 55  1  0  0  0
 20 56  1  0  0  0
 22 57  1  0  0  0
 24 58  1  0  0  0
 25 59  1  0  0  0
 28 60  1  0  0  0
 28 61  1  0  0  0
 30 62  1  0  0  0
 32 63  1  0  0  0
 34 64  1  0  0  0
 34 65  1  0  0  0
 34 66  1  0  0  0
 35 67  1  0  0  0
 35 68  1  0  0  0
 36 69  1  0  0  0
 37 70  1  0  0  0
 37 71  1  0  0  0
 39 72  1  0  0  0
 40 73  1  0  0  0
 42 74  1  0  0  0
 43 75  1  0  0  0
 44 76  1  0  0  0
M  END
$$$$
