6fa2_ligand
  -I-interpret- 

 64 67  0  0  0  0  0  0  0  0999 V2000
   78.1550   98.6130   17.5220 O   0  0  0  0  0
   77.6030   97.5970   17.8650 C   0  0  0  0  0
   78.3010   96.3020   17.6380 C   0  0  0  0  0
   79.3210   95.9190   18.4950 C   0  0  0  0  0
   79.9650   94.7090   18.2710 C   0  0  0  0  0
   79.6040   93.8970   17.1940 C   0  0  0  0  0
   80.1510   92.6790   16.9550 O   0  0  0  0  0
   79.2610   91.6000   17.3140 C   0  0  0  0  0
   79.8780   90.4480   18.0950 C   0  0  0  0  0
   81.2770   90.6810   18.5140 N   0  3  0  0  0
   81.3400   91.7020   19.5840 C   0  0  0  0  0
   82.2240   90.9440   17.3960 C   0  0  0  0  0
   78.5770   94.2810   16.3510 C   0  0  0  0  0
   77.9410   95.4910   16.5660 C   0  0  0  0  0
   76.4580   97.6620   18.4040 N   0  0  0  0  0
   75.4790   96.7100   18.9270 C   0  0  0  0  0
   74.2530   96.6130   17.9700 C   0  0  0  0  0
   74.5760   96.2940   16.5040 C   0  0  0  0  0
   73.3530   95.9050   15.8480 O   0  0  0  0  0
   72.2480   96.6790   16.0570 C   0  0  0  0  0
   71.1160   96.4990   15.2880 C   0  0  0  0  0
   70.0220   97.3190   15.5230 C   0  0  0  0  0
   73.4320   97.7780   17.8180 O   0  0  0  0  0
   72.2940   97.6530   17.0550 C   0  0  0  0  0
   71.2160   98.4820   17.2890 C   0  0  0  0  0
   70.0730   98.3010   16.5210 C   0  0  0  0  0
   71.2810   99.5070   18.3720 C   0  0  0  0  0
   71.7920   99.0960   19.5930 N   0  0  0  0  0
   71.9000   99.9470   20.6570 C   0  0  0  0  0
   72.4500   99.4140   21.8120 O   0  0  0  0  0
   73.2830  100.1740   22.7060 C   0  0  0  0  0
   71.4430  101.2950   20.5170 C   0  0  0  0  0
   70.8960  101.7330   19.2840 C   0  0  0  0  0
   70.8180  100.8360   18.1900 C   0  0  0  0  0
   79.6125   96.5562   19.3299 H   0  0  0  0  0
   80.7612   94.3897   18.9435 H   0  0  0  0  0
   78.9058   91.1745   16.3754 H   0  0  0  0  0
   78.5026   92.0358   17.9644 H   0  0  0  0  0
   79.8794   89.5782   17.4381 H   0  0  0  0  0
   79.2872   90.3213   19.0022 H   0  0  0  0  0
   81.6098   89.7983   18.9020 H   0  0  0  0  0
   80.9214   92.6386   19.2158 H   0  0  0  0  0
   80.7662   91.3598   20.4452 H   0  0  0  0  0
   82.3787   91.8567   19.8761 H   0  0  0  0  0
   82.2343   90.0880   16.7213 H   0  0  0  0  0
   81.9044   91.8330   16.8523 H   0  0  0  0  0
   83.2244   91.1029   17.7987 H   0  0  0  0  0
   78.2718   93.6373   15.5260 H   0  0  0  0  0
   77.1498   95.8122   15.8886 H   0  0  0  0  0
   76.1368   98.6257   18.4969 H   0  0  0  0  0
   75.1401   97.0500   19.9056 H   0  0  0  0  0
   75.9457   95.7283   19.0076 H   0  0  0  0  0
   73.7438   95.8124   18.5066 H   0  0  0  0  0
   75.3048   95.4854   16.4482 H   0  0  0  0  0
   75.0015   97.1702   16.0147 H   0  0  0  0  0
   71.0825   95.7313   14.5149 H   0  0  0  0  0
   69.1170   97.1986   14.9275 H   0  0  0  0  0
   69.2023   98.9326   16.6974 H   0  0  0  0  0
   74.1633  100.5267   22.1687 H   0  0  0  0  0
   72.7217  101.0275   23.0862 H   0  0  0  0  0
   73.5928   99.5415   23.5379 H   0  0  0  0  0
   71.5151  101.9853   21.3575 H   0  0  0  0  0
   70.5367  102.7566   19.1783 H   0  0  0  0  0
   70.4120  101.1591   17.2314 H   0  0  0  0  0
  1  2  2  0  0  0
  2  3  1  0  0  0
  2 15  1  0  0  0
  3  4  4  0  0  0
  3 14  4  0  0  0
  4  5  4  0  0  0
  5  6  4  0  0  0
  6  7  1  0  0  0
  6 13  4  0  0  0
  7  8  1  0  0  0
  8  9  1  0  0  0
  9 10  1  0  0  0
 10 11  1  0  0  0
 10 12  1  0  0  0
 13 14  4  0  0  0
 15 16  1  0  0  0
 16 17  1  0  0  0
 17 18  1  0  0  0
 17 23  1  0  0  0
 18 19  1  0  0  0
 19 20  1  0  0  0
 20 21  4  0  0  0
 20 24  4  0  0  0
 21 22  4  0  0  0
 22 26  4  0  0  0
 23 24  1  0  0  0
 24 25  4  0  0  0
 25 26  4  0  0  0
 25 27  1  0  0  0
 27 28  4  0  0  0
 27 34  4  0  0  0
 28 29  4  0  0  0
 29 30  1  0  0  0
 29 32  4  0  0  0
 30 31  1  0  0  0
 32 33  4  0  0  0
 33 34  4  0  0  0
  4 35  1  0  0  0
  5 36  1  0  0  0
  8 37  1  0  0  0
  8 38  1  0  0  0
  9 39  1  0  0  0
  9 40  1  0  0  0
 10 41  1  0  0  0
 11 42  1  0  0  0
 11 43  1  0  0  0
 11 44  1  0  0  0
 12 45  1  0  0  0
 12 46  1  0  0  0
 12 47  1  0  0  0
 13 48  1  0  0  0
 14 49  1  0  0  0
 15 50  1  0  0  0
 16 51  1  0  0  0
 16 52  1  0  0  0
 17 53  1  0  0  0
 18 54  1  0  0  0
 18 55  1  0  0  0
 21 56  1  0  0  0
 22 57  1  0  0  0
 26 58  1  0  0  0
 31 59  1  0  0  0
 31 60  1  0  0  0
 31 61  1  0  0  0
 32 62  1  0  0  0
 33 63  1  0  0  0
 34 64  1  0  0  0
M  END
$$$$
