### 
### Created by X-TOOL on Mon Sep 10 21:12:57 2018
### 

@<TRIPOS>MOLECULE
3cwe_ligand
   46    48     1     0     0
SMALL
GAST_HUCK


@<TRIPOS>ATOM
      1 O57        25.9240   25.6070   -1.1750 O.2       1 825        -0.3750
      2 C56        24.7520   25.2270   -1.1720 C.2       1 825         0.1499
      3 C55        23.6780   26.0580   -1.8370 C.ar      1 825         0.0351
      4 C62        22.3520   25.6170   -1.8830 C.ar      1 825        -0.0429
      5 C61        21.3750   26.4110   -2.4930 C.ar      1 825        -0.0559
      6 C60        21.7310   27.6400   -3.0410 C.ar      1 825        -0.0572
      7 C59        23.0410   28.0870   -3.0060 C.ar      1 825        -0.0559
      8 C58        24.0170   27.2970   -2.3960 C.ar      1 825        -0.0429
      9 C20        24.4050   23.9120   -0.5330 C.3       1 825         0.0812
     10 C4         24.5770   22.8060   -1.5290 C.ar      1 825        -0.0201
     11 C3         23.4550   22.0810   -1.9470 C.ar      1 825        -0.0575
     12 C2         23.5840   21.0410   -2.8760 C.ar      1 825        -0.0681
     13 C5         25.8500   22.5050   -2.0550 C.ar      1 825        -0.0575
     14 C6         25.9790   21.4630   -2.9810 C.ar      1 825        -0.0681
     15 C1         24.8520   20.7370   -3.3850 C.ar      1 825        -0.0684
     16 C44        25.2720   23.7090    0.7360 C.3       1 825         0.0243
     17 C36        24.7680   22.5300    1.5390 C.ar      1 825        -0.0043
     18 C37        25.3050   21.2450    1.3140 C.ar      1 825        -0.0184
     19 C38        24.8550   20.1410    2.0210 C.ar      1 825         0.0371
     20 BR1        25.5940   18.5180    1.6320 Br        1 825        -0.0259
     21 C39        23.8120   20.3580    3.0760 C.ar      1 825         0.0302
     22 C40        23.2880   21.6520    3.2650 C.ar      1 825        -0.0365
     23 C35        23.7830   22.7190    2.5130 C.ar      1 825        -0.0255
     24 C45        23.1990   19.2440    3.8870 C.3       1 825         0.2938
     25 F46        23.1450   18.1350    3.1500 F         1 825        -0.2414
     26 F47        21.9310   19.6050    4.1080 F         1 825        -0.2414
     27 P48        23.9550   18.8920    5.5260 P.3       1 825         0.0971
     28 O49        23.9090   20.2060    6.2500 O.co2     1 825        -0.5667
     29 O50        25.3530   18.4060    5.2760 O.co2     1 825        -0.5667
     30 O51        23.0390   17.8140    6.0620 O.co2     1 825        -0.5667
     31 H1         22.0816   24.6621   -1.4470 H         1 825         0.0672
     32 H2         20.3467   26.0711   -2.5386 H         1 825         0.0630
     33 H3         20.9695   28.2578   -3.5031 H         1 825         0.0655
     34 H4         23.3060   29.0407   -3.4478 H         1 825         0.0630
     35 H5         25.0430   27.6443   -2.3546 H         1 825         0.0672
     36 H6         23.3488   23.9356   -0.2266 H         1 825         0.0709
     37 H7         22.4775   22.3267   -1.5481 H         1 825         0.0561
     38 H8         22.7140   20.4793   -3.1964 H         1 825         0.0600
     39 H9         26.7192   23.0741   -1.7458 H         1 825         0.0561
     40 H10        26.9540   21.2176   -3.3863 H         1 825         0.0600
     41 H11        24.9627   19.9301   -4.1003 H         1 825         0.0562
     42 H12        25.2241   24.6163    1.3561 H         1 825         0.0548
     43 H13        26.3142   23.5240    0.4366 H         1 825         0.0548
     44 H14        26.0858   21.1184    0.5728 H         1 825         0.0683
     45 H15        22.5021   21.8188    3.9928 H         1 825         0.0845
     46 H16        23.3951   23.7160    2.6881 H         1 825         0.0672
@<TRIPOS>BOND
     1    1    2 2  
     2    2    3 1  
     3    2    9 1  
     4    3    4 ar 
     5    3    8 ar 
     6    4    5 ar 
     7    5    6 ar 
     8    6    7 ar 
     9    7    8 ar 
    10    9   10 1  
    11    9   16 1  
    12   10   11 ar 
    13   10   13 ar 
    14   11   12 ar 
    15   12   15 ar 
    16   13   14 ar 
    17   14   15 ar 
    18   16   17 1  
    19   17   18 ar 
    20   17   23 ar 
    21   18   19 ar 
    22   19   20 1  
    23   19   21 ar 
    24   21   22 ar 
    25   21   24 1  
    26   22   23 ar 
    27   24   25 1  
    28   24   26 1  
    29   24   27 1  
    30   27   28 ar 
    31   27   29 ar 
    32   27   30 ar 
    33    4   31 1  
    34    5   32 1  
    35    6   33 1  
    36    7   34 1  
    37    8   35 1  
    38    9   36 1  
    39   11   37 1  
    40   12   38 1  
    41   13   39 1  
    42   14   40 1  
    43   15   41 1  
    44   16   42 1  
    45   16   43 1  
    46   18   44 1  
    47   22   45 1  
    48   23   46 1  
@<TRIPOS>SUBSTRUCTURE
     1 825         1

