3cwe_ligand
  -I-interpret- 

 48 50  0  0  0  0  0  0  0  0999 V2000
   25.9240   25.6070   -1.1750 O   0  0  0  0  0
   24.7520   25.2270   -1.1720 C   0  0  0  0  0
   23.6780   26.0580   -1.8370 C   0  0  0  0  0
   22.3520   25.6170   -1.8830 C   0  0  0  0  0
   21.3750   26.4110   -2.4930 C   0  0  0  0  0
   21.7310   27.6400   -3.0410 C   0  0  0  0  0
   23.0410   28.0870   -3.0060 C   0  0  0  0  0
   24.0170   27.2970   -2.3960 C   0  0  0  0  0
   24.4050   23.9120   -0.5330 C   0  0  0  0  0
   24.5770   22.8060   -1.5290 C   0  0  0  0  0
   23.4550   22.0810   -1.9470 C   0  0  0  0  0
   23.5840   21.0410   -2.8760 C   0  0  0  0  0
   25.8500   22.5050   -2.0550 C   0  0  0  0  0
   25.9790   21.4630   -2.9810 C   0  0  0  0  0
   24.8520   20.7370   -3.3850 C   0  0  0  0  0
   25.2720   23.7090    0.7360 C   0  0  0  0  0
   24.7680   22.5300    1.5390 C   0  0  0  0  0
   25.3050   21.2450    1.3140 C   0  0  0  0  0
   24.8550   20.1410    2.0210 C   0  0  0  0  0
   25.5940   18.5180    1.6320 Br  0  0  0  0  0
   23.8120   20.3580    3.0760 C   0  0  0  0  0
   23.2880   21.6520    3.2650 C   0  0  0  0  0
   23.7830   22.7190    2.5130 C   0  0  0  0  0
   23.1990   19.2440    3.8870 C   0  0  0  0  0
   23.1450   18.1350    3.1500 F   0  0  0  0  0
   21.9310   19.6050    4.1080 F   0  0  0  0  0
   23.9550   18.8920    5.5260 P   0  0  0  0  0
   23.9090   20.2060    6.2500 O   0  0  0  0  0
   25.3530   18.4060    5.2760 O   0  0  0  0  0
   23.0390   17.8140    6.0620 O   0  0  0  0  0
   22.0801   24.6568   -1.4446 H   0  0  0  0  0
   20.3410   26.0692   -2.5389 H   0  0  0  0  0
   20.9653   28.2612   -3.5057 H   0  0  0  0  0
   23.3075   29.0460   -3.4502 H   0  0  0  0  0
   25.0487   27.6462   -2.3544 H   0  0  0  0  0
   23.3610   23.9051   -0.2199 H   0  0  0  0  0
   22.4721   22.3281   -1.5459 H   0  0  0  0  0
   22.7092   20.4762   -3.1982 H   0  0  0  0  0
   26.7241   23.0773   -1.7441 H   0  0  0  0  0
   26.9594   21.2162   -3.3885 H   0  0  0  0  0
   24.9633   19.9256   -4.1043 H   0  0  0  0  0
   25.2149   24.6069    1.3513 H   0  0  0  0  0
   26.3018   23.5178    0.4344 H   0  0  0  0  0
   26.0901   21.1177    0.5687 H   0  0  0  0  0
   22.4978   21.8197    3.9968 H   0  0  0  0  0
   23.3930   23.7215    2.6891 H   0  0  0  0  0
   25.3205   17.5660    4.8124 H   0  0  0  0  0
   23.1411   17.0179    5.5354 H   0  0  0  0  0
  1  2  2  0  0  0
  2  3  1  0  0  0
  2  9  1  0  0  0
  3  4  4  0  0  0
  3  8  4  0  0  0
  4  5  4  0  0  0
  5  6  4  0  0  0
  6  7  4  0  0  0
  7  8  4  0  0  0
  9 10  1  0  0  0
  9 16  1  0  0  0
 10 11  4  0  0  0
 10 13  4  0  0  0
 11 12  4  0  0  0
 12 15  4  0  0  0
 13 14  4  0  0  0
 14 15  4  0  0  0
 16 17  1  0  0  0
 17 18  4  0  0  0
 17 23  4  0  0  0
 18 19  4  0  0  0
 19 20  1  0  0  0
 19 21  4  0  0  0
 21 22  4  0  0  0
 21 24  1  0  0  0
 22 23  4  0  0  0
 24 25  1  0  0  0
 24 26  1  0  0  0
 24 27  1  0  0  0
 27 28  2  0  0  0
 27 29  1  0  0  0
 27 30  1  0  0  0
  4 31  1  0  0  0
  5 32  1  0  0  0
  6 33  1  0  0  0
  7 34  1  0  0  0
  8 35  1  0  0  0
  9 36  1  0  0  0
 11 37  1  0  0  0
 12 38  1  0  0  0
 13 39  1  0  0  0
 14 40  1  0  0  0
 15 41  1  0  0  0
 16 42  1  0  0  0
 16 43  1  0  0  0
 18 44  1  0  0  0
 22 45  1  0  0  0
 23 46  1  0  0  0
 29 47  1  0  0  0
 30 48  1  0  0  0
M  END
$$$$
