4ran_ligand
  -I-interpret- 

 43 44  0  0  0  0  0  0  0  0999 V2000
  -17.1840  -15.3870   26.2700 N   0  0  0  0  0
  -17.7580  -15.0720   25.1840 C   0  0  0  0  0
  -18.4380  -14.7060   23.9090 C   0  0  0  0  0
  -17.6950  -14.7200   22.6380 C   0  0  0  0  0
  -17.2710  -15.9590   22.0500 N   0  3  0  0  0
  -18.3060  -16.9790   22.2480 C   0  0  0  0  0
  -18.1240  -18.1480   21.2410 C   0  0  0  0  0
  -18.1270  -19.7800   22.1050 P   0  0  0  0  0
  -19.1090  -20.7490   21.3760 O   0  0  0  0  0
  -18.5920  -19.6250   23.6250 O   0  0  0  0  0
  -16.7340  -20.3490   22.0600 O   0  0  0  0  0
  -17.0390  -15.7300   20.6120 C   0  0  0  0  0
  -15.5990  -15.3120   20.4260 C   0  0  0  0  0
  -15.1450  -15.6150   19.0850 N   0  0  0  0  0
  -14.9890  -14.6880   18.0860 C   0  0  0  0  0
  -15.1970  -13.3730   18.0580 N   0  0  0  0  0
  -14.9720  -12.6920   16.9470 C   0  0  0  0  0
  -15.1930  -11.2880   16.9160 N   0  0  0  0  0
  -14.5210  -13.3320   15.8250 N   0  0  0  0  0
  -14.2950  -14.6480   15.7870 C   0  0  0  0  0
  -13.8380  -15.2570   14.6140 O   0  0  0  0  0
  -14.5300  -15.3890   16.9560 C   0  0  0  0  0
  -14.4220  -16.7400   17.3350 N   0  0  0  0  0
  -14.7980  -16.8700   18.6400 C   0  0  0  0  0
  -18.7203  -13.6619   24.0444 H   0  0  0  0  0
  -19.2030  -15.4721   23.7822 H   0  0  0  0  0
  -16.7641  -14.2016   22.8677 H   0  0  0  0  0
  -18.3978  -14.3080   21.9138 H   0  0  0  0  0
  -16.4111  -16.2881   22.4889 H   0  0  0  0  0
  -19.2838  -16.5248   22.0879 H   0  0  0  0  0
  -18.2251  -17.3712   23.2618 H   0  0  0  0  0
  -17.1671  -18.0246   20.7338 H   0  0  0  0  0
  -18.9514  -18.1283   20.5317 H   0  0  0  0  0
  -19.9968  -20.3849   21.4055 H   0  0  0  0  0
  -19.4804  -19.2621   23.6513 H   0  0  0  0  0
  -17.7058  -14.9498   20.2447 H   0  0  0  0  0
  -17.2396  -16.6424   20.0504 H   0  0  0  0  0
  -14.9799  -15.8573   21.1384 H   0  0  0  0  0
  -15.5211  -14.2371   20.5890 H   0  0  0  0  0
  -15.5253  -10.8055   17.7510 H   0  0  0  0  0
  -15.0193  -10.7632   16.0588 H   0  0  0  0  0
  -14.3504  -12.7818   14.9832 H   0  0  0  0  0
  -14.8195  -17.7927   19.2199 H   0  0  0  0  0
  1  2  3  0  0  0
  2  3  1  0  0  0
  3  4  1  0  0  0
  4  5  1  0  0  0
  5  6  1  0  0  0
  5 12  1  0  0  0
  6  7  1  0  0  0
  7  8  1  0  0  0
  8  9  1  0  0  0
  8 10  1  0  0  0
  8 11  2  0  0  0
 12 13  1  0  0  0
 13 14  1  0  0  0
 14 15  4  0  0  0
 14 24  4  0  0  0
 15 16  1  0  0  0
 15 22  4  0  0  0
 16 17  2  0  0  0
 17 18  1  0  0  0
 17 19  1  0  0  0
 19 20  1  0  0  0
 20 21  2  0  0  0
 20 22  1  0  0  0
 22 23  4  0  0  0
 23 24  4  0  0  0
  3 25  1  0  0  0
  3 26  1  0  0  0
  4 27  1  0  0  0
  4 28  1  0  0  0
  5 29  1  0  0  0
  6 30  1  0  0  0
  6 31  1  0  0  0
  7 32  1  0  0  0
  7 33  1  0  0  0
  9 34  1  0  0  0
 10 35  1  0  0  0
 12 36  1  0  0  0
 12 37  1  0  0  0
 13 38  1  0  0  0
 13 39  1  0  0  0
 18 40  1  0  0  0
 18 41  1  0  0  0
 19 42  1  0  0  0
 24 43  1  0  0  0
M  END
$$$$
