### 
### Created by X-TOOL on Mon Sep 10 21:13:24 2018
### 

@<TRIPOS>MOLECULE
4ran_ligand
   41    42     1     0     0
SMALL
GAST_HUCK


@<TRIPOS>ATOM
      1 NAA       -17.1840  -15.3870   26.2700 N.1       1 3L6        -0.3034
      2 CAG       -17.7580  -15.0720   25.1840 C.1       1 3L6         0.0951
      3 CAI       -18.4380  -14.7060   23.9090 C.3       1 3L6         0.1124
      4 CAJ       -17.6950  -14.7200   22.6380 C.3       1 3L6        -0.0076
      5 NAV       -17.2710  -15.9590   22.0500 N.4       1 3L6         0.2397
      6 CAL       -18.3060  -16.9790   22.2480 C.3       1 3L6        -0.0164
      7 CAN       -18.1240  -18.1480   21.2410 C.3       1 3L6         0.0596
      8 PAX       -18.1270  -19.7800   22.1050 P.3       1 3L6         0.0628
      9 OAD       -19.1090  -20.7490   21.3760 O.co2     1 3L6        -0.5621
     10 OAF       -18.5920  -19.6250   23.6250 O.co2     1 3L6        -0.5621
     11 OAE       -16.7340  -20.3490   22.0600 O.co2     1 3L6        -0.5621
     12 CAK       -17.0390  -15.7300   20.6120 C.3       1 3L6        -0.0035
     13 CAM       -15.5990  -15.3120   20.4260 C.3       1 3L6         0.0981
     14 N9        -15.1450  -15.6150   19.0850 N.pl3     1 3L6        -0.2340
     15 C4        -14.9890  -14.6880   18.0860 C.2       1 3L6         0.1136
     16 N3        -15.1970  -13.3730   18.0580 N.2       1 3L6        -0.2765
     17 C2        -14.9720  -12.6920   16.9470 C.2       1 3L6         0.2340
     18 N2        -15.1930  -11.2880   16.9160 N.pl3     1 3L6        -0.2807
     19 N1        -14.5210  -13.3320   15.8250 N.am      1 3L6        -0.1839
     20 C6        -14.2950  -14.6480   15.7870 C.2       1 3L6         0.2135
     21 O6        -13.8380  -15.2570   14.6140 O.2       1 3L6        -0.4091
     22 C5        -14.5300  -15.3890   16.9560 C.2       1 3L6         0.0925
     23 N7        -14.4220  -16.7400   17.3350 N.2       1 3L6        -0.3236
     24 C8        -14.7980  -16.8700   18.6400 C.2       1 3L6         0.0934
     25 H1        -18.8226  -13.6836   24.0385 H         1 3L6         0.0610
     26 H2        -19.2809  -15.4025   23.7895 H         1 3L6         0.0610
     27 H3        -16.7862  -14.1215   22.7988 H         1 3L6         0.0835
     28 H4        -18.3350  -14.2224   21.8945 H         1 3L6         0.0835
     29 H5        -16.4149  -16.2660   22.4846 H         1 3L6         0.2036
     30 H6        -19.2957  -16.5233   22.0973 H         1 3L6         0.0828
     31 H7        -18.2352  -17.3712   23.2733 H         1 3L6         0.0828
     32 H8        -17.1663  -18.0224   20.7147 H         1 3L6         0.0504
     33 H9        -18.9482  -18.1260   20.5129 H         1 3L6         0.0504
     34 H10       -17.7071  -14.9351   20.2491 H         1 3L6         0.0842
     35 H11       -17.2330  -16.6564   20.0515 H         1 3L6         0.0842
     36 H12       -14.9705  -15.8513   21.1500 H         1 3L6         0.0669
     37 H13       -15.5123  -14.2293   20.6001 H         1 3L6         0.0669
     38 H14       -15.5325  -10.8014   17.7579 H         1 3L6         0.1897
     39 H15       -15.0136  -10.7574   16.0516 H         1 3L6         0.1897
     40 H16       -14.3537  -12.7926   14.9997 H         1 3L6         0.2515
     41 H17       -14.8194  -17.7918   19.2194 H         1 3L6         0.1178
@<TRIPOS>BOND
     1    1    2 3  
     2    2    3 1  
     3    3    4 1  
     4    4    5 1  
     5    5    6 1  
     6    5   12 1  
     7    6    7 1  
     8    7    8 1  
     9    8    9 ar 
    10    8   10 ar 
    11    8   11 ar 
    12   12   13 1  
    13   13   14 1  
    14   14   15 1  
    15   14   24 1  
    16   15   16 1  
    17   15   22 2  
    18   16   17 2  
    19   17   18 1  
    20   17   19 am 
    21   19   20 am 
    22   20   21 2  
    23   20   22 1  
    24   22   23 1  
    25   23   24 2  
    26    3   25 1  
    27    3   26 1  
    28    4   27 1  
    29    4   28 1  
    30    5   29 1  
    31    6   30 1  
    32    6   31 1  
    33    7   32 1  
    34    7   33 1  
    35   12   34 1  
    36   12   35 1  
    37   13   36 1  
    38   13   37 1  
    39   18   38 1  
    40   18   39 1  
    41   19   40 1  
    42   24   41 1  
@<TRIPOS>SUBSTRUCTURE
     1 3L6         1

