1tqf_ligand
  -I-interpret- 

 75 77  0  0  0  0  0  0  0  0999 V2000
   29.1450   47.9380   -1.4330 C   0  0  0  0  0
   29.6830   48.6860   -0.3040 C   0  0  0  0  0
   28.9440   48.9120    0.9340 C   0  0  0  0  0
   27.6110   48.3430    1.0500 C   0  0  0  0  0
   27.0730   47.5700   -0.0740 C   0  0  0  0  0
   27.8150   47.3690   -1.3180 C   0  0  0  0  0
   25.7840   45.3610    0.8680 S   0  0  0  0  0
   26.8070   44.5430   -0.0520 O   0  0  0  0  0
   24.4800   44.7680    0.7460 O   0  0  0  0  0
   26.3500   45.5060    2.1580 O   0  0  0  0  0
   25.7000   46.9510    0.0570 C   0  0  0  0  0
   27.9080   43.9220    0.5350 C   0  0  0  0  0
   27.9110   42.4880    0.5710 C   0  0  0  0  0
   29.0410   41.7640    1.0760 C   0  0  0  0  0
   30.1700   42.5090    1.5700 C   0  0  0  0  0
   30.1950   43.9430    1.5680 C   0  0  0  0  0
   29.0560   44.6430    1.0390 C   0  0  0  0  0
   28.9570   40.3800    0.9750 O   0  0  0  0  0
   31.3560   44.7110    2.0600 C   0  0  0  0  0
   29.8550   39.4890    1.6800 C   0  0  0  0  0
   31.2210   39.4660    1.0150 C   0  0  0  0  0
   32.1790   38.9480    1.8100 N   0  0  0  0  0
   31.3680   39.8700   -0.1400 O   0  0  0  0  0
   32.0960   44.1180    3.0160 N   0  0  0  0  0
   31.6650   45.8270    1.6380 O   0  0  0  0  0
   33.1220   44.8870    3.7140 C   0  0  0  0  0
   34.3680   44.0050    3.8410 C   0  0  0  0  0
   34.6720   41.2220    0.1430 C   0  0  0  0  0
   34.3900   41.0360    1.6310 C   0  0  0  0  0
   34.5560   39.5900    2.0620 C   0  0  0  0  0
   33.5440   38.6830    1.3730 C   0  0  0  0  0
   34.7350   42.7940   -1.7160 N   0  3  0  0  0
   34.4590   42.6720   -0.2750 C   0  0  0  0  0
   32.2830   44.4750    6.1330 C   0  0  0  0  0
   32.6680   45.3850    5.0380 C   0  0  0  0  0
   32.6390   46.8350    5.1450 C   0  0  0  0  0
   32.2320   47.4130    6.3880 C   0  0  0  0  0
   31.9080   46.5040    7.4680 C   0  0  0  0  0
   31.9150   45.0580    7.3940 C   0  0  0  0  0
   31.5670   47.0590    8.6200 F   0  0  0  0  0
   29.7290   47.8087   -2.3442 H   0  0  0  0  0
   30.6887   49.0977   -0.3885 H   0  0  0  0  0
   29.3790   49.4910    1.7486 H   0  0  0  0  0
   27.0224   48.4884    1.9558 H   0  0  0  0  0
   27.3783   46.8038   -2.1414 H   0  0  0  0  0
   25.2842   46.8114   -0.9409 H   0  0  0  0  0
   25.0746   47.6142    0.6546 H   0  0  0  0  0
   27.0409   41.9403    0.2089 H   0  0  0  0  0
   31.0322   41.9663    1.9574 H   0  0  0  0  0
   29.0577   45.7328    1.0175 H   0  0  0  0  0
   29.4378   38.4822    1.6625 H   0  0  0  0  0
   29.9682   39.8417    2.7051 H   0  0  0  0  0
   31.9337   38.7284    2.7754 H   0  0  0  0  0
   31.9407   43.1377    3.2510 H   0  0  0  0  0
   33.3495   45.7822    3.1353 H   0  0  0  0  0
   34.1196   43.1067    4.4062 H   0  0  0  0  0
   34.7166   43.7255    2.8468 H   0  0  0  0  0
   35.1512   44.5574    4.3601 H   0  0  0  0  0
   33.9888   40.5901   -0.4245 H   0  0  0  0  0
   35.7090   40.9497   -0.0535 H   0  0  0  0  0
   33.3593   41.3339    1.8234 H   0  0  0  0  0
   35.1001   41.6436    2.1920 H   0  0  0  0  0
   34.3970   39.5299    3.1387 H   0  0  0  0  0
   35.5582   39.2606    1.7877 H   0  0  0  0  0
   33.5983   38.8681    0.3002 H   0  0  0  0  0
   33.7865   37.6509    1.6261 H   0  0  0  0  0
   34.5954   43.7616   -2.0070 H   0  0  0  0  0
   35.6994   42.5179   -1.9008 H   0  0  0  0  0
   34.1008   42.1867   -2.2350 H   0  0  0  0  0
   35.1305   43.3214    0.2866 H   0  0  0  0  0
   33.4308   42.9693   -0.0687 H   0  0  0  0  0
   32.2777   43.3944    5.9903 H   0  0  0  0  0
   32.9199   47.4643    4.3005 H   0  0  0  0  0
   32.1682   48.4934    6.5174 H   0  0  0  0  0
   31.6536   44.4410    8.2537 H   0  0  0  0  0
  1  2  4  0  0  0
  6  1  4  0  0  0
  3  2  4  0  0  0
  4  3  4  0  0  0
  5  4  4  0  0  0
  5  6  4  0  0  0
 11  5  1  0  0  0
  8  7  1  0  0  0
  7  9  2  0  0  0
  7 10  2  0  0  0
  7 11  1  0  0  0
 12  8  1  0  0  0
 13 12  4  0  0  0
 12 17  4  0  0  0
 14 13  4  0  0  0
 14 15  4  0  0  0
 18 14  1  0  0  0
 15 16  4  0  0  0
 16 17  4  0  0  0
 16 19  1  0  0  0
 20 18  1  0  0  0
 19 24  1  0  0  0
 19 25  2  0  0  0
 21 20  1  0  0  0
 22 21  1  0  0  0
 21 23  2  0  0  0
 31 22  1  0  0  0
 24 26  1  0  0  0
 26 27  1  0  0  0
 26 35  1  0  0  0
 29 28  1  0  0  0
 28 33  1  0  0  0
 30 29  1  0  0  0
 30 31  1  0  0  0
 33 32  1  0  0  0
 35 34  4  0  0  0
 34 39  4  0  0  0
 35 36  4  0  0  0
 36 37  4  0  0  0
 37 38  4  0  0  0
 38 39  4  0  0  0
 38 40  1  0  0  0
  1 41  1  0  0  0
  2 42  1  0  0  0
  3 43  1  0  0  0
  4 44  1  0  0  0
  6 45  1  0  0  0
 11 46  1  0  0  0
 11 47  1  0  0  0
 13 48  1  0  0  0
 15 49  1  0  0  0
 17 50  1  0  0  0
 20 51  1  0  0  0
 20 52  1  0  0  0
 22 53  1  0  0  0
 24 54  1  0  0  0
 26 55  1  0  0  0
 27 56  1  0  0  0
 27 57  1  0  0  0
 27 58  1  0  0  0
 28 59  1  0  0  0
 28 60  1  0  0  0
 29 61  1  0  0  0
 29 62  1  0  0  0
 30 63  1  0  0  0
 30 64  1  0  0  0
 31 65  1  0  0  0
 31 66  1  0  0  0
 32 67  1  0  0  0
 32 68  1  0  0  0
 32 69  1  0  0  0
 33 70  1  0  0  0
 33 71  1  0  0  0
 34 72  1  0  0  0
 36 73  1  0  0  0
 37 74  1  0  0  0
 39 75  1  0  0  0
M  END
$$$$
