4el0_ligand
  -I-interpret- 

 46 48  0  0  0  0  0  0  0  0999 V2000
   34.1150   23.5090   28.8320 N   0  0  0  0  0
   33.4930   24.1610   29.8630 C   0  0  0  0  0
   32.2660   24.2820   29.9480 O   0  0  0  0  0
   34.2580   24.7410   30.8480 N   0  0  0  0  0
   35.5710   24.2100   30.9890 C   0  0  0  0  0
   36.2260   23.8810   29.7780 C   0  0  0  0  0
   36.3880   25.1840   31.5140 O   0  0  0  0  0
   35.5310   23.3600   28.7730 C   0  0  0  0  0
   37.5340   23.9080   30.0980 C   0  0  0  0  0
   37.5890   24.5380   31.2840 C   0  0  0  0  0
   38.9010   24.8720   31.9550 C   0  0  0  0  0
   33.2510   22.9110   27.7980 C   0  0  0  0  0
   39.5960   23.6930   32.6340 C   0  0  0  0  0
   41.0530   24.1780   32.9320 C   0  0  0  0  0
   33.7420   23.1320   26.3880 C   0  0  0  0  0
   34.0300   24.5130   26.1740 O   0  0  0  0  0
   32.6530   22.5410   25.4430 C   0  0  0  0  0
   33.0610   22.6080   24.1280 O   0  0  0  0  0
   32.3800   21.0800   25.8260 C   0  0  0  0  0
   31.2260   20.6490   25.0680 O   0  0  0  0  0
   32.1410   20.9210   27.4000 C   0  0  0  0  0
   33.2190   21.4700   28.1290 O   0  0  0  0  0
   32.1570   19.4740   27.8990 C   0  0  0  0  0
   33.1850   18.6820   27.2410 O   0  0  0  0  0
   33.9091   25.4981   31.4358 H   0  0  0  0  0
   35.4293   23.3142   31.5936 H   0  0  0  0  0
   36.0188   22.8449   27.9455 H   0  0  0  0  0
   38.3668   23.5063   29.5207 H   0  0  0  0  0
   38.6794   25.5994   32.7359 H   0  0  0  0  0
   39.5732   25.2267   31.1737 H   0  0  0  0  0
   32.2663   23.3784   27.8079 H   0  0  0  0  0
   39.5931   22.8084   31.9972 H   0  0  0  0  0
   39.0795   23.3985   33.5476 H   0  0  0  0  0
   41.5445   24.4441   31.9962 H   0  0  0  0  0
   41.0179   25.0493   33.5860 H   0  0  0  0  0
   41.6083   23.3774   33.4207 H   0  0  0  0  0
   34.6851   22.6249   26.1841 H   0  0  0  0  0
   34.3408   24.6382   25.2744 H   0  0  0  0  0
   31.7402   23.1265   25.5525 H   0  0  0  0  0
   32.3778   22.2398   23.5630 H   0  0  0  0  0
   33.2433   20.4578   25.5902 H   0  0  0  0  0
   31.0259   19.7352   25.2837 H   0  0  0  0  0
   31.1734   21.4003   27.5485 H   0  0  0  0  0
   31.1881   19.0264   27.6778 H   0  0  0  0  0
   32.3672   19.4845   28.9685 H   0  0  0  0  0
   33.1621   17.7843   27.5806 H   0  0  0  0  0
  1  2  1  0  0  0
  1  8  1  0  0  0
  1 12  1  0  0  0
  2  3  2  0  0  0
  2  4  1  0  0  0
  4  5  1  0  0  0
  5  6  1  0  0  0
  5  7  1  0  0  0
  6  8  2  0  0  0
  6  9  1  0  0  0
  7 10  1  0  0  0
  9 10  2  0  0  0
 10 11  1  0  0  0
 11 13  1  0  0  0
 12 15  1  0  0  0
 12 22  1  0  0  0
 13 14  1  0  0  0
 15 16  1  0  0  0
 15 17  1  0  0  0
 17 18  1  0  0  0
 17 19  1  0  0  0
 19 20  1  0  0  0
 19 21  1  0  0  0
 21 22  1  0  0  0
 21 23  1  0  0  0
 23 24  1  0  0  0
  4 25  1  0  0  0
  5 26  1  0  0  0
  8 27  1  0  0  0
  9 28  1  0  0  0
 11 29  1  0  0  0
 11 30  1  0  0  0
 12 31  1  0  0  0
 13 32  1  0  0  0
 13 33  1  0  0  0
 14 34  1  0  0  0
 14 35  1  0  0  0
 14 36  1  0  0  0
 15 37  1  0  0  0
 16 38  1  0  0  0
 17 39  1  0  0  0
 18 40  1  0  0  0
 19 41  1  0  0  0
 20 42  1  0  0  0
 21 43  1  0  0  0
 23 44  1  0  0  0
 23 45  1  0  0  0
 24 46  1  0  0  0
M  END
$$$$
