1v2q_ligand
  -I-interpret- 

 54 55  0  0  0  0  0  0  0  0999 V2000
   -2.2800   18.9300   17.9170 N   0  0  0  0  0
   -3.4640   18.2170   18.4920 C   0  0  0  0  0
   -2.9710   17.2080   19.5280 C   0  0  0  0  0
   -4.6140   19.1340   19.1410 C   0  0  0  0  0
   -5.7990   18.9310   18.7760 O   0  0  0  0  0
   -4.2630   20.1560   20.1100 O   0  0  0  0  0
   -2.9090   20.4780   20.6100 C   0  0  0  0  0
   -2.1670   16.0220   19.0020 C   0  0  0  0  0
   -1.0870   15.5360   19.7790 C   0  0  0  0  0
   -0.3060   14.4310   19.3350 C   0  0  0  0  0
   -0.6080   13.8010   18.0980 C   0  0  0  0  0
   -1.7090   14.2500   17.2450 C   0  0  0  0  0
   -2.4810   15.3820   17.7350 C   0  0  0  0  0
   -1.9920   13.6130   16.0220 C   0  0  0  0  0
   -2.6100   14.1680   15.0120 N   0  0  0  0  0
   -1.6720   12.3600   15.7290 N   0  0  0  0  0
   -2.3410   19.8660   16.9590 C   0  0  0  0  0
   -1.0710   20.6410   16.6560 C   0  0  0  0  0
   -0.9820   21.2180   15.2790 N   0  0  0  0  0
   -3.3590   20.1090   16.3220 O   0  0  0  0  0
    2.8230   25.1510   19.2420 C   0  0  0  0  0
    1.9690   24.5760   18.1720 C   0  0  0  0  0
    2.5140   23.8190   17.0730 C   0  0  0  0  0
    1.6330   23.2820   16.0740 C   0  0  0  0  0
    0.2180   23.5290   16.2140 C   0  0  0  0  0
   -0.3070   24.2810   17.2990 C   0  0  0  0  0
    0.5700   24.7960   18.2670 C   0  0  0  0  0
   -0.9330   22.9050   15.0710 S   0  0  0  0  0
   -0.5630   23.1630   13.5340 O   0  0  0  0  0
   -2.3840   23.3400   15.4840 O   0  0  0  0  0
   -1.3589   18.6857   18.2808 H   0  0  0  0  0
   -3.9510   17.7446   17.6389 H   0  0  0  0  0
   -3.8659   16.7851   19.9845 H   0  0  0  0  0
   -2.2985   17.7581   20.1863 H   0  0  0  0  0
   -2.4828   19.5987   21.0929 H   0  0  0  0  0
   -2.2763   20.7778   19.7746 H   0  0  0  0  0
   -2.9734   21.2940   21.3297 H   0  0  0  0  0
   -0.8505   16.0142   20.7295 H   0  0  0  0  0
    0.5226   14.0690   19.9436 H   0  0  0  0  0
   -0.0002   12.9562   17.7739 H   0  0  0  0  0
   -3.3126   15.7582   17.1392 H   0  0  0  0  0
   -2.9268   15.1354   15.0771 H   0  0  0  0  0
   -1.9154   11.9712   14.8180 H   0  0  0  0  0
   -1.1825   11.7850   16.4146 H   0  0  0  0  0
   -0.2463   19.9346   16.7505 H   0  0  0  0  0
   -1.0489   21.4833   17.3475 H   0  0  0  0  0
   -0.9508   20.6014   14.4671 H   0  0  0  0  0
    3.3610   24.3483   19.7464 H   0  0  0  0  0
    3.5364   25.8472   18.8009 H   0  0  0  0  0
    2.1963   25.6781   19.9614 H   0  0  0  0  0
    3.5892   23.6550   17.0006 H   0  0  0  0  0
    2.0216   22.7049   15.2349 H   0  0  0  0  0
   -1.3798   24.4564   17.3792 H   0  0  0  0  0
    0.1714   25.3721   19.1021 H   0  0  0  0  0
  1  2  1  0  0  0
 17  1  1  0  0  0
  2  3  1  0  0  0
  2  4  1  0  0  0
  3  8  1  0  0  0
  4  5  2  0  0  0
  4  6  1  0  0  0
  6  7  1  0  0  0
  8  9  4  0  0  0
  8 13  4  0  0  0
  9 10  4  0  0  0
 10 11  4  0  0  0
 12 11  4  0  0  0
 13 12  4  0  0  0
 12 14  1  0  0  0
 14 15  2  0  0  0
 14 16  1  0  0  0
 18 17  1  0  0  0
 17 20  2  0  0  0
 19 18  1  0  0  0
 28 19  1  0  0  0
 22 21  1  0  0  0
 23 22  4  0  0  0
 22 27  4  0  0  0
 24 23  4  0  0  0
 25 24  4  0  0  0
 25 26  4  0  0  0
 25 28  1  0  0  0
 26 27  4  0  0  0
 28 29  2  0  0  0
 28 30  2  0  0  0
  1 31  1  0  0  0
  2 32  1  0  0  0
  3 33  1  0  0  0
  3 34  1  0  0  0
  7 35  1  0  0  0
  7 36  1  0  0  0
  7 37  1  0  0  0
  9 38  1  0  0  0
 10 39  1  0  0  0
 11 40  1  0  0  0
 13 41  1  0  0  0
 15 42  1  0  0  0
 16 43  1  0  0  0
 16 44  1  0  0  0
 18 45  1  0  0  0
 18 46  1  0  0  0
 19 47  1  0  0  0
 21 48  1  0  0  0
 21 49  1  0  0  0
 21 50  1  0  0  0
 23 51  1  0  0  0
 24 52  1  0  0  0
 26 53  1  0  0  0
 27 54  1  0  0  0
M  END
$$$$
