2j4a_ligand
  -I-interpret- 

 42 43  0  0  0  0  0  0  0  0999 V2000
    6.4900   19.0420   32.8500 C   0  0  0  0  0
    2.3540   21.7550   31.3060 C   0  0  0  0  0
    5.8470   20.0310   33.6580 C   0  0  0  0  0
    1.4270   22.6970   31.7290 C   0  0  0  0  0
    4.5460   20.4980   33.3470 C   0  0  0  0  0
    1.2520   23.9740   31.1480 C   0  0  0  0  0
    3.7950   20.0060   32.2010 C   0  0  0  0  0
    2.0540   24.3780   30.0420 C   0  0  0  0  0
    4.4840   19.0210   31.4300 C   0  0  0  0  0
    3.0060   23.4380   29.5910 C   0  0  0  0  0
    5.7610   18.5620   31.7330 C   0  0  0  0  0
    3.1370   22.1820   30.2080 C   0  0  0  0  0
    7.8520   18.6100   33.2760 C   0  0  0  0  0
    8.2320   17.1570   32.9820 C   0  0  0  0  0
    3.7580   21.8140   34.4760 Br  0  0  0  0  0
    0.2020   24.9570   31.6810 C   0  0  0  0  0
    3.5920   18.3280   29.9380 Br  0  0  0  0  0
    2.4840   20.4930   31.9240 O   0  0  0  0  0
    1.9230   25.6120   29.4400 O   0  0  0  0  0
    9.6320   16.8450   33.4760 C   0  0  0  0  0
    0.9380   25.7200   32.8070 C   0  0  0  0  0
   10.5350   17.5640   33.0370 O   0  0  0  0  0
    9.8080   15.9150   34.2490 O   0  0  0  0  0
   -1.0650   24.2530   32.1980 C   0  0  0  0  0
    6.3666   20.4325   34.5280 H   0  0  0  0  0
    0.7869   22.4331   32.5708 H   0  0  0  0  0
    3.6508   23.6908   28.7494 H   0  0  0  0  0
    6.2165   17.8084   31.0906 H   0  0  0  0  0
    3.8875   21.4952   29.8167 H   0  0  0  0  0
    7.8757   18.7141   34.3608 H   0  0  0  0  0
    8.5534   19.2250   32.7121 H   0  0  0  0  0
    8.2008   17.0007   31.9037 H   0  0  0  0  0
    7.5279   16.5026   33.4959 H   0  0  0  0  0
   -0.1667   25.6187   30.8972 H   0  0  0  0  0
    2.5530   25.6836   28.7192 H   0  0  0  0  0
    0.2738   26.4758   33.2263 H   0  0  0  0  0
    1.2312   25.0185   33.5880 H   0  0  0  0  0
    1.8259   26.2017   32.3975 H   0  0  0  0  0
   10.1598   18.2244   32.4499 H   0  0  0  0  0
   -0.7909   23.5375   32.9733 H   0  0  0  0  0
   -1.7482   24.9948   32.6116 H   0  0  0  0  0
   -1.5502   23.7297   31.3741 H   0  0  0  0  0
  3  1  4  0  0  0
  1 11  4  0  0  0
  1 13  1  0  0  0
  2  4  4  0  0  0
  2 12  4  0  0  0
 18  2  1  0  0  0
  5  3  4  0  0  0
  4  6  4  0  0  0
  7  5  4  0  0  0
  5 15  1  0  0  0
  6  8  4  0  0  0
  6 16  1  0  0  0
  7  9  4  0  0  0
  7 18  1  0  0  0
  8 10  4  0  0  0
  8 19  1  0  0  0
  9 11  4  0  0  0
  9 17  1  0  0  0
 10 12  4  0  0  0
 13 14  1  0  0  0
 14 20  1  0  0  0
 16 21  1  0  0  0
 16 24  1  0  0  0
 20 22  1  0  0  0
 20 23  2  0  0  0
  3 25  1  0  0  0
  4 26  1  0  0  0
 10 27  1  0  0  0
 11 28  1  0  0  0
 12 29  1  0  0  0
 13 30  1  0  0  0
 13 31  1  0  0  0
 14 32  1  0  0  0
 14 33  1  0  0  0
 16 34  1  0  0  0
 19 35  1  0  0  0
 21 36  1  0  0  0
 21 37  1  0  0  0
 21 38  1  0  0  0
 22 39  1  0  0  0
 24 40  1  0  0  0
 24 41  1  0  0  0
 24 42  1  0  0  0
M  END
$$$$
