1ogu_ligand
  -I-interpret- 

 49 51  0  0  0  0  0  0  0  0999 V2000
    8.1150   44.0090   50.1340 C   0  0  0  0  0
    4.9720   45.6540   52.1340 C   0  0  0  0  0
    4.0940   46.0910   53.2750 C   0  0  0  0  0
    4.4890   45.3070   54.5190 C   0  0  0  0  0
    3.7100   45.9150   55.6640 C   0  0  0  0  0
    2.2170   45.7590   55.3730 C   0  0  0  0  0
    1.7810   46.3390   54.0160 C   0  0  0  0  0
    2.6560   45.7820   52.9060 C   0  0  0  0  0
    4.9870   41.2530   47.8170 C   0  0  0  0  0
    4.1540   41.0870   48.9220 C   0  0  0  0  0
    4.5610   41.6250   50.1570 C   0  0  0  0  0
    5.7900   42.2830   50.3020 C   0  0  0  0  0
    2.1510   39.6020   49.7020 N   0  0  0  0  0
    7.1150   44.5470   50.8480 N   0  0  0  0  0
    7.3310   45.4640   51.7970 C   0  0  0  0  0
    6.2980   46.0820   52.4220 O   0  0  0  0  0
    8.7030   45.8820   52.0690 C   0  0  0  0  0
    8.9360   46.8120   53.0650 N   0  0  0  0  0
   11.0530   45.5440   51.4460 N   0  0  0  0  0
    9.7580   45.2450   51.2570 C   0  0  0  0  0
    9.4010   44.3350   50.3150 N   0  0  0  0  0
    7.8200   43.0850   49.2250 N   0  0  0  0  0
    6.6060   42.4350   49.1790 C   0  0  0  0  0
    6.1890   41.9060   47.9570 C   0  0  0  0  0
    2.8010   40.4090   48.7280 C   0  0  0  0  0
   10.0670   47.1740   53.2960 O   0  0  0  0  0
    2.2040   40.6390   47.6830 O   0  0  0  0  0
    4.6258   46.0933   51.1984 H   0  0  0  0  0
    4.9384   44.5703   52.0223 H   0  0  0  0  0
    4.2053   47.1576   53.4702 H   0  0  0  0  0
    5.5626   45.3671   54.6977 H   0  0  0  0  0
    4.2596   44.2474   54.4057 H   0  0  0  0  0
    3.9608   46.9709   55.7650 H   0  0  0  0  0
    3.9621   45.4084   56.5956 H   0  0  0  0  0
    1.6776   46.3052   56.1468 H   0  0  0  0  0
    2.0010   44.6908   55.3529 H   0  0  0  0  0
    1.8820   47.4240   54.0412 H   0  0  0  0  0
    0.7434   46.0645   53.8260 H   0  0  0  0  0
    2.5078   44.7072   52.8017 H   0  0  0  0  0
    2.3984   46.2351   51.9487 H   0  0  0  0  0
    4.6862   40.8659   46.8435 H   0  0  0  0  0
    3.9046   41.5276   51.0217 H   0  0  0  0  0
    6.1028   42.6686   51.2724 H   0  0  0  0  0
    1.2171   39.2348   49.5192 H   0  0  0  0  0
    2.6187   39.3904   50.5834 H   0  0  0  0  0
   11.3211   46.2212   52.1601 H   0  0  0  0  0
   11.7688   45.0940   50.8755 H   0  0  0  0  0
    8.5258   42.8459   48.5286 H   0  0  0  0  0
    6.8361   42.0137   47.0865 H   0  0  0  0  0
  1 14  4  0  0  0
  1 21  4  0  0  0
 22  1  1  0  0  0
  2  3  1  0  0  0
 16  2  1  0  0  0
  3  4  1  0  0  0
  3  8  1  0  0  0
  4  5  1  0  0  0
  5  6  1  0  0  0
  7  6  1  0  0  0
  8  7  1  0  0  0
 10  9  4  0  0  0
  9 24  4  0  0  0
 11 10  4  0  0  0
 10 25  1  0  0  0
 12 11  4  0  0  0
 23 12  4  0  0  0
 25 13  1  0  0  0
 14 15  4  0  0  0
 15 16  1  0  0  0
 15 17  4  0  0  0
 17 18  1  0  0  0
 20 17  4  0  0  0
 18 26  2  0  0  0
 20 19  1  0  0  0
 21 20  4  0  0  0
 22 23  1  0  0  0
 23 24  4  0  0  0
 25 27  2  0  0  0
  2 28  1  0  0  0
  2 29  1  0  0  0
  3 30  1  0  0  0
  4 31  1  0  0  0
  4 32  1  0  0  0
  5 33  1  0  0  0
  5 34  1  0  0  0
  6 35  1  0  0  0
  6 36  1  0  0  0
  7 37  1  0  0  0
  7 38  1  0  0  0
  8 39  1  0  0  0
  8 40  1  0  0  0
  9 41  1  0  0  0
 11 42  1  0  0  0
 12 43  1  0  0  0
 13 44  1  0  0  0
 13 45  1  0  0  0
 19 46  1  0  0  0
 19 47  1  0  0  0
 22 48  1  0  0  0
 24 49  1  0  0  0
M  END
$$$$
