6b5q_ligand
  -I-interpret- 

100104  0  0  0  0  0  0  0  0999 V2000
    4.2900   21.7650   20.6080 C   0  0  0  0  0
    5.2030   20.7800   21.2780 C   0  0  0  0  0
    5.6490   21.2220   22.6630 C   0  0  0  0  0
    4.5740   22.9580   20.5050 O   0  0  0  0  0
    3.1650   21.2410   20.1120 N   0  0  0  0  0
    2.0890   22.0540   19.5680 C   0  0  0  0  0
    1.3490   21.3130   18.4530 C   0  0  0  0  0
    2.2810   20.8590   17.3720 C   0  0  0  0  0
    3.0130   19.2770   17.4340 S   0  0  0  0  0
    3.9300   19.6830   16.0130 C   0  0  0  0  0
    4.8820   18.9270   15.3410 C   0  0  0  0  0
    5.5060   19.4990   14.2450 C   0  0  0  0  0
    6.7200   18.5760   13.3880 Cl  0  0  0  0  0
    5.2030   20.7790   13.8150 C   0  0  0  0  0
    4.2490   21.5230   14.4960 C   0  0  0  0  0
    3.6020   20.9790   15.6030 C   0  0  0  0  0
    2.6500   21.6230   16.3960 N   0  0  0  0  0
    1.1430   22.4840   20.6890 C   0  0  0  0  0
    0.0240   21.9890   20.7930 O   0  0  0  0  0
   -0.4290   24.3360   22.5760 C   0  0  0  0  0
    0.9550   23.7300   22.7730 C   0  0  0  0  0
    1.6180   23.4060   21.5260 N   0  0  0  0  0
   -1.3410   24.0090   23.3210 O   0  0  0  0  0
    1.8350   24.6100   23.6440 C   0  0  0  0  0
    2.9890   23.8230   24.2720 C   0  0  0  0  0
    3.3360   24.5670   25.5310 C   0  0  0  0  0
    2.1980   25.4800   25.8220 C   0  0  0  0  0
    1.1150   25.1530   24.8810 C   0  0  0  0  0
   -0.6020   25.1580   21.5330 N   0  0  0  0  0
   -1.8990   25.7450   21.2520 C   0  0  0  0  0
   -1.7840   26.9950   20.3760 C   0  0  0  0  0
   -1.2470   28.1890   21.1570 C   0  0  0  0  0
   -1.2190   29.4730   20.3580 C   0  0  0  0  0
   -0.2270   29.4230   19.2030 C   0  0  0  0  0
    0.1490   30.7350   18.6640 N   0  3  0  0  0
    1.3740   30.6460   17.8640 C   0  0  0  0  0
   -0.9380   31.3210   17.8700 C   0  0  0  0  0
   -2.9280   24.7700   20.6820 C   0  0  0  0  0
   -4.0570   25.1710   20.4340 O   0  0  0  0  0
   -2.5620   23.4930   20.5170 N   0  0  0  0  0
   -3.4870   22.3980   20.2250 C   0  0  0  0  0
   -3.4880   21.3630   21.3470 C   0  0  0  0  0
   -3.4240   19.9490   20.8240 C   0  0  0  0  0
   -2.3800   19.7390   19.8580 O   0  0  0  0  0
   -2.4480   20.5860   18.7850 C   0  0  0  0  0
   -1.9650   20.1010   17.5780 C   0  0  0  0  0
   -2.1090   20.8710   16.4330 C   0  0  0  0  0
   -2.7150   22.1130   16.5020 C   0  0  0  0  0
   -3.1620   22.6030   17.7180 C   0  0  0  0  0
   -3.0280   21.8510   18.8820 C   0  0  0  0  0
    6.0951   20.6829   20.6592 H   0  0  0  0  0
    4.6543   19.8449   21.3906 H   0  0  0  0  0
    6.1844   22.1683   22.5861 H   0  0  0  0  0
    4.7748   21.3485   23.3017 H   0  0  0  0  0
    6.3064   20.4649   23.0905 H   0  0  0  0  0
    3.0564   20.2268   20.1152 H   0  0  0  0  0
    2.5164   22.9520   19.1220 H   0  0  0  0  0
    0.6211   21.9949   18.0133 H   0  0  0  0  0
    0.8714   20.4335   18.8848 H   0  0  0  0  0
    5.1298   17.9164   15.6658 H   0  0  0  0  0
    5.7102   21.2004   12.9471 H   0  0  0  0  0
    4.0064   22.5326   14.1644 H   0  0  0  0  0
    0.7940   22.7865   23.2946 H   0  0  0  0  0
    2.4762   23.8997   21.2808 H   0  0  0  0  0
    2.1502   25.3960   22.9578 H   0  0  0  0  0
    3.8426   23.7549   23.5975 H   0  0  0  0  0
    2.7051   22.7915   24.4804 H   0  0  0  0  0
    4.2606   25.1302   25.4046 H   0  0  0  0  0
    3.4968   23.8745   26.3572 H   0  0  0  0  0
    2.5041   26.5195   25.7038 H   0  0  0  0  0
    1.8604   25.3517   26.8504 H   0  0  0  0  0
    0.4155   24.4285   25.2981 H   0  0  0  0  0
    0.4996   26.0219   24.6476 H   0  0  0  0  0
    0.1895   25.3746   20.9272 H   0  0  0  0  0
   -2.2829   26.0388   22.2289 H   0  0  0  0  0
   -2.7785   27.2469   20.0076 H   0  0  0  0  0
   -1.0916   26.7795   19.5622 H   0  0  0  0  0
   -0.2201   27.9585   21.4408 H   0  0  0  0  0
   -1.9101   28.3479   22.0074 H   0  0  0  0  0
   -0.9144   30.2777   21.0271 H   0  0  0  0  0
   -2.2133   29.6293   19.9396 H   0  0  0  0  0
   -0.7076   28.8725   18.3943 H   0  0  0  0  0
    0.6841   28.9631   19.5857 H   0  0  0  0  0
    0.3268   31.3490   19.4588 H   0  0  0  0  0
    2.1884   30.2788   18.4885 H   0  0  0  0  0
    1.2143   29.9597   17.0324 H   0  0  0  0  0
    1.6271   31.6336   17.4783 H   0  0  0  0  0
   -1.1749   30.6596   17.0366 H   0  0  0  0  0
   -1.8195   31.4451   18.4990 H   0  0  0  0  0
   -0.6238   32.2919   17.4870 H   0  0  0  0  0
   -1.5706   23.2682   20.6006 H   0  0  0  0  0
   -4.5267   22.7200   20.1674 H   0  0  0  0  0
   -4.4161   21.4739   21.9077 H   0  0  0  0  0
   -2.6068   21.5345   21.9652 H   0  0  0  0  0
   -4.3730   19.7401   20.3301 H   0  0  0  0  0
   -3.2203   19.2957   21.6724 H   0  0  0  0  0
   -1.4783   19.1268   17.5300 H   0  0  0  0  0
   -1.7438   20.4966   15.4766 H   0  0  0  0  0
   -2.8410   22.7074   15.5970 H   0  0  0  0  0
   -3.6242   23.5891   17.7642 H   0  0  0  0  0
  1  2  1  0  0  0
  1  4  2  0  0  0
  5  1  1  0  0  0
  2  3  1  0  0  0
  6  5  1  0  0  0
  6  7  1  0  0  0
 18  6  1  0  0  0
  7  8  1  0  0  0
  8  9  4  0  0  0
  8 17  4  0  0  0
  9 10  4  0  0  0
 10 11  4  0  0  0
 16 10  4  0  0  0
 11 12  4  0  0  0
 12 13  1  0  0  0
 14 12  4  0  0  0
 15 14  4  0  0  0
 16 15  4  0  0  0
 17 16  4  0  0  0
 18 19  2  0  0  0
 22 18  1  0  0  0
 21 20  1  0  0  0
 20 23  2  0  0  0
 20 29  1  0  0  0
 21 22  1  0  0  0
 21 24  1  0  0  0
 24 25  1  0  0  0
 24 28  1  0  0  0
 25 26  1  0  0  0
 26 27  1  0  0  0
 27 28  1  0  0  0
 29 30  1  0  0  0
 30 31  1  0  0  0
 30 38  1  0  0  0
 31 32  1  0  0  0
 32 33  1  0  0  0
 33 34  1  0  0  0
 34 35  1  0  0  0
 35 36  1  0  0  0
 35 37  1  0  0  0
 38 39  2  0  0  0
 38 40  1  0  0  0
 40 41  1  0  0  0
 41 42  1  0  0  0
 41 50  1  0  0  0
 42 43  1  0  0  0
 43 44  1  0  0  0
 44 45  1  0  0  0
 45 46  4  0  0  0
 45 50  4  0  0  0
 46 47  4  0  0  0
 47 48  4  0  0  0
 48 49  4  0  0  0
 49 50  4  0  0  0
  2 51  1  0  0  0
  2 52  1  0  0  0
  3 53  1  0  0  0
  3 54  1  0  0  0
  3 55  1  0  0  0
  5 56  1  0  0  0
  6 57  1  0  0  0
  7 58  1  0  0  0
  7 59  1  0  0  0
 11 60  1  0  0  0
 14 61  1  0  0  0
 15 62  1  0  0  0
 21 63  1  0  0  0
 22 64  1  0  0  0
 24 65  1  0  0  0
 25 66  1  0  0  0
 25 67  1  0  0  0
 26 68  1  0  0  0
 26 69  1  0  0  0
 27 70  1  0  0  0
 27 71  1  0  0  0
 28 72  1  0  0  0
 28 73  1  0  0  0
 29 74  1  0  0  0
 30 75  1  0  0  0
 31 76  1  0  0  0
 31 77  1  0  0  0
 32 78  1  0  0  0
 32 79  1  0  0  0
 33 80  1  0  0  0
 33 81  1  0  0  0
 34 82  1  0  0  0
 34 83  1  0  0  0
 35 84  1  0  0  0
 36 85  1  0  0  0
 36 86  1  0  0  0
 36 87  1  0  0  0
 37 88  1  0  0  0
 37 89  1  0  0  0
 37 90  1  0  0  0
 40 91  1  0  0  0
 41 92  1  0  0  0
 42 93  1  0  0  0
 42 94  1  0  0  0
 43 95  1  0  0  0
 43 96  1  0  0  0
 46 97  1  0  0  0
 47 98  1  0  0  0
 48 99  1  0  0  0
 49100  1  0  0  0
M  END
$$$$
