5ew9_ligand
  -I-interpret- 

 52 55  0  0  0  0  0  0  0  0999 V2000
  -15.7450   11.5850   17.7900 C   0  0  0  0  0
  -16.8250   10.8860   18.3440 C   0  0  0  0  0
  -16.5920   10.0120   19.3850 C   0  0  0  0  0
  -15.2820    9.8800   19.8360 C   0  0  0  0  0
  -14.2580   10.6090   19.2380 C   0  0  0  0  0
  -14.2820   14.7400   14.6160 C   0  0  0  0  0
   -8.9970   11.4400   12.8780 C   0  0  0  0  0
   -9.3120   11.1010   17.0190 O   0  0  0  0  0
   -9.2100   11.1500   15.6540 C   0  0  0  0  0
   -9.4280   12.3640   15.0440 C   0  0  0  0  0
   -9.3290   12.5280   13.6840 C   0  0  0  0  0
  -15.0860   13.2820   16.0470 C   0  0  0  0  0
  -15.4040   14.0940   15.0740 N   0  0  0  0  0
  -13.4140   13.2260   16.4990 S   0  0  0  0  0
  -13.1130   14.4030   15.2490 C   0  0  0  0  0
  -16.0630   12.4680   16.7080 N   0  0  0  0  0
  -12.8510   10.4320   19.7460 C   0  0  0  0  0
  -12.2430    9.1060   19.2420 C   0  0  0  0  0
  -12.9620    7.9070   19.7810 C   0  0  0  0  0
  -12.7250    7.5740   20.9840 O   0  0  0  0  0
  -13.7660    7.2860   19.0060 O   0  0  0  0  0
  -10.7850    8.9810   19.6920 C   0  0  0  0  0
   -9.9430   10.0900   19.0710 C   0  0  0  0  0
  -10.0150    9.9900   17.5390 C   0  0  0  0  0
   -9.7570   13.4340   15.7810 F   0  0  0  0  0
   -9.6490   14.1170   13.0620 Cl  0  0  0  0  0
   -8.7810   10.2050   13.5060 C   0  0  0  0  0
   -8.8770   10.0310   14.8910 C   0  0  0  0  0
  -11.4760   10.1560   17.1070 C   0  0  0  0  0
  -12.3260    9.0450   17.7160 C   0  0  0  0  0
  -14.4910   11.4500   18.2250 N   0  0  0  0  0
  -17.8341   11.0306   17.9582 H   0  0  0  0  0
  -17.4049    9.4448   19.8384 H   0  0  0  0  0
  -15.0571    9.2034   20.6604 H   0  0  0  0  0
  -14.3180   15.4691   13.8065 H   0  0  0  0  0
   -8.9084   11.5457   11.7968 H   0  0  0  0  0
  -12.1332   14.8135   15.0048 H   0  0  0  0  0
  -17.0316   12.5200   16.3927 H   0  0  0  0  0
  -12.8725   10.4147   20.8357 H   0  0  0  0  0
  -12.2408   11.2577   19.3799 H   0  0  0  0  0
  -13.7818    7.7193   18.1495 H   0  0  0  0  0
  -10.3948    8.0153   19.3705 H   0  0  0  0  0
  -10.7391    9.0648   20.7778 H   0  0  0  0  0
   -8.9073    9.9844   19.3940 H   0  0  0  0  0
  -10.3256   11.0593   19.3905 H   0  0  0  0  0
   -9.6091    9.0387   17.1948 H   0  0  0  0  0
   -8.5274    9.3433   12.8885 H   0  0  0  0  0
   -8.6988    9.0607   15.3546 H   0  0  0  0  0
  -11.5382   10.1020   16.0201 H   0  0  0  0  0
  -11.8456   11.1218   17.4515 H   0  0  0  0  0
  -13.3631    9.1739   17.4062 H   0  0  0  0  0
  -11.9554    8.0789   17.3734 H   0  0  0  0  0
  1  2  4  0  0  0
  1 16  1  0  0  0
 31  1  4  0  0  0
  3  2  4  0  0  0
  4  3  4  0  0  0
  5  4  4  0  0  0
 17  5  1  0  0  0
  5 31  4  0  0  0
 13  6  4  0  0  0
 15  6  4  0  0  0
 11  7  4  0  0  0
  7 27  4  0  0  0
  8  9  1  0  0  0
 24  8  1  0  0  0
  9 10  4  0  0  0
  9 28  4  0  0  0
 10 11  4  0  0  0
 10 25  1  0  0  0
 11 26  1  0  0  0
 12 13  4  0  0  0
 12 14  4  0  0  0
 16 12  1  0  0  0
 14 15  4  0  0  0
 18 17  1  0  0  0
 18 19  1  0  0  0
 22 18  1  0  0  0
 18 30  1  0  0  0
 19 20  2  0  0  0
 19 21  1  0  0  0
 23 22  1  0  0  0
 23 24  1  0  0  0
 24 29  1  0  0  0
 27 28  4  0  0  0
 29 30  1  0  0  0
  2 32  1  0  0  0
  3 33  1  0  0  0
  4 34  1  0  0  0
  6 35  1  0  0  0
  7 36  1  0  0  0
 15 37  1  0  0  0
 16 38  1  0  0  0
 17 39  1  0  0  0
 17 40  1  0  0  0
 21 41  1  0  0  0
 22 42  1  0  0  0
 22 43  1  0  0  0
 23 44  1  0  0  0
 23 45  1  0  0  0
 24 46  1  0  0  0
 27 47  1  0  0  0
 28 48  1  0  0  0
 29 49  1  0  0  0
 29 50  1  0  0  0
 30 51  1  0  0  0
 30 52  1  0  0  0
M  END
$$$$
