4i7m_ligand
  -I-interpret- 

 22 22  0  0  0  0  0  0  0  0999 V2000
    4.1590    8.8570    0.6720 C   0  0  0  0  0
    3.2490    9.3220    1.6030 C   0  0  0  0  0
    3.8740    7.6040    0.1560 C   0  0  0  0  0
    5.3480    9.6180    0.2900 C   0  0  0  0  0
    2.0950    8.5920    1.9620 C   0  0  0  0  0
    3.5050   10.5480    2.1830 O   0  0  0  0  0
    2.7170    6.8610    0.4720 C   0  0  0  0  0
    1.7870    7.3260    1.3850 C   0  0  0  0  0
    5.3180   10.7450   -0.6950 C   0  0  0  0  0
    4.3430   10.7180   -1.8410 C   0  0  0  0  0
    4.5892    7.1636   -0.5387 H   0  0  0  0  0
    5.9690    8.8726   -0.2068 H   0  0  0  0  0
    5.6351   10.1101    1.2193 H   0  0  0  0  0
    1.4169    9.0109    2.7055 H   0  0  0  0  0
    2.8060   10.7579    2.8067 H   0  0  0  0  0
    2.5521    5.8993   -0.0139 H   0  0  0  0  0
    0.8877    6.7667    1.6431 H   0  0  0  0  0
    6.2982   10.7168   -1.1708 H   0  0  0  0  0
    5.0221   11.6133   -0.1063 H   0  0  0  0  0
    4.5295    9.8365   -2.4543 H   0  0  0  0  0
    3.3260   10.6819   -1.4504 H   0  0  0  0  0
    4.4697   11.6162   -2.4454 H   0  0  0  0  0
  1  2  4  0  0  0
  1  3  4  0  0  0
  1  4  1  0  0  0
  2  5  4  0  0  0
  2  6  1  0  0  0
  3  7  4  0  0  0
  4  9  1  0  0  0
  5  8  4  0  0  0
  7  8  4  0  0  0
  9 10  1  0  0  0
  3 11  1  0  0  0
  4 12  1  0  0  0
  4 13  1  0  0  0
  5 14  1  0  0  0
  6 15  1  0  0  0
  7 16  1  0  0  0
  8 17  1  0  0  0
  9 18  1  0  0  0
  9 19  1  0  0  0
 10 20  1  0  0  0
 10 21  1  0  0  0
 10 22  1  0  0  0
M  END
$$$$
