3iit_ligand
  -I-interpret- 

 57 61  0  0  0  0  0  0  0  0999 V2000
   10.4520    8.4490   25.1530 C   0  0  0  0  0
   14.0180    7.5680   26.6040 Cl  0  0  0  0  0
    9.5760    7.9470   26.1650 C   0  0  0  0  0
    8.2060    8.0840   25.9700 C   0  0  0  0  0
    7.7600    8.7060   24.7800 C   0  0  0  0  0
    8.5920    9.1720   23.8040 N   0  0  0  0  0
    9.9130    9.0430   24.0080 C   0  0  0  0  0
   10.0790    7.3450   27.3280 C   0  0  0  0  0
   11.4720    7.2210   27.5020 C   0  0  0  0  0
   12.3150    7.7180   26.4760 C   0  0  0  0  0
   11.8280    8.3190   25.3060 C   0  0  0  0  0
    6.2860    8.8310   24.5350 C   0  0  0  0  0
    5.9570    8.4810   23.2990 N   0  0  0  0  0
    4.5950    8.5430   22.7980 C   0  0  0  0  0
    5.4500    9.1670   25.3670 O   0  0  0  0  0
    4.0160    7.1080   22.8100 C   0  0  0  0  0
    2.5940    7.1350   22.2150 C   0  0  0  0  0
    2.6240    7.6820   20.7620 C   0  0  0  0  0
    3.1720    9.1330   20.7340 C   0  0  0  0  0
    4.5650    9.2130   21.3970 C   0  0  0  0  0
    4.9090    6.2170   22.0710 N   0  0  0  0  0
    4.9270    4.8960   22.1870 C   0  0  0  0  0
    5.8190    4.2300   21.2040 C   0  0  0  0  0
    4.2640    4.2830   23.0260 O   0  0  0  0  0
    6.6590    4.8480   20.3500 N   0  0  0  0  0
    7.4150    3.8850   19.6790 C   0  0  0  0  0
    7.1700    2.6100   19.9970 C   0  0  0  0  0
    5.9520    2.4440   21.1930 S   0  0  0  0  0
    8.0040    1.6630   19.2310 C   0  0  0  0  0
    8.4870    2.5210   18.1260 N   0  3  0  0  0
    8.4650    3.9020   18.6340 C   0  0  0  0  0
    9.7600    2.0640   17.6110 C   0  0  0  0  0
    7.4955    7.7223   26.7132 H   0  0  0  0  0
   10.5961    9.4185   23.2461 H   0  0  0  0  0
    9.3962    6.9752   28.0929 H   0  0  0  0  0
   11.8880    6.7578   28.3967 H   0  0  0  0  0
   12.5115    8.6755   24.5354 H   0  0  0  0  0
    6.6926    8.1539   22.6726 H   0  0  0  0  0
    3.9656    9.1661   23.4334 H   0  0  0  0  0
    3.9450    6.7279   23.8291 H   0  0  0  0  0
    1.9665    7.7844   22.8254 H   0  0  0  0  0
    2.1950    6.1207   22.2038 H   0  0  0  0  0
    1.6093    7.6807   20.3638 H   0  0  0  0  0
    3.2747    7.0478   20.1599 H   0  0  0  0  0
    2.4857    9.7762   21.2848 H   0  0  0  0  0
    3.2605    9.4529   19.6958 H   0  0  0  0  0
    5.2733    8.6869   20.7569 H   0  0  0  0  0
    4.8186   10.2657   21.5217 H   0  0  0  0  0
    5.5668    6.6428   21.4180 H   0  0  0  0  0
    7.4621    0.7799   18.8925 H   0  0  0  0  0
    8.8060    1.2150   19.8177 H   0  0  0  0  0
    7.8855    2.4730   17.3036 H   0  0  0  0  0
    9.4331    4.2123   19.0272 H   0  0  0  0  0
    8.2531    4.6271   17.8482 H   0  0  0  0  0
   10.5014    2.0824   18.4098 H   0  0  0  0  0
    9.6542    1.0464   17.2351 H   0  0  0  0  0
   10.0798    2.7203   16.8016 H   0  0  0  0  0
  3  1  4  0  0  0
  1  7  4  0  0  0
  1 11  4  0  0  0
 10  2  1  0  0  0
  3  4  4  0  0  0
  8  3  4  0  0  0
  4  5  4  0  0  0
  5  6  4  0  0  0
  5 12  1  0  0  0
  7  6  4  0  0  0
  9  8  4  0  0  0
  9 10  4  0  0  0
 10 11  4  0  0  0
 12 13  1  0  0  0
 12 15  2  0  0  0
 13 14  1  0  0  0
 14 16  1  0  0  0
 14 20  1  0  0  0
 16 17  1  0  0  0
 16 21  1  0  0  0
 17 18  1  0  0  0
 18 19  1  0  0  0
 19 20  1  0  0  0
 21 22  1  0  0  0
 22 23  1  0  0  0
 22 24  2  0  0  0
 23 25  4  0  0  0
 23 28  4  0  0  0
 25 26  4  0  0  0
 26 27  4  0  0  0
 26 31  1  0  0  0
 27 28  4  0  0  0
 27 29  1  0  0  0
 29 30  1  0  0  0
 30 31  1  0  0  0
 30 32  1  0  0  0
  4 33  1  0  0  0
  7 34  1  0  0  0
  8 35  1  0  0  0
  9 36  1  0  0  0
 11 37  1  0  0  0
 13 38  1  0  0  0
 14 39  1  0  0  0
 16 40  1  0  0  0
 17 41  1  0  0  0
 17 42  1  0  0  0
 18 43  1  0  0  0
 18 44  1  0  0  0
 19 45  1  0  0  0
 19 46  1  0  0  0
 20 47  1  0  0  0
 20 48  1  0  0  0
 21 49  1  0  0  0
 29 50  1  0  0  0
 29 51  1  0  0  0
 30 52  1  0  0  0
 31 53  1  0  0  0
 31 54  1  0  0  0
 32 55  1  0  0  0
 32 56  1  0  0  0
 32 57  1  0  0  0
M  END
$$$$
