### 
### Created by X-TOOL on Mon Sep 10 21:13:03 2018
### 

@<TRIPOS>MOLECULE
3iit_ligand
   56    60     1     0     0
SMALL
GAST_HUCK


@<TRIPOS>ATOM
      1 C1         10.4520    8.4490   25.1530 C.ar      1 D14         0.0123
      2 CL1        14.0180    7.5680   26.6040 Cl        1 D14        -0.0662
      3 C2          9.5760    7.9470   26.1650 C.ar      1 D14         0.0038
      4 C3          8.2060    8.0840   25.9700 C.ar      1 D14        -0.0102
      5 C4          7.7600    8.7060   24.7800 C.ar      1 D14         0.1180
      6 N5          8.5920    9.1720   23.8040 N.ar      1 D14        -0.2790
      7 C6          9.9130    9.0430   24.0080 C.ar      1 D14         0.0230
      8 C7         10.0790    7.3450   27.3280 C.ar      1 D14        -0.0436
      9 C8         11.4720    7.2210   27.5020 C.ar      1 D14        -0.0400
     10 C9         12.3150    7.7180   26.4760 C.ar      1 D14         0.0486
     11 C10        11.8280    8.3190   25.3060 C.ar      1 D14        -0.0296
     12 C12         6.2860    8.8310   24.5350 C.2       1 D14         0.2196
     13 N13         5.9570    8.4810   23.2990 N.am      1 D14        -0.2798
     14 C14         4.5950    8.5430   22.7980 C.3       1 D14         0.0644
     15 O15         5.4500    9.1670   25.3670 O.2       1 D14        -0.3819
     16 C16         4.0160    7.1080   22.8100 C.3       1 D14         0.0644
     17 C17         2.5940    7.1350   22.2150 C.3       1 D14        -0.0278
     18 C18         2.6240    7.6820   20.7620 C.3       1 D14        -0.0508
     19 C19         3.1720    9.1330   20.7340 C.3       1 D14        -0.0508
     20 C20         4.5650    9.2130   21.3970 C.3       1 D14        -0.0278
     21 N26         4.9090    6.2170   22.0710 N.am      1 D14        -0.2779
     22 C27         4.9270    4.8960   22.1870 C.2       1 D14         0.2376
     23 C28         5.8190    4.2300   21.2040 C.2       1 D14         0.1746
     24 O29         4.2640    4.2830   23.0260 O.2       1 D14        -0.3784
     25 N30         6.6590    4.8480   20.3500 N.2       1 D14        -0.3023
     26 C31         7.4150    3.8850   19.6790 C.2       1 D14        -0.0126
     27 C32         7.1700    2.6100   19.9970 C.2       1 D14         0.0130
     28 S33         5.9520    2.4440   21.1930 S.3       1 D14         0.0015
     29 C34         8.0040    1.6630   19.2310 C.3       1 D14        -0.0643
     30 N35         8.4870    2.5210   18.1260 N.4       1 D14         0.4089
     31 C36         8.4650    3.9020   18.6340 C.3       1 D14        -0.0788
     32 C37         9.7600    2.0640   17.6110 C.3       1 D14        -0.1210
     33 H           7.4955    7.7223   26.7132 H         1 D14         0.0786
     34 H          10.5961    9.4185   23.2461 H         1 D14         0.0878
     35 H           9.3962    6.9752   28.0929 H         1 D14         0.0659
     36 H          11.8880    6.7578   28.3967 H         1 D14         0.0664
     37 H          12.5115    8.6755   24.5354 H         1 D14         0.0668
     38 H           6.6926    8.1539   22.6726 H         1 D14         0.1850
     39 H           3.9656    9.1661   23.4334 H         1 D14         0.0578
     40 H           3.9450    6.7279   23.8291 H         1 D14         0.0578
     41 H           1.9665    7.7844   22.8254 H         1 D14         0.0288
     42 H           2.1950    6.1207   22.2038 H         1 D14         0.0288
     43 H           1.6093    7.6807   20.3638 H         1 D14         0.0266
     44 H           3.2747    7.0478   20.1599 H         1 D14         0.0266
     45 H           2.4857    9.7762   21.2848 H         1 D14         0.0266
     46 H           3.2605    9.4529   19.6958 H         1 D14         0.0266
     47 H           5.2733    8.6869   20.7569 H         1 D14         0.0288
     48 H           4.8186   10.2657   21.5217 H         1 D14         0.0288
     49 H           5.5668    6.6428   21.4180 H         1 D14         0.1849
     50 H           7.4621    0.7799   18.8925 H         1 D14         0.0195
     51 H           8.8060    1.2150   19.8177 H         1 D14         0.0195
     52 H           9.4331    4.2123   19.0272 H         1 D14         0.0128
     53 H           8.2531    4.6271   17.8482 H         1 D14         0.0128
     54 H          10.5014    2.0824   18.4098 H         1 D14        -0.0013
     55 H           9.6542    1.0464   17.2351 H         1 D14        -0.0013
     56 H          10.0798    2.7203   16.8016 H         1 D14        -0.0013
@<TRIPOS>BOND
     1    3    1 ar 
     2    1    7 ar 
     3    1   11 ar 
     4   10    2 1  
     5    3    4 ar 
     6    8    3 ar 
     7    4    5 ar 
     8    5    6 ar 
     9    5   12 1  
    10    7    6 ar 
    11    9    8 ar 
    12    9   10 ar 
    13   10   11 ar 
    14   12   13 am 
    15   12   15 2  
    16   13   14 1  
    17   14   16 1  
    18   14   20 1  
    19   16   17 1  
    20   16   21 1  
    21   17   18 1  
    22   18   19 1  
    23   19   20 1  
    24   21   22 am 
    25   22   23 1  
    26   22   24 2  
    27   23   25 2  
    28   23   28 1  
    29   25   26 1  
    30   26   27 2  
    31   26   31 1  
    32   27   28 1  
    33   27   29 1  
    34   29   30 1  
    35   30   31 1  
    36   30   32 1  
    37    4   33 1  
    38    7   34 1  
    39    8   35 1  
    40    9   36 1  
    41   11   37 1  
    42   13   38 1  
    43   14   39 1  
    44   16   40 1  
    45   17   41 1  
    46   17   42 1  
    47   18   43 1  
    48   18   44 1  
    49   19   45 1  
    50   19   46 1  
    51   20   47 1  
    52   20   48 1  
    53   21   49 1  
    54   29   50 1  
    55   29   51 1  
    56   31   52 1  
    57   31   53 1  
    58   32   54 1  
    59   32   55 1  
    60   32   56 1  
@<TRIPOS>SUBSTRUCTURE
     1 D14         1

