6g24_ligand
  -I-interpret- 

 26 27  0  0  0  0  0  0  0  0999 V2000
   -1.6300  -19.0620   17.7610 C   0  0  0  0  0
   -5.0060  -18.4900   16.5200 C   0  0  0  0  0
   -2.5030  -18.4660   16.8130 C   0  0  0  0  0
   -8.1570  -20.7070   15.9090 C   0  0  0  0  0
   -0.3920  -18.4640   18.0180 C   0  0  0  0  0
   -0.0230  -17.2950   17.3660 C   0  0  0  0  0
   -1.9780  -20.2920   18.5700 C   0  0  0  0  0
   -8.5980  -19.4390   16.0700 C   0  0  0  0  0
   -2.0900  -17.3010   16.1480 C   0  0  0  0  0
   -0.8590  -16.7290   16.4240 C   0  0  0  0  0
   -3.8090  -19.0750   16.5170 C   0  0  0  0  0
   -6.2800  -19.1390   16.2950 C   0  0  0  0  0
   -7.5210  -18.5140   16.2960 C   0  0  0  0  0
   -3.0710  -20.3110   19.1780 O   0  0  0  0  0
   -1.1450  -21.2280   18.6120 O   0  0  0  0  0
   -6.4380  -20.8320   16.0020 S   0  0  0  0  0
   -5.0280  -17.4170   16.7107 H   0  0  0  0  0
   -8.8160  -21.5584   15.7388 H   0  0  0  0  0
    0.2892  -18.9198   18.7366 H   0  0  0  0  0
    0.9310  -16.8219   17.5988 H   0  0  0  0  0
   -9.6487  -19.1514   16.0327 H   0  0  0  0  0
   -2.7444  -16.8418   15.4071 H   0  0  0  0  0
   -0.5488  -15.8278   15.8951 H   0  0  0  0  0
   -3.7957  -20.1352   16.2641 H   0  0  0  0  0
   -7.6619  -17.4442   16.4505 H   0  0  0  0  0
   -0.3828  -21.0009   18.0743 H   0  0  0  0  0
  3  1  4  0  0  0
  1  5  4  0  0  0
  1  7  1  0  0  0
  2 11  2  0  0  0
 12  2  1  0  0  0
  3  9  4  0  0  0
 11  3  1  0  0  0
  8  4  4  0  0  0
  4 16  4  0  0  0
  5  6  4  0  0  0
 10  6  4  0  0  0
  7 14  2  0  0  0
  7 15  1  0  0  0
 13  8  4  0  0  0
  9 10  4  0  0  0
 12 13  4  0  0  0
 12 16  4  0  0  0
  2 17  1  0  0  0
  4 18  1  0  0  0
  5 19  1  0  0  0
  6 20  1  0  0  0
  8 21  1  0  0  0
  9 22  1  0  0  0
 10 23  1  0  0  0
 11 24  1  0  0  0
 13 25  1  0  0  0
 15 26  1  0  0  0
M  END
$$$$
