6kla_ligand
  -I-interpret- 

 50 53  0  0  0  0  0  0  0  0999 V2000
    6.3070    5.0830   16.5460 C   0  0  0  0  0
    4.1940    4.1520   16.1020 N   0  0  0  0  0
    4.7190    2.9430   16.2560 C   0  0  0  0  0
    2.7810    4.2970   15.7680 C   0  0  0  0  0
   12.4970    5.7550   18.2770 C   0  0  0  0  0
   14.5450    6.5850   18.8720 C   0  0  0  0  0
   16.0170    4.8260   20.0560 C   0  0  0  0  0
   18.0980    5.3300   21.1190 C   0  0  0  0  0
   17.5280    3.1180   20.7540 C   0  0  0  0  0
   10.2860    4.7040   17.6190 C   0  0  0  0  0
    8.9960    4.8750   17.1290 C   0  0  0  0  0
    8.1960    3.7460   17.0660 C   0  0  0  0  0
    9.8820    2.4940   18.0110 C   0  0  0  0  0
   10.4150    1.1570   18.5120 C   0  0  0  0  0
    4.9630    5.2220   16.2470 C   0  0  0  0  0
    6.0620    2.7850   16.5530 C   0  0  0  0  0
    2.0770    5.2500   16.7310 C   0  0  0  0  0
   14.7350    5.2910   19.3730 C   0  0  0  0  0
   16.9180    5.7700   20.5430 C   0  0  0  0  0
   16.3250    3.4700   20.1570 C   0  0  0  0  0
    8.6440    2.5940   17.5390 N   0  0  0  0  0
   10.6990    3.5230   18.0460 N   0  0  0  0  0
   11.1760    5.8440   17.6690 N   0  0  0  0  0
    6.8190    3.8660   16.6500 N   0  0  0  0  0
   13.3320    6.7900   18.2940 N   0  0  0  0  0
   18.3590    4.0400   21.2090 N   0  0  0  0  0
   13.2860    4.4540   19.0600 S   0  0  0  0  0
    6.4209    5.5213   17.5375 H   0  0  0  0  0
    6.8303    5.5369   15.7044 H   0  0  0  0  0
    4.6071    2.4781   15.2765 H   0  0  0  0  0
    4.2048    2.5393   17.1282 H   0  0  0  0  0
    2.3059    3.3186   15.8394 H   0  0  0  0  0
    2.7032    4.7034   14.7596 H   0  0  0  0  0
   15.3060    7.3624   18.9399 H   0  0  0  0  0
   18.8166    6.0551   21.5009 H   0  0  0  0  0
   17.7915    2.0646   20.8491 H   0  0  0  0  0
    8.6315    5.8513   16.8096 H   0  0  0  0  0
    9.7948    0.8062   19.3369 H   0  0  0  0  0
   10.3882    0.4296   17.7007 H   0  0  0  0  0
   11.4418    1.2824   18.8555 H   0  0  0  0  0
    4.9531    5.6957   15.2654 H   0  0  0  0  0
    4.5466    5.7376   17.1124 H   0  0  0  0  0
    6.4747    2.2226   15.7155 H   0  0  0  0  0
    6.0831    2.3326   17.5445 H   0  0  0  0  0
    2.1554    4.8618   17.7465 H   0  0  0  0  0
    2.5484    6.2314   16.6784 H   0  0  0  0  0
    1.0264    5.3348   16.4531 H   0  0  0  0  0
   16.6984    6.8353   20.4721 H   0  0  0  0  0
   15.6421    2.7093   19.7787 H   0  0  0  0  0
   10.8711    6.7313   17.2689 H   0  0  0  0  0
  1 15  1  0  0  0
 24  1  1  0  0  0
  2  3  1  0  0  0
  2  4  1  0  0  0
 15  2  1  0  0  0
  3 16  1  0  0  0
  4 17  1  0  0  0
 23  5  1  0  0  0
  5 25  4  0  0  0
  5 27  4  0  0  0
  6 18  4  0  0  0
 25  6  4  0  0  0
 18  7  1  0  0  0
  7 19  4  0  0  0
  7 20  4  0  0  0
 19  8  4  0  0  0
  8 26  4  0  0  0
 20  9  4  0  0  0
  9 26  4  0  0  0
 11 10  4  0  0  0
 10 22  4  0  0  0
 10 23  1  0  0  0
 12 11  4  0  0  0
 21 12  4  0  0  0
 12 24  1  0  0  0
 13 14  1  0  0  0
 13 21  4  0  0  0
 13 22  4  0  0  0
 16 24  1  0  0  0
 18 27  4  0  0  0
  1 28  1  0  0  0
  1 29  1  0  0  0
  3 30  1  0  0  0
  3 31  1  0  0  0
  4 32  1  0  0  0
  4 33  1  0  0  0
  6 34  1  0  0  0
  8 35  1  0  0  0
  9 36  1  0  0  0
 11 37  1  0  0  0
 14 38  1  0  0  0
 14 39  1  0  0  0
 14 40  1  0  0  0
 15 41  1  0  0  0
 15 42  1  0  0  0
 16 43  1  0  0  0
 16 44  1  0  0  0
 17 45  1  0  0  0
 17 46  1  0  0  0
 17 47  1  0  0  0
 19 48  1  0  0  0
 20 49  1  0  0  0
 23 50  1  0  0  0
M  END
$$$$
