1y98_ligand
  -I-interpret- 

179181  0  0  0  0  0  0  0  0999 V2000
  -33.7390   64.5120   -1.2330 N   0  3  0  0  0
  -32.7470   64.1010   -0.2060 C   0  0  0  0  0
  -33.3750   63.7730    1.1800 C   0  0  0  0  0
  -34.1060   64.6180    1.7370 O   0  0  0  0  0
  -31.7840   65.3150   -0.1130 C   0  0  0  0  0
  -32.0320   66.1330   -1.4140 C   0  0  0  0  0
  -33.4950   65.8730   -1.7590 C   0  0  0  0  0
  -33.1070   62.5610    1.7060 N   0  0  0  0  0
  -33.5740   62.1340    3.0570 C   0  0  0  0  0
  -32.5920   61.2210    3.8300 C   0  0  0  0  0
  -32.1210   61.6050    4.9020 O   0  0  0  0  0
  -34.8270   61.5300    3.6350 C   0  0  0  0  0
  -35.2650   60.5380    2.6600 O   0  0  0  0  0
  -35.9360   62.3130    4.4930 C   0  0  0  0  0
  -32.2940   60.0440    3.2550 N   0  0  0  0  0
  -31.5180   58.9110    3.8480 C   0  0  0  0  0
  -32.2790   58.0560    4.8640 C   0  0  0  0  0
  -32.6250   58.4940    5.9590 O   0  0  0  0  0
  -30.1390   59.2890    4.3850 C   0  0  0  0  0
  -29.3300   58.0610    4.8030 C   0  0  0  0  0
  -28.1880   58.4470    5.6870 C   0  0  0  0  0
  -27.9050   57.3940    6.6470 N   0  0  0  0  0
  -27.2010   57.5600    7.7610 C   0  0  0  0  0
  -26.7000   58.7360    8.0460 N   0  0  0  0  0
  -26.9990   56.5520    8.5900 N   0  0  0  0  0
  -32.4850   56.8080    4.4790 N   0  0  0  0  0
  -33.4840   55.9610    5.1040 C   0  0  0  0  0
  -32.8700   54.8930    6.0410 C   0  0  0  0  0
  -33.4700   54.5410    7.0810 O   0  0  0  0  0
  -34.4950   55.4330    4.0210 C   0  0  0  0  0
  -33.9540   55.6840    2.6010 C   0  0  0  0  0
  -34.9030   53.9690    4.2540 C   0  0  0  0  0
  -31.6750   54.4160    5.6810 N   0  0  0  0  0
  -30.8730   53.5500    6.5480 C   0  0  0  0  0
  -29.3360   53.7980    6.4550 C   0  0  0  0  0
  -28.8010   54.6720    7.1450 O   0  0  0  0  0
  -31.2380   52.0650    6.3450 C   0  0  0  0  0
  -30.6040   51.2510    7.3290 O   0  0  0  0  0
  -28.6410   53.0340    5.6160 N   0  0  0  0  0
  -27.1760   53.1010    5.5190 C   0  0  0  0  0
  -26.6640   51.8890    4.7460 C   0  0  0  0  0
  -26.9270   50.7410    5.5060 O   0  0  0  0  0
  -26.6520   54.4070    4.8700 C   0  0  0  0  0
  -27.2990   54.9570    3.9690 O   0  0  0  0  0
  -27.8310   49.6530    4.7720 P   0  0  0  0  0
  -27.1130   49.0530    3.4780 O   0  0  0  0  0
  -29.2180   50.3690    4.3330 O   0  0  0  0  0
  -28.1070   48.4660    5.8200 O   0  0  0  0  0
  -25.5090   54.9310    5.3450 N   0  0  0  0  0
  -24.8960   56.0290    4.6020 C   0  0  0  0  0
  -24.8620   55.8210    3.0790 C   0  0  0  0  0
  -24.6930   54.7040    2.5880 O   0  0  0  0  0
  -23.4700   56.1140    5.1920 C   0  0  0  0  0
  -23.3590   54.9990    6.2240 C   0  0  0  0  0
  -24.7760   54.6420    6.5870 C   0  0  0  0  0
  -25.0370   56.9170    2.3470 N   0  0  0  0  0
  -25.1010   56.8860    0.8810 C   0  0  0  0  0
  -23.8540   57.5630    0.2950 C   0  0  0  0  0
  -23.2510   58.4140    0.9580 O   0  0  0  0  0
  -26.4400   57.4940    0.3780 C   0  0  0  0  0
  -26.4100   57.7750   -1.1200 C   0  0  0  0  0
  -27.5580   56.5470    0.7100 C   0  0  0  0  0
  -23.4360   57.1460   -0.9070 N   0  0  0  0  0
  -22.2130   57.7130   -1.5350 C   0  0  0  0  0
  -22.5010   58.3840   -2.8570 C   0  0  0  0  0
  -22.6370   57.7380   -3.9140 O   0  0  0  0  0
  -21.0740   56.6910   -1.6160 C   0  0  0  0  0
  -20.6610   56.1730   -0.2660 C   0  0  0  0  0
  -19.7570   56.8870    0.5150 C   0  0  0  0  0
  -21.2260   55.0010    0.2450 C   0  0  0  0  0
  -19.3990   56.4370    1.7590 C   0  0  0  0  0
  -20.8800   54.5430    1.4900 C   0  0  0  0  0
  -19.9710   55.2460    2.2500 C   0  0  0  0  0
  -22.6020   59.7010   -2.7620 N   0  0  0  0  0
  -23.2550   60.4700   -3.7970 C   0  0  0  0  0
  -22.3670   61.3460   -4.6460 C   0  0  0  0  0
  -21.1590   61.4230   -4.4130 O   0  0  0  0  0
  -22.9940   62.0010   -5.6330 N   0  0  0  0  0
  -22.3560   63.0090   -6.5110 C   0  0  0  0  0
  -20.9750   63.4900   -6.0080 C   0  0  0  0  0
  -20.8190   63.9690   -4.8650 O   0  0  0  0  0
  -23.3120   64.2050   -6.7700 C   0  0  0  0  0
  -19.9970   63.3380   -6.9010 N   0  0  0  0  0
  -18.5660   63.4440   -6.6000 C   0  0  0  0  0
  -18.1240   64.8710   -6.1920 C   0  0  0  0  0
  -18.4460   65.8650   -6.8600 O   0  0  0  0  0
  -17.7110   62.8200   -7.7880 C   0  0  0  0  0
  -16.3050   62.8900   -7.4900 O   0  0  0  0  0
  -18.0310   63.4690   -9.1790 C   0  0  0  0  0
  -17.4600   65.0770   -5.1620 O   0  0  0  0  0
  -34.6601   64.5084   -0.7948 H   0  0  0  0  0
  -33.6672   63.8594   -2.0136 H   0  0  0  0  0
  -32.2530   63.1718   -0.4900 H   0  0  0  0  0
  -30.7444   64.9982   -0.0291 H   0  0  0  0  0
  -31.9737   65.9114    0.7794 H   0  0  0  0  0
  -31.3632   65.8300   -2.2196 H   0  0  0  0  0
  -31.8290   67.1946   -1.2728 H   0  0  0  0  0
  -34.1645   66.6148   -1.3235 H   0  0  0  0  0
  -33.6911   65.9482   -2.8286 H   0  0  0  0  0
  -32.5577   61.9033    1.1528 H   0  0  0  0  0
  -33.7505   63.2091    3.0912 H   0  0  0  0  0
  -34.5284   61.1390    4.6076 H   0  0  0  0  0
  -36.0671   60.1144    2.9744 H   0  0  0  0  0
  -35.4745   62.7269    5.3895 H   0  0  0  0  0
  -36.3548   63.1205    3.8925 H   0  0  0  0  0
  -36.7288   61.6211    4.7773 H   0  0  0  0  0
  -32.6365   59.9071    2.3040 H   0  0  0  0  0
  -31.3581   58.2804    2.9734 H   0  0  0  0  0
  -30.2767   59.9209    5.2624 H   0  0  0  0  0
  -29.5940   59.8024    3.5928 H   0  0  0  0  0
  -28.9329   57.5826    3.9077 H   0  0  0  0  0
  -29.9830   57.3824    5.3518 H   0  0  0  0  0
  -28.4518   59.3559    6.2277 H   0  0  0  0  0
  -27.3038   58.6096    5.0706 H   0  0  0  0  0
  -28.2724   56.4627    6.4520 H   0  0  0  0  0
  -26.8508   59.5216    7.4132 H   0  0  0  0  0
  -26.4573   56.6936    9.4426 H   0  0  0  0  0
  -27.3847   55.6319    8.3777 H   0  0  0  0  0
  -31.9230   56.4279    3.7173 H   0  0  0  0  0
  -34.0796   56.5563    5.7960 H   0  0  0  0  0
  -35.4162   56.0063    4.1245 H   0  0  0  0  0
  -33.8066   56.7539    2.4536 H   0  0  0  0  0
  -33.0035   55.1647    2.4786 H   0  0  0  0  0
  -34.6704   55.3104    1.8693 H   0  0  0  0  0
  -34.0161   53.3362    4.2204 H   0  0  0  0  0
  -35.3798   53.8769    5.2298 H   0  0  0  0  0
  -35.6013   53.6596    3.4763 H   0  0  0  0  0
  -31.3057   54.6655    4.7635 H   0  0  0  0  0
  -31.1354   53.8268    7.5691 H   0  0  0  0  0
  -30.9004   51.7511    5.3573 H   0  0  0  0  0
  -32.3182   51.9520    6.4370 H   0  0  0  0  0
  -30.8434   50.3325    7.1855 H   0  0  0  0  0
  -29.1434   52.3778    5.0182 H   0  0  0  0  0
  -26.7924   53.0975    6.5393 H   0  0  0  0  0
  -25.5927   51.9833    4.5685 H   0  0  0  0  0
  -27.1651   51.8217    3.7803 H   0  0  0  0  0
  -29.6504   50.7301    5.1103 H   0  0  0  0  0
  -28.5387   48.8229    6.5996 H   0  0  0  0  0
  -25.4747   56.9461    4.7124 H   0  0  0  0  0
  -23.2956   57.0875    5.6503 H   0  0  0  0  0
  -22.7181   55.9983    4.4114 H   0  0  0  0  0
  -22.7921   55.3196    7.0981 H   0  0  0  0  0
  -22.8207   54.1390    5.8256 H   0  0  0  0  0
  -24.8840   53.6079    6.9143 H   0  0  0  0  0
  -25.1506   55.2035    7.4429 H   0  0  0  0  0
  -25.1304   57.8144    2.8228 H   0  0  0  0  0
  -25.0942   55.8553    0.5265 H   0  0  0  0  0
  -26.5964   58.4498    0.8781 H   0  0  0  0  0
  -25.6098   58.4817   -1.3399 H   0  0  0  0  0
  -26.2331   56.8445   -1.6594 H   0  0  0  0  0
  -27.3657   58.1990   -1.4280 H   0  0  0  0  0
  -27.3795   55.5900    0.2198 H   0  0  0  0  0
  -27.6006   56.4014    1.7894 H   0  0  0  0  0
  -28.5022   56.9649    0.3609 H   0  0  0  0  0
  -23.9655   56.4272   -1.4002 H   0  0  0  0  0
  -21.8598   58.5035   -0.8728 H   0  0  0  0  0
  -20.2116   57.1861   -2.0624 H   0  0  0  0  0
  -21.4256   55.8444   -2.2058 H   0  0  0  0  0
  -19.3292   57.8140    0.1332 H   0  0  0  0  0
  -21.9490   54.4456   -0.3524 H   0  0  0  0  0
  -18.6808   56.9933    2.3613 H   0  0  0  0  0
  -21.3228   53.6254    1.8774 H   0  0  0  0  0
  -19.6923   54.8787    3.2377 H   0  0  0  0  0
  -22.2142   60.1786   -1.9484 H   0  0  0  0  0
  -23.9425   61.1432   -3.2848 H   0  0  0  0  0
  -23.7015   59.7440   -4.4764 H   0  0  0  0  0
  -23.9795   61.7906   -5.7906 H   0  0  0  0  0
  -22.1628   62.5041   -7.4575 H   0  0  0  0  0
  -24.2204   63.8445   -7.2527 H   0  0  0  0  0
  -23.5662   64.6774   -5.8211 H   0  0  0  0  0
  -22.8181   64.9297   -7.4173 H   0  0  0  0  0
  -20.2637   63.1330   -7.8639 H   0  0  0  0  0
  -18.3672   62.8513   -5.7071 H   0  0  0  0  0
  -17.9999   61.7722   -7.8696 H   0  0  0  0  0
  -15.8058   62.5097   -8.2164 H   0  0  0  0  0
  -19.0848   63.3197   -9.4144 H   0  0  0  0  0
  -17.8141   64.5364   -9.1390 H   0  0  0  0  0
  -17.4159   63.0005   -9.9472 H   0  0  0  0  0
  -17.2714   64.2399   -4.7315 H   0  0  0  0  0
  1  2  1  0  0  0
  1  7  1  0  0  0
  2  3  1  0  0  0
  2  5  1  0  0  0
  3  4  2  0  0  0
  3  8  1  0  0  0
  5  6  1  0  0  0
  6  7  1  0  0  0
  8  9  1  0  0  0
  9 10  1  0  0  0
  9 12  1  0  0  0
 10 11  2  0  0  0
 10 15  1  0  0  0
 12 13  1  0  0  0
 12 14  1  0  0  0
 15 16  1  0  0  0
 16 17  1  0  0  0
 16 19  1  0  0  0
 17 18  2  0  0  0
 17 26  1  0  0  0
 19 20  1  0  0  0
 20 21  1  0  0  0
 21 22  1  0  0  0
 22 23  1  0  0  0
 23 24  2  0  0  0
 23 25  1  0  0  0
 26 27  1  0  0  0
 27 28  1  0  0  0
 27 30  1  0  0  0
 28 29  2  0  0  0
 28 33  1  0  0  0
 30 31  1  0  0  0
 30 32  1  0  0  0
 33 34  1  0  0  0
 34 35  1  0  0  0
 34 37  1  0  0  0
 35 36  2  0  0  0
 35 39  1  0  0  0
 37 38  1  0  0  0
 39 40  1  0  0  0
 40 41  1  0  0  0
 40 43  1  0  0  0
 41 42  1  0  0  0
 42 45  1  0  0  0
 43 44  2  0  0  0
 43 49  1  0  0  0
 45 46  2  0  0  0
 45 47  1  0  0  0
 45 48  1  0  0  0
 49 50  1  0  0  0
 49 55  1  0  0  0
 50 51  1  0  0  0
 50 53  1  0  0  0
 51 52  2  0  0  0
 51 56  1  0  0  0
 53 54  1  0  0  0
 54 55  1  0  0  0
 56 57  1  0  0  0
 57 58  1  0  0  0
 57 60  1  0  0  0
 58 59  2  0  0  0
 58 63  1  0  0  0
 60 61  1  0  0  0
 60 62  1  0  0  0
 63 64  1  0  0  0
 64 65  1  0  0  0
 64 67  1  0  0  0
 65 66  2  0  0  0
 65 74  1  0  0  0
 67 68  1  0  0  0
 68 69  4  0  0  0
 68 70  4  0  0  0
 69 71  4  0  0  0
 70 72  4  0  0  0
 71 73  4  0  0  0
 72 73  4  0  0  0
 74 75  1  0  0  0
 75 76  1  0  0  0
 76 77  2  0  0  0
 76 78  1  0  0  0
 78 79  1  0  0  0
 79 80  1  0  0  0
 79 82  1  0  0  0
 80 81  2  0  0  0
 80 83  1  0  0  0
 83 84  1  0  0  0
 84 85  1  0  0  0
 84 87  1  0  0  0
 85 86  2  0  0  0
 85 90  1  0  0  0
 87 88  1  0  0  0
 87 89  1  0  0  0
  1 91  1  0  0  0
  1 92  1  0  0  0
  2 93  1  0  0  0
  5 94  1  0  0  0
  5 95  1  0  0  0
  6 96  1  0  0  0
  6 97  1  0  0  0
  7 98  1  0  0  0
  7 99  1  0  0  0
  8100  1  0  0  0
  9101  1  0  0  0
 12102  1  0  0  0
 13103  1  0  0  0
 14104  1  0  0  0
 14105  1  0  0  0
 14106  1  0  0  0
 15107  1  0  0  0
 16108  1  0  0  0
 19109  1  0  0  0
 19110  1  0  0  0
 20111  1  0  0  0
 20112  1  0  0  0
 21113  1  0  0  0
 21114  1  0  0  0
 22115  1  0  0  0
 24116  1  0  0  0
 25117  1  0  0  0
 25118  1  0  0  0
 26119  1  0  0  0
 27120  1  0  0  0
 30121  1  0  0  0
 31122  1  0  0  0
 31123  1  0  0  0
 31124  1  0  0  0
 32125  1  0  0  0
 32126  1  0  0  0
 32127  1  0  0  0
 33128  1  0  0  0
 34129  1  0  0  0
 37130  1  0  0  0
 37131  1  0  0  0
 38132  1  0  0  0
 39133  1  0  0  0
 40134  1  0  0  0
 41135  1  0  0  0
 41136  1  0  0  0
 47137  1  0  0  0
 48138  1  0  0  0
 50139  1  0  0  0
 53140  1  0  0  0
 53141  1  0  0  0
 54142  1  0  0  0
 54143  1  0  0  0
 55144  1  0  0  0
 55145  1  0  0  0
 56146  1  0  0  0
 57147  1  0  0  0
 60148  1  0  0  0
 61149  1  0  0  0
 61150  1  0  0  0
 61151  1  0  0  0
 62152  1  0  0  0
 62153  1  0  0  0
 62154  1  0  0  0
 63155  1  0  0  0
 64156  1  0  0  0
 67157  1  0  0  0
 67158  1  0  0  0
 69159  1  0  0  0
 70160  1  0  0  0
 71161  1  0  0  0
 72162  1  0  0  0
 73163  1  0  0  0
 74164  1  0  0  0
 75165  1  0  0  0
 75166  1  0  0  0
 78167  1  0  0  0
 79168  1  0  0  0
 82169  1  0  0  0
 82170  1  0  0  0
 82171  1  0  0  0
 83172  1  0  0  0
 84173  1  0  0  0
 87174  1  0  0  0
 88175  1  0  0  0
 89176  1  0  0  0
 89177  1  0  0  0
 89178  1  0  0  0
 90179  1  0  0  0
M  END
$$$$
