### 
### Created by X-TOOL on Mon Sep 10 21:12:53 2018
### 

@<TRIPOS>MOLECULE
1y98_ligand
  177   179     1     0     0
SMALL
GAST_HUCK


@<TRIPOS>ATOM
      1 N         -33.7390   64.5120   -1.2330 N.4       1 PRO         0.2461
      2 CA        -32.7470   64.1010   -0.2060 C.3       1 PRO         0.0670
      3 C         -33.3750   63.7730    1.1800 C.2       1 PRO         0.2268
      4 O         -34.1060   64.6180    1.7370 O.2       1 PRO        -0.3907
      5 CB        -31.7840   65.3150   -0.1130 C.3       1 PRO         0.0127
      6 CG        -32.0320   66.1330   -1.4140 C.3       1 PRO        -0.0053
      7 CD        -33.4950   65.8730   -1.7590 C.3       1 PRO        -0.0313
      8 N         -33.1070   62.5610    1.7060 N.am      1 THR        -0.2586
      9 CA        -33.5740   62.1340    3.0570 C.3       1 THR         0.1566
     10 C         -32.5920   61.2210    3.8300 C.2       1 THR         0.2065
     11 O         -32.1210   61.6050    4.9020 O.2       1 THR        -0.3943
     12 CB        -34.8270   61.5300    3.6350 C.3       1 THR         0.0924
     13 OG1       -35.2650   60.5380    2.6600 O.3       1 THR        -0.3874
     14 CG2       -35.9360   62.3130    4.4930 C.3       1 THR        -0.0346
     15 N         -32.2940   60.0440    3.2550 N.am      1 ARG        -0.2636
     16 CA        -31.5180   58.9110    3.8480 C.3       1 ARG         0.1311
     17 C         -32.2790   58.0560    4.8640 C.2       1 ARG         0.2039
     18 O         -32.6250   58.4940    5.9590 O.2       1 ARG        -0.3944
     19 CB        -30.1390   59.2890    4.3850 C.3       1 ARG        -0.0092
     20 CG        -29.3300   58.0610    4.8030 C.3       1 ARG        -0.0156
     21 CD        -28.1880   58.4470    5.6870 C.3       1 ARG         0.0627
     22 NE        -27.9050   57.3940    6.6470 N.pl3     1 ARG        -0.2723
     23 CZ        -27.2010   57.5600    7.7610 C.cat     1 ARG         0.2882
     24 NH1       -26.7000   58.7360    8.0460 N.pl3     1 ARG        -0.2849
     25 NH2       -26.9990   56.5520    8.5900 N.pl3     1 ARG        -0.2849
     26 N         -32.4850   56.8080    4.4790 N.am      1 VAL        -0.2635
     27 CA        -33.4840   55.9610    5.1040 C.3       1 VAL         0.1333
     28 C         -32.8700   54.8930    6.0410 C.2       1 VAL         0.2042
     29 O         -33.4700   54.5410    7.0810 O.2       1 VAL        -0.3944
     30 CB        -34.4950   55.4330    4.0210 C.3       1 VAL        -0.0063
     31 CG1       -33.9540   55.6840    2.6010 C.3       1 VAL        -0.0584
     32 CG2       -34.9030   53.9690    4.2540 C.3       1 VAL        -0.0584
     33 N         -31.6750   54.4160    5.6810 N.am      1 SER        -0.2616
     34 CA        -30.8730   53.5500    6.5480 C.3       1 SER         0.1539
     35 C         -29.3360   53.7980    6.4550 C.2       1 SER         0.2063
     36 O         -28.8010   54.6720    7.1450 O.2       1 SER        -0.3943
     37 CB        -31.2380   52.0650    6.3450 C.3       1 SER         0.0843
     38 OG        -30.6040   51.2510    7.3290 O.3       1 SER        -0.3903
     39 N         -28.6410   53.0340    5.6160 N.am      1 SEP        -0.2612
     40 CA        -27.1760   53.1010    5.5190 C.3       1 SEP         0.1588
     41 CB        -26.6640   51.8890    4.7460 C.3       1 SEP         0.1184
     42 OG        -26.9270   50.7410    5.5060 O.3       1 SEP        -0.2714
     43 C         -26.6520   54.4070    4.8700 C.2       1 SEP         0.2090
     44 O         -27.2990   54.9570    3.9690 O.2       1 SEP        -0.3941
     45 P         -27.8310   49.6530    4.7720 P.3       1 SEP         0.2010
     46 O1P       -27.1130   49.0530    3.4780 O.co2     1 SEP        -0.5537
     47 O2P       -29.2180   50.3690    4.3330 O.co2     1 SEP        -0.5537
     48 O3P       -28.1070   48.4660    5.8200 O.co2     1 SEP        -0.5537
     49 N         -25.5090   54.9310    5.3450 N.am      1 PRO        -0.2498
     50 CA        -24.8960   56.0290    4.6020 C.3       1 PRO         0.1338
     51 C         -24.8620   55.8210    3.0790 C.2       1 PRO         0.2041
     52 O         -24.6930   54.7040    2.5880 O.2       1 PRO        -0.3944
     53 CB        -23.4700   56.1140    5.1920 C.3       1 PRO        -0.0104
     54 CG        -23.3590   54.9990    6.2240 C.3       1 PRO        -0.0281
     55 CD        -24.7760   54.6420    6.5870 C.3       1 PRO         0.0369
     56 N         -25.0370   56.9170    2.3470 N.am      1 VAL        -0.2635
     57 CA        -25.1010   56.8860    0.8810 C.3       1 VAL         0.1333
     58 C         -23.8540   57.5630    0.2950 C.2       1 VAL         0.2043
     59 O         -23.2510   58.4140    0.9580 O.2       1 VAL        -0.3944
     60 CB        -26.4400   57.4940    0.3780 C.3       1 VAL        -0.0063
     61 CG1       -26.4100   57.7750   -1.1200 C.3       1 VAL        -0.0584
     62 CG2       -27.5580   56.5470    0.7100 C.3       1 VAL        -0.0584
     63 N         -23.4360   57.1460   -0.9070 N.am      1 PHE        -0.2619
     64 CA        -22.2130   57.7130   -1.5350 C.3       1 PHE         0.1404
     65 C         -22.5010   58.3840   -2.8570 C.2       1 PHE         0.2058
     66 O         -22.6370   57.7380   -3.9140 O.2       1 PHE        -0.3942
     67 CB        -21.0740   56.6910   -1.6160 C.3       1 PHE         0.0214
     68 CG        -20.6610   56.1730   -0.2660 C.ar      1 PHE        -0.0386
     69 CD1       -19.7570   56.8870    0.5150 C.ar      1 PHE        -0.0601
     70 CD2       -21.2260   55.0010    0.2450 C.ar      1 PHE        -0.0601
     71 CE1       -19.3990   56.4370    1.7590 C.ar      1 PHE        -0.0686
     72 CE2       -20.8800   54.5430    1.4900 C.ar      1 PHE        -0.0686
     73 CZ        -19.9710   55.2460    2.2500 C.ar      1 PHE        -0.0687
     74 N         -22.6020   59.7010   -2.7620 N.am      1 GLY        -0.2663
     75 CA        -23.2550   60.4700   -3.7970 C.3       1 GLY         0.1201
     76 C         -22.3670   61.3460   -4.6460 C.2       1 GLY         0.2007
     77 O         -21.1590   61.4230   -4.4130 O.2       1 GLY        -0.3947
     78 N         -22.9940   62.0010   -5.6330 N.am      1 ALA        -0.2642
     79 CA        -22.3560   63.0090   -6.5110 C.3       1 ALA         0.1281
     80 C         -20.9750   63.4900   -6.0080 C.2       1 ALA         0.2031
     81 O         -20.8190   63.9690   -4.8650 O.2       1 ALA        -0.3944
     82 CB        -23.3120   64.2050   -6.7700 C.3       1 ALA        -0.0244
     83 N         -19.9970   63.3380   -6.9010 N.am      1 THR        -0.2670
     84 CA        -18.5660   63.4440   -6.6000 C.3       1 THR         0.1198
     85 C         -18.1240   64.8710   -6.1920 C.2       1 THR         0.0626
     86 O         -18.4460   65.8650   -6.8600 O.co2     1 THR        -0.5665
     87 CB        -17.7110   62.8200   -7.7880 C.3       1 THR         0.0869
     88 OG1       -16.3050   62.8900   -7.4900 O.3       1 THR        -0.3880
     89 CG2       -18.0310   63.4690   -9.1790 C.3       1 THR        -0.0352
     90 OXT       -17.4600   65.0770   -5.1620 O.co2     1 THR        -0.5665
     91 H1        -34.6582   64.4871   -0.8201 H         1 PRO         0.2035
     92 H2        -33.6972   63.8589   -1.9997 H         1 PRO         0.2035
     93 H3        -32.2022   63.2113   -0.5548 H         1 PRO         0.1099
     94 H4        -30.7388   64.9755   -0.0642 H         1 PRO         0.0347
     95 H5        -32.0140   65.9228    0.7745 H         1 PRO         0.0347
     96 H6        -31.3742   65.7839   -2.2236 H         1 PRO         0.0320
     97 H7        -31.8592   67.2049   -1.2376 H         1 PRO         0.0320
     98 H8        -34.1508   66.6073   -1.2684 H         1 PRO         0.0814
     99 H9        -33.6543   65.9082   -2.8468 H         1 PRO         0.0814
    100 H10       -32.5684   61.9162    1.1637 H         1 THR         0.1885
    101 H11       -33.5453   63.1135    3.5568 H         1 THR         0.0826
    102 H12       -34.4088   60.9052    4.4379 H         1 THR         0.0639
    103 H13       -34.5843   59.8850    2.5466 H         1 THR         0.2101
    104 H14       -36.7367   61.6158    4.7805 H         1 THR         0.0257
    105 H15       -36.3595   63.1283    3.8880 H         1 THR         0.0257
    106 H16       -35.4715   62.7312    5.3981 H         1 THR         0.0257
    107 H17       -32.6298   59.9098    2.3227 H         1 ARG         0.1883
    108 H18       -31.3229   58.2406    2.9980 H         1 ARG         0.0800
    109 H19       -30.2659   59.9448    5.2590 H         1 ARG         0.0313
    110 H20       -29.5875   59.8270    3.5999 H         1 ARG         0.0313
    111 H21       -28.9367   57.5660    3.9029 H         1 ARG         0.0301
    112 H22       -29.9865   57.3657    5.3466 H         1 ARG         0.0301
    113 H23       -28.4455   59.3695    6.2280 H         1 ARG         0.0689
    114 H24       -27.2952   58.6216    5.0686 H         1 ARG         0.0689
    115 H25       -28.2760   56.4535    6.4501 H         1 ARG         0.2642
    116 H26       -26.1537   58.8676    8.9092 H         1 ARG         0.2615
    117 H27       -26.8523   59.5293    7.4069 H         1 ARG         0.2615
    118 H28       -27.3885   55.6229    8.3756 H         1 ARG         0.2615
    119 H29       -26.4520   56.6949    9.4510 H         1 ARG         0.2615
    120 H30       -31.9341   56.4353    3.7323 H         1 VAL         0.1883
    121 H31       -34.0725   56.6153    5.7640 H         1 VAL         0.0802
    122 H32       -35.4123   56.0316    4.1225 H         1 VAL         0.0343
    123 H33       -34.6762   55.3074    1.8616 H         1 VAL         0.0234
    124 H34       -32.9947   55.1604    2.4762 H         1 VAL         0.0234
    125 H35       -33.8048   56.7634    2.4509 H         1 VAL         0.0234
    126 H36       -35.2797   53.8524    5.2809 H         1 VAL         0.0234
    127 H37       -34.0292   53.3171    4.1078 H         1 VAL         0.0234
    128 H38       -35.6921   53.6902    3.5402 H         1 VAL         0.0234
    129 H39       -31.3129   54.6606    4.7815 H         1 SER         0.1884
    130 H40       -31.1575   53.8034    7.5799 H         1 SER         0.0823
    131 H41       -30.9085   51.7456    5.3453 H         1 SER         0.0606
    132 H42       -32.3286   51.9468    6.4268 H         1 SER         0.0606
    133 H43       -30.8410   50.3420    7.1870 H         1 SER         0.2097
    134 H44       -29.1336   52.3906    5.0300 H         1 SEP         0.1884
    135 H45       -26.7724   53.0554    6.5412 H         1 SEP         0.0827
    136 H46       -25.5810   51.9845    4.5786 H         1 SEP         0.0662
    137 H47       -27.1801   51.8202    3.7771 H         1 SEP         0.0662
    138 H48       -25.4447   56.9605    4.8049 H         1 PRO         0.0802
    139 H49       -23.3153   57.0918    5.6716 H         1 PRO         0.0313
    140 H50       -22.7217   55.9724    4.3983 H         1 PRO         0.0313
    141 H51       -22.8120   55.3500    7.1114 H         1 PRO         0.0287
    142 H52       -22.8415   54.1284    5.7948 H         1 PRO         0.0287
    143 H53       -24.8602   53.5796    6.8596 H         1 PRO         0.0524
    144 H54       -25.1416   55.2638    7.4175 H         1 PRO         0.0524
    145 H55       -25.1286   57.7968    2.8135 H         1 VAL         0.1883
    146 H56       -25.0828   55.8333    0.5625 H         1 VAL         0.0802
    147 H57       -26.6118   58.4450    0.9035 H         1 VAL         0.0343
    148 H58       -27.3741   58.2030   -1.4321 H         1 VAL         0.0234
    149 H59       -26.2316   56.8367   -1.6656 H         1 VAL         0.0234
    150 H60       -25.6028   58.4882   -1.3432 H         1 VAL         0.0234
    151 H61       -27.5661   56.3546    1.7930 H         1 VAL         0.0234
    152 H62       -27.4088   55.6000    0.1706 H         1 VAL         0.0234
    153 H63       -28.5176   56.9929    0.4096 H         1 VAL         0.0234
    154 H64       -23.9552   56.4413   -1.3906 H         1 PHE         0.1885
    155 H65       -21.8619   58.5079   -0.8605 H         1 PHE         0.0823
    156 H66       -20.2046   57.1700   -2.0900 H         1 PHE         0.0474
    157 H67       -21.4061   55.8422   -2.2319 H         1 PHE         0.0474
    158 H68       -19.3315   57.8089    0.1353 H         1 PHE         0.0557
    159 H69       -21.9450   54.4487   -0.3492 H         1 PHE         0.0557
    160 H70       -18.6847   56.9902    2.3580 H         1 PHE         0.0599
    161 H71       -21.3203   53.6305    1.8753 H         1 PHE         0.0599
    162 H72       -19.6938   54.8807    3.2322 H         1 PHE         0.0559
    163 H73       -22.2218   60.1692   -1.9644 H         1 GLY         0.1881
    164 H74       -23.9994   61.1187   -3.3122 H         1 GLY         0.0763
    165 H75       -23.7658   59.7628   -4.4670 H         1 GLY         0.0763
    166 H76       -23.9602   61.7947   -5.7875 H         1 ALA         0.1883
    167 H77       -22.1827   62.5178   -7.4799 H         1 ALA         0.0797
    168 H78       -22.8147   64.9371   -7.4232 H         1 ALA         0.0277
    169 H79       -23.5693   64.6827   -5.8131 H         1 ALA         0.0277
    170 H80       -24.2292   63.8425   -7.2572 H         1 ALA         0.0277
    171 H81       -20.2584   63.1370   -7.8451 H         1 THR         0.1876
    172 H82       -18.3838   62.8110   -5.7190 H         1 THR         0.0752
    173 H83       -17.9816   61.7562   -7.8590 H         1 THR         0.0632
    174 H84       -15.8110   62.5137   -8.2088 H         1 THR         0.2100
    175 H85       -17.4108   62.9970   -9.9552 H         1 THR         0.0256
    176 H86       -17.8124   64.5463   -9.1400 H         1 THR         0.0256
    177 H87       -19.0942   63.3189   -9.4178 H         1 THR         0.0256
@<TRIPOS>BOND
     1    1    2 1  
     2    1    7 1  
     3    2    3 1  
     4    2    5 1  
     5    3    4 2  
     6    3    8 am 
     7    5    6 1  
     8    6    7 1  
     9    8    9 1  
    10    9   10 1  
    11    9   12 1  
    12   10   11 2  
    13   10   15 am 
    14   12   13 1  
    15   12   14 1  
    16   15   16 1  
    17   16   17 1  
    18   16   19 1  
    19   17   18 2  
    20   17   26 am 
    21   19   20 1  
    22   20   21 1  
    23   21   22 1  
    24   22   23 ar 
    25   23   24 ar 
    26   23   25 ar 
    27   26   27 1  
    28   27   28 1  
    29   27   30 1  
    30   28   29 2  
    31   28   33 am 
    32   30   31 1  
    33   30   32 1  
    34   33   34 1  
    35   34   35 1  
    36   34   37 1  
    37   35   36 2  
    38   35   39 am 
    39   37   38 1  
    40   39   40 1  
    41   40   41 1  
    42   40   43 1  
    43   41   42 1  
    44   42   45 1  
    45   43   44 2  
    46   43   49 am 
    47   45   46 ar 
    48   45   47 ar 
    49   45   48 ar 
    50   49   50 1  
    51   49   55 1  
    52   50   51 1  
    53   50   53 1  
    54   51   52 2  
    55   51   56 am 
    56   53   54 1  
    57   54   55 1  
    58   56   57 1  
    59   57   58 1  
    60   57   60 1  
    61   58   59 2  
    62   58   63 am 
    63   60   61 1  
    64   60   62 1  
    65   63   64 1  
    66   64   65 1  
    67   64   67 1  
    68   65   66 2  
    69   65   74 am 
    70   67   68 1  
    71   68   69 ar 
    72   68   70 ar 
    73   69   71 ar 
    74   70   72 ar 
    75   71   73 ar 
    76   72   73 ar 
    77   74   75 1  
    78   75   76 1  
    79   76   77 2  
    80   76   78 am 
    81   78   79 1  
    82   79   80 1  
    83   79   82 1  
    84   80   81 2  
    85   80   83 am 
    86   83   84 1  
    87   84   85 1  
    88   84   87 1  
    89   85   86 ar 
    90   85   90 ar 
    91   87   88 1  
    92   87   89 1  
    93    1   91 1  
    94    1   92 1  
    95    2   93 1  
    96    5   94 1  
    97    5   95 1  
    98    6   96 1  
    99    6   97 1  
   100    7   98 1  
   101    7   99 1  
   102    8  100 1  
   103    9  101 1  
   104   12  102 1  
   105   13  103 1  
   106   14  104 1  
   107   14  105 1  
   108   14  106 1  
   109   15  107 1  
   110   16  108 1  
   111   19  109 1  
   112   19  110 1  
   113   20  111 1  
   114   20  112 1  
   115   21  113 1  
   116   21  114 1  
   117   22  115 1  
   118   24  116 1  
   119   24  117 1  
   120   25  118 1  
   121   25  119 1  
   122   26  120 1  
   123   27  121 1  
   124   30  122 1  
   125   31  123 1  
   126   31  124 1  
   127   31  125 1  
   128   32  126 1  
   129   32  127 1  
   130   32  128 1  
   131   33  129 1  
   132   34  130 1  
   133   37  131 1  
   134   37  132 1  
   135   38  133 1  
   136   39  134 1  
   137   40  135 1  
   138   41  136 1  
   139   41  137 1  
   140   50  138 1  
   141   53  139 1  
   142   53  140 1  
   143   54  141 1  
   144   54  142 1  
   145   55  143 1  
   146   55  144 1  
   147   56  145 1  
   148   57  146 1  
   149   60  147 1  
   150   61  148 1  
   151   61  149 1  
   152   61  150 1  
   153   62  151 1  
   154   62  152 1  
   155   62  153 1  
   156   63  154 1  
   157   64  155 1  
   158   67  156 1  
   159   67  157 1  
   160   69  158 1  
   161   70  159 1  
   162   71  160 1  
   163   72  161 1  
   164   73  162 1  
   165   74  163 1  
   166   75  164 1  
   167   75  165 1  
   168   78  166 1  
   169   79  167 1  
   170   82  168 1  
   171   82  169 1  
   172   82  170 1  
   173   83  171 1  
   174   84  172 1  
   175   87  173 1  
   176   88  174 1  
   177   89  175 1  
   178   89  176 1  
   179   89  177 1  
@<TRIPOS>SUBSTRUCTURE
     1 PRO         1

