1t48_ligand
  -I-interpret- 

 45 47  0  0  0  0  0  0  0  0999 V2000
   48.6060   31.1550   25.9510 Br  0  0  0  0  0
   50.4400   30.9340   25.6340 C   0  0  0  0  0
   51.2350   30.4560   26.7650 C   0  0  0  0  0
   50.7290   30.2220   27.8890 O   0  0  0  0  0
   52.6640   30.2570   26.5230 C   0  0  0  0  0
   53.6820   29.6420   27.9680 Br  0  0  0  0  0
   53.2220   30.5310   25.2820 C   0  0  0  0  0
   51.0450   31.1900   24.4020 C   0  0  0  0  0
   52.4220   30.9820   24.2320 C   0  0  0  0  0
   53.0650   31.2630   22.9060 C   0  0  0  0  0
   52.5540   32.0930   22.1590 O   0  0  0  0  0
   54.1870   30.6490   22.5100 C   0  0  0  0  0
   54.6610   29.4340   22.8460 C   0  0  0  0  0
   54.0160   28.4220   23.7550 C   0  0  0  0  0
   55.1230   27.8280   24.6190 C   0  0  0  0  0
   55.1950   31.2310   21.5740 C   0  0  0  0  0
   55.2470   32.4340   20.8940 C   0  0  0  0  0
   56.2690   30.2560   21.4750 C   0  0  0  0  0
   55.9600   29.1660   22.2390 O   0  0  0  0  0
   57.3860   30.4870   20.7030 C   0  0  0  0  0
   57.4290   31.7010   20.0190 C   0  0  0  0  0
   56.3890   32.6430   20.1230 C   0  0  0  0  0
   58.8020   32.0390   19.0210 S   0  0  0  0  0
   59.1930   30.8750   18.2780 O   0  0  0  0  0
   58.4490   33.1340   18.0870 O   0  0  0  0  0
   60.1210   32.5230   20.0110 N   0  0  0  0  0
   59.8570   33.2870   21.2170 C   0  0  0  0  0
   61.4860   32.1720   19.6500 C   0  0  0  0  0
   51.4136   29.9192   28.4901 H   0  0  0  0  0
   54.2920   30.3929   25.1269 H   0  0  0  0  0
   50.4445   31.5533   23.5681 H   0  0  0  0  0
   53.5204   27.6436   23.1749 H   0  0  0  0  0
   53.2533   28.8923   24.3756 H   0  0  0  0  0
   55.8662   27.3527   23.9789 H   0  0  0  0  0
   55.5949   28.6213   25.1987 H   0  0  0  0  0
   54.6964   27.0869   25.2949 H   0  0  0  0  0
   54.4465   33.1711   20.9570 H   0  0  0  0  0
   58.1939   29.7589   20.6306 H   0  0  0  0  0
   56.4809   33.5805   19.5746 H   0  0  0  0  0
   59.3579   34.2193   20.9530 H   0  0  0  0  0
   59.2168   32.7060   21.8808 H   0  0  0  0  0
   60.7989   33.5073   21.7195 H   0  0  0  0  0
   61.5812   31.0871   19.6055 H   0  0  0  0  0
   61.7241   32.5991   18.6759 H   0  0  0  0  0
   62.1718   32.5678   20.3991 H   0  0  0  0  0
  1  2  1  0  0  0
  2  3  4  0  0  0
  2  8  4  0  0  0
  3  4  1  0  0  0
  3  5  4  0  0  0
  5  6  1  0  0  0
  5  7  4  0  0  0
  7  9  4  0  0  0
  8  9  4  0  0  0
  9 10  1  0  0  0
 10 11  2  0  0  0
 10 12  1  0  0  0
 12 13  4  0  0  0
 12 16  4  0  0  0
 13 14  1  0  0  0
 13 19  4  0  0  0
 14 15  1  0  0  0
 16 17  4  0  0  0
 16 18  4  0  0  0
 17 22  4  0  0  0
 18 19  4  0  0  0
 18 20  4  0  0  0
 20 21  4  0  0  0
 21 22  4  0  0  0
 21 23  1  0  0  0
 23 24  2  0  0  0
 23 25  2  0  0  0
 23 26  1  0  0  0
 26 27  1  0  0  0
 26 28  1  0  0  0
  4 29  1  0  0  0
  7 30  1  0  0  0
  8 31  1  0  0  0
 14 32  1  0  0  0
 14 33  1  0  0  0
 15 34  1  0  0  0
 15 35  1  0  0  0
 15 36  1  0  0  0
 17 37  1  0  0  0
 20 38  1  0  0  0
 22 39  1  0  0  0
 27 40  1  0  0  0
 27 41  1  0  0  0
 27 42  1  0  0  0
 28 43  1  0  0  0
 28 44  1  0  0  0
 28 45  1  0  0  0
M  END
$$$$
