2vpe_ligand
  -I-interpret- 

120119  0  0  0  0  0  0  0  0999 V2000
  -23.4050  -21.3110   14.5260 N   0  3  0  0  0
  -22.2250  -20.8350   15.3170 C   0  0  0  0  0
  -22.3030  -19.3340   15.4860 C   0  0  0  0  0
  -22.7720  -18.6300   14.5980 O   0  0  0  0  0
  -20.9160  -21.2010   14.6390 C   0  0  0  0  0
  -21.8270  -18.8460   16.6290 N   0  0  0  0  0
  -21.8310  -17.4230   16.9330 C   0  0  0  0  0
  -20.7240  -16.6720   16.1700 C   0  0  0  0  0
  -19.5320  -16.8500   16.4380 O   0  0  0  0  0
  -21.6700  -17.2320   18.4520 C   0  0  0  0  0
  -21.4290  -15.8070   18.9010 C   0  0  0  0  0
  -22.6180  -15.2580   19.6740 C   0  0  0  0  0
  -22.1580  -14.3940   20.7530 N   0  0  0  0  0
  -22.1320  -14.7270   22.0450 C   0  0  0  0  0
  -22.5690  -15.9130   22.4780 N   0  0  0  0  0
  -21.6700  -13.8540   22.9090 N   0  0  0  0  0
  -21.1280  -15.8230   15.2290 N   0  0  0  0  0
  -20.1650  -14.9780   14.4980 C   0  0  0  0  0
  -20.6100  -13.5350   14.5560 C   0  0  0  0  0
  -21.6450  -13.2340   15.1280 O   0  0  0  0  0
  -20.0550  -15.4120   13.0010 C   0  0  0  0  0
  -21.2450  -15.0140   12.3080 O   0  0  0  0  0
  -19.8360  -16.9200   12.9040 C   0  0  0  0  0
  -19.8550  -12.6430   13.9190 N   0  0  0  0  0
  -20.2800  -11.2650   13.7610 C   0  0  0  0  0
  -19.0820  -10.3680   13.4450 C   0  0  0  0  0
  -18.0760  -10.3060   14.6000 C   0  0  0  0  0
  -18.7090   -9.7630   15.9010 C   0  0  0  0  0
  -17.7070   -9.7450   17.0710 C   0  0  0  0  0
  -18.1720   -8.9890   18.2720 N   0  3  0  0  0
  -17.0530   -8.8730   19.2200 C   0  0  0  0  0
  -19.3220   -9.6330   18.9510 C   0  0  0  0  0
  -21.3780  -11.1130   12.7200 C   0  0  0  0  0
  -21.9900  -10.0470   12.6280 O   0  0  0  0  0
  -21.6340  -12.1720   11.9480 N   0  0  0  0  0
  -22.6970  -12.1700   10.9340 C   0  0  0  0  0
  -24.0320  -12.6270   11.5730 C   0  0  0  0  0
  -25.0970  -12.4440   10.9880 O   0  0  0  0  0
  -22.2900  -13.0590    9.7340 C   0  0  0  0  0
  -23.1210  -12.8850    8.4180 C   0  0  0  0  0
  -22.5690  -13.7100    7.2260 C   0  0  0  0  0
  -23.1950  -14.6890    6.7750 O   0  0  0  0  0
  -21.3950  -13.3260    6.7320 N   0  0  0  0  0
  -23.9560  -13.2000   12.7780 N   0  0  0  0  0
  -25.1230  -13.7000   13.5290 C   0  0  0  0  0
  -26.1780  -12.6100   13.7310 C   0  0  0  0  0
  -25.8540  -11.5170   14.1850 O   0  0  0  0  0
  -24.6880  -14.2930   14.8850 C   0  0  0  0  0
  -23.8970  -15.4560   14.6410 O   0  0  0  0  0
  -25.9000  -14.7100   15.7570 C   0  0  0  0  0
  -27.4350  -12.9280   13.3940 N   0  0  0  0  0
  -28.5340  -11.9580   13.4370 C   0  0  0  0  0
  -28.8260  -11.4710   14.8610 C   0  0  0  0  0
  -28.5829  -12.2012   15.8587 O   0  0  0  0  0
  -29.7950  -12.5550   12.8100 C   0  0  0  0  0
  -29.3162  -10.3236   15.0364 O   0  0  0  0  0
  -24.2645  -21.0491   15.0088 H   0  0  0  0  0
  -23.3886  -20.8812   13.6011 H   0  0  0  0  0
  -23.3625  -22.3257   14.4314 H   0  0  0  0  0
  -22.2505  -21.3245   16.2906 H   0  0  0  0  0
  -20.8683  -20.7217   13.6612 H   0  0  0  0  0
  -20.0825  -20.8601   15.2531 H   0  0  0  0  0
  -20.8611  -22.2829   14.5179 H   0  0  0  0  0
  -21.4450  -19.4939   17.3179 H   0  0  0  0  0
  -22.7821  -17.0014   16.6079 H   0  0  0  0  0
  -20.7918  -17.8059   18.7480 H   0  0  0  0  0
  -22.6077  -17.5492   18.9082 H   0  0  0  0  0
  -21.2758  -15.1876   18.0173 H   0  0  0  0  0
  -20.5564  -15.7935   19.5541 H   0  0  0  0  0
  -23.1838  -16.0881   20.0970 H   0  0  0  0  0
  -23.2486  -14.6808   18.9978 H   0  0  0  0  0
  -21.8301  -13.4615   20.5012 H   0  0  0  0  0
  -22.5419  -16.1341   23.4734 H   0  0  0  0  0
  -22.9297  -16.5973   21.8132 H   0  0  0  0  0
  -21.3407  -12.9437   22.5877 H   0  0  0  0  0
  -22.1217  -15.7551   15.0090 H   0  0  0  0  0
  -19.1893  -15.0940   14.9699 H   0  0  0  0  0
  -19.1988  -14.9232   12.5361 H   0  0  0  0  0
  -21.1816  -15.2788   11.3874 H   0  0  0  0  0
  -18.9146  -17.1861   13.4219 H   0  0  0  0  0
  -20.6764  -17.4383   13.3656 H   0  0  0  0  0
  -19.7612  -17.2083   11.8555 H   0  0  0  0  0
  -18.9571  -12.9350   13.5331 H   0  0  0  0  0
  -20.7097  -10.9452   14.7103 H   0  0  0  0  0
  -19.4542   -9.3589   13.2680 H   0  0  0  0  0
  -18.5714  -10.7820   12.5755 H   0  0  0  0  0
  -17.2693   -9.6328   14.3099 H   0  0  0  0  0
  -17.7209  -11.3182   14.7937 H   0  0  0  0  0
  -19.5377  -10.4164   16.1738 H   0  0  0  0  0
  -19.0357   -8.7393   15.7180 H   0  0  0  0  0
  -16.8051   -9.2496   16.7114 H   0  0  0  0  0
  -17.5605  -10.7794   17.3819 H   0  0  0  0  0
  -18.4873   -8.0723   17.9548 H   0  0  0  0  0
  -16.7230   -9.8693   19.5143 H   0  0  0  0  0
  -16.2288   -8.3417   18.7440 H   0  0  0  0  0
  -17.3810   -8.3223   20.1016 H   0  0  0  0  0
  -20.1598   -9.7022   18.2571 H   0  0  0  0  0
  -19.0359  -10.6327   19.2780 H   0  0  0  0  0
  -19.6128   -9.0360   19.8153 H   0  0  0  0  0
  -21.0704  -13.0138   12.0668 H   0  0  0  0  0
  -22.8418  -11.1588   10.5537 H   0  0  0  0  0
  -22.4476  -14.0886   10.0553 H   0  0  0  0  0
  -21.2674  -12.7765    9.4836 H   0  0  0  0  0
  -23.0754  -11.8326    8.1378 H   0  0  0  0  0
  -24.1328  -13.2366    8.6199 H   0  0  0  0  0
  -20.9759  -13.8386    5.9561 H   0  0  0  0  0
  -20.9140  -12.5190    7.1291 H   0  0  0  0  0
  -23.0346  -13.2976   13.2045 H   0  0  0  0  0
  -25.5783  -14.4912   12.9334 H   0  0  0  0  0
  -24.1286  -13.5256   15.4200 H   0  0  0  0  0
  -23.6199  -15.8346   15.4785 H   0  0  0  0  0
  -26.5228  -13.8371   15.9524 H   0  0  0  0  0
  -26.4839  -15.4636   15.2286 H   0  0  0  0  0
  -25.5424  -15.1215   16.7009 H   0  0  0  0  0
  -27.6356  -13.8826   13.0957 H   0  0  0  0  0
  -28.2200  -11.0897   12.8578 H   0  0  0  0  0
  -28.2155  -13.0365   15.5606 H   0  0  0  0  0
  -29.5931  -12.8187   11.7718 H   0  0  0  0  0
  -30.0863  -13.4480   13.3630 H   0  0  0  0  0
  -30.6010  -11.8223   12.8500 H   0  0  0  0  0
  1  2  1  0  0  0
  2  3  1  0  0  0
  2  5  1  0  0  0
  3  4  2  0  0  0
  3  6  1  0  0  0
  6  7  1  0  0  0
  7  8  1  0  0  0
  7 10  1  0  0  0
  8  9  2  0  0  0
  8 17  1  0  0  0
 10 11  1  0  0  0
 11 12  1  0  0  0
 12 13  1  0  0  0
 13 14  1  0  0  0
 14 15  1  0  0  0
 14 16  2  0  0  0
 17 18  1  0  0  0
 18 19  1  0  0  0
 18 21  1  0  0  0
 19 20  2  0  0  0
 19 24  1  0  0  0
 21 22  1  0  0  0
 21 23  1  0  0  0
 24 25  1  0  0  0
 25 26  1  0  0  0
 25 33  1  0  0  0
 26 27  1  0  0  0
 27 28  1  0  0  0
 28 29  1  0  0  0
 29 30  1  0  0  0
 30 31  1  0  0  0
 30 32  1  0  0  0
 33 34  2  0  0  0
 33 35  1  0  0  0
 35 36  1  0  0  0
 36 37  1  0  0  0
 36 39  1  0  0  0
 37 38  2  0  0  0
 37 44  1  0  0  0
 39 40  1  0  0  0
 40 41  1  0  0  0
 41 42  2  0  0  0
 41 43  1  0  0  0
 44 45  1  0  0  0
 45 46  1  0  0  0
 45 48  1  0  0  0
 46 47  2  0  0  0
 46 51  1  0  0  0
 48 49  1  0  0  0
 48 50  1  0  0  0
 51 52  1  0  0  0
 52 53  1  0  0  0
 52 55  1  0  0  0
 53 54  1  0  0  0
 53 56  2  0  0  0
  1 57  1  0  0  0
  1 58  1  0  0  0
  1 59  1  0  0  0
  2 60  1  0  0  0
  5 61  1  0  0  0
  5 62  1  0  0  0
  5 63  1  0  0  0
  6 64  1  0  0  0
  7 65  1  0  0  0
 10 66  1  0  0  0
 10 67  1  0  0  0
 11 68  1  0  0  0
 11 69  1  0  0  0
 12 70  1  0  0  0
 12 71  1  0  0  0
 13 72  1  0  0  0
 15 73  1  0  0  0
 15 74  1  0  0  0
 16 75  1  0  0  0
 17 76  1  0  0  0
 18 77  1  0  0  0
 21 78  1  0  0  0
 22 79  1  0  0  0
 23 80  1  0  0  0
 23 81  1  0  0  0
 23 82  1  0  0  0
 24 83  1  0  0  0
 25 84  1  0  0  0
 26 85  1  0  0  0
 26 86  1  0  0  0
 27 87  1  0  0  0
 27 88  1  0  0  0
 28 89  1  0  0  0
 28 90  1  0  0  0
 29 91  1  0  0  0
 29 92  1  0  0  0
 30 93  1  0  0  0
 31 94  1  0  0  0
 31 95  1  0  0  0
 31 96  1  0  0  0
 32 97  1  0  0  0
 32 98  1  0  0  0
 32 99  1  0  0  0
 35100  1  0  0  0
 36101  1  0  0  0
 39102  1  0  0  0
 39103  1  0  0  0
 40104  1  0  0  0
 40105  1  0  0  0
 43106  1  0  0  0
 43107  1  0  0  0
 44108  1  0  0  0
 45109  1  0  0  0
 48110  1  0  0  0
 49111  1  0  0  0
 50112  1  0  0  0
 50113  1  0  0  0
 50114  1  0  0  0
 51115  1  0  0  0
 52116  1  0  0  0
 54117  1  0  0  0
 55118  1  0  0  0
 55119  1  0  0  0
 55120  1  0  0  0
M  END
$$$$
