3pcc_ligand
  -I-interpret- 

 16 16  0  0  0  0  0  0  0  0999 V2000
   15.6490   13.8990   40.9310 C   0  0  0  0  0
   16.5810   14.2470   40.2370 O   0  0  0  0  0
   15.1560   14.7840   41.6340 O   0  0  0  0  0
   15.0670   12.4800   40.9640 C   0  0  0  0  0
   15.6540   11.4820   40.1700 C   0  0  0  0  0
   15.1510   10.1560   40.2130 C   0  0  0  0  0
   14.0380    9.8870   41.0150 C   0  0  0  0  0
   13.4610   10.8760   41.7980 C   0  0  0  0  0
   13.9480   12.1800   41.7510 C   0  0  0  0  0
   13.5830    8.6400   41.0400 O   0  0  0  0  0
   14.4301   14.4182   42.1448 H   0  0  0  0  0
   16.4953   11.7256   39.5212 H   0  0  0  0  0
   15.6228    9.3632   39.6325 H   0  0  0  0  0
   12.6239   10.6319   42.4521 H   0  0  0  0  0
   13.4588   12.9662   42.3261 H   0  0  0  0  0
   12.8224    8.5897   41.6236 H   0  0  0  0  0
  4  1  1  0  0  0
  1  3  1  0  0  0
  1  2  2  0  0  0
  4  9  4  0  0  0
  5  4  4  0  0  0
  6  5  4  0  0  0
  7  6  4  0  0  0
  7 10  1  0  0  0
  7  8  4  0  0  0
  8  9  4  0  0  0
  3 11  1  0  0  0
  5 12  1  0  0  0
  6 13  1  0  0  0
  8 14  1  0  0  0
  9 15  1  0  0  0
 10 16  1  0  0  0
M  END
$$$$
