5uez_ligand
  -I-interpret- 

 39 41  0  0  0  0  0  0  0  0999 V2000
   13.3430   12.4340   -7.2470 C   0  0  0  0  0
   17.3580   12.3150   -3.3740 C   0  0  0  0  0
   16.0130   12.5990   -1.4030 C   0  0  0  0  0
   13.2940    9.9820   -5.9760 C   0  0  0  0  0
   13.6970   12.3510   -5.9160 C   0  0  0  0  0
   14.9640   12.0020   -2.0720 C   0  0  0  0  0
   11.4850   12.6860   -0.8930 C   0  0  0  0  0
   12.6270   12.8060   -1.6080 C   0  0  0  0  0
   12.2900    9.4930    0.9620 C   0  0  0  0  0
   12.9510   11.3000   -7.9310 C   0  0  0  0  0
   17.2140   12.7670   -2.0750 C   0  0  0  0  0
   12.9130   10.0740   -7.2970 C   0  0  0  0  0
   16.3140   11.7000   -4.0370 C   0  0  0  0  0
   13.6890   11.1160   -5.2940 C   0  0  0  0  0
   15.1030   11.5590   -3.3740 C   0  0  0  0  0
   13.6810   11.8090   -1.3530 C   0  0  0  0  0
   11.3320   11.5290    0.0410 C   0  0  0  0  0
   11.7330   14.5120   -2.8750 C   0  0  0  0  0
   13.5680   10.7990   -0.5550 N   0  0  0  0  0
   12.3860   10.6510    0.0950 N   0  0  0  0  0
   10.2940   11.3900    0.6930 O   0  0  0  0  0
   14.0020   10.9420   -3.9550 O   0  0  0  0  0
   12.9280   13.8120   -2.5250 O   0  0  0  0  0
   13.3728   13.3957   -7.7592 H   0  0  0  0  0
   18.3124   12.4464   -3.8838 H   0  0  0  0  0
   15.9000   12.9306   -0.3708 H   0  0  0  0  0
   13.2836    9.0164   -5.4705 H   0  0  0  0  0
   13.9791   13.2466   -5.3624 H   0  0  0  0  0
   10.6879   13.4223   -0.9964 H   0  0  0  0  0
   12.1534    9.8223    1.9921 H   0  0  0  0  0
   11.4393    8.8829    0.6584 H   0  0  0  0  0
   13.2054    8.9063    0.8851 H   0  0  0  0  0
   12.6689   11.3736   -8.9813 H   0  0  0  0  0
   18.0496   13.2582   -1.5765 H   0  0  0  0  0
   12.5843    9.1861   -7.8371 H   0  0  0  0  0
   16.4382   11.3343   -5.0563 H   0  0  0  0  0
   11.0224   13.8154   -3.3198 H   0  0  0  0  0
   11.2974   14.9550   -1.9794 H   0  0  0  0  0
   11.9706   15.2979   -3.5919 H   0  0  0  0  0
  5  1  4  0  0  0
  1 10  4  0  0  0
 11  2  4  0  0  0
 13  2  4  0  0  0
  6  3  4  0  0  0
  3 11  4  0  0  0
  4 12  4  0  0  0
 14  4  4  0  0  0
 14  5  4  0  0  0
  6 15  4  0  0  0
 16  6  1  0  0  0
  7  8  2  0  0  0
 17  7  1  0  0  0
  8 16  1  0  0  0
  8 23  1  0  0  0
 20  9  1  0  0  0
 12 10  4  0  0  0
 15 13  4  0  0  0
 22 14  1  0  0  0
 15 22  1  0  0  0
 16 19  2  0  0  0
 17 20  1  0  0  0
 17 21  2  0  0  0
 23 18  1  0  0  0
 19 20  1  0  0  0
  1 24  1  0  0  0
  2 25  1  0  0  0
  3 26  1  0  0  0
  4 27  1  0  0  0
  5 28  1  0  0  0
  7 29  1  0  0  0
  9 30  1  0  0  0
  9 31  1  0  0  0
  9 32  1  0  0  0
 10 33  1  0  0  0
 11 34  1  0  0  0
 12 35  1  0  0  0
 13 36  1  0  0  0
 18 37  1  0  0  0
 18 38  1  0  0  0
 18 39  1  0  0  0
M  END
$$$$
