3cl0_ligand
  -I-interpret- 

 45 45  0  0  0  0  0  0  0  0999 V2000
  -30.3740  -53.1430    6.1220 C   0  0  0  0  0
  -31.4390  -52.5330    5.8500 O   0  0  0  0  0
  -29.2570  -52.6250    5.8790 O   0  0  0  0  0
  -30.4370  -54.4860    6.7250 C   0  0  0  0  0
  -29.1590  -55.1880    7.1320 C   0  0  0  0  0
  -29.3800  -56.1620    8.2940 C   0  0  0  0  0
  -30.6270  -57.0330    8.0970 C   0  0  0  0  0
  -30.8030  -57.9550    9.2060 N   0  0  0  0  0
  -30.6830  -59.2830    9.0870 C   0  0  0  0  0
  -30.6290  -59.8630    8.0100 O   0  0  0  0  0
  -30.6110  -60.0400   10.3800 C   0  0  0  0  0
  -31.8830  -56.1780    7.9370 C   0  0  0  0  0
  -31.6320  -55.0930    6.9010 C   0  0  0  0  0
  -33.0070  -56.9890    7.5310 O   0  0  0  0  0
  -34.1580  -56.9050    8.3980 C   0  0  0  0  0
  -34.8790  -55.5530    8.2830 C   0  0  0  0  0
  -35.1530  -58.0200    8.0790 C   0  0  0  0  0
  -34.6540  -59.3950    8.4670 C   0  0  0  0  0
  -35.4250  -55.2790    6.8910 C   0  0  0  0  0
  -28.1950  -56.9940    8.4300 N   0  3  0  0  0
  -32.1902  -53.0751    6.1018 H   0  0  0  0  0
  -28.4438  -54.4313    7.4545 H   0  0  0  0  0
  -28.7968  -55.7573    6.2759 H   0  0  0  0  0
  -29.5473  -55.5842    9.2030 H   0  0  0  0  0
  -30.4756  -57.6060    7.1822 H   0  0  0  0  0
  -31.0298  -57.5704   10.1231 H   0  0  0  0  0
  -31.4387  -60.7473   10.4320 H   0  0  0  0  0
  -29.6658  -60.5804   10.4310 H   0  0  0  0  0
  -30.6764  -59.3404   11.2133 H   0  0  0  0  0
  -32.1172  -55.7208    8.8984 H   0  0  0  0  0
  -32.4626  -54.7877    6.2646 H   0  0  0  0  0
  -33.7858  -57.0110    9.4170 H   0  0  0  0  0
  -34.1535  -54.7723    8.5118 H   0  0  0  0  0
  -35.7244  -55.5710    8.9707 H   0  0  0  0  0
  -35.3143  -58.0197    7.0010 H   0  0  0  0  0
  -36.0608  -57.8253    8.6500 H   0  0  0  0  0
  -33.7324  -59.6115    7.9268 H   0  0  0  0  0
  -34.4626  -59.4213    9.5397 H   0  0  0  0  0
  -35.4089  -60.1391    8.2130 H   0  0  0  0  0
  -34.6039  -55.2758    6.1742 H   0  0  0  0  0
  -36.1400  -56.0568    6.6230 H   0  0  0  0  0
  -35.9212  -54.3086    6.8813 H   0  0  0  0  0
  -27.3766  -56.3993    8.5600 H   0  0  0  0  0
  -28.3027  -57.6076    9.2377 H   0  0  0  0  0
  -28.0775  -57.5566    7.5874 H   0  0  0  0  0
  1  2  1  0  0  0
  1  3  2  0  0  0
  1  4  1  0  0  0
  4  5  1  0  0  0
  4 13  2  0  0  0
  5  6  1  0  0  0
  6  7  1  0  0  0
  6 20  1  0  0  0
  7  8  1  0  0  0
  7 12  1  0  0  0
  8  9  1  0  0  0
  9 10  2  0  0  0
  9 11  1  0  0  0
 12 13  1  0  0  0
 12 14  1  0  0  0
 14 15  1  0  0  0
 15 16  1  0  0  0
 15 17  1  0  0  0
 16 19  1  0  0  0
 17 18  1  0  0  0
  2 21  1  0  0  0
  5 22  1  0  0  0
  5 23  1  0  0  0
  6 24  1  0  0  0
  7 25  1  0  0  0
  8 26  1  0  0  0
 11 27  1  0  0  0
 11 28  1  0  0  0
 11 29  1  0  0  0
 12 30  1  0  0  0
 13 31  1  0  0  0
 15 32  1  0  0  0
 16 33  1  0  0  0
 16 34  1  0  0  0
 17 35  1  0  0  0
 17 36  1  0  0  0
 18 37  1  0  0  0
 18 38  1  0  0  0
 18 39  1  0  0  0
 19 40  1  0  0  0
 19 41  1  0  0  0
 19 42  1  0  0  0
 20 43  1  0  0  0
 20 44  1  0  0  0
 20 45  1  0  0  0
M  END
$$$$
