4r5a_ligand
  -I-interpret- 

 44 45  0  0  0  0  0  0  0  0999 V2000
    3.6920    3.7830   80.3310 C   0  0  0  0  0
    2.8710    4.3290   81.4880 C   0  0  0  0  0
    3.6230    5.1350   82.4920 C   0  0  0  0  0
   -1.6290    2.4760   86.0200 O   0  0  0  0  0
   -1.8890    1.4100   87.1140 S   0  0  0  0  0
   -3.2940    1.3800   87.2560 O   0  0  0  0  0
   -1.1510    1.6920   88.2380 O   0  0  0  0  0
   -1.2330    0.0890   86.6830 N   0  0  0  0  0
    1.6340    0.8350   79.6060 O   0  0  0  0  0
    2.2930    1.7100   80.4660 C   0  0  0  0  0
    3.4900    2.4220   79.9520 C   0  0  0  0  0
    3.8330    2.1900   78.5770 O   0  0  0  0  0
    5.1080    4.0120   80.4740 O   0  0  0  0  0
    3.0790    5.3460   83.7720 O   0  0  0  0  0
    1.7130    3.6320   81.9430 O   0  0  0  0  0
    1.4730    2.3040   81.6150 C   0  0  0  0  0
   -0.3370    2.1700   81.6460 S   0  0  0  0  0
   -0.5650    0.8610   81.3610 O   0  0  0  0  0
   -0.9260    3.1670   80.8460 O   0  0  0  0  0
   -0.6320    2.4820   82.9760 N   0  0  0  0  0
   -0.2270    1.8140   83.9120 C   0  0  0  0  0
   -0.7560    3.8420   83.4670 C   0  0  0  0  0
   -0.2450    3.8410   84.8910 C   0  0  0  0  0
   -0.3680    2.6610   85.2820 C   0  0  0  0  0
    3.2804    4.3794   79.5168 H   0  0  0  0  0
    2.3073    5.0744   80.9270 H   0  0  0  0  0
    3.6831    6.1309   82.0531 H   0  0  0  0  0
    4.5341    4.5648   82.6730 H   0  0  0  0  0
   -1.8089   -0.7367   86.5190 H   0  0  0  0  0
   -0.2216    0.0378   86.5609 H   0  0  0  0  0
    0.8840    0.4451   80.0610 H   0  0  0  0  0
    2.8747    1.0223   81.0798 H   0  0  0  0  0
    4.2253    1.8825   80.5489 H   0  0  0  0  0
    4.6172    2.6969   78.3541 H   0  0  0  0  0
    5.2592    4.9250   80.7292 H   0  0  0  0  0
    3.6841    5.8804   84.2915 H   0  0  0  0  0
    1.8882    1.5931   82.3294 H   0  0  0  0  0
    0.8202    1.5591   83.7494 H   0  0  0  0  0
   -0.8171    0.9007   83.9879 H   0  0  0  0  0
   -1.7931    4.1751   83.4277 H   0  0  0  0  0
   -0.1802    4.5311   82.8492 H   0  0  0  0  0
   -0.8048    4.5335   85.5197 H   0  0  0  0  0
    0.7903    4.1775   84.9471 H   0  0  0  0  0
    0.3736    2.3346   86.0111 H   0  0  0  0  0
  2  1  1  0  0  0
 11  1  1  0  0  0
  1 13  1  0  0  0
  2  3  1  0  0  0
 15  2  1  0  0  0
  3 14  1  0  0  0
  4  5  1  0  0  0
 24  4  1  0  0  0
  5  6  2  0  0  0
  5  7  2  0  0  0
  5  8  1  0  0  0
 10  9  1  0  0  0
 10 11  1  0  0  0
 16 10  1  0  0  0
 11 12  1  0  0  0
 16 15  1  0  0  0
 17 16  1  0  0  0
 17 18  2  0  0  0
 17 19  2  0  0  0
 20 17  1  0  0  0
 21 20  1  0  0  0
 20 22  1  0  0  0
 21 24  1  0  0  0
 22 23  1  0  0  0
 23 24  1  0  0  0
  1 25  1  0  0  0
  2 26  1  0  0  0
  3 27  1  0  0  0
  3 28  1  0  0  0
  8 29  1  0  0  0
  8 30  1  0  0  0
  9 31  1  0  0  0
 10 32  1  0  0  0
 11 33  1  0  0  0
 12 34  1  0  0  0
 13 35  1  0  0  0
 14 36  1  0  0  0
 16 37  1  0  0  0
 21 38  1  0  0  0
 21 39  1  0  0  0
 22 40  1  0  0  0
 22 41  1  0  0  0
 23 42  1  0  0  0
 23 43  1  0  0  0
 24 44  1  0  0  0
M  END
$$$$
