4e9u_ligand
  -I-interpret- 

 32 33  0  0  0  0  0  0  0  0999 V2000
   22.4090  -10.1520    8.8920 N   0  0  0  0  0
   22.6250  -10.6120    7.8740 C   0  0  0  0  0
   23.7840  -21.6090    6.7750 C   0  0  0  0  0
   23.2190  -21.6030    8.0440 C   0  0  0  0  0
   23.9840  -20.4130    6.0960 C   0  0  0  0  0
   22.8570  -20.3990    8.6320 C   0  0  0  0  0
   23.6230  -19.2080    6.6850 C   0  0  0  0  0
   24.7960  -15.0510    8.6080 C   0  0  0  0  0
   24.6860  -15.8860    6.3550 C   0  0  0  0  0
   23.9730  -16.0870    9.0310 C   0  0  0  0  0
   23.8640  -16.9220    6.7780 C   0  0  0  0  0
   25.1560  -12.9670    6.1710 C   0  0  0  0  0
   23.8310  -12.7860    6.9120 C   0  0  0  0  0
   25.9550  -13.9380    6.8580 O   0  0  0  0  0
   22.7010  -18.0310    8.5350 O   0  0  0  0  0
   22.9350  -11.2730    6.4070 S   0  0  0  0  0
   25.1520  -14.9520    7.2700 C   0  0  0  0  0
   23.0590  -19.2030    7.9530 C   0  0  0  0  0
   23.5080  -17.0220    8.1160 C   0  0  0  0  0
   24.0708  -22.5528    6.3113 H   0  0  0  0  0
   23.0604  -22.5409    8.5763 H   0  0  0  0  0
   24.4250  -20.4206    5.0992 H   0  0  0  0  0
   22.4136  -20.3913    9.6277 H   0  0  0  0  0
   23.7821  -18.2699    6.1533 H   0  0  0  0  0
   25.1618  -14.3168    9.3258 H   0  0  0  0  0
   24.9654  -15.8062    5.3044 H   0  0  0  0  0
   23.6923  -16.1659   10.0813 H   0  0  0  0  0
   23.4985  -17.6562    6.0600 H   0  0  0  0  0
   25.6874  -12.0159    6.1368 H   0  0  0  0  0
   24.9614  -13.3085    5.1543 H   0  0  0  0  0
   24.0529  -12.7024    7.9759 H   0  0  0  0  0
   23.1983  -13.6420    6.6773 H   0  0  0  0  0
  2  1  3  0  0  0
 16  2  1  0  0  0
  4  3  4  0  0  0
  5  3  4  0  0  0
  6  4  4  0  0  0
  7  5  4  0  0  0
 18  6  4  0  0  0
 18  7  4  0  0  0
 10  8  4  0  0  0
  8 17  4  0  0  0
 11  9  4  0  0  0
  9 17  4  0  0  0
 19 10  4  0  0  0
 19 11  4  0  0  0
 12 13  1  0  0  0
 14 12  1  0  0  0
 13 16  1  0  0  0
 17 14  1  0  0  0
 15 18  1  0  0  0
 15 19  1  0  0  0
  3 20  1  0  0  0
  4 21  1  0  0  0
  5 22  1  0  0  0
  6 23  1  0  0  0
  7 24  1  0  0  0
  8 25  1  0  0  0
  9 26  1  0  0  0
 10 27  1  0  0  0
 11 28  1  0  0  0
 12 29  1  0  0  0
 12 30  1  0  0  0
 13 31  1  0  0  0
 13 32  1  0  0  0
M  END
$$$$
