### 
### Created by X-TOOL on Mon Sep 10 21:13:30 2018
### 

@<TRIPOS>MOLECULE
5i25_ligand
  119   121     1     0     0
SMALL
GAST_HUCK


@<TRIPOS>ATOM
      1 N          14.4860  -26.6100   10.8740 N.4       1 ASN         0.2396
      2 CA         13.8100  -26.7630    9.5880 C.3       1 ASN         0.0820
      3 C          13.4680  -28.2160    9.2180 C.2       1 ASN         0.2316
      4 O          14.3650  -29.0380    8.9610 O.2       1 ASN        -0.3903
      5 CB         14.5680  -26.0550    8.4540 C.3       1 ASN         0.0972
      6 CG         16.0700  -26.2600    8.5290 C.2       1 ASN         0.1813
      7 OD1        16.8500  -25.3010    8.5280 O.2       1 ASN        -0.3969
      8 ND2        16.4850  -27.5160    8.6010 N.am      1 ASN        -0.3006
      9 N          12.1580  -28.5330    9.2240 N.am      1 PRO        -0.2470
     10 CA         11.5550  -29.8440    8.9250 C.3       1 PRO         0.1339
     11 C          11.5660  -30.2800    7.4420 C.2       1 PRO         0.2041
     12 O          11.4750  -31.4920    7.1770 O.2       1 PRO        -0.3944
     13 CB         10.1180  -29.6830    9.4320 C.3       1 PRO        -0.0104
     14 CG          9.8350  -28.2300    9.3320 C.3       1 PRO        -0.0281
     15 CD         11.1420  -27.5300    9.6030 C.3       1 PRO         0.0371
     16 N          11.7480  -29.3290    6.5180 N.am      1 ILE        -0.2635
     17 CA         11.2890  -29.4590    5.1180 C.3       1 ILE         0.1335
     18 C          11.6840  -30.7780    4.4210 C.2       1 ILE         0.2042
     19 O          12.8460  -31.1920    4.4310 O.2       1 ILE        -0.3944
     20 CB         11.7380  -28.2460    4.2260 C.3       1 ILE        -0.0037
     21 CG1        11.7750  -26.9190    5.0130 C.3       1 ILE        -0.0491
     22 CG2        10.8620  -28.1340    2.9920 C.3       1 ILE        -0.0582
     23 CD1        10.4160  -26.2760    5.2870 C.3       1 ILE        -0.0648
     24 N          10.6960  -31.4170    3.7990 N.am      1 SER        -0.2616
     25 CA         10.8350  -32.7880    3.3010 C.3       1 SER         0.1539
     26 C          11.0990  -32.8790    1.7930 C.2       1 SER         0.2063
     27 O          10.6050  -32.0630    1.0070 O.2       1 SER        -0.3943
     28 CB          9.6040  -33.6330    3.6830 C.3       1 SER         0.0843
     29 OG          9.8130  -34.3400    4.8960 O.3       1 SER        -0.3903
     30 N          11.8930  -33.8730    1.4030 N.am      1 ASP        -0.2621
     31 CA         12.2450  -34.0710    0.0050 C.3       1 ASP         0.1423
     32 C          11.0460  -34.5940   -0.7660 C.2       1 ASP         0.2057
     33 O          10.2260  -35.3300   -0.2260 O.2       1 ASP        -0.3943
     34 CB         13.4000  -35.0610   -0.1070 C.3       1 ASP         0.0406
     35 CG         14.4680  -34.6030   -1.0750 C.2       1 ASP         0.0393
     36 OD1        14.3800  -34.9660   -2.2770 O.co2     1 ASP        -0.5688
     37 OD2        15.3990  -33.8860   -0.6250 O.co2     1 ASP        -0.5688
     38 N          10.9410  -34.2120   -2.0290 N.am      1 PHE        -0.2618
     39 CA          9.8880  -34.7370   -2.8810 C.3       1 PHE         0.1406
     40 C           9.8840  -36.2690   -2.8760 C.2       1 PHE         0.2085
     41 O          10.9440  -36.9010   -2.9890 O.2       1 PHE        -0.3940
     42 CB         10.0480  -34.2050   -4.2990 C.3       1 PHE         0.0214
     43 CG          9.6420  -32.7920   -4.4330 C.ar      1 PHE        -0.0386
     44 CD1         8.5270  -32.3340   -3.7780 C.ar      1 PHE        -0.0601
     45 CD2        10.3800  -31.9040   -5.1780 C.ar      1 PHE        -0.0601
     46 CE1         8.1370  -31.0110   -3.8790 C.ar      1 PHE        -0.0686
     47 CE2         9.9950  -30.5720   -5.2810 C.ar      1 PHE        -0.0686
     48 CZ          8.8690  -30.1300   -4.6260 C.ar      1 PHE        -0.0687
     49 N           8.6840  -36.8710   -2.7600 N.am      1 PRO        -0.2497
     50 CA          8.5400  -38.3230   -2.7960 C.3       1 PRO         0.1337
     51 C           9.1350  -38.8070   -4.0920 C.2       1 PRO         0.2036
     52 O           9.1030  -38.0660   -5.0810 O.2       1 PRO        -0.3944
     53 CB          7.0260  -38.5150   -2.8440 C.3       1 PRO        -0.0104
     54 CG          6.5140  -37.2750   -3.4900 C.3       1 PRO        -0.0281
     55 CD          7.3830  -36.1980   -2.9010 C.3       1 PRO         0.0369
     56 N           9.6710  -40.0200   -4.1030 N.am      1 ASP        -0.2679
     57 CA         10.1980  -40.5490   -5.3420 C.3       1 ASP         0.1057
     58 C           9.0920  -40.5440   -6.3960 C.2       1 ASP         0.0618
     59 O           7.9360  -40.2210   -6.1040 O.co2     1 ASP        -0.5665
     60 CB         10.7530  -41.9560   -5.1590 C.3       1 ASP         0.0351
     61 CG         11.1440  -42.5910   -6.4780 C.2       1 ASP         0.0387
     62 OD1        11.0740  -43.8350   -6.5840 O.co2     1 ASP        -0.5688
     63 OD2        11.5040  -41.8390   -7.4150 O.co2     1 ASP        -0.5688
     64 OXT         9.3270  -40.8630   -7.5660 O.co2     1 ASP        -0.5665
     65 H1         14.6738  -25.6338   11.0408 H         1 ASN         0.2017
     66 H2         15.3544  -27.1216   10.8601 H         1 ASN         0.2017
     67 H3         13.8962  -26.9689   11.6084 H         1 ASN         0.2017
     68 H4         12.8464  -26.2425    9.6907 H         1 ASN         0.1125
     69 H5         14.3578  -24.9768    8.5111 H         1 ASN         0.0585
     70 H6         14.2078  -26.4484    7.4920 H         1 ASN         0.0585
     71 H7         17.4632  -27.7172    8.6527 H         1 ASN         0.1814
     72 H8         15.8201  -28.2629    8.6036 H         1 ASN         0.1814
     73 H9         12.0776  -30.6202    9.5033 H         1 PRO         0.0802
     74 H10        10.0361  -30.0217   10.4753 H         1 PRO         0.0313
     75 H11         9.4202  -30.2567    8.8043 H         1 PRO         0.0313
     76 H12         9.0823  -27.9354   10.0781 H         1 PRO         0.0287
     77 H13         9.4701  -27.9806    8.3247 H         1 PRO         0.0287
     78 H14        11.2367  -26.6231    8.9878 H         1 PRO         0.0524
     79 H15        11.2313  -27.2628   10.6663 H         1 PRO         0.0524
     80 H16        12.2179  -28.4885    6.7877 H         1 ILE         0.1883
     81 H17        10.1898  -29.4420    5.1571 H         1 ILE         0.0803
     82 H18        12.7639  -28.4512    3.8863 H         1 ILE         0.0345
     83 H19        12.3792  -26.2015    4.4385 H         1 ILE         0.0267
     84 H20        12.2589  -27.1132    5.9815 H         1 ILE         0.0267
     85 H21        10.8584  -29.0948    2.4565 H         1 ILE         0.0235
     86 H22        11.2572  -27.3478    2.3319 H         1 ILE         0.0235
     87 H23         9.8354  -27.8782    3.2931 H         1 ILE         0.0235
     88 H24        10.5592  -25.3420    5.8501 H         1 ILE         0.0230
     89 H25         9.7952  -26.9674    5.8756 H         1 ILE         0.0230
     90 H26         9.9155  -26.0557    4.3326 H         1 ILE         0.0230
     91 H27         9.8254  -30.9433    3.6664 H         1 SER         0.1884
     92 H28        11.7086  -33.2251    3.8067 H         1 SER         0.0823
     93 H29         9.4032  -34.3557    2.8784 H         1 SER         0.0606
     94 H30         8.7367  -32.9670    3.8026 H         1 SER         0.0606
     95 H31         9.0379  -34.8491    5.1021 H         1 SER         0.2097
     96 H32        12.2580  -34.5015    2.0898 H         1 ASP         0.1884
     97 H33        12.5554  -33.1074   -0.4253 H         1 ASP         0.0819
     98 H34        13.0034  -36.0273   -0.4517 H         1 ASP         0.0478
     99 H35        13.8552  -35.1849    0.8867 H         1 ASP         0.0478
    100 H36        11.5950  -33.5535   -2.4015 H         1 PHE         0.1885
    101 H37         8.9210  -34.3903   -2.4876 H         1 PHE         0.0823
    102 H38         9.4282  -34.8135   -4.9740 H         1 PHE         0.0474
    103 H39        11.1048  -34.2954   -4.5904 H         1 PHE         0.0474
    104 H40         7.9436  -33.0185   -3.1729 H         1 PHE         0.0557
    105 H41        11.2718  -32.2456   -5.6908 H         1 PHE         0.0557
    106 H42         7.2464  -30.6706   -3.3633 H         1 PHE         0.0599
    107 H43        10.5817  -29.8823   -5.8770 H         1 PHE         0.0599
    108 H44         8.5646  -29.0923   -4.7013 H         1 PHE         0.0559
    109 H45         9.0005  -38.8190   -1.9288 H         1 PRO         0.0802
    110 H46         6.6153  -38.6230   -1.8293 H         1 PRO         0.0313
    111 H47         6.7650  -39.4010   -3.4414 H         1 PRO         0.0313
    112 H48         5.4556  -37.1083   -3.2409 H         1 PRO         0.0287
    113 H49         6.6304  -37.3223   -4.5828 H         1 PRO         0.0287
    114 H50         7.4552  -35.3332   -3.5769 H         1 PRO         0.0524
    115 H51         6.9990  -35.8689   -1.9242 H         1 PRO         0.0524
    116 H52         9.7104  -40.5629   -3.2641 H         1 ASP         0.1876
    117 H53        11.0156  -39.8966   -5.6824 H         1 ASP         0.0745
    118 H54         9.9852  -42.5804   -4.6787 H         1 ASP         0.0471
    119 H55        11.6416  -41.9054   -4.5126 H         1 ASP         0.0471
@<TRIPOS>BOND
     1    1    2 1  
     2    2    3 1  
     3    2    5 1  
     4    3    4 2  
     5    3    9 am 
     6    5    6 1  
     7    6    7 2  
     8    6    8 am 
     9    9   10 1  
    10    9   15 1  
    11   10   11 1  
    12   10   13 1  
    13   11   12 2  
    14   11   16 am 
    15   13   14 1  
    16   14   15 1  
    17   16   17 1  
    18   17   18 1  
    19   17   20 1  
    20   18   19 2  
    21   18   24 am 
    22   20   21 1  
    23   20   22 1  
    24   21   23 1  
    25   24   25 1  
    26   25   26 1  
    27   25   28 1  
    28   26   27 2  
    29   26   30 am 
    30   28   29 1  
    31   30   31 1  
    32   31   32 1  
    33   31   34 1  
    34   32   33 2  
    35   32   38 am 
    36   34   35 1  
    37   35   36 ar 
    38   35   37 ar 
    39   38   39 1  
    40   39   40 1  
    41   39   42 1  
    42   40   41 2  
    43   40   49 am 
    44   42   43 1  
    45   43   44 ar 
    46   43   45 ar 
    47   44   46 ar 
    48   45   47 ar 
    49   46   48 ar 
    50   47   48 ar 
    51   49   50 1  
    52   49   55 1  
    53   50   51 1  
    54   50   53 1  
    55   51   52 2  
    56   51   56 am 
    57   53   54 1  
    58   54   55 1  
    59   56   57 1  
    60   57   58 1  
    61   57   60 1  
    62   58   59 ar 
    63   58   64 ar 
    64   60   61 1  
    65   61   62 ar 
    66   61   63 ar 
    67    1   65 1  
    68    1   66 1  
    69    1   67 1  
    70    2   68 1  
    71    5   69 1  
    72    5   70 1  
    73    8   71 1  
    74    8   72 1  
    75   10   73 1  
    76   13   74 1  
    77   13   75 1  
    78   14   76 1  
    79   14   77 1  
    80   15   78 1  
    81   15   79 1  
    82   16   80 1  
    83   17   81 1  
    84   20   82 1  
    85   21   83 1  
    86   21   84 1  
    87   22   85 1  
    88   22   86 1  
    89   22   87 1  
    90   23   88 1  
    91   23   89 1  
    92   23   90 1  
    93   24   91 1  
    94   25   92 1  
    95   28   93 1  
    96   28   94 1  
    97   29   95 1  
    98   30   96 1  
    99   31   97 1  
   100   34   98 1  
   101   34   99 1  
   102   38  100 1  
   103   39  101 1  
   104   42  102 1  
   105   42  103 1  
   106   44  104 1  
   107   45  105 1  
   108   46  106 1  
   109   47  107 1  
   110   48  108 1  
   111   50  109 1  
   112   53  110 1  
   113   53  111 1  
   114   54  112 1  
   115   54  113 1  
   116   55  114 1  
   117   55  115 1  
   118   56  116 1  
   119   57  117 1  
   120   60  118 1  
   121   60  119 1  
@<TRIPOS>SUBSTRUCTURE
     1 ASN         1

