5i25_ligand
  -I-interpret- 

122124  0  0  0  0  0  0  0  0999 V2000
   14.4860  -26.6100   10.8740 N   0  3  0  0  0
   13.8100  -26.7630    9.5880 C   0  0  0  0  0
   13.4680  -28.2160    9.2180 C   0  0  0  0  0
   14.3650  -29.0380    8.9610 O   0  0  0  0  0
   14.5680  -26.0550    8.4540 C   0  0  0  0  0
   16.0700  -26.2600    8.5290 C   0  0  0  0  0
   16.8500  -25.3010    8.5280 O   0  0  0  0  0
   16.4850  -27.5160    8.6010 N   0  0  0  0  0
   12.1580  -28.5330    9.2240 N   0  0  0  0  0
   11.5550  -29.8440    8.9250 C   0  0  0  0  0
   11.5660  -30.2800    7.4420 C   0  0  0  0  0
   11.4750  -31.4920    7.1770 O   0  0  0  0  0
   10.1180  -29.6830    9.4320 C   0  0  0  0  0
    9.8350  -28.2300    9.3320 C   0  0  0  0  0
   11.1420  -27.5300    9.6030 C   0  0  0  0  0
   11.7480  -29.3290    6.5180 N   0  0  0  0  0
   11.2890  -29.4590    5.1180 C   0  0  0  0  0
   11.6840  -30.7780    4.4210 C   0  0  0  0  0
   12.8460  -31.1920    4.4310 O   0  0  0  0  0
   11.7380  -28.2460    4.2260 C   0  0  0  0  0
   11.7750  -26.9190    5.0130 C   0  0  0  0  0
   10.8620  -28.1340    2.9920 C   0  0  0  0  0
   10.4160  -26.2760    5.2870 C   0  0  0  0  0
   10.6960  -31.4170    3.7990 N   0  0  0  0  0
   10.8350  -32.7880    3.3010 C   0  0  0  0  0
   11.0990  -32.8790    1.7930 C   0  0  0  0  0
   10.6050  -32.0630    1.0070 O   0  0  0  0  0
    9.6040  -33.6330    3.6830 C   0  0  0  0  0
    9.8130  -34.3400    4.8960 O   0  0  0  0  0
   11.8930  -33.8730    1.4030 N   0  0  0  0  0
   12.2450  -34.0710    0.0050 C   0  0  0  0  0
   11.0460  -34.5940   -0.7660 C   0  0  0  0  0
   10.2260  -35.3300   -0.2260 O   0  0  0  0  0
   13.4000  -35.0610   -0.1070 C   0  0  0  0  0
   14.4680  -34.6030   -1.0750 C   0  0  0  0  0
   14.3800  -34.9660   -2.2770 O   0  0  0  0  0
   15.3990  -33.8860   -0.6250 O   0  0  0  0  0
   10.9410  -34.2120   -2.0290 N   0  0  0  0  0
    9.8880  -34.7370   -2.8810 C   0  0  0  0  0
    9.8840  -36.2690   -2.8760 C   0  0  0  0  0
   10.9440  -36.9010   -2.9890 O   0  0  0  0  0
   10.0480  -34.2050   -4.2990 C   0  0  0  0  0
    9.6420  -32.7920   -4.4330 C   0  0  0  0  0
    8.5270  -32.3340   -3.7780 C   0  0  0  0  0
   10.3800  -31.9040   -5.1780 C   0  0  0  0  0
    8.1370  -31.0110   -3.8790 C   0  0  0  0  0
    9.9950  -30.5720   -5.2810 C   0  0  0  0  0
    8.8690  -30.1300   -4.6260 C   0  0  0  0  0
    8.6840  -36.8710   -2.7600 N   0  0  0  0  0
    8.5400  -38.3230   -2.7960 C   0  0  0  0  0
    9.1350  -38.8070   -4.0920 C   0  0  0  0  0
    9.1030  -38.0660   -5.0810 O   0  0  0  0  0
    7.0260  -38.5150   -2.8440 C   0  0  0  0  0
    6.5140  -37.2750   -3.4900 C   0  0  0  0  0
    7.3830  -36.1980   -2.9010 C   0  0  0  0  0
    9.6710  -40.0200   -4.1030 N   0  0  0  0  0
   10.1980  -40.5490   -5.3420 C   0  0  0  0  0
    9.0920  -40.5440   -6.3960 C   0  0  0  0  0
    7.9360  -40.2210   -6.1040 O   0  0  0  0  0
   10.7530  -41.9560   -5.1590 C   0  0  0  0  0
   11.1440  -42.5910   -6.4780 C   0  0  0  0  0
   11.0740  -43.8350   -6.5840 O   0  0  0  0  0
   11.5040  -41.8390   -7.4150 O   0  0  0  0  0
    9.3270  -40.8630   -7.5660 O   0  0  0  0  0
   13.9523  -27.0928   11.5969 H   0  0  0  0  0
   15.4216  -27.0119   10.8149 H   0  0  0  0  0
   14.5544  -25.6189   11.1050 H   0  0  0  0  0
   12.8486  -26.2658    9.7167 H   0  0  0  0  0
   14.3733  -24.9860    8.5403 H   0  0  0  0  0
   14.2216  -26.4746    7.5095 H   0  0  0  0  0
   17.4825  -27.7210    8.6585 H   0  0  0  0  0
   15.8070  -28.2781    8.5989 H   0  0  0  0  0
   12.1349  -30.6364    9.3982 H   0  0  0  0  0
   10.0074  -30.0463   10.4537 H   0  0  0  0  0
    9.4143  -30.2726    8.8444 H   0  0  0  0  0
    9.0704  -27.9275   10.0475 H   0  0  0  0  0
    9.4465  -27.9713    8.3470 H   0  0  0  0  0
   11.2423  -26.6018    9.0405 H   0  0  0  0  0
   11.2372  -27.2119   10.6412 H   0  0  0  0  0
   12.2272  -28.4716    6.7931 H   0  0  0  0  0
   10.2030  -29.4657    5.2108 H   0  0  0  0  0
   12.7605  -28.4430    3.9037 H   0  0  0  0  0
   12.3345  -26.2116    4.4010 H   0  0  0  0  0
   12.2110  -27.1478    5.9855 H   0  0  0  0  0
   10.9415  -29.0504    2.4072 H   0  0  0  0  0
    9.8260  -27.9840    3.2958 H   0  0  0  0  0
   11.1915  -27.2874    2.3897 H   0  0  0  0  0
    9.9211  -26.0582    4.3406 H   0  0  0  0  0
    9.8018  -26.9621    5.8702 H   0  0  0  0  0
   10.5592  -25.3506    5.8450 H   0  0  0  0  0
    9.8080  -30.9338    3.6638 H   0  0  0  0  0
   11.7228  -33.1917    3.7878 H   0  0  0  0  0
    9.4228  -34.3571    2.8887 H   0  0  0  0  0
    8.7541  -32.9636    3.8161 H   0  0  0  0  0
    9.0297  -34.8545    5.1042 H   0  0  0  0  0
   12.2653  -34.5141    2.1036 H   0  0  0  0  0
   12.5511  -33.1144   -0.4184 H   0  0  0  0  0
   12.9976  -36.0052   -0.4741 H   0  0  0  0  0
   13.8580  -35.1544    0.8777 H   0  0  0  0  0
   13.5932  -35.5041   -2.3908 H   0  0  0  0  0
   11.6080  -33.5404   -2.4089 H   0  0  0  0  0
    8.9292  -34.4018   -2.4854 H   0  0  0  0  0
    9.4070  -34.7984   -4.9510 H   0  0  0  0  0
   11.1033  -34.2742   -4.5629 H   0  0  0  0  0
    7.9404  -33.0223   -3.1696 H   0  0  0  0  0
   11.2768  -32.2475   -5.6937 H   0  0  0  0  0
    7.2414  -30.6687   -3.3604 H   0  0  0  0  0
   10.5849  -29.8785   -5.8803 H   0  0  0  0  0
    8.5629  -29.0866   -4.7018 H   0  0  0  0  0
    9.0159  -38.8466   -1.9668 H   0  0  0  0  0
    6.6012  -38.6642   -1.8514 H   0  0  0  0  0
    6.7448  -39.4106   -3.3980 H   0  0  0  0  0
    5.4532  -37.1096   -3.3019 H   0  0  0  0  0
    6.5702  -37.3132   -4.5779 H   0  0  0  0  0
    7.4324  -35.3045   -3.5233 H   0  0  0  0  0
    6.9998  -35.8125   -1.9562 H   0  0  0  0  0
    9.7112  -40.5738   -3.2474 H   0  0  0  0  0
   11.0235  -39.9167   -5.6689 H   0  0  0  0  0
    7.8930  -39.9987   -5.1711 H   0  0  0  0  0
    9.9771  -42.5707   -4.7027 H   0  0  0  0  0
   11.6447  -41.8911   -4.5355 H   0  0  0  0  0
   11.4854  -40.9267   -7.1168 H   0  0  0  0  0
  1  2  1  0  0  0
  2  3  1  0  0  0
  2  5  1  0  0  0
  3  4  2  0  0  0
  3  9  1  0  0  0
  5  6  1  0  0  0
  6  7  2  0  0  0
  6  8  1  0  0  0
  9 10  1  0  0  0
  9 15  1  0  0  0
 10 11  1  0  0  0
 10 13  1  0  0  0
 11 12  2  0  0  0
 11 16  1  0  0  0
 13 14  1  0  0  0
 14 15  1  0  0  0
 16 17  1  0  0  0
 17 18  1  0  0  0
 17 20  1  0  0  0
 18 19  2  0  0  0
 18 24  1  0  0  0
 20 21  1  0  0  0
 20 22  1  0  0  0
 21 23  1  0  0  0
 24 25  1  0  0  0
 25 26  1  0  0  0
 25 28  1  0  0  0
 26 27  2  0  0  0
 26 30  1  0  0  0
 28 29  1  0  0  0
 30 31  1  0  0  0
 31 32  1  0  0  0
 31 34  1  0  0  0
 32 33  2  0  0  0
 32 38  1  0  0  0
 34 35  1  0  0  0
 35 36  1  0  0  0
 35 37  2  0  0  0
 38 39  1  0  0  0
 39 40  1  0  0  0
 39 42  1  0  0  0
 40 41  2  0  0  0
 40 49  1  0  0  0
 42 43  1  0  0  0
 43 44  4  0  0  0
 43 45  4  0  0  0
 44 46  4  0  0  0
 45 47  4  0  0  0
 46 48  4  0  0  0
 47 48  4  0  0  0
 49 50  1  0  0  0
 49 55  1  0  0  0
 50 51  1  0  0  0
 50 53  1  0  0  0
 51 52  2  0  0  0
 51 56  1  0  0  0
 53 54  1  0  0  0
 54 55  1  0  0  0
 56 57  1  0  0  0
 57 58  1  0  0  0
 57 60  1  0  0  0
 58 59  1  0  0  0
 58 64  2  0  0  0
 60 61  1  0  0  0
 61 62  2  0  0  0
 61 63  1  0  0  0
  1 65  1  0  0  0
  1 66  1  0  0  0
  1 67  1  0  0  0
  2 68  1  0  0  0
  5 69  1  0  0  0
  5 70  1  0  0  0
  8 71  1  0  0  0
  8 72  1  0  0  0
 10 73  1  0  0  0
 13 74  1  0  0  0
 13 75  1  0  0  0
 14 76  1  0  0  0
 14 77  1  0  0  0
 15 78  1  0  0  0
 15 79  1  0  0  0
 16 80  1  0  0  0
 17 81  1  0  0  0
 20 82  1  0  0  0
 21 83  1  0  0  0
 21 84  1  0  0  0
 22 85  1  0  0  0
 22 86  1  0  0  0
 22 87  1  0  0  0
 23 88  1  0  0  0
 23 89  1  0  0  0
 23 90  1  0  0  0
 24 91  1  0  0  0
 25 92  1  0  0  0
 28 93  1  0  0  0
 28 94  1  0  0  0
 29 95  1  0  0  0
 30 96  1  0  0  0
 31 97  1  0  0  0
 34 98  1  0  0  0
 34 99  1  0  0  0
 36100  1  0  0  0
 38101  1  0  0  0
 39102  1  0  0  0
 42103  1  0  0  0
 42104  1  0  0  0
 44105  1  0  0  0
 45106  1  0  0  0
 46107  1  0  0  0
 47108  1  0  0  0
 48109  1  0  0  0
 50110  1  0  0  0
 53111  1  0  0  0
 53112  1  0  0  0
 54113  1  0  0  0
 54114  1  0  0  0
 55115  1  0  0  0
 55116  1  0  0  0
 56117  1  0  0  0
 57118  1  0  0  0
 59119  1  0  0  0
 60120  1  0  0  0
 60121  1  0  0  0
 63122  1  0  0  0
M  END
$$$$
