2c6g_ligand
  -I-interpret- 

 20 19  0  0  0  0  0  0  0  0999 V2000
   16.5860   45.1380   43.2530 N   0  3  0  0  0
   16.0730   44.5800   41.9820 C   0  0  0  0  0
   17.1630   44.7030   40.9110 C   0  0  0  0  0
   18.0380   45.5600   41.1360 O   0  0  0  0  0
   14.8300   45.3100   41.4900 C   0  0  0  0  0
   15.1460   46.7700   41.1330 C   0  0  0  0  0
   13.9760   47.5390   40.5540 C   0  0  0  0  0
   13.0750   46.9210   39.9240 O   0  0  0  0  0
   13.9820   48.7750   40.7490 O   0  0  0  0  0
   17.0450   43.9180   39.9610 O   0  0  0  0  0
   17.4153   44.6185   43.5409 H   0  0  0  0  0
   16.8279   46.1198   43.1188 H   0  0  0  0  0
   15.8671   45.0590   43.9723 H   0  0  0  0  0
   15.8045   43.5392   42.1629 H   0  0  0  0  0
   17.8419   46.0065   41.9629 H   0  0  0  0  0
   14.0842   45.3004   42.2849 H   0  0  0  0  0
   14.4620   44.8058   40.5964 H   0  0  0  0  0
   15.9256   46.7519   40.3715 H   0  0  0  0  0
   15.4323   47.2710   42.0577 H   0  0  0  0  0
   13.2852   45.9845   39.9036 H   0  0  0  0  0
  1  2  1  0  0  0
  2  3  1  0  0  0
  2  5  1  0  0  0
  3  4  1  0  0  0
  3 10  2  0  0  0
  5  6  1  0  0  0
  6  7  1  0  0  0
  7  8  1  0  0  0
  7  9  2  0  0  0
  1 11  1  0  0  0
  1 12  1  0  0  0
  1 13  1  0  0  0
  2 14  1  0  0  0
  4 15  1  0  0  0
  5 16  1  0  0  0
  5 17  1  0  0  0
  6 18  1  0  0  0
  6 19  1  0  0  0
  8 20  1  0  0  0
M  END
$$$$
