### 
### Created by X-TOOL on Mon Sep 10 21:13:02 2018
### 

@<TRIPOS>MOLECULE
2k0g_ligand
   33    36     1     0     0
SMALL
GAST_HUCK


@<TRIPOS>ATOM
      1 P          34.1840   -0.6800   -5.9380 P.3       1 CMP         0.2557
      2 O1P        35.5910   -0.6960   -6.3990 O.co2     1 CMP        -0.6177
      3 O2P        33.3440    0.3530   -6.8440 O.co2     1 CMP        -0.6177
      4 O5'        33.5600   -2.1500   -6.0980 O.3       1 CMP        -0.2514
      5 C5'        34.2510   -3.0390   -5.2080 C.3       1 CMP         0.1128
      6 C4'        34.0740   -2.5100   -3.7970 C.3       1 CMP         0.1242
      7 O4'        34.6390   -3.3080   -2.7590 O.3       1 CMP        -0.3360
      8 C3'        34.8580   -1.1780   -3.6770 C.3       1 CMP         0.1540
      9 O3'        34.1370   -0.1970   -4.3980 O.3       1 CMP        -0.2453
     10 C2'        34.8880   -0.9870   -2.1500 C.3       1 CMP         0.1439
     11 O2'        33.7930   -0.1730   -1.7220 O.3       1 CMP        -0.3832
     12 C1'        34.7560   -2.4330   -1.6130 C.3       1 CMP         0.2014
     13 N9         35.9450   -2.7850   -0.8330 N.pl3     1 CMP        -0.1919
     14 C8         37.1600   -3.1420   -1.3350 C.2       1 CMP         0.1123
     15 N7         37.9880   -3.3900   -0.3610 N.2       1 CMP        -0.2958
     16 C5         37.3580   -3.2020    0.8240 C.ar      1 CMP         0.1045
     17 C6         37.7340   -3.3240    2.1730 C.ar      1 CMP         0.1298
     18 N6         39.0190   -3.7030    2.5180 N.pl3     1 CMP        -0.3152
     19 N1         36.8270   -3.0610    3.1070 N.ar      1 CMP        -0.2698
     20 C2         35.6010   -2.6970    2.7870 C.ar      1 CMP         0.0533
     21 N3         35.2020   -2.5750    1.5380 N.ar      1 CMP        -0.2714
     22 C4         36.0400   -2.8180    0.5340 C.ar      1 CMP         0.1613
     23 H1         35.3201   -3.0699   -5.4650 H         1 CMP         0.0647
     24 H2         33.8260   -4.0507   -5.2847 H         1 CMP         0.0647
     25 H3         33.0007   -2.3607   -3.6080 H         1 CMP         0.0655
     26 H4         35.8788   -1.2540   -4.0797 H         1 CMP         0.0712
     27 H5         35.8347   -0.5304   -1.8255 H         1 CMP         0.0680
     28 H6         33.8503    0.6781   -2.1400 H         1 CMP         0.2101
     29 H7         33.8613   -2.5202   -0.9791 H         1 CMP         0.0996
     30 H8         37.4030   -3.2100   -2.3944 H         1 CMP         0.1349
     31 H9         39.2818   -3.7887    3.5102 H         1 CMP         0.1820
     32 H10        39.7129   -3.8995    1.7826 H         1 CMP         0.1820
     33 H11        34.8943   -2.4902    3.5825 H         1 CMP         0.0996
@<TRIPOS>BOND
     1    1    2 ar 
     2    1    3 ar 
     3    1    4 1  
     4    1    9 1  
     5    4    5 1  
     6    5    6 1  
     7    6    7 1  
     8    6    8 1  
     9    7   12 1  
    10    8    9 1  
    11    8   10 1  
    12   10   11 1  
    13   10   12 1  
    14   12   13 1  
    15   13   14 1  
    16   13   22 1  
    17   14   15 2  
    18   15   16 1  
    19   16   17 ar 
    20   16   22 ar 
    21   17   18 1  
    22   17   19 ar 
    23   19   20 ar 
    24   20   21 ar 
    25   21   22 ar 
    26    5   23 1  
    27    5   24 1  
    28    6   25 1  
    29    8   26 1  
    30   10   27 1  
    31   11   28 1  
    32   12   29 1  
    33   14   30 1  
    34   18   31 1  
    35   18   32 1  
    36   20   33 1  
@<TRIPOS>SUBSTRUCTURE
     1 CMP         1

