2k0g_ligand
  -I-interpret- 

 34 37  0  0  0  0  0  0  0  0999 V2000
   34.1840   -0.6800   -5.9380 P   0  0  0  0  0
   35.5910   -0.6960   -6.3990 O   0  0  0  0  0
   33.3440    0.3530   -6.8440 O   0  0  0  0  0
   33.5600   -2.1500   -6.0980 O   0  0  0  0  0
   34.2510   -3.0390   -5.2080 C   0  0  0  0  0
   34.0740   -2.5100   -3.7970 C   0  0  0  0  0
   34.6390   -3.3080   -2.7590 O   0  0  0  0  0
   34.8580   -1.1780   -3.6770 C   0  0  0  0  0
   34.1370   -0.1970   -4.3980 O   0  0  0  0  0
   34.8880   -0.9870   -2.1500 C   0  0  0  0  0
   33.7930   -0.1730   -1.7220 O   0  0  0  0  0
   34.7560   -2.4330   -1.6130 C   0  0  0  0  0
   35.9450   -2.7850   -0.8330 N   0  0  0  0  0
   37.1600   -3.1420   -1.3350 C   0  0  0  0  0
   37.9880   -3.3900   -0.3610 N   0  0  0  0  0
   37.3580   -3.2020    0.8240 C   0  0  0  0  0
   37.7340   -3.3240    2.1730 C   0  0  0  0  0
   39.0190   -3.7030    2.5180 N   0  0  0  0  0
   36.8270   -3.0610    3.1070 N   0  0  0  0  0
   35.6010   -2.6970    2.7870 C   0  0  0  0  0
   35.2020   -2.5750    1.5380 N   0  0  0  0  0
   36.0400   -2.8180    0.5340 C   0  0  0  0  0
   32.4307    0.3666   -6.5485 H   0  0  0  0  0
   35.3092   -3.0859   -5.4652 H   0  0  0  0  0
   33.8448   -4.0473   -5.2885 H   0  0  0  0  0
   32.9933   -2.4580   -3.6648 H   0  0  0  0  0
   35.8669   -1.1356   -4.0874 H   0  0  0  0  0
   35.7860   -0.4827   -1.7932 H   0  0  0  0  0
   33.8290   -0.0657   -0.7687 H   0  0  0  0  0
   33.8846   -2.5279   -0.9652 H   0  0  0  0  0
   37.4032   -3.2100   -2.3953 H   0  0  0  0  0
   39.7062   -3.8976    1.7898 H   0  0  0  0  0
   39.2792   -3.7879    3.5006 H   0  0  0  0  0
   34.8904   -2.4891    3.5869 H   0  0  0  0  0
  1  2  2  0  0  0
  1  3  1  0  0  0
  1  4  1  0  0  0
  1  9  1  0  0  0
  4  5  1  0  0  0
  5  6  1  0  0  0
  6  7  1  0  0  0
  6  8  1  0  0  0
  7 12  1  0  0  0
  8  9  1  0  0  0
  8 10  1  0  0  0
 10 11  1  0  0  0
 10 12  1  0  0  0
 12 13  1  0  0  0
 13 14  4  0  0  0
 13 22  4  0  0  0
 14 15  4  0  0  0
 15 16  4  0  0  0
 16 17  4  0  0  0
 16 22  4  0  0  0
 17 18  1  0  0  0
 17 19  4  0  0  0
 19 20  4  0  0  0
 20 21  4  0  0  0
 21 22  4  0  0  0
  3 23  1  0  0  0
  5 24  1  0  0  0
  5 25  1  0  0  0
  6 26  1  0  0  0
  8 27  1  0  0  0
 10 28  1  0  0  0
 11 29  1  0  0  0
 12 30  1  0  0  0
 14 31  1  0  0  0
 18 32  1  0  0  0
 18 33  1  0  0  0
 20 34  1  0  0  0
M  END
$$$$
