3jqf_ligand
  -I-interpret- 

 15 15  0  0  0  0  0  0  0  0999 V2000
    9.7320  -11.3260   13.8620 C   0  0  0  0  0
    8.2720   -9.6520   14.7120 C   0  0  0  0  0
   10.5790   -9.1860   14.5300 C   0  0  0  0  0
    9.8900  -12.5880   13.3710 N   0  0  0  0  0
   11.6110   -8.3260   14.6930 N   0  0  0  0  0
    9.3140   -8.7940   14.8700 N   0  0  0  0  0
    7.0250   -9.2710   15.0670 N   0  0  0  0  0
    8.4640  -10.9100   14.1970 N   0  0  0  0  0
   10.7970  -10.4910   14.0610 N   0  0  0  0  0
    9.0795  -13.1973   13.2602 H   0  0  0  0  0
   10.8187  -12.9229   13.1144 H   0  0  0  0  0
   11.4425   -7.3923   15.0673 H   0  0  0  0  0
   12.5574   -8.6115   14.4415 H   0  0  0  0  0
    6.8666   -8.3403   15.4531 H   0  0  0  0  0
    6.2422   -9.9141   14.9489 H   0  0  0  0  0
  1  4  1  0  0  0
  8  1  4  0  0  0
  1  9  4  0  0  0
  6  2  4  0  0  0
  2  7  1  0  0  0
  2  8  4  0  0  0
  3  5  1  0  0  0
  3  6  4  0  0  0
  3  9  4  0  0  0
  4 10  1  0  0  0
  4 11  1  0  0  0
  5 12  1  0  0  0
  5 13  1  0  0  0
  7 14  1  0  0  0
  7 15  1  0  0  0
M  END
$$$$
