3e5u_ligand
  -I-interpret- 

 19 19  0  0  0  0  0  0  0  0999 V2000
   10.1580  -23.8110   21.3250 O   0  0  0  0  0
    9.7370  -23.5100   20.1530 C   0  0  0  0  0
    8.5380  -23.7690   19.7580 O   0  0  0  0  0
   10.7840  -22.9190   19.2050 C   0  0  0  0  0
   10.3040  -22.8350   17.7550 C   0  0  0  0  0
    9.4900  -21.8350   17.3370 C   0  0  0  0  0
    9.0210  -21.6750   16.1370 C   0  0  0  0  0
    9.4820  -22.5930   15.0760 C   0  0  0  0  0
    9.1550  -22.5630   13.7590 O   0  0  0  0  0
   10.9670  -24.8500   14.4430 Cl  0  0  0  0  0
   10.3670  -23.6370   15.5820 C   0  0  0  0  0
   10.7400  -23.7180   16.8610 C   0  0  0  0  0
    8.4271  -23.4641   18.8545 H   0  0  0  0  0
   11.6562  -23.5724   19.2271 H   0  0  0  0  0
   10.9992  -21.9047   19.5412 H   0  0  0  0  0
    9.2010  -21.0927   18.0810 H   0  0  0  0  0
    8.3049  -20.8829   15.9181 H   0  0  0  0  0
    9.6014  -23.2803   13.3032 H   0  0  0  0  0
   11.4101  -24.5176   17.1767 H   0  0  0  0  0
  1  2  2  0  0  0
  2  3  1  0  0  0
  2  4  1  0  0  0
  4  5  1  0  0  0
  5  6  4  0  0  0
  5 12  4  0  0  0
  6  7  4  0  0  0
  7  8  4  0  0  0
  8  9  1  0  0  0
  8 11  4  0  0  0
 11 10  1  0  0  0
 11 12  4  0  0  0
  3 13  1  0  0  0
  4 14  1  0  0  0
  4 15  1  0  0  0
  6 16  1  0  0  0
  7 17  1  0  0  0
  9 18  1  0  0  0
 12 19  1  0  0  0
M  END
$$$$
