5dhs_ligand
  -I-interpret- 

 58 61  0  0  0  0  0  0  0  0999 V2000
   13.8380  -18.0450  -45.1250 C   0  0  0  0  0
   11.5980  -17.6330  -44.7390 C   0  0  0  0  0
   11.4700  -17.0680  -45.9840 C   0  0  0  0  0
   12.5510  -16.9880  -46.8130 C   0  0  0  0  0
   10.4080  -17.5500  -44.1720 N   0  0  0  0  0
   11.4910  -21.8830  -44.1280 C   0  0  0  0  0
   10.7210  -21.4170  -44.8840 C   0  0  0  0  0
    9.7610  -20.8610  -45.7870 C   0  0  0  0  0
   10.1300  -20.1130  -46.8970 C   0  0  0  0  0
    8.4280  -21.0910  -45.5150 C   0  0  0  0  0
    7.4500  -20.5790  -46.3360 C   0  0  0  0  0
    7.8120  -19.8330  -47.4380 C   0  0  0  0  0
    9.1380  -19.6080  -47.7160 C   0  0  0  0  0
    9.4570  -18.7900  -48.9350 C   0  0  0  0  0
    8.4570  -17.6420  -49.0600 C   0  0  0  0  0
    8.4310  -16.9170  -47.7840 N   0  0  0  0  0
    7.4910  -16.0530  -47.4650 C   0  0  0  0  0
    6.5810  -15.7260  -48.2130 O   0  0  0  0  0
    7.6410  -15.4480  -46.0820 C   0  0  0  0  0
    7.9760  -16.6610  -44.7660 S   0  0  0  0  0
    9.6030  -16.9810  -45.0390 C   0  0  0  0  0
   10.2230  -16.6700  -46.1450 N   0  0  0  0  0
   12.3820  -16.4350  -47.9870 N   0  0  0  0  0
   13.7640  -17.4780  -46.3930 N   0  0  0  0  0
   12.7790  -18.1120  -44.3450 N   0  0  0  0  0
   10.0070  -18.0210  -42.8810 C   0  0  0  0  0
    8.7540  -18.5320  -43.2470 O   0  0  0  0  0
    9.6400  -16.9160  -41.8960 C   0  0  0  0  0
   10.4400  -17.0460  -40.7460 O   0  0  0  0  0
    8.2140  -17.2470  -41.4860 C   0  0  0  0  0
    8.0750  -17.2770  -40.0740 O   0  0  0  0  0
    8.1170  -18.6540  -41.9920 C   0  0  0  0  0
    6.6420  -18.9590  -42.0600 C   0  0  0  0  0
    6.4580  -20.2600  -41.4390 N   0  0  0  0  0
    6.6830  -21.3290  -42.1410 N   0  0  0  0  0
    6.9010  -22.3970  -42.8390 N   0  0  0  0  0
   14.7897  -18.4410  -44.7705 H   0  0  0  0  0
   11.1812  -19.9278  -47.1180 H   0  0  0  0  0
    8.1478  -21.6826  -44.6434 H   0  0  0  0  0
    6.3979  -20.7614  -46.1173 H   0  0  0  0  0
    7.0428  -19.4204  -48.0908 H   0  0  0  0  0
    9.3946  -19.4219  -49.8209 H   0  0  0  0  0
   10.4644  -18.3837  -48.8443 H   0  0  0  0  0
    7.4654  -18.0316  -49.2904 H   0  0  0  0  0
    8.7543  -16.9716  -49.8664 H   0  0  0  0  0
    9.1780  -17.0914  -47.1117 H   0  0  0  0  0
    6.6949  -14.9643  -45.8391 H   0  0  0  0  0
    8.4944  -14.7709  -46.1189 H   0  0  0  0  0
   11.4643  -16.0807  -48.2565 H   0  0  0  0  0
   13.1680  -16.3583  -48.6325 H   0  0  0  0  0
   10.7746  -18.6400  -42.4165 H   0  0  0  0  0
    9.7640  -15.9199  -42.3208 H   0  0  0  0  0
   10.2146  -16.3533  -40.1208 H   0  0  0  0  0
    7.4735  -16.5379  -41.8562 H   0  0  0  0  0
    7.1663  -17.4880  -39.8475 H   0  0  0  0  0
    8.5687  -19.4576  -41.4103 H   0  0  0  0  0
    6.2935  -18.9678  -43.0927 H   0  0  0  0  0
    6.0622  -18.1949  -41.5422 H   0  0  0  0  0
  1 24  4  0  0  0
 25  1  4  0  0  0
  2  3  4  0  0  0
  5  2  4  0  0  0
  2 25  4  0  0  0
  3  4  4  0  0  0
  3 22  4  0  0  0
  4 23  1  0  0  0
  4 24  4  0  0  0
 21  5  4  0  0  0
  5 26  1  0  0  0
  7  6  3  0  0  0
  8  7  1  0  0  0
  9  8  4  0  0  0
  8 10  4  0  0  0
 13  9  4  0  0  0
 11 10  4  0  0  0
 12 11  4  0  0  0
 13 12  4  0  0  0
 14 13  1  0  0  0
 15 14  1  0  0  0
 16 15  1  0  0  0
 17 16  1  0  0  0
 17 18  2  0  0  0
 19 17  1  0  0  0
 20 19  1  0  0  0
 20 21  1  0  0  0
 21 22  4  0  0  0
 26 27  1  0  0  0
 26 28  1  0  0  0
 27 32  1  0  0  0
 28 29  1  0  0  0
 28 30  1  0  0  0
 30 31  1  0  0  0
 30 32  1  0  0  0
 32 33  1  0  0  0
 33 34  1  0  0  0
 34 35  2  0  0  0
 35 36  3  0  0  0
  1 37  1  0  0  0
  9 38  1  0  0  0
 10 39  1  0  0  0
 11 40  1  0  0  0
 12 41  1  0  0  0
 14 42  1  0  0  0
 14 43  1  0  0  0
 15 44  1  0  0  0
 15 45  1  0  0  0
 16 46  1  0  0  0
 19 47  1  0  0  0
 19 48  1  0  0  0
 23 49  1  0  0  0
 23 50  1  0  0  0
 26 51  1  0  0  0
 28 52  1  0  0  0
 29 53  1  0  0  0
 30 54  1  0  0  0
 31 55  1  0  0  0
 32 56  1  0  0  0
 33 57  1  0  0  0
 33 58  1  0  0  0
M  END
$$$$
