1nqc_ligand
  -I-interpret- 

 61 63  0  0  0  0  0  0  0  0999 V2000
    2.1010   10.5570   49.8530 N   0  0  0  0  0
    1.8820   10.4030   51.2240 C   0  0  0  0  0
    0.9900   11.0720   51.7920 O   0  0  0  0  0
    2.6420    9.5170   51.9300 N   0  0  0  0  0
    2.3870    9.3610   53.3900 C   0  0  0  0  0
    2.5330    7.8680   53.7470 C   0  0  0  0  0
    3.8240    7.3870   53.2530 O   0  0  0  0  0
    3.8980    7.3260   51.8000 C   0  0  0  0  0
    3.6960    8.7480   51.1910 C   0  0  0  0  0
    1.2410   11.5010   49.1100 C   0  0  0  0  0
   -0.1270   10.8810   49.0090 C   0  0  0  0  0
   -0.2580    9.7350   48.6960 O   0  0  0  0  0
   -1.1330   11.6990   49.2820 N   0  0  0  0  0
   -2.5240   11.3310   49.2290 C   0  0  0  0  0
   -3.1600   11.2940   47.8490 C   0  0  0  0  0
   -4.3590   11.0310   47.6870 O   0  0  0  0  0
   -3.2060   11.7230   50.5910 C   0  0  0  0  0
   -2.7020   10.4460   51.8120 S   0  0  0  0  0
   -3.5510   10.9520   53.3430 C   0  0  0  0  0
   -5.0330   10.5970   53.0280 C   0  0  0  0  0
   -5.9860   11.6430   52.6760 C   0  0  0  0  0
   -7.3540   11.2970   52.3670 C   0  0  0  0  0
   -7.7790    9.9080   52.4090 C   0  0  0  0  0
   -6.8370    8.8710   52.7630 C   0  0  0  0  0
   -5.4690    9.2120   53.0710 C   0  0  0  0  0
    1.6870   11.7530   47.6500 C   0  0  0  0  0
    2.9500   12.5900   47.4580 C   0  0  0  0  0
    3.1750   13.7920   48.2370 C   0  0  0  0  0
    4.3720   14.5660   48.0310 C   0  0  0  0  0
    5.3440   14.1480   47.0490 C   0  0  0  0  0
    5.1180   12.9530   46.2780 C   0  0  0  0  0
    3.9230   12.1760   46.4840 C   0  0  0  0  0
    2.8349   10.0318   49.3776 H   0  0  0  0  0
    1.3833    9.7086   53.6346 H   0  0  0  0  0
    3.1010    9.9546   53.9609 H   0  0  0  0  0
    1.7263    7.2981   53.2859 H   0  0  0  0  0
    2.4814    7.7408   54.8283 H   0  0  0  0  0
    3.1147    6.6645   51.4300 H   0  0  0  0  0
    4.8779    6.9483   51.5079 H   0  0  0  0  0
    4.6372    9.2927   51.2656 H   0  0  0  0  0
    3.3798    8.6379   50.1537 H   0  0  0  0  0
    1.2819   12.4465   49.6507 H   0  0  0  0  0
   -0.9060   12.6570   49.5485 H   0  0  0  0  0
   -2.7757   10.2705   49.2404 H   0  0  0  0  0
   -2.5423   11.5053   46.9761 H   0  0  0  0  0
   -4.2906   11.7590   50.4886 H   0  0  0  0  0
   -2.8931   12.7163   50.9129 H   0  0  0  0  0
   -3.4034   12.0034   53.5897 H   0  0  0  0  0
   -3.1684   10.4519   54.2327 H   0  0  0  0  0
   -5.6665   12.6847   52.6461 H   0  0  0  0  0
   -8.0673   12.0776   52.1024 H   0  0  0  0  0
   -8.8108    9.6477   52.1729 H   0  0  0  0  0
   -7.1599    7.8305   52.7974 H   0  0  0  0  0
   -4.7604    8.4276   53.3368 H   0  0  0  0  0
    0.8790   12.3138   47.1801 H   0  0  0  0  0
    1.9078   10.7724   47.2284 H   0  0  0  0  0
    2.4400   14.1091   48.9768 H   0  0  0  0  0
    4.5442   15.4686   48.6174 H   0  0  0  0  0
    6.2480   14.7363   46.8913 H   0  0  0  0  0
    5.8523   12.6361   45.5375 H   0  0  0  0  0
    3.7558   11.2712   45.8996 H   0  0  0  0  0
  1  2  1  0  0  0
  1 10  1  0  0  0
  2  3  2  0  0  0
  2  4  1  0  0  0
  4  5  1  0  0  0
  4  9  1  0  0  0
  5  6  1  0  0  0
  6  7  1  0  0  0
  7  8  1  0  0  0
  8  9  1  0  0  0
 10 11  1  0  0  0
 10 26  1  0  0  0
 11 12  2  0  0  0
 11 13  1  0  0  0
 13 14  1  0  0  0
 14 15  1  0  0  0
 14 17  1  0  0  0
 15 16  2  0  0  0
 17 18  1  0  0  0
 18 19  1  0  0  0
 19 20  1  0  0  0
 20 21  4  0  0  0
 20 25  4  0  0  0
 21 22  4  0  0  0
 22 23  4  0  0  0
 23 24  4  0  0  0
 24 25  4  0  0  0
 26 27  1  0  0  0
 27 28  4  0  0  0
 27 32  4  0  0  0
 28 29  4  0  0  0
 29 30  4  0  0  0
 30 31  4  0  0  0
 31 32  4  0  0  0
  1 33  1  0  0  0
  5 34  1  0  0  0
  5 35  1  0  0  0
  6 36  1  0  0  0
  6 37  1  0  0  0
  8 38  1  0  0  0
  8 39  1  0  0  0
  9 40  1  0  0  0
  9 41  1  0  0  0
 10 42  1  0  0  0
 13 43  1  0  0  0
 14 44  1  0  0  0
 15 45  1  0  0  0
 17 46  1  0  0  0
 17 47  1  0  0  0
 19 48  1  0  0  0
 19 49  1  0  0  0
 21 50  1  0  0  0
 22 51  1  0  0  0
 23 52  1  0  0  0
 24 53  1  0  0  0
 25 54  1  0  0  0
 26 55  1  0  0  0
 26 56  1  0  0  0
 28 57  1  0  0  0
 29 58  1  0  0  0
 30 59  1  0  0  0
 31 60  1  0  0  0
 32 61  1  0  0  0
M  END
$$$$
