2y2h_ligand
  -I-interpret- 

 23 23  0  0  0  0  0  0  0  0999 V2000
   87.6810   69.0070   62.8620 O   0  0  0  0  0
   87.6540   68.2580   61.8980 C   0  0  0  0  0
   86.5140   68.0730   61.1550 N   0  0  0  0  0
   85.2290   68.7770   61.2040 C   0  0  0  0  0
   84.3060   68.4020   59.9880 B   0  0  0  0  0
   83.0600   69.3000   59.9360 O   0  0  0  0  0
   85.0970   68.5260   58.6730 O   0  0  0  0  0
   88.8640   67.3860   61.5240 C   0  0  0  0  0
   89.7460   66.9160   62.4980 C   0  0  0  0  0
   89.2130   66.7920   64.1700 Cl  0  0  0  0  0
   89.3950   67.5170   60.2400 C   0  0  0  0  0
   90.6410   66.9810   59.9100 C   0  0  0  0  0
   91.4650   66.4370   60.8910 C   0  0  0  0  0
   91.0030   66.3950   62.2010 C   0  0  0  0  0
   86.5701   67.3288   60.4597 H   0  0  0  0  0
   85.4254   69.8485   61.1654 H   0  0  0  0  0
   84.7171   68.4890   62.1222 H   0  0  0  0  0
   82.5726   69.2171   60.7589 H   0  0  0  0  0
   85.8732   67.9625   58.7134 H   0  0  0  0  0
   88.8247   68.0492   59.4787 H   0  0  0  0  0
   90.9726   66.9886   58.8717 H   0  0  0  0  0
   92.4525   66.0518   60.6370 H   0  0  0  0  0
   91.6181   65.9588   62.9880 H   0  0  0  0  0
  1  2  2  0  0  0
  2  3  1  0  0  0
  2  8  1  0  0  0
  3  4  1  0  0  0
  4  5  1  0  0  0
  5  6  1  0  0  0
  5  7  1  0  0  0
  8  9  4  0  0  0
  8 11  4  0  0  0
  9 10  1  0  0  0
  9 14  4  0  0  0
 11 12  4  0  0  0
 12 13  4  0  0  0
 13 14  4  0  0  0
  3 15  1  0  0  0
  4 16  1  0  0  0
  4 17  1  0  0  0
  6 18  1  0  0  0
  7 19  1  0  0  0
 11 20  1  0  0  0
 12 21  1  0  0  0
 13 22  1  0  0  0
 14 23  1  0  0  0
M  END
$$$$
