### 
### Created by X-TOOL on Mon Sep 10 21:13:07 2018
### 

@<TRIPOS>MOLECULE
2y2h_ligand
   23    23     1     0     0
SMALL
GAST_HUCK


@<TRIPOS>ATOM
      1 O6         87.6810   69.0070   62.8620 O.2       1 ZA2        -0.3873
      2 C5         87.6540   68.2580   61.8980 C.2       1 ZA2         0.1767
      3 N4         86.5140   68.0730   61.1550 N.am      1 ZA2        -0.4404
      4 C3         85.2290   68.7770   61.2040 C.3       1 ZA2        -0.2413
      5 B          84.3060   68.4020   59.9880 B         1 ZA2         3.0000
      6 O2         83.0600   69.3000   59.9360 O.3       1 ZA2        -0.8710
      7 O1         85.0970   68.5260   58.6730 O.3       1 ZA2        -0.8710
      8 C7         88.8640   67.3860   61.5240 C.ar      1 ZA2         0.0611
      9 C14        89.7460   66.9160   62.4980 C.ar      1 ZA2         0.0604
     10 CL         89.2130   66.7920   64.1700 Cl        1 ZA2        -0.0647
     11 C8         89.3950   67.5170   60.2400 C.ar      1 ZA2        -0.0417
     12 C11        90.6410   66.9810   59.9100 C.ar      1 ZA2        -0.0561
     13 C12        91.4650   66.4370   60.8910 C.ar      1 ZA2        -0.0571
     14 C13        91.0030   66.3950   62.2010 C.ar      1 ZA2        -0.0423
     15 H          86.5701   67.3288   60.4597 H         1 ZA2         0.1452
     16 H          85.4254   69.8485   61.1654 H         1 ZA2        -0.1856
     17 H          84.7171   68.4890   62.1222 H         1 ZA2        -0.1856
     18 H          82.5019   69.0289   59.2035 H         1 ZA2        -0.1290
     19 H          85.3687   69.4384   58.5491 H         1 ZA2        -0.1290
     20 H          88.8247   68.0492   59.4787 H         1 ZA2         0.0669
     21 H          90.9726   66.9886   58.8717 H         1 ZA2         0.0630
     22 H          92.4525   66.0518   60.6370 H         1 ZA2         0.0652
     23 H          91.6181   65.9588   62.9880 H         1 ZA2         0.0635
@<TRIPOS>BOND
     1    1    2 2  
     2    2    3 am 
     3    2    8 1  
     4    3    4 1  
     5    4    5 1  
     6    5    6 1  
     7    5    7 1  
     8    8    9 ar 
     9    8   11 ar 
    10    9   10 1  
    11    9   14 ar 
    12   11   12 ar 
    13   12   13 ar 
    14   13   14 ar 
    15    3   15 1  
    16    4   16 1  
    17    4   17 1  
    18    6   18 1  
    19    7   19 1  
    20   11   20 1  
    21   12   21 1  
    22   13   22 1  
    23   14   23 1  
@<TRIPOS>SUBSTRUCTURE
     1 ZA2         1

