5u2f_ligand
  -I-interpret- 

 45 48  0  0  0  0  0  0  0  0999 V2000
   27.3250  -11.7820   -4.3930 C   0  0  0  0  0
   26.9040  -16.0280   -2.8870 C   0  0  0  0  0
   28.8660  -17.2730   -3.8380 C   0  0  0  0  0
   31.3070  -18.0500   -4.1210 C   0  0  0  0  0
   30.6600  -15.8720   -5.0090 C   0  0  0  0  0
   27.6140   -7.9900   -6.5080 O   0  0  0  0  0
   27.5390   -9.1970   -5.7900 N   0  0  0  0  0
   26.2490   -9.8380   -5.5810 C   0  0  0  0  0
   25.2600   -9.3460   -6.0130 O   0  0  0  0  0
   26.1600  -11.1510   -4.8000 C   0  0  0  0  0
   24.9190  -11.7040   -4.5010 C   0  0  0  0  0
   24.8440  -12.8960   -3.7950 C   0  0  0  0  0
   26.0140  -13.5230   -3.3860 C   0  0  0  0  0
   27.2490  -12.9700   -3.6860 C   0  0  0  0  0
   25.9730  -14.8350   -2.6040 C   0  0  0  0  0
   25.0920  -15.1510   -1.4880 C   0  0  0  0  0
   25.4220  -16.6720   -0.9650 S   0  0  0  0  0
   26.6240  -17.1140   -1.9700 C   0  0  0  0  0
   27.9630  -16.1230   -3.9440 O   0  0  0  0  0
   28.5380  -18.4210   -2.9180 C   0  0  0  0  0
   27.3910  -18.3580   -2.0590 C   0  0  0  0  0
   27.0690  -19.3070   -1.4250 O   0  0  0  0  0
   30.2240  -17.0840   -4.3100 N   0  3  0  0  0
   32.2530  -18.1690   -5.3110 C   0  0  0  0  0
   32.6890  -16.9400   -5.7710 O   0  0  0  0  0
   31.6320  -16.1350   -6.1560 C   0  0  0  0  0
   28.2956  -11.3454   -4.6282 H   0  0  0  0  0
   28.4674  -17.8660   -4.6611 H   0  0  0  0  0
   30.8453  -19.0270   -3.9782 H   0  0  0  0  0
   31.8991  -17.7074   -3.2724 H   0  0  0  0  0
   31.1784  -15.2472   -4.2817 H   0  0  0  0  0
   29.7717  -15.4075   -5.4371 H   0  0  0  0  0
   28.5290   -7.7032   -6.5549 H   0  0  0  0  0
   28.3873   -9.6226   -5.4163 H   0  0  0  0  0
   24.0064  -11.2013   -4.8211 H   0  0  0  0  0
   23.8745  -13.3370   -3.5631 H   0  0  0  0  0
   28.1620  -13.4713   -3.3648 H   0  0  0  0  0
   24.3369  -14.4862   -1.0685 H   0  0  0  0  0
   29.3848  -18.4677   -2.2333 H   0  0  0  0  0
   28.3256  -19.2524   -3.5901 H   0  0  0  0  0
   29.2851  -17.4244   -4.1025 H   0  0  0  0  0
   31.7116  -18.6569   -6.1215 H   0  0  0  0  0
   33.1270  -18.7349   -4.9885 H   0  0  0  0  0
   32.0368  -15.1775   -6.4838 H   0  0  0  0  0
   31.0885  -16.6460   -6.9507 H   0  0  0  0  0
  1 10  4  0  0  0
 14  1  4  0  0  0
 15  2  4  0  0  0
  2 18  4  0  0  0
  2 19  1  0  0  0
 19  3  1  0  0  0
  3 20  1  0  0  0
  3 23  1  0  0  0
 23  4  1  0  0  0
  4 24  1  0  0  0
 23  5  1  0  0  0
  5 26  1  0  0  0
  7  6  1  0  0  0
  8  7  1  0  0  0
  8  9  2  0  0  0
 10  8  1  0  0  0
 11 10  4  0  0  0
 12 11  4  0  0  0
 13 12  4  0  0  0
 13 14  4  0  0  0
 13 15  1  0  0  0
 15 16  4  0  0  0
 16 17  4  0  0  0
 17 18  4  0  0  0
 18 21  1  0  0  0
 20 21  1  0  0  0
 21 22  2  0  0  0
 24 25  1  0  0  0
 25 26  1  0  0  0
  1 27  1  0  0  0
  3 28  1  0  0  0
  4 29  1  0  0  0
  4 30  1  0  0  0
  5 31  1  0  0  0
  5 32  1  0  0  0
  6 33  1  0  0  0
  7 34  1  0  0  0
 11 35  1  0  0  0
 12 36  1  0  0  0
 14 37  1  0  0  0
 16 38  1  0  0  0
 20 39  1  0  0  0
 20 40  1  0  0  0
 23 41  1  0  0  0
 24 42  1  0  0  0
 24 43  1  0  0  0
 26 44  1  0  0  0
 26 45  1  0  0  0
M  END
$$$$
