3ft5_ligand
  -I-interpret- 

 23 24  0  0  0  0  0  0  0  0999 V2000
   29.0690   11.4690   23.7360 N   0  0  0  0  0
   30.1370   10.8790   24.3180 C   0  0  0  0  0
   29.9220   10.1880   25.4460 N   0  0  0  0  0
   30.8930    9.5420   26.1130 C   0  0  0  0  0
   30.5720    8.7680   27.3700 C   0  0  0  0  0
   32.2570    9.6400   25.5740 C   0  0  0  0  0
   31.3640   10.9910   23.7480 N   0  0  0  0  0
   32.4450   10.4130   24.3420 C   0  0  0  0  0
   33.8150   10.5850   23.7260 C   0  0  0  0  0
   34.5670    9.2840   23.5280 C   0  0  0  0  0
   34.2010    8.1650   24.8260 S   0  0  0  0  0
   33.4290    8.9570   26.2130 C   0  0  0  0  0
   28.1442   11.3785   24.1567 H   0  0  0  0  0
   29.1879   12.0046   22.8761 H   0  0  0  0  0
   30.1507    9.4442   28.1139 H   0  0  0  0  0
   29.8499    7.9850   27.1386 H   0  0  0  0  0
   31.4846    8.3183   27.7613 H   0  0  0  0  0
   34.4028   11.1985   24.4088 H   0  0  0  0  0
   33.6741   11.0311   22.7415 H   0  0  0  0  0
   35.6376    9.4889   23.5266 H   0  0  0  0  0
   34.2649    8.8395   22.5797 H   0  0  0  0  0
   33.1439    8.2612   27.0021 H   0  0  0  0  0
   34.0917    9.6430   26.7406 H   0  0  0  0  0
  1  2  1  0  0  0
  2  3  4  0  0  0
  2  7  4  0  0  0
  3  4  4  0  0  0
  4  5  1  0  0  0
  4  6  4  0  0  0
  6  8  4  0  0  0
  6 12  1  0  0  0
  7  8  4  0  0  0
  8  9  1  0  0  0
  9 10  1  0  0  0
 10 11  1  0  0  0
 11 12  1  0  0  0
  1 13  1  0  0  0
  1 14  1  0  0  0
  5 15  1  0  0  0
  5 16  1  0  0  0
  5 17  1  0  0  0
  9 18  1  0  0  0
  9 19  1  0  0  0
 10 20  1  0  0  0
 10 21  1  0  0  0
 12 22  1  0  0  0
 12 23  1  0  0  0
M  END
$$$$
