4jai_ligand
  -I-interpret- 

 49 53  0  0  0  0  0  0  0  0999 V2000
   -3.9670  -34.2600    4.6070 O   0  0  0  0  0
   -4.3490  -33.2850    5.1070 C   0  0  0  0  0
   -4.8950  -32.1210    4.4420 C   0  0  0  0  0
   -5.0150  -32.0340    3.0820 C   0  0  0  0  0
   -5.5670  -30.9480    2.4370 C   0  0  0  0  0
   -6.0160  -29.9210    3.2160 C   0  0  0  0  0
   -5.8480  -30.0220    4.5940 C   0  0  0  0  0
   -5.3230  -31.1340    5.2110 C   0  0  0  0  0
   -5.1650  -31.2920    6.6150 C   0  0  0  0  0
   -4.2160  -33.3880    6.3750 N   0  0  0  0  0
   -4.6090  -32.3870    7.1780 C   0  0  0  0  0
   -4.3850  -32.6160    8.4760 N   0  0  0  0  0
   -4.6790  -31.6400    9.2750 C   0  0  0  0  0
   -5.2230  -30.4930    8.8310 C   0  0  0  0  0
   -5.4490  -30.3320    7.4930 C   0  0  0  0  0
   -6.0590  -29.2090    7.0100 N   0  0  0  0  0
   -7.1550  -28.6290    7.7030 C   0  0  0  0  0
   -8.3450  -29.2220    8.1340 C   0  0  0  0  0
   -9.2700  -28.4380    8.8480 C   0  0  0  0  0
   -6.9540  -27.2920    8.0110 C   0  0  0  0  0
   -7.8330  -26.5270    8.7230 C   0  0  0  0  0
   -9.0010  -27.1070    9.1640 C   0  0  0  0  0
   -9.8200  -26.1810    9.8750 N   0  0  0  0  0
   -9.6610  -24.7700   10.1670 C   0  0  0  0  0
   -9.1640  -23.7580    9.5590 O   0  0  0  0  0
  -10.4340  -24.5710   11.4360 C   0  0  0  0  0
  -11.0630  -23.3260   11.7190 C   0  0  0  0  0
  -11.8630  -23.1550   12.8440 C   0  0  0  0  0
  -12.0090  -24.2610   13.6730 C   0  0  0  0  0
  -11.3980  -25.4900   13.4150 C   0  0  0  0  0
  -10.6330  -25.6870   12.2720 C   0  0  0  0  0
   -4.6555  -32.8665    2.4772 H   0  0  0  0  0
   -5.6418  -30.9109    1.3502 H   0  0  0  0  0
   -6.4924  -29.0470    2.7718 H   0  0  0  0  0
   -6.1473  -29.1779    5.2153 H   0  0  0  0  0
   -3.8102  -34.2331    6.7769 H   0  0  0  0  0
   -4.4793  -31.7517   10.3407 H   0  0  0  0  0
   -5.4812  -29.6992    9.5319 H   0  0  0  0  0
   -5.7249  -28.7838    6.1452 H   0  0  0  0  0
   -8.5524  -30.2707    7.9213 H   0  0  0  0  0
  -10.2160  -28.8803    9.1604 H   0  0  0  0  0
   -6.0349  -26.8212    7.6622 H   0  0  0  0  0
   -7.6147  -25.4808    8.9373 H   0  0  0  0  0
  -10.6780  -26.5875   10.2478 H   0  0  0  0  0
  -10.9144  -22.4874   11.0387 H   0  0  0  0  0
  -12.3493  -22.2046   13.0637 H   0  0  0  0  0
  -12.6284  -24.1648   14.5648 H   0  0  0  0  0
  -11.5235  -26.3093   14.1229 H   0  0  0  0  0
  -10.2062  -26.6611   12.0331 H   0  0  0  0  0
  1  2  2  0  0  0
  2  3  1  0  0  0
  2 10  1  0  0  0
  3  4  4  0  0  0
  3  8  4  0  0  0
  4  5  4  0  0  0
  5  6  4  0  0  0
  6  7  4  0  0  0
  7  8  4  0  0  0
  8  9  1  0  0  0
  9 11  4  0  0  0
  9 15  4  0  0  0
 10 11  1  0  0  0
 11 12  4  0  0  0
 12 13  4  0  0  0
 13 14  4  0  0  0
 14 15  4  0  0  0
 15 16  1  0  0  0
 16 17  1  0  0  0
 17 18  4  0  0  0
 17 20  4  0  0  0
 18 19  4  0  0  0
 19 22  4  0  0  0
 20 21  4  0  0  0
 21 22  4  0  0  0
 22 23  1  0  0  0
 23 24  1  0  0  0
 24 25  2  0  0  0
 24 26  1  0  0  0
 26 27  4  0  0  0
 26 31  4  0  0  0
 27 28  4  0  0  0
 28 29  4  0  0  0
 29 30  4  0  0  0
 30 31  4  0  0  0
  4 32  1  0  0  0
  5 33  1  0  0  0
  6 34  1  0  0  0
  7 35  1  0  0  0
 10 36  1  0  0  0
 13 37  1  0  0  0
 14 38  1  0  0  0
 16 39  1  0  0  0
 18 40  1  0  0  0
 19 41  1  0  0  0
 20 42  1  0  0  0
 21 43  1  0  0  0
 23 44  1  0  0  0
 27 45  1  0  0  0
 28 46  1  0  0  0
 29 47  1  0  0  0
 30 48  1  0  0  0
 31 49  1  0  0  0
M  END
$$$$
