3nox_ligand
  -I-interpret- 

 48 51  0  0  0  0  0  0  0  0999 V2000
   48.1540   50.3100   35.2880 C   0  0  0  0  0
   47.2010   51.0410   34.6220 C   0  0  0  0  0
   47.4770   51.4530   33.2910 C   0  0  0  0  0
   48.6000   51.2270   32.6210 N   0  0  0  0  0
   49.3290   50.0910   34.6430 N   0  0  0  0  0
   49.5760   50.5180   33.3080 C   0  0  0  0  0
   50.8150   50.1370   32.8850 N   0  0  0  0  0
   51.3350   49.4630   33.9980 C   0  0  0  0  0
   50.4660   49.4170   35.0680 C   0  0  0  0  0
   52.6830   48.8490   33.9770 C   0  0  0  0  0
   52.9220   47.9170   33.1820 O   0  0  0  0  0
   53.4980   49.0970   35.0940 N   0  0  0  0  0
   46.4760   52.2450   32.5260 C   0  0  0  0  0
   48.0450   49.8540   36.6840 C   0  0  0  0  0
   45.8560   51.3180   35.2360 C   0  0  0  0  0
   45.9790   52.4820   36.0670 N   0  3  0  0  0
   47.5080   48.6080   36.9530 C   0  0  0  0  0
   47.4380   48.1760   38.2730 C   0  0  0  0  0
   47.9180   49.0080   39.2870 C   0  0  0  0  0
   48.4480   50.2400   39.0530 C   0  0  0  0  0
   48.5140   50.6430   37.7480 C   0  0  0  0  0
   49.1940   52.1670   37.4450 Cl  0  0  0  0  0
   47.8960   48.4690   40.8970 Cl  0  0  0  0  0
   53.6990   50.4300   35.7030 C   0  0  0  0  0
   55.0610   51.0460   35.1930 C   0  0  0  0  0
   56.1770   50.1340   35.2950 O   0  0  0  0  0
   55.9270   48.7740   34.8570 C   0  0  0  0  0
   54.6050   48.1690   35.4070 C   0  0  0  0  0
   50.6355   48.9514   36.0389 H   0  0  0  0  0
   45.5534   51.6716   32.4353 H   0  0  0  0  0
   46.2749   53.1786   33.0514 H   0  0  0  0  0
   46.8690   52.4628   31.5329 H   0  0  0  0  0
   45.5300   50.4641   35.8298 H   0  0  0  0  0
   45.1139   51.4888   34.4561 H   0  0  0  0  0
   45.0767   52.6895   36.4951 H   0  0  0  0  0
   46.6702   52.3062   36.7962 H   0  0  0  0  0
   46.2771   53.2744   35.4982 H   0  0  0  0  0
   47.1455   47.9748   36.1432 H   0  0  0  0  0
   47.0141   47.2009   38.5131 H   0  0  0  0  0
   48.8023   50.8739   39.8659 H   0  0  0  0  0
   53.7301   50.3313   36.7881 H   0  0  0  0  0
   52.8761   51.0858   35.4186 H   0  0  0  0  0
   55.2850   51.9106   35.8179 H   0  0  0  0  0
   54.9350   51.2946   34.1392 H   0  0  0  0  0
   56.7454   48.1577   35.2291 H   0  0  0  0  0
   55.8478   48.7926   33.7700 H   0  0  0  0  0
   54.4193   47.1994   34.9450 H   0  0  0  0  0
   54.6801   48.0300   36.4855 H   0  0  0  0  0
  1  2  4  0  0  0
  1  5  4  0  0  0
  1 14  1  0  0  0
  2  3  4  0  0  0
  2 15  1  0  0  0
  3  4  4  0  0  0
  3 13  1  0  0  0
  4  6  4  0  0  0
  5  6  4  0  0  0
  5  9  4  0  0  0
  6  7  4  0  0  0
  7  8  4  0  0  0
  8  9  4  0  0  0
  8 10  1  0  0  0
 10 11  2  0  0  0
 10 12  1  0  0  0
 12 24  1  0  0  0
 12 28  1  0  0  0
 14 17  4  0  0  0
 14 21  4  0  0  0
 15 16  1  0  0  0
 17 18  4  0  0  0
 18 19  4  0  0  0
 19 20  4  0  0  0
 19 23  1  0  0  0
 20 21  4  0  0  0
 21 22  1  0  0  0
 24 25  1  0  0  0
 25 26  1  0  0  0
 26 27  1  0  0  0
 27 28  1  0  0  0
  9 29  1  0  0  0
 13 30  1  0  0  0
 13 31  1  0  0  0
 13 32  1  0  0  0
 15 33  1  0  0  0
 15 34  1  0  0  0
 16 35  1  0  0  0
 16 36  1  0  0  0
 16 37  1  0  0  0
 17 38  1  0  0  0
 18 39  1  0  0  0
 20 40  1  0  0  0
 24 41  1  0  0  0
 24 42  1  0  0  0
 25 43  1  0  0  0
 25 44  1  0  0  0
 27 45  1  0  0  0
 27 46  1  0  0  0
 28 47  1  0  0  0
 28 48  1  0  0  0
M  END
$$$$
