### 
### Created by X-TOOL on Mon Sep 10 21:13:03 2018
### 

@<TRIPOS>MOLECULE
3met_ligand
  136   135     1     0     0
SMALL
GAST_HUCK


@<TRIPOS>ATOM
      1 N           4.0470   10.6600   -3.7600 N.4       1 ALA         0.2377
      2 CA          3.7600   11.6910   -4.8040 C.3       1 ALA         0.0621
      3 C           4.3240   13.0180   -4.3740 C.2       1 ALA         0.2264
      4 O           4.5510   13.2530   -3.1960 O.2       1 ALA        -0.3907
      5 CB          2.2470   11.8150   -5.0790 C.3       1 ALA        -0.0040
      6 N           4.5790   13.8820   -5.3370 N.am      1 ARG        -0.2610
      7 CA          4.9500   15.2670   -5.0290 C.3       1 ARG         0.1312
      8 C           3.7720   16.1360   -5.4480 C.2       1 ARG         0.2040
      9 O           3.4000   16.1330   -6.6130 O.2       1 ARG        -0.3944
     10 CB          6.2450   15.6740   -5.7410 C.3       1 ARG        -0.0092
     11 CG          6.8030   16.9970   -5.1960 C.3       1 ARG        -0.0156
     12 CD          8.2760   17.2800   -5.5280 C.3       1 ARG         0.0627
     13 NE          8.7520   18.3640   -4.6840 N.pl3     1 ARG        -0.2723
     14 CZ          8.7890   19.6590   -5.0080 C.cat     1 ARG         0.2882
     15 NH1         9.2110   20.5270   -4.1010 N.pl3     1 ARG        -0.2849
     16 NH2         8.4340   20.1080   -6.2160 N.pl3     1 ARG        -0.2849
     17 N           3.1670   16.8450   -4.4940 N.am      1 THR        -0.2613
     18 CA          2.0140   17.7040   -4.7950 C.3       1 THR         0.1565
     19 C           2.4330   19.1130   -5.1270 C.2       1 THR         0.2065
     20 O           3.5380   19.5420   -4.7880 O.2       1 THR        -0.3943
     21 CB          1.0850   17.8180   -3.6130 C.3       1 THR         0.0924
     22 OG1         1.8220   18.4140   -2.5410 O.3       1 THR        -0.3874
     23 CG2         0.5280   16.4010   -3.1930 C.3       1 THR        -0.0346
     24 N           1.5240   19.8370   -5.7790 N.am      1 MLY        -0.2637
     25 CA          1.6530   21.2800   -5.9560 C.3       1 MLY         0.1310
     26 CB          0.4140   21.8470   -6.6820 C.3       1 MLY        -0.0125
     27 CG          0.5640   23.3280   -7.0070 C.3       1 MLY        -0.0507
     28 CD         -0.2770   23.7710   -8.2140 C.3       1 MLY        -0.0716
     29 CE         -1.7650   23.7800   -7.8750 C.3       1 MLY        -0.1138
     30 NZ         -2.5710   24.5000   -8.8880 N.4       1 MLY         0.3986
     31 CH1        -2.5820   23.7730  -10.1620 C.3       1 MLY        -0.1260
     32 CH2        -2.0680   25.8530   -9.1070 C.3       1 MLY        -0.1260
     33 C           1.8570   22.0220   -4.6320 C.2       1 MLY         0.2039
     34 O           2.6560   22.9540   -4.5630 O.2       1 MLY        -0.3944
     35 N           1.1470   21.6260   -3.5800 N.am      1 GLN        -0.2640
     36 CA          1.2220   22.3740   -2.2950 C.3       1 GLN         0.1282
     37 C           2.6360   22.2860   -1.7420 C.2       1 GLN         0.2037
     38 O           3.2000   23.2890   -1.3070 O.2       1 GLN        -0.3944
     39 CB          0.1960   21.8550   -1.2610 C.3       1 GLN        -0.0244
     40 N           3.2060   21.0790   -1.7940 N.am      1 THR        -0.2613
     41 CA          4.6200   20.8510   -1.4970 C.3       1 THR         0.1565
     42 C           5.5230   21.6330   -2.4400 C.2       1 THR         0.2065
     43 O           6.4210   22.3430   -1.9830 O.2       1 THR        -0.3943
     44 CB          4.9610   19.3490   -1.5790 C.3       1 THR         0.0924
     45 OG1         4.1630   18.6370   -0.6150 O.3       1 THR        -0.3874
     46 CG2         6.4730   19.0830   -1.3180 C.3       1 THR        -0.0346
     47 N           5.2710   21.5170   -3.7480 N.am      1 ALA        -0.2639
     48 CA          6.0690   22.2140   -4.7820 C.3       1 ALA         0.1282
     49 C           6.0760   23.7360   -4.6140 C.2       1 ALA         0.2031
     50 O           7.0740   24.3990   -4.9140 O.2       1 ALA        -0.3944
     51 CB          5.5700   21.8460   -6.1860 C.3       1 ALA        -0.0244
     52 N           4.9620   24.2800   -4.1260 N.am      1 ARG        -0.2695
     53 CA          4.8020   25.7230   -4.0120 C.3       1 ARG         0.0945
     54 C           4.8350   26.1110   -2.5420 C.2       1 ARG         0.0601
     55 O           5.7380   26.8300   -2.1150 O.co2     1 ARG        -0.5666
     56 CB          3.4910   26.1930   -4.6980 C.3       1 ARG        -0.0148
     57 CG          3.4040   25.8460   -6.2170 C.3       1 ARG        -0.0162
     58 CD          2.5390   26.8410   -7.0440 C.3       1 ARG         0.0627
     59 NE          1.1240   26.8760   -6.6390 N.pl3     1 ARG        -0.2723
     60 CZ          0.2400   27.8240   -7.0080 C.cat     1 ARG         0.2882
     61 NH1        -1.0230   27.7450   -6.5680 N.pl3     1 ARG        -0.2849
     62 NH2         0.5960   28.8560   -7.8110 N.pl3     1 ARG        -0.2849
     63 H           5.0537   10.6059   -3.6050 H         1 ALA         0.2015
     64 H           3.5813   10.9196   -2.8904 H         1 ALA         0.2015
     65 H           3.7011    9.7536   -4.0748 H         1 ALA         0.2015
     66 H           4.2369   11.3768   -5.7324 H         1 ALA         0.1095
     67 H           1.7394   12.1403   -4.1709 H         1 ALA         0.0310
     68 H           2.0816   12.5456   -5.8708 H         1 ALA         0.0310
     69 H           1.8548   10.8464   -5.3890 H         1 ALA         0.0310
     70 H           4.5173   13.5827   -6.3101 H         1 ARG         0.1884
     71 H           5.1537   15.3882   -3.9651 H         1 ARG         0.0800
     72 H           6.0271   15.8045   -6.8010 H         1 ARG         0.0313
     73 H           6.9878   14.8939   -5.5741 H         1 ARG         0.0313
     74 H           6.7353   16.9384   -4.1097 H         1 ARG         0.0301
     75 H           6.2216   17.7937   -5.6600 H         1 ARG         0.0301
     76 H           8.3685   17.5629   -6.5766 H         1 ARG         0.0689
     77 H           8.8718   16.3852   -5.3477 H         1 ARG         0.0689
     78 H           9.0901   18.1111   -3.7555 H         1 ARG         0.2642
     79 H           9.4989   20.2011   -3.1783 H         1 ARG         0.2615
     80 H           9.2481   21.5214   -4.3252 H         1 ARG         0.2615
     81 H           8.1200   19.4526   -6.9317 H         1 ARG         0.2615
     82 H           8.4772   21.1060   -6.4221 H         1 ARG         0.2615
     83 H           3.5120   16.7896   -3.5357 H         1 THR         0.1884
     84 H           1.5200   17.2331   -5.6449 H         1 THR         0.0826
     85 H           0.2229   18.4340   -3.8689 H         1 THR         0.0639
     86 H           2.5745   17.8588   -2.3240 H         1 THR         0.2101
     87 H          -0.0198   15.9651   -4.0285 H         1 THR         0.0257
     88 H           1.3599   15.7504   -2.9234 H         1 THR         0.0257
     89 H          -0.1391   16.5130   -2.3383 H         1 THR         0.0257
     90 H           0.7079   19.3653   -6.1688 H         1 MLY         0.1883
     91 H           2.5442   21.4410   -6.5625 H         1 MLY         0.0800
     92 H          -0.4472   21.7300   -6.0242 H         1 MLY         0.0312
     93 H           0.2932   21.3048   -7.6198 H         1 MLY         0.0312
     94 H           1.6111   23.5084   -7.2500 H         1 MLY         0.0267
     95 H           0.2208   23.8928   -6.1402 H         1 MLY         0.0267
     96 H          -0.1102   23.0692   -9.0312 H         1 MLY         0.0246
     97 H           0.0223   24.7807   -8.4953 H         1 MLY         0.0246
     98 H          -1.8901   24.2902   -6.9199 H         1 MLY         0.0017
     99 H          -2.1096   22.7464   -7.8425 H         1 MLY         0.0017
    100 H          -1.5612   23.6742  -10.5313 H         1 MLY        -0.0019
    101 H          -3.0122   22.7831  -10.0103 H         1 MLY        -0.0019
    102 H          -3.1807   24.3234  -10.8878 H         1 MLY        -0.0019
    103 H          -2.1097   26.4106   -8.1714 H         1 MLY        -0.0019
    104 H          -1.0367   25.8037   -9.4564 H         1 MLY        -0.0019
    105 H          -2.6834   26.3512   -9.8561 H         1 MLY        -0.0019
    106 H           0.5470   20.8044   -3.6538 H         1 GLN         0.1883
    107 H           0.9709   23.4163   -2.4918 H         1 GLN         0.0797
    108 H          -0.8111   21.9675   -1.6624 H         1 GLN         0.0277
    109 H           0.3908   20.8026   -1.0545 H         1 GLN         0.0277
    110 H           0.2877   22.4304   -0.3398 H         1 GLN         0.0277
    111 H           2.6284   20.2792   -2.0528 H         1 THR         0.1884
    112 H           4.7966   21.2038   -0.4809 H         1 THR         0.0826
    113 H           4.7394   18.9996   -2.5874 H         1 THR         0.0639
    114 H           4.3694   17.7005   -0.6596 H         1 THR         0.2101
    115 H           7.0675   19.6103   -2.0641 H         1 THR         0.0257
    116 H           6.7369   19.4402   -0.3226 H         1 THR         0.0257
    117 H           6.6693   18.0129   -1.3853 H         1 THR         0.0257
    118 H           4.4967   20.9236   -4.0458 H         1 ALA         0.1883
    119 H           7.0971   21.8751   -4.6545 H         1 ALA         0.0797
    120 H           5.6625   20.7699   -6.3326 H         1 ALA         0.0277
    121 H           4.5251   22.1393   -6.2873 H         1 ALA         0.0277
    122 H           6.1693   22.3684   -6.9317 H         1 ALA         0.0277
    123 H           4.2019   23.6703   -3.8246 H         1 ARG         0.1875
    124 H           5.6233   26.2218   -4.5264 H         1 ARG         0.0726
    125 O1          3.9375   25.6962   -1.7609 O.co2     1 ARG        -0.5666
    126 H           3.4554   27.2791   -4.6137 H         1 ARG         0.0307
    127 H           2.6669   25.6792   -4.2030 H         1 ARG         0.0307
    128 H           2.9360   24.8650   -6.2986 H         1 ARG         0.0301
    129 H           4.4170   25.8878   -6.6171 H         1 ARG         0.0301
    130 H           2.5718   26.5144   -8.0834 H         1 ARG         0.0689
    131 H           2.9480   27.8386   -6.8837 H         1 ARG         0.0689
    132 H           0.7876   26.1269   -6.0340 H         1 ARG         0.2642
    133 H          -1.3046   26.9745   -5.9619 H         1 ARG         0.2615
    134 H          -1.7029   28.4554   -6.8391 H         1 ARG         0.2615
    135 H           1.5544   28.9296   -8.1523 H         1 ARG         0.2615
    136 H          -0.0945   29.5592   -8.0741 H         1 ARG         0.2615
@<TRIPOS>BOND
     1    1    2 1  
     2    2    3 1  
     3    2    5 1  
     4    3    4 2  
     5    3    6 am 
     6    6    7 1  
     7    7    8 1  
     8    7   10 1  
     9    8    9 2  
    10    8   17 am 
    11   10   11 1  
    12   11   12 1  
    13   12   13 1  
    14   13   14 ar 
    15   14   15 ar 
    16   14   16 ar 
    17   17   18 1  
    18   18   19 1  
    19   18   21 1  
    20   19   20 2  
    21   19   24 am 
    22   21   22 1  
    23   21   23 1  
    24   24   25 1  
    25   25   26 1  
    26   25   33 1  
    27   26   27 1  
    28   27   28 1  
    29   28   29 1  
    30   29   30 1  
    31   30   31 1  
    32   30   32 1  
    33   33   34 2  
    34   33   35 am 
    35   35   36 1  
    36   36   37 1  
    37   36   39 1  
    38   37   38 2  
    39   37   40 am 
    40   40   41 1  
    41   41   42 1  
    42   41   44 1  
    43   42   43 2  
    44   42   47 am 
    45   44   45 1  
    46   44   46 1  
    47   47   48 1  
    48   48   49 1  
    49   48   51 1  
    50   49   50 2  
    51   49   52 am 
    52   52   53 1  
    53   53   54 1  
    54   53   56 1  
    55   54   55 ar 
    56   56   57 1  
    57   57   58 1  
    58   58   59 1  
    59   59   60 ar 
    60   60   61 ar 
    61   60   62 ar 
    62    1   63 1  
    63    1   64 1  
    64    1   65 1  
    65    2   66 1  
    66    5   67 1  
    67    5   68 1  
    68    5   69 1  
    69    6   70 1  
    70    7   71 1  
    71   10   72 1  
    72   10   73 1  
    73   11   74 1  
    74   11   75 1  
    75   12   76 1  
    76   12   77 1  
    77   13   78 1  
    78   15   79 1  
    79   15   80 1  
    80   16   81 1  
    81   16   82 1  
    82   17   83 1  
    83   18   84 1  
    84   21   85 1  
    85   22   86 1  
    86   23   87 1  
    87   23   88 1  
    88   23   89 1  
    89   24   90 1  
    90   25   91 1  
    91   26   92 1  
    92   26   93 1  
    93   27   94 1  
    94   27   95 1  
    95   28   96 1  
    96   28   97 1  
    97   29   98 1  
    98   29   99 1  
    99   31  100 1  
   100   31  101 1  
   101   31  102 1  
   102   32  103 1  
   103   32  104 1  
   104   32  105 1  
   105   35  106 1  
   106   36  107 1  
   107   39  108 1  
   108   39  109 1  
   109   39  110 1  
   110   40  111 1  
   111   41  112 1  
   112   44  113 1  
   113   45  114 1  
   114   46  115 1  
   115   46  116 1  
   116   46  117 1  
   117   47  118 1  
   118   48  119 1  
   119   51  120 1  
   120   51  121 1  
   121   51  122 1  
   122   52  123 1  
   123   53  124 1  
   124   54  125 ar 
   125   56  126 1  
   126   56  127 1  
   127   57  128 1  
   128   57  129 1  
   129   58  130 1  
   130   58  131 1  
   131   59  132 1  
   132   61  133 1  
   133   61  134 1  
   134   62  135 1  
   135   62  136 1  
@<TRIPOS>SUBSTRUCTURE
     1 ALA         1

