3met_ligand
  -I-interpret- 

136135  0  0  0  0  0  0  0  0999 V2000
    4.0470   10.6600   -3.7600 N   0  3  0  0  0
    3.7600   11.6910   -4.8040 C   0  0  0  0  0
    4.3240   13.0180   -4.3740 C   0  0  0  0  0
    4.5510   13.2530   -3.1960 O   0  0  0  0  0
    2.2470   11.8150   -5.0790 C   0  0  0  0  0
    4.5790   13.8820   -5.3370 N   0  0  0  0  0
    4.9500   15.2670   -5.0290 C   0  0  0  0  0
    3.7720   16.1360   -5.4480 C   0  0  0  0  0
    3.4000   16.1330   -6.6130 O   0  0  0  0  0
    6.2450   15.6740   -5.7410 C   0  0  0  0  0
    6.8030   16.9970   -5.1960 C   0  0  0  0  0
    8.2760   17.2800   -5.5280 C   0  0  0  0  0
    8.7520   18.3640   -4.6840 N   0  0  0  0  0
    8.7890   19.6590   -5.0080 C   0  0  0  0  0
    9.2110   20.5270   -4.1010 N   0  0  0  0  0
    8.4340   20.1080   -6.2160 N   0  0  0  0  0
    3.1670   16.8450   -4.4940 N   0  0  0  0  0
    2.0140   17.7040   -4.7950 C   0  0  0  0  0
    2.4330   19.1130   -5.1270 C   0  0  0  0  0
    3.5380   19.5420   -4.7880 O   0  0  0  0  0
    1.0850   17.8180   -3.6130 C   0  0  0  0  0
    1.8220   18.4140   -2.5410 O   0  0  0  0  0
    0.5280   16.4010   -3.1930 C   0  0  0  0  0
    1.5240   19.8370   -5.7790 N   0  0  0  0  0
    1.6530   21.2800   -5.9560 C   0  0  0  0  0
    0.4140   21.8470   -6.6820 C   0  0  0  0  0
    0.5640   23.3280   -7.0070 C   0  0  0  0  0
   -0.2770   23.7710   -8.2140 C   0  0  0  0  0
   -1.7650   23.7800   -7.8750 C   0  0  0  0  0
   -2.5710   24.5000   -8.8880 N   0  3  0  0  0
   -2.5820   23.7730  -10.1620 C   0  0  0  0  0
   -2.0680   25.8530   -9.1070 C   0  0  0  0  0
    1.8570   22.0220   -4.6320 C   0  0  0  0  0
    2.6560   22.9540   -4.5630 O   0  0  0  0  0
    1.1470   21.6260   -3.5800 N   0  0  0  0  0
    1.2220   22.3740   -2.2950 C   0  0  0  0  0
    2.6360   22.2860   -1.7420 C   0  0  0  0  0
    3.2000   23.2890   -1.3070 O   0  0  0  0  0
    0.1960   21.8550   -1.2610 C   0  0  0  0  0
    3.2060   21.0790   -1.7940 N   0  0  0  0  0
    4.6200   20.8510   -1.4970 C   0  0  0  0  0
    5.5230   21.6330   -2.4400 C   0  0  0  0  0
    6.4210   22.3430   -1.9830 O   0  0  0  0  0
    4.9610   19.3490   -1.5790 C   0  0  0  0  0
    4.1630   18.6370   -0.6150 O   0  0  0  0  0
    6.4730   19.0830   -1.3180 C   0  0  0  0  0
    5.2710   21.5170   -3.7480 N   0  0  0  0  0
    6.0690   22.2140   -4.7820 C   0  0  0  0  0
    6.0760   23.7360   -4.6140 C   0  0  0  0  0
    7.0740   24.3990   -4.9140 O   0  0  0  0  0
    5.5700   21.8460   -6.1860 C   0  0  0  0  0
    4.9620   24.2800   -4.1260 N   0  0  0  0  0
    4.8020   25.7230   -4.0120 C   0  0  0  0  0
    4.8350   26.1110   -2.5420 C   0  0  0  0  0
    5.7380   26.8300   -2.1150 O   0  0  0  0  0
    3.4910   26.1930   -4.6980 C   0  0  0  0  0
    3.4040   25.8460   -6.2170 C   0  0  0  0  0
    2.5390   26.8410   -7.0440 C   0  0  0  0  0
    1.1240   26.8760   -6.6390 N   0  0  0  0  0
    0.2400   27.8240   -7.0080 C   0  0  0  0  0
   -1.0230   27.7450   -6.5680 N   0  0  0  0  0
    0.5960   28.8560   -7.8110 N   0  0  0  0  0
    3.9375   25.6962   -1.7609 O   0  0  0  0  0
    5.0537   10.6059   -3.6050 H   0  0  0  0  0
    3.5813   10.9196   -2.8904 H   0  0  0  0  0
    3.7011    9.7536   -4.0748 H   0  0  0  0  0
    4.2369   11.3768   -5.7324 H   0  0  0  0  0
    1.7394   12.1403   -4.1709 H   0  0  0  0  0
    2.0816   12.5456   -5.8708 H   0  0  0  0  0
    1.8548   10.8464   -5.3890 H   0  0  0  0  0
    4.5173   13.5827   -6.3101 H   0  0  0  0  0
    5.1537   15.3882   -3.9651 H   0  0  0  0  0
    6.0271   15.8045   -6.8010 H   0  0  0  0  0
    6.9878   14.8939   -5.5741 H   0  0  0  0  0
    6.7353   16.9384   -4.1097 H   0  0  0  0  0
    6.2216   17.7937   -5.6600 H   0  0  0  0  0
    8.3685   17.5629   -6.5766 H   0  0  0  0  0
    8.8718   16.3852   -5.3477 H   0  0  0  0  0
    9.0901   18.1111   -3.7555 H   0  0  0  0  0
    9.4989   20.2011   -3.1783 H   0  0  0  0  0
    8.4905   21.1044   -6.4266 H   0  0  0  0  0
    8.1066   19.4542   -6.9271 H   0  0  0  0  0
    3.5120   16.7896   -3.5357 H   0  0  0  0  0
    1.5200   17.2331   -5.6449 H   0  0  0  0  0
    0.2229   18.4340   -3.8689 H   0  0  0  0  0
    1.2536   18.4994   -1.7721 H   0  0  0  0  0
   -0.0198   15.9651   -4.0285 H   0  0  0  0  0
    1.3599   15.7504   -2.9234 H   0  0  0  0  0
   -0.1391   16.5130   -2.3383 H   0  0  0  0  0
    0.7079   19.3653   -6.1688 H   0  0  0  0  0
    2.5442   21.4410   -6.5625 H   0  0  0  0  0
   -0.4472   21.7300   -6.0242 H   0  0  0  0  0
    0.2932   21.3048   -7.6198 H   0  0  0  0  0
    1.6111   23.5084   -7.2500 H   0  0  0  0  0
    0.2208   23.8928   -6.1402 H   0  0  0  0  0
   -0.1102   23.0692   -9.0312 H   0  0  0  0  0
    0.0223   24.7807   -8.4953 H   0  0  0  0  0
   -1.8901   24.2902   -6.9199 H   0  0  0  0  0
   -2.1096   22.7464   -7.8425 H   0  0  0  0  0
   -3.5229   24.5594   -8.5265 H   0  0  0  0  0
   -1.5612   23.6742  -10.5313 H   0  0  0  0  0
   -3.0122   22.7831  -10.0103 H   0  0  0  0  0
   -3.1807   24.3234  -10.8878 H   0  0  0  0  0
   -2.1097   26.4106   -8.1714 H   0  0  0  0  0
   -1.0367   25.8037   -9.4564 H   0  0  0  0  0
   -2.6834   26.3512   -9.8561 H   0  0  0  0  0
    0.5470   20.8044   -3.6538 H   0  0  0  0  0
    0.9709   23.4163   -2.4918 H   0  0  0  0  0
   -0.8111   21.9675   -1.6624 H   0  0  0  0  0
    0.3908   20.8026   -1.0545 H   0  0  0  0  0
    0.2877   22.4304   -0.3398 H   0  0  0  0  0
    2.6284   20.2792   -2.0528 H   0  0  0  0  0
    4.7966   21.2038   -0.4809 H   0  0  0  0  0
    4.7394   18.9996   -2.5874 H   0  0  0  0  0
    4.3694   17.7005   -0.6596 H   0  0  0  0  0
    7.0675   19.6103   -2.0641 H   0  0  0  0  0
    6.7369   19.4402   -0.3226 H   0  0  0  0  0
    6.6693   18.0129   -1.3853 H   0  0  0  0  0
    4.4967   20.9236   -4.0458 H   0  0  0  0  0
    7.0971   21.8751   -4.6545 H   0  0  0  0  0
    5.6625   20.7699   -6.3326 H   0  0  0  0  0
    4.5251   22.1393   -6.2873 H   0  0  0  0  0
    6.1693   22.3684   -6.9317 H   0  0  0  0  0
    4.2019   23.6703   -3.8246 H   0  0  0  0  0
    5.6233   26.2218   -4.5264 H   0  0  0  0  0
    3.4554   27.2791   -4.6137 H   0  0  0  0  0
    2.6669   25.6792   -4.2030 H   0  0  0  0  0
    2.9360   24.8650   -6.2986 H   0  0  0  0  0
    4.4170   25.8878   -6.6171 H   0  0  0  0  0
    2.5718   26.5144   -8.0834 H   0  0  0  0  0
    2.9480   27.8386   -6.8837 H   0  0  0  0  0
    0.7876   26.1269   -6.0340 H   0  0  0  0  0
   -1.3046   26.9745   -5.9619 H   0  0  0  0  0
   -0.0941   29.5599   -8.0730 H   0  0  0  0  0
    1.5540   28.9288   -8.1534 H   0  0  0  0  0
    3.3155   25.1525   -2.2499 H   0  0  0  0  0
  1  2  1  0  0  0
  2  3  1  0  0  0
  2  5  1  0  0  0
  3  4  2  0  0  0
  3  6  1  0  0  0
  6  7  1  0  0  0
  7  8  1  0  0  0
  7 10  1  0  0  0
  8  9  2  0  0  0
  8 17  1  0  0  0
 10 11  1  0  0  0
 11 12  1  0  0  0
 12 13  1  0  0  0
 13 14  1  0  0  0
 14 15  2  0  0  0
 14 16  1  0  0  0
 17 18  1  0  0  0
 18 19  1  0  0  0
 18 21  1  0  0  0
 19 20  2  0  0  0
 19 24  1  0  0  0
 21 22  1  0  0  0
 21 23  1  0  0  0
 24 25  1  0  0  0
 25 26  1  0  0  0
 25 33  1  0  0  0
 26 27  1  0  0  0
 27 28  1  0  0  0
 28 29  1  0  0  0
 29 30  1  0  0  0
 30 31  1  0  0  0
 30 32  1  0  0  0
 33 34  2  0  0  0
 33 35  1  0  0  0
 35 36  1  0  0  0
 36 37  1  0  0  0
 36 39  1  0  0  0
 37 38  2  0  0  0
 37 40  1  0  0  0
 40 41  1  0  0  0
 41 42  1  0  0  0
 41 44  1  0  0  0
 42 43  2  0  0  0
 42 47  1  0  0  0
 44 45  1  0  0  0
 44 46  1  0  0  0
 47 48  1  0  0  0
 48 49  1  0  0  0
 48 51  1  0  0  0
 49 50  2  0  0  0
 49 52  1  0  0  0
 52 53  1  0  0  0
 53 54  1  0  0  0
 53 56  1  0  0  0
 54 55  2  0  0  0
 56 57  1  0  0  0
 57 58  1  0  0  0
 58 59  1  0  0  0
 59 60  1  0  0  0
 60 61  2  0  0  0
 60 62  1  0  0  0
 54 63  1  0  0  0
  1 64  1  0  0  0
  1 65  1  0  0  0
  1 66  1  0  0  0
  2 67  1  0  0  0
  5 68  1  0  0  0
  5 69  1  0  0  0
  5 70  1  0  0  0
  6 71  1  0  0  0
  7 72  1  0  0  0
 10 73  1  0  0  0
 10 74  1  0  0  0
 11 75  1  0  0  0
 11 76  1  0  0  0
 12 77  1  0  0  0
 12 78  1  0  0  0
 13 79  1  0  0  0
 15 80  1  0  0  0
 16 81  1  0  0  0
 16 82  1  0  0  0
 17 83  1  0  0  0
 18 84  1  0  0  0
 21 85  1  0  0  0
 22 86  1  0  0  0
 23 87  1  0  0  0
 23 88  1  0  0  0
 23 89  1  0  0  0
 24 90  1  0  0  0
 25 91  1  0  0  0
 26 92  1  0  0  0
 26 93  1  0  0  0
 27 94  1  0  0  0
 27 95  1  0  0  0
 28 96  1  0  0  0
 28 97  1  0  0  0
 29 98  1  0  0  0
 29 99  1  0  0  0
 30100  1  0  0  0
 31101  1  0  0  0
 31102  1  0  0  0
 31103  1  0  0  0
 32104  1  0  0  0
 32105  1  0  0  0
 32106  1  0  0  0
 35107  1  0  0  0
 36108  1  0  0  0
 39109  1  0  0  0
 39110  1  0  0  0
 39111  1  0  0  0
 40112  1  0  0  0
 41113  1  0  0  0
 44114  1  0  0  0
 45115  1  0  0  0
 46116  1  0  0  0
 46117  1  0  0  0
 46118  1  0  0  0
 47119  1  0  0  0
 48120  1  0  0  0
 51121  1  0  0  0
 51122  1  0  0  0
 51123  1  0  0  0
 52124  1  0  0  0
 53125  1  0  0  0
 56126  1  0  0  0
 56127  1  0  0  0
 57128  1  0  0  0
 57129  1  0  0  0
 58130  1  0  0  0
 58131  1  0  0  0
 59132  1  0  0  0
 61133  1  0  0  0
 62134  1  0  0  0
 62135  1  0  0  0
 63136  1  0  0  0
M  END
$$$$
