3npa_ligand
  -I-interpret- 

 35 36  0  0  0  0  0  0  0  0999 V2000
   33.8110   24.1870   30.1340 C   0  0  0  0  0
   32.4740   24.4190   30.2620 O   0  0  0  0  0
   34.3050   23.4920   29.0230 C   0  0  0  0  0
   35.6740   23.2530   28.9100 C   0  0  0  0  0
   36.5440   23.7240   29.8910 C   0  0  0  0  0
   37.8750   23.4950   29.7850 O   0  0  0  0  0
   36.0570   24.4210   30.9890 C   0  0  0  0  0
   37.2820   25.0400   32.3050 Br  0  0  0  0  0
   34.6880   24.6530   31.1200 C   0  0  0  0  0
   33.3440   22.9600   27.9460 C   0  0  0  0  0
   33.7390   23.1860   26.4730 C   0  0  0  0  0
   33.9490   24.5850   26.2070 O   0  0  0  0  0
   32.6560   22.5750   25.5490 C   0  0  0  0  0
   33.0590   22.6660   24.1780 O   0  0  0  0  0
   32.3780   21.1030   25.9190 C   0  0  0  0  0
   31.2100   20.6220   25.2360 O   0  0  0  0  0
   32.1910   20.9270   27.4450 C   0  0  0  0  0
   33.3120   21.5170   28.1430 O   0  0  0  0  0
   32.1040   19.4560   27.8750 C   0  0  0  0  0
   33.2010   18.7370   27.3040 O   0  0  0  0  0
   32.3108   24.9037   31.0744 H   0  0  0  0  0
   36.0628   22.6987   28.0558 H   0  0  0  0  0
   38.3264   23.8835   30.5379 H   0  0  0  0  0
   34.3036   25.1938   31.9848 H   0  0  0  0  0
   32.4079   23.5029   28.0769 H   0  0  0  0  0
   34.6842   22.6828   26.2696 H   0  0  0  0  0
   34.1934   24.7013   25.2860 H   0  0  0  0  0
   31.7371   23.1445   25.6882 H   0  0  0  0  0
   32.3782   22.2837   23.6195 H   0  0  0  0  0
   33.2457   20.5216   25.6075 H   0  0  0  0  0
   31.0533   19.7064   25.4783 H   0  0  0  0  0
   31.2499   21.4166   27.6955 H   0  0  0  0  0
   31.1638   19.0272   27.5284 H   0  0  0  0  0
   32.1466   19.3881   28.9621 H   0  0  0  0  0
   33.1515   17.8159   27.5699 H   0  0  0  0  0
  1  2  1  0  0  0
  1  3  4  0  0  0
  1  9  4  0  0  0
  3  4  4  0  0  0
  3 10  1  0  0  0
  4  5  4  0  0  0
  5  6  1  0  0  0
  5  7  4  0  0  0
  7  8  1  0  0  0
  7  9  4  0  0  0
 10 11  1  0  0  0
 10 18  1  0  0  0
 11 12  1  0  0  0
 11 13  1  0  0  0
 13 14  1  0  0  0
 13 15  1  0  0  0
 15 16  1  0  0  0
 15 17  1  0  0  0
 17 18  1  0  0  0
 17 19  1  0  0  0
 19 20  1  0  0  0
  2 21  1  0  0  0
  4 22  1  0  0  0
  6 23  1  0  0  0
  9 24  1  0  0  0
 10 25  1  0  0  0
 11 26  1  0  0  0
 12 27  1  0  0  0
 13 28  1  0  0  0
 14 29  1  0  0  0
 15 30  1  0  0  0
 16 31  1  0  0  0
 17 32  1  0  0  0
 19 33  1  0  0  0
 19 34  1  0  0  0
 20 35  1  0  0  0
M  END
$$$$
