5wuu_ligand
  -I-interpret- 

 44 46  0  0  0  0  0  0  0  0999 V2000
   -8.4150   -6.1240   -1.6850 C   0  0  0  0  0
   -7.1890   -6.7420   -1.4560 C   0  0  0  0  0
   -7.0700   -7.7390   -0.4800 C   0  0  0  0  0
   -8.1770   -8.1300    0.2700 C   0  0  0  0  0
   -9.3920   -7.5240    0.0490 C   0  0  0  0  0
   -9.5120   -6.5120   -0.9550 C   0  0  0  0  0
  -10.7390   -5.8700   -1.1990 O   0  0  0  0  0
  -11.8260   -6.2040   -0.4980 C   0  0  0  0  0
  -11.7580   -7.2370    0.5240 C   0  0  0  0  0
  -10.5750   -7.8740    0.7840 C   0  0  0  0  0
  -13.0260   -5.5450   -0.7440 O   0  0  0  0  0
  -10.5150   -8.9160    1.7890 N   0  0  0  0  0
  -11.7590   -9.4390    2.3170 C   0  0  0  0  0
  -12.1610   -8.6560    3.5610 C   0  0  0  0  0
  -11.0940   -8.7820    4.6450 C   0  0  0  0  0
  -11.3060   -7.6910    5.5830 N   0  0  0  0  0
  -10.3890   -6.5770    5.7410 C   0  0  0  0  0
   -9.0700   -6.4170    4.9680 C   0  0  0  0  0
   -7.7260   -5.3210    5.5370 S   0  0  0  0  0
   -6.9630   -5.2460    4.0870 C   0  0  0  0  0
   -7.5640   -6.2930    3.1690 C   0  0  0  0  0
   -8.8830   -6.7150    3.6630 C   0  0  0  0  0
  -10.7060   -5.7650    6.5420 O   0  0  0  0  0
  -12.5080   -7.6810    6.3990 C   0  0  0  0  0
   -8.5037   -5.3395   -2.4365 H   0  0  0  0  0
   -6.3166   -6.4482   -2.0397 H   0  0  0  0  0
   -6.1039   -8.2128   -0.3057 H   0  0  0  0  0
   -8.0812   -8.9097    1.0257 H   0  0  0  0  0
  -12.6532   -7.5048    1.0852 H   0  0  0  0  0
   -9.6178   -9.2732    2.1173 H   0  0  0  0  0
  -11.6265  -10.4887    2.5789 H   0  0  0  0  0
  -12.5397   -9.3427    1.5625 H   0  0  0  0  0
  -13.1000   -9.0573    3.9421 H   0  0  0  0  0
  -12.2715   -7.6046    3.2955 H   0  0  0  0  0
  -10.0959   -8.7272    4.2105 H   0  0  0  0  0
  -11.1712   -9.7445    5.1507 H   0  0  0  0  0
   -5.8976   -5.4351    4.2181 H   0  0  0  0  0
   -7.0894   -4.2546    3.6520 H   0  0  0  0  0
   -6.9032   -7.1593    3.1394 H   0  0  0  0  0
   -7.6790   -5.8663    2.1726 H   0  0  0  0  0
   -9.6288   -7.2139    3.0441 H   0  0  0  0  0
  -13.3848   -7.6575    5.7518 H   0  0  0  0  0
  -12.5342   -8.5792    7.0160 H   0  0  0  0  0
  -12.5037   -6.7988    7.0392 H   0  0  0  0  0
  1  2  4  0  0  0
  1  6  4  0  0  0
  2  3  4  0  0  0
  3  4  4  0  0  0
  4  5  4  0  0  0
  5  6  4  0  0  0
  5 10  1  0  0  0
  6  7  1  0  0  0
  7  8  1  0  0  0
  8  9  1  0  0  0
  8 11  2  0  0  0
  9 10  2  0  0  0
 10 12  1  0  0  0
 12 13  1  0  0  0
 13 14  1  0  0  0
 14 15  1  0  0  0
 15 16  1  0  0  0
 16 17  1  0  0  0
 16 24  1  0  0  0
 17 18  1  0  0  0
 17 23  2  0  0  0
 18 19  1  0  0  0
 18 22  2  0  0  0
 19 20  1  0  0  0
 20 21  1  0  0  0
 21 22  1  0  0  0
  1 25  1  0  0  0
  2 26  1  0  0  0
  3 27  1  0  0  0
  4 28  1  0  0  0
  9 29  1  0  0  0
 12 30  1  0  0  0
 13 31  1  0  0  0
 13 32  1  0  0  0
 14 33  1  0  0  0
 14 34  1  0  0  0
 15 35  1  0  0  0
 15 36  1  0  0  0
 20 37  1  0  0  0
 20 38  1  0  0  0
 21 39  1  0  0  0
 21 40  1  0  0  0
 22 41  1  0  0  0
 24 42  1  0  0  0
 24 43  1  0  0  0
 24 44  1  0  0  0
M  END
$$$$
