5jek_ligand
  -I-interpret- 

192192  0  0  0  0  0  0  0  0999 V2000
   31.4530  -15.0410   10.8650 N   0  3  0  0  0
   30.6970  -15.3450   12.0780 C   0  0  0  0  0
   31.5320  -15.5710   13.3570 C   0  0  0  0  0
   31.2140  -14.9620   14.3770 O   0  0  0  0  0
   29.8020  -16.5650   11.8440 C   0  0  0  0  0
   28.6550  -16.5220   12.6770 O   0  0  0  0  0
   32.5850  -16.3980   13.3460 N   0  0  0  0  0
   33.1820  -17.0170   12.1730 C   0  0  0  0  0
   34.1830  -16.0510   11.5740 C   0  0  0  0  0
   34.6910  -15.1700   12.2690 O   0  0  0  0  0
   34.4750  -16.2140   10.2880 N   0  0  0  0  0
   35.1990  -15.1910    9.5520 C   0  0  0  0  0
   34.1870  -14.1390    9.1440 C   0  0  0  0  0
   32.9820  -14.3540    9.2740 O   0  0  0  0  0
   35.9040  -15.7650    8.3250 C   0  0  0  0  0
   36.9290  -14.5700    7.4440 S   0  0  0  0  0
   34.6690  -13.0020    8.6610 N   0  0  0  0  0
   33.7800  -11.9790    8.1370 C   0  0  0  0  0
   34.0040  -11.8190    6.6410 C   0  0  0  0  0
   34.8530  -11.0440    6.1950 O   0  0  0  0  0
   33.9820  -10.6630    8.8810 C   0  0  0  0  0
   33.3210  -10.6360   10.2290 C   0  0  0  0  0
   34.0330  -10.9550   11.3740 C   0  0  0  0  0
   31.9770  -10.3180   10.3480 C   0  0  0  0  0
   33.4200  -10.9400   12.6180 C   0  0  0  0  0
   31.3580  -10.3010   11.5890 C   0  0  0  0  0
   32.0820  -10.6130   12.7250 C   0  0  0  0  0
   33.2230  -12.5750    5.8770 N   0  0  0  0  0
   33.3960  -12.6760    4.4370 C   0  0  0  0  0
   33.0910  -11.3710    3.7190 C   0  0  0  0  0
   32.1750  -10.6390    4.0950 O   0  0  0  0  0
   32.5110  -13.7920    3.8800 C   0  0  0  0  0
   32.7190  -15.1340    4.5600 C   0  0  0  0  0
   32.6860  -16.2900    3.5820 C   0  0  0  0  0
   32.2840  -16.0700    2.4200 O   0  0  0  0  0
   33.0710  -17.4140    3.9720 O   0  0  0  0  0
   33.8850  -11.0930    2.6890 N   0  0  0  0  0
   33.6550   -9.9800    1.7720 C   0  0  0  0  0
   33.6560   -8.6170    2.4550 C   0  0  0  0  0
   32.9600   -7.6980    2.0230 O   0  0  0  0  0
   32.3370  -10.1840    1.0250 C   0  0  0  0  0
   32.2240  -11.5690    0.4260 C   0  0  0  0  0
   33.2460  -12.0840   -0.0750 O   0  0  0  0  0
   31.1180  -12.1470    0.4680 O   0  0  0  0  0
   34.4380   -8.4900    3.5210 N   0  0  0  0  0
   34.6410   -7.1950    4.1550 C   0  0  0  0  0
   35.9490   -6.5820    3.6770 C   0  0  0  0  0
   36.9090   -7.2940    3.3830 O   0  0  0  0  0
   34.6420   -7.3170    5.6800 C   0  0  0  0  0
   33.3090   -7.6040    6.3740 C   0  0  0  0  0
   33.4060   -7.2640    7.8530 C   0  0  0  0  0
   32.1710   -6.8390    5.7170 C   0  0  0  0  0
   35.9790   -5.2580    3.5950 N   0  0  0  0  0
   37.1750   -4.5500    3.1610 C   0  0  0  0  0
   37.9480   -4.0240    4.3640 C   0  0  0  0  0
   38.0180   -2.8160    4.5910 O   0  0  0  0  0
   36.8100   -3.4140    2.2200 C   0  0  0  0  0
   38.5220   -4.9410    5.1360 N   0  0  0  0  0
   39.2860   -4.5780    6.3230 C   0  0  0  0  0
   40.6700   -5.2180    6.2960 C   0  0  0  0  0
   40.7940   -6.4400    6.2090 O   0  0  0  0  0
   38.5570   -5.0010    7.6150 C   0  0  0  0  0
   37.1450   -4.4120    7.6490 C   0  0  0  0  0
   39.3490   -4.5700    8.8390 C   0  0  0  0  0
   36.3150   -4.8770    8.8220 C   0  0  0  0  0
   41.7090   -4.3900    6.3660 N   0  0  0  0  0
   43.0780   -4.8920    6.3750 C   0  0  0  0  0
   44.0740   -3.7860    6.0160 C   0  0  0  0  0
   44.1350   -2.7950    7.0270 O   0  0  0  0  0
   43.4170   -5.4990    7.7340 C   0  0  0  0  0
   42.8170   -5.1420    8.7490 O   0  0  0  0  0
   45.2700   -1.7080    6.6690 P   0  0  0  0  0
   45.0170   -1.1290    5.1880 O   0  0  0  0  0
   46.7240   -2.3960    6.7330 O   0  0  0  0  0
   45.2020   -0.5070    7.7380 O   0  0  0  0  0
   44.3770   -6.4200    7.7410 N   0  0  0  0  0
   44.7400   -7.1600    8.9470 C   0  0  0  0  0
   45.2150   -6.2400   10.0680 C   0  0  0  0  0
   45.7940   -5.1830    9.8170 O   0  0  0  0  0
   45.8110   -8.1930    8.6250 C   0  0  0  0  0
   44.9650   -6.6570   11.3060 N   0  0  0  0  0
   45.3030   -5.8530   12.4760 C   0  0  0  0  0
   46.7960   -5.8900   12.7890 C   0  0  0  0  0
   47.4780   -6.8760   12.5010 O   0  0  0  0  0
   44.5040   -6.3240   13.6930 C   0  0  0  0  0
   44.8650   -5.5900   14.8500 O   0  0  0  0  0
   47.2910   -4.8060   13.3790 N   0  0  0  0  0
   48.6950   -4.6880   13.7600 C   0  0  0  0  0
   48.8960   -3.4890   14.6820 C   0  0  0  0  0
   48.4230   -2.3890   14.3930 O   0  0  0  0  0
   49.6130   -4.5430   12.5260 C   0  0  0  0  0
   49.6250   -5.7720   11.7890 O   0  0  0  0  0
   51.0340   -4.2060   12.9500 C   0  0  0  0  0
   49.5910   -3.7070   15.7940 N   0  0  0  0  0
   49.8830   -2.6320   16.7340 C   0  0  0  0  0
   51.1460   -2.9230   17.5380 C   0  0  0  0  0
   52.0760   -2.1160   17.5670 O   0  0  0  0  0
   48.6980   -2.4110   17.6760 C   0  0  0  0  0
   48.9760   -1.3800   18.6080 O   0  0  0  0  0
   51.2620   -3.9710   18.1750 O   0  0  0  0  0
   32.0459  -14.2276   11.0302 H   0  0  0  0  0
   32.0340  -15.8422   10.6182 H   0  0  0  0  0
   30.8050  -14.8418   10.1029 H   0  0  0  0  0
   30.1157  -14.4427   12.2678 H   0  0  0  0  0
   30.3702  -17.4653   12.0780 H   0  0  0  0  0
   29.4782  -16.5663   10.8032 H   0  0  0  0  0
   28.1116  -17.2959   12.5116 H   0  0  0  0  0
   33.0097  -16.6149   14.2477 H   0  0  0  0  0
   32.4080  -17.2504   11.4419 H   0  0  0  0  0
   33.6830  -17.9427   12.4561 H   0  0  0  0  0
   34.1872  -17.0684    9.8110 H   0  0  0  0  0
   35.9802  -14.7631   10.1803 H   0  0  0  0  0
   35.1304  -16.0998    7.6340 H   0  0  0  0  0
   36.5616  -16.5619    8.6725 H   0  0  0  0  0
   37.4973  -15.1621    6.3974 H   0  0  0  0  0
   35.6766  -12.8435    8.6573 H   0  0  0  0  0
   32.7457  -12.2853    8.2937 H   0  0  0  0  0
   33.5352   -9.8719    8.2788 H   0  0  0  0  0
   35.0530  -10.5332    9.0364 H   0  0  0  0  0
   35.0872  -11.2209   11.2962 H   0  0  0  0  0
   31.3995  -10.0783    9.4552 H   0  0  0  0  0
   33.9939  -11.1862   13.5113 H   0  0  0  0  0
   30.3022  -10.0420   11.6687 H   0  0  0  0  0
   31.5986  -10.6010   13.7019 H   0  0  0  0  0
   32.4720  -13.1057    6.3184 H   0  0  0  0  0
   34.4458  -12.9075    4.2570 H   0  0  0  0  0
   32.7676  -13.9167    2.8280 H   0  0  0  0  0
   31.4743  -13.4995    4.0470 H   0  0  0  0  0
   31.9108  -15.2768    5.2773 H   0  0  0  0  0
   33.7002  -15.1224    5.0345 H   0  0  0  0  0
   33.3350  -17.3586    4.8933 H   0  0  0  0  0
   34.6977  -11.6888    2.5311 H   0  0  0  0  0
   34.4920   -9.9781    1.0738 H   0  0  0  0  0
   32.2939   -9.4596    0.2117 H   0  0  0  0  0
   31.5217  -10.0563    1.7371 H   0  0  0  0  0
   33.9808  -11.4705   -0.0018 H   0  0  0  0  0
   34.9042   -9.3134    3.9019 H   0  0  0  0  0
   33.8134   -6.5449    3.8711 H   0  0  0  0  0
   34.9580   -6.3415    6.0495 H   0  0  0  0  0
   35.2763   -8.1750    5.9026 H   0  0  0  0  0
   33.0920   -8.6674    6.2729 H   0  0  0  0  0
   34.1871   -7.8691    8.3131 H   0  0  0  0  0
   33.6489   -6.2075    7.9664 H   0  0  0  0  0
   32.4513   -7.4725    8.3358 H   0  0  0  0  0
   32.3717   -5.7693    5.7770 H   0  0  0  0  0
   32.0906   -7.1368    4.6716 H   0  0  0  0  0
   31.2378   -7.0644    6.2331 H   0  0  0  0  0
   35.1455   -4.7242    3.8415 H   0  0  0  0  0
   37.8138   -5.2490    2.6212 H   0  0  0  0  0
   36.3003   -3.8180    1.3453 H   0  0  0  0  0
   36.1515   -2.7146    2.7351 H   0  0  0  0  0
   37.7173   -2.8974    1.9070 H   0  0  0  0  0
   38.4252   -5.9264    4.8910 H   0  0  0  0  0
   39.3887   -3.4929    6.3167 H   0  0  0  0  0
   38.4753   -6.0879    7.6268 H   0  0  0  0  0
   36.6359   -4.7388    6.7423 H   0  0  0  0  0
   37.2474   -3.3301    7.7334 H   0  0  0  0  0
   40.3328   -5.0388    8.8172 H   0  0  0  0  0
   39.4616   -3.4858    8.8341 H   0  0  0  0  0
   38.8185   -4.8774    9.7402 H   0  0  0  0  0
   36.2117   -5.9615    8.7852 H   0  0  0  0  0
   36.8074   -4.5890    9.7508 H   0  0  0  0  0
   35.3290   -4.4149    8.7736 H   0  0  0  0  0
   41.5448   -3.3845    6.4143 H   0  0  0  0  0
   43.1552   -5.6720    5.6176 H   0  0  0  0  0
   43.7475   -3.3144    5.0891 H   0  0  0  0  0
   45.0627   -4.2325    5.9096 H   0  0  0  0  0
   45.0583   -1.8480    4.5532 H   0  0  0  0  0
   46.7660   -3.1127    6.0957 H   0  0  0  0  0
   44.8771   -6.6163    6.8739 H   0  0  0  0  0
   43.8416   -7.6653    9.3017 H   0  0  0  0  0
   45.4293   -8.8896    7.8786 H   0  0  0  0  0
   46.6949   -7.6885    8.2347 H   0  0  0  0  0
   46.0729   -8.7378    9.5320 H   0  0  0  0  0
   44.5236   -7.5665   11.4418 H   0  0  0  0  0
   45.0404   -4.8209   12.2437 H   0  0  0  0  0
   44.7181   -7.3787   13.8661 H   0  0  0  0  0
   43.4430   -6.1695   13.4968 H   0  0  0  0  0
   44.3519   -5.9024   15.5988 H   0  0  0  0  0
   46.6640   -4.0252   13.5732 H   0  0  0  0  0
   48.9659   -5.6051   14.2830 H   0  0  0  0  0
   49.2275   -3.7359   11.9030 H   0  0  0  0  0
   50.1961   -5.6789   11.0230 H   0  0  0  0  0
   51.0338   -3.2662   13.5022 H   0  0  0  0  0
   51.4206   -5.0024   13.5859 H   0  0  0  0  0
   51.6625   -4.1087   12.0648 H   0  0  0  0  0
   49.9279   -4.6487   15.9942 H   0  0  0  0  0
   50.0532   -1.7232   16.1567 H   0  0  0  0  0
   48.5084   -3.3349   18.2225 H   0  0  0  0  0
   47.8295   -2.1226   17.0839 H   0  0  0  0  0
   48.2193   -1.2605   19.1865 H   0  0  0  0  0
   50.4696   -4.5013   18.0635 H   0  0  0  0  0
  1  2  1  0  0  0
  2  3  1  0  0  0
  2  5  1  0  0  0
  3  4  2  0  0  0
  3  7  1  0  0  0
  5  6  1  0  0  0
  7  8  1  0  0  0
  8  9  1  0  0  0
  9 10  2  0  0  0
  9 11  1  0  0  0
 11 12  1  0  0  0
 12 13  1  0  0  0
 12 15  1  0  0  0
 13 14  2  0  0  0
 13 17  1  0  0  0
 15 16  1  0  0  0
 17 18  1  0  0  0
 18 19  1  0  0  0
 18 21  1  0  0  0
 19 20  2  0  0  0
 19 28  1  0  0  0
 21 22  1  0  0  0
 22 23  4  0  0  0
 22 24  4  0  0  0
 23 25  4  0  0  0
 24 26  4  0  0  0
 25 27  4  0  0  0
 26 27  4  0  0  0
 28 29  1  0  0  0
 29 30  1  0  0  0
 29 32  1  0  0  0
 30 31  2  0  0  0
 30 37  1  0  0  0
 32 33  1  0  0  0
 33 34  1  0  0  0
 34 35  2  0  0  0
 34 36  1  0  0  0
 37 38  1  0  0  0
 38 39  1  0  0  0
 38 41  1  0  0  0
 39 40  2  0  0  0
 39 45  1  0  0  0
 41 42  1  0  0  0
 42 43  1  0  0  0
 42 44  2  0  0  0
 45 46  1  0  0  0
 46 47  1  0  0  0
 46 49  1  0  0  0
 47 48  2  0  0  0
 47 53  1  0  0  0
 49 50  1  0  0  0
 50 51  1  0  0  0
 50 52  1  0  0  0
 53 54  1  0  0  0
 54 55  1  0  0  0
 54 57  1  0  0  0
 55 56  2  0  0  0
 55 58  1  0  0  0
 58 59  1  0  0  0
 59 60  1  0  0  0
 59 62  1  0  0  0
 60 61  2  0  0  0
 60 66  1  0  0  0
 62 63  1  0  0  0
 62 64  1  0  0  0
 63 65  1  0  0  0
 66 67  1  0  0  0
 67 68  1  0  0  0
 67 70  1  0  0  0
 68 69  1  0  0  0
 69 72  1  0  0  0
 70 71  2  0  0  0
 70 76  1  0  0  0
 72 73  1  0  0  0
 72 74  1  0  0  0
 72 75  2  0  0  0
 76 77  1  0  0  0
 77 78  1  0  0  0
 77 80  1  0  0  0
 78 79  2  0  0  0
 78 81  1  0  0  0
 81 82  1  0  0  0
 82 83  1  0  0  0
 82 85  1  0  0  0
 83 84  2  0  0  0
 83 87  1  0  0  0
 85 86  1  0  0  0
 87 88  1  0  0  0
 88 89  1  0  0  0
 88 91  1  0  0  0
 89 90  2  0  0  0
 89 94  1  0  0  0
 91 92  1  0  0  0
 91 93  1  0  0  0
 94 95  1  0  0  0
 95 96  1  0  0  0
 95 98  1  0  0  0
 96 97  2  0  0  0
 96100  1  0  0  0
 98 99  1  0  0  0
  1101  1  0  0  0
  1102  1  0  0  0
  1103  1  0  0  0
  2104  1  0  0  0
  5105  1  0  0  0
  5106  1  0  0  0
  6107  1  0  0  0
  7108  1  0  0  0
  8109  1  0  0  0
  8110  1  0  0  0
 11111  1  0  0  0
 12112  1  0  0  0
 15113  1  0  0  0
 15114  1  0  0  0
 16115  1  0  0  0
 17116  1  0  0  0
 18117  1  0  0  0
 21118  1  0  0  0
 21119  1  0  0  0
 23120  1  0  0  0
 24121  1  0  0  0
 25122  1  0  0  0
 26123  1  0  0  0
 27124  1  0  0  0
 28125  1  0  0  0
 29126  1  0  0  0
 32127  1  0  0  0
 32128  1  0  0  0
 33129  1  0  0  0
 33130  1  0  0  0
 36131  1  0  0  0
 37132  1  0  0  0
 38133  1  0  0  0
 41134  1  0  0  0
 41135  1  0  0  0
 43136  1  0  0  0
 45137  1  0  0  0
 46138  1  0  0  0
 49139  1  0  0  0
 49140  1  0  0  0
 50141  1  0  0  0
 51142  1  0  0  0
 51143  1  0  0  0
 51144  1  0  0  0
 52145  1  0  0  0
 52146  1  0  0  0
 52147  1  0  0  0
 53148  1  0  0  0
 54149  1  0  0  0
 57150  1  0  0  0
 57151  1  0  0  0
 57152  1  0  0  0
 58153  1  0  0  0
 59154  1  0  0  0
 62155  1  0  0  0
 63156  1  0  0  0
 63157  1  0  0  0
 64158  1  0  0  0
 64159  1  0  0  0
 64160  1  0  0  0
 65161  1  0  0  0
 65162  1  0  0  0
 65163  1  0  0  0
 66164  1  0  0  0
 67165  1  0  0  0
 68166  1  0  0  0
 68167  1  0  0  0
 73168  1  0  0  0
 74169  1  0  0  0
 76170  1  0  0  0
 77171  1  0  0  0
 80172  1  0  0  0
 80173  1  0  0  0
 80174  1  0  0  0
 81175  1  0  0  0
 82176  1  0  0  0
 85177  1  0  0  0
 85178  1  0  0  0
 86179  1  0  0  0
 87180  1  0  0  0
 88181  1  0  0  0
 91182  1  0  0  0
 92183  1  0  0  0
 93184  1  0  0  0
 93185  1  0  0  0
 93186  1  0  0  0
 94187  1  0  0  0
 95188  1  0  0  0
 98189  1  0  0  0
 98190  1  0  0  0
 99191  1  0  0  0
100192  1  0  0  0
M  END
$$$$
