### 
### Created by X-TOOL on Mon Sep 10 21:13:28 2018
### 

@<TRIPOS>MOLECULE
5jek_ligand
  187   187     1     0     0
SMALL
GAST_HUCK


@<TRIPOS>ATOM
      1 N          31.4530  -15.0410   10.8650 N.4       1 SER         0.2396
      2 CA         30.6970  -15.3450   12.0780 C.3       1 SER         0.0884
      3 C          31.5320  -15.5710   13.3570 C.2       1 SER         0.2288
      4 O          31.2140  -14.9620   14.3770 O.2       1 SER        -0.3906
      5 CB         29.8020  -16.5650   11.8440 C.3       1 SER         0.1041
      6 OG         28.6550  -16.5220   12.6770 O.3       1 SER        -0.3870
      7 N          32.5850  -16.3980   13.3460 N.am      1 GLY        -0.2636
      8 CA         33.1820  -17.0170   12.1730 C.3       1 GLY         0.1202
      9 C          34.1830  -16.0510   11.5740 C.2       1 GLY         0.2008
     10 O          34.6910  -15.1700   12.2690 O.2       1 GLY        -0.3947
     11 N          34.4750  -16.2140   10.2880 N.am      1 CYS        -0.2632
     12 CA         35.1990  -15.1910    9.5520 C.3       1 CYS         0.1396
     13 C          34.1870  -14.1390    9.1440 C.2       1 CYS         0.2048
     14 O          32.9820  -14.3540    9.2740 O.2       1 CYS        -0.3943
     15 CB         35.9040  -15.7650    8.3250 C.3       1 CYS         0.0311
     16 SG         36.9290  -14.5700    7.4440 S.3       1 CYS        -0.1735
     17 N          34.6690  -13.0020    8.6610 N.am      1 PHE        -0.2619
     18 CA         33.7800  -11.9790    8.1370 C.3       1 PHE         0.1404
     19 C          34.0040  -11.8190    6.6410 C.2       1 PHE         0.2060
     20 O          34.8530  -11.0440    6.1950 O.2       1 PHE        -0.3942
     21 CB         33.9820  -10.6630    8.8810 C.3       1 PHE         0.0214
     22 CG         33.3210  -10.6360   10.2290 C.ar      1 PHE        -0.0386
     23 CD1        34.0330  -10.9550   11.3740 C.ar      1 PHE        -0.0601
     24 CD2        31.9770  -10.3180   10.3480 C.ar      1 PHE        -0.0601
     25 CE1        33.4200  -10.9400   12.6180 C.ar      1 PHE        -0.0686
     26 CE2        31.3580  -10.3010   11.5890 C.ar      1 PHE        -0.0686
     27 CZ         32.0820  -10.6130   12.7250 C.ar      1 PHE        -0.0687
     28 N          33.2230  -12.5750    5.8770 N.am      1 GLU        -0.2635
     29 CA         33.3960  -12.6760    4.4370 C.3       1 GLU         0.1325
     30 C          33.0910  -11.3710    3.7190 C.2       1 GLU         0.2041
     31 O          32.1750  -10.6390    4.0950 O.2       1 GLU        -0.3944
     32 CB         32.5110  -13.7920    3.8800 C.3       1 GLU        -0.0008
     33 CG         32.7190  -15.1340    4.5600 C.3       1 GLU         0.0044
     34 CD         32.6860  -16.2900    3.5820 C.2       1 GLU         0.0350
     35 OE1        32.2840  -16.0700    2.4200 O.co2     1 GLU        -0.5690
     36 OE2        33.0710  -17.4140    3.9720 O.co2     1 GLU        -0.5690
     37 N          33.8850  -11.0930    2.6890 N.am      1 ASP        -0.2622
     38 CA         33.6550   -9.9800    1.7720 C.3       1 ASP         0.1423
     39 C          33.6560   -8.6170    2.4550 C.2       1 ASP         0.2056
     40 O          32.9600   -7.6980    2.0230 O.2       1 ASP        -0.3943
     41 CB         32.3370  -10.1840    1.0250 C.3       1 ASP         0.0406
     42 CG         32.2240  -11.5690    0.4260 C.2       1 ASP         0.0393
     43 OD1        33.2460  -12.0840   -0.0750 O.co2     1 ASP        -0.5688
     44 OD2        31.1180  -12.1470    0.4680 O.co2     1 ASP        -0.5688
     45 N          34.4380   -8.4900    3.5210 N.am      1 LEU        -0.2636
     46 CA         34.6410   -7.1950    4.1550 C.3       1 LEU         0.1312
     47 C          35.9490   -6.5820    3.6770 C.2       1 LEU         0.2039
     48 O          36.9090   -7.2940    3.3830 O.2       1 LEU        -0.3944
     49 CB         34.6420   -7.3170    5.6800 C.3       1 LEU        -0.0101
     50 CG         33.3090   -7.6040    6.3740 C.3       1 LEU        -0.0425
     51 CD1        33.4060   -7.2640    7.8530 C.3       1 LEU        -0.0625
     52 CD2        32.1710   -6.8390    5.7170 C.3       1 LEU        -0.0625
     53 N          35.9790   -5.2580    3.5950 N.am      1 ALA        -0.2640
     54 CA         37.1750   -4.5500    3.1610 C.3       1 ALA         0.1282
     55 C          37.9480   -4.0240    4.3640 C.2       1 ALA         0.2036
     56 O          38.0180   -2.8160    4.5910 O.2       1 ALA        -0.3944
     57 CB         36.8100   -3.4140    2.2200 C.3       1 ALA        -0.0244
     58 N          38.5220   -4.9410    5.1360 N.am      1 ILE        -0.2635
     59 CA         39.2860   -4.5780    6.3230 C.3       1 ILE         0.1335
     60 C          40.6700   -5.2180    6.2960 C.2       1 ILE         0.2042
     61 O          40.7940   -6.4400    6.2090 O.2       1 ILE        -0.3944
     62 CB         38.5570   -5.0010    7.6150 C.3       1 ILE        -0.0037
     63 CG1        37.1450   -4.4120    7.6490 C.3       1 ILE        -0.0491
     64 CG2        39.3490   -4.5700    8.8390 C.3       1 ILE        -0.0582
     65 CD1        36.3150   -4.8770    8.8220 C.3       1 ILE        -0.0648
     66 N          41.7090   -4.3900    6.3660 N.am      1 SEP        -0.2613
     67 CA         43.0780   -4.8920    6.3750 C.3       1 SEP         0.1586
     68 CB         44.0740   -3.7860    6.0160 C.3       1 SEP         0.1184
     69 OG         44.1350   -2.7950    7.0270 O.3       1 SEP        -0.2714
     70 C          43.4170   -5.4990    7.7340 C.2       1 SEP         0.2065
     71 O          42.8170   -5.1420    8.7490 O.2       1 SEP        -0.3943
     72 P          45.2700   -1.7080    6.6690 P.3       1 SEP         0.2010
     73 O1P        45.0170   -1.1290    5.1880 O.co2     1 SEP        -0.5537
     74 O2P        46.7240   -2.3960    6.7330 O.co2     1 SEP        -0.5537
     75 O3P        45.2020   -0.5070    7.7380 O.co2     1 SEP        -0.5537
     76 N          44.3770   -6.4200    7.7410 N.am      1 ALA        -0.2639
     77 CA         44.7400   -7.1600    8.9470 C.3       1 ALA         0.1282
     78 C          45.2150   -6.2400   10.0680 C.2       1 ALA         0.2037
     79 O          45.7940   -5.1830    9.8170 O.2       1 ALA        -0.3944
     80 CB         45.8110   -8.1930    8.6250 C.3       1 ALA        -0.0244
     81 N          44.9650   -6.6570   11.3060 N.am      1 SER        -0.2616
     82 CA         45.3030   -5.8530   12.4760 C.3       1 SER         0.1539
     83 C          46.7960   -5.8900   12.7890 C.2       1 SER         0.2063
     84 O          47.4780   -6.8760   12.5010 O.2       1 SER        -0.3943
     85 CB         44.5040   -6.3240   13.6930 C.3       1 SER         0.0843
     86 OG         44.8650   -5.5900   14.8500 O.3       1 SER        -0.3903
     87 N          47.2910   -4.8060   13.3790 N.am      1 THR        -0.2613
     88 CA         48.6950   -4.6880   13.7600 C.3       1 THR         0.1564
     89 C          48.8960   -3.4890   14.6820 C.2       1 THR         0.2060
     90 O          48.4230   -2.3890   14.3930 O.2       1 THR        -0.3943
     91 CB         49.6130   -4.5430   12.5260 C.3       1 THR         0.0924
     92 OG1        49.6250   -5.7720   11.7890 O.3       1 THR        -0.3874
     93 CG2        51.0340   -4.2060   12.9500 C.3       1 THR        -0.0346
     94 N          49.5910   -3.7070   15.7940 N.am      1 SER        -0.2672
     95 CA         49.8830   -2.6320   16.7340 C.3       1 SER         0.1173
     96 C          51.1460   -2.9230   17.5380 C.2       1 SER         0.0623
     97 O          52.0760   -2.1160   17.5670 O.co2     1 SER        -0.5665
     98 CB         48.6980   -2.4110   17.6760 C.3       1 SER         0.0789
     99 OG         48.9760   -1.3800   18.6080 O.3       1 SER        -0.3910
    100 OXT        51.2620   -3.9710   18.1750 O.co2     1 SER        -0.5665
    101 H1         30.8153  -14.9128   10.0950 H         1 SER         0.2016
    102 H2         32.0791  -15.8037   10.6593 H         1 SER         0.2016
    103 H3         31.9860  -14.1968   11.0040 H         1 SER         0.2016
    104 H4         30.0478  -14.4781   12.2705 H         1 SER         0.1122
    105 H5         30.3736  -17.4782   12.0661 H         1 SER         0.0640
    106 H6         29.4818  -16.5796   10.7917 H         1 SER         0.0640
    107 H7         28.1558  -15.7365   12.4864 H         1 SER         0.2099
    108 H8         33.0013  -16.6107   14.2300 H         1 GLY         0.1882
    109 H9         32.3989  -17.2443   11.4348 H         1 GLY         0.0763
    110 H10        33.6927  -17.9468   12.4640 H         1 GLY         0.0763
    111 H11        34.1929  -17.0517    9.8204 H         1 CYS         0.1884
    112 H12        35.9553  -14.7376   10.2096 H         1 CYS         0.0808
    113 H13        35.1387  -16.1427    7.6311 H         1 CYS         0.0422
    114 H14        36.5453  -16.5968    8.6517 H         1 CYS         0.0422
    115 H15        37.3597  -15.0187    6.6508 H         1 CYS         0.1019
    116 H16        35.6569  -12.8466    8.6573 H         1 PHE         0.1885
    117 H17        32.7416  -12.3052    8.2963 H         1 PHE         0.0823
    118 H18        33.5639   -9.8490    8.2707 H         1 PHE         0.0474
    119 H19        35.0614  -10.5014    9.0180 H         1 PHE         0.0474
    120 H20        35.0814  -11.2194   11.2966 H         1 PHE         0.0557
    121 H21        31.4027  -10.0797    9.4601 H         1 PHE         0.0557
    122 H22        33.9908  -11.1849   13.5064 H         1 PHE         0.0599
    123 H23        30.3080  -10.0435   11.6683 H         1 PHE         0.0599
    124 H24        31.6012  -10.6011   13.6965 H         1 PHE         0.0559
    125 H25        32.4868  -13.0953    6.3097 H         1 GLU         0.1883
    126 H26        34.4470  -12.9338    4.2400 H         1 GLU         0.0801
    127 H27        32.7316  -13.9079    2.8086 H         1 GLU         0.0330
    128 H28        31.4590  -13.4974    4.0081 H         1 GLU         0.0330
    129 H29        31.9229  -15.2793    5.3051 H         1 GLU         0.0433
    130 H30        33.6965  -15.1263    5.0645 H         1 GLU         0.0433
    131 H31        34.6818  -11.6771    2.5342 H         1 ASP         0.1884
    132 H32        34.4725   -9.9828    1.0361 H         1 ASP         0.0819
    133 H33        32.2708   -9.4422    0.2155 H         1 ASP         0.0478
    134 H34        31.5049  -10.0341    1.7286 H         1 ASP         0.0478
    135 H35        34.8950   -9.2973    3.8945 H         1 LEU         0.1883
    136 H36        33.8143   -6.5315    3.8613 H         1 LEU         0.0800
    137 H37        35.0249   -6.3685    6.0847 H         1 LEU         0.0315
    138 H38        35.3312   -8.1329    5.9433 H         1 LEU         0.0315
    139 H39        33.0966   -8.6792    6.2799 H         1 LEU         0.0298
    140 H40        32.4430   -7.4740    8.3414 H         1 LEU         0.0232
    141 H41        33.6510   -6.1979    7.9689 H         1 LEU         0.0232
    142 H42        34.1940   -7.8741    8.3186 H         1 LEU         0.0232
    143 H43        32.1210   -7.1011    4.6498 H         1 LEU         0.0232
    144 H44        32.3474   -5.7583    5.8212 H         1 LEU         0.0232
    145 H45        31.2213   -7.1043    6.2045 H         1 LEU         0.0232
    146 H46        35.1619   -4.7347    3.8367 H         1 ALA         0.1883
    147 H47        37.8188   -5.2569    2.6172 H         1 ALA         0.0797
    148 H48        37.7249   -2.8918    1.9034 H         1 ALA         0.0277
    149 H49        36.1454   -2.7074    2.7386 H         1 ALA         0.0277
    150 H50        36.2956   -3.8204    1.3367 H         1 ALA         0.0277
    151 H51        38.4271   -5.9071    4.8958 H         1 ILE         0.1883
    152 H52        39.4054   -3.4846    6.3322 H         1 ILE         0.0803
    153 H53        38.4752   -6.0979    7.6243 H         1 ILE         0.0345
    154 H54        36.6271   -4.7006    6.7225 H         1 ILE         0.0267
    155 H55        37.2281   -3.3162    7.6965 H         1 ILE         0.0267
    156 H56        40.3588   -5.0040    8.7938 H         1 ILE         0.0235
    157 H57        38.8392   -4.9215    9.7481 H         1 ILE         0.0235
    158 H58        39.4222   -3.4727    8.8607 H         1 ILE         0.0235
    159 H59        35.3196   -4.4113    8.7743 H         1 ILE         0.0230
    160 H60        36.8109   -4.5869    9.7600 H         1 ILE         0.0230
    161 H61        36.2099   -5.9714    8.7860 H         1 ILE         0.0230
    162 H62        41.5480   -3.4042    6.4134 H         1 SEP         0.1884
    163 H63        43.1572   -5.6835    5.6152 H         1 SEP         0.0827
    164 H64        43.7609   -3.3153    5.0724 H         1 SEP         0.0662
    165 H65        45.0723   -4.2307    5.8905 H         1 SEP         0.0662
    166 H66        44.8673   -6.6124    6.8909 H         1 ALA         0.1883
    167 H67        43.8437   -7.6901    9.3015 H         1 ALA         0.0797
    168 H68        46.0762   -8.7435    9.5397 H         1 ALA         0.0277
    169 H69        46.7036   -7.6851    8.2310 H         1 ALA         0.0277
    170 H70        45.4270   -8.8967    7.8718 H         1 ALA         0.0277
    171 H71        44.5322   -7.5486   11.4391 H         1 SER         0.1884
    172 H72        45.0262   -4.8102   12.2617 H         1 SER         0.0823
    173 H73        44.7067   -7.3912   13.8659 H         1 SER         0.0606
    174 H74        43.4311   -6.1817   13.4965 H         1 SER         0.0606
    175 H75        44.3573   -5.8992   15.5910 H         1 SER         0.2097
    176 H76        46.6763   -4.0405   13.5694 H         1 THR         0.1884
    177 H77        48.9823   -5.6014   14.3015 H         1 THR         0.0826
    178 H78        49.2272   -3.7369   11.8847 H         1 THR         0.0639
    179 H79        48.7424   -5.9778   11.5042 H         1 THR         0.2101
    180 H80        51.6693   -4.1075   12.0574 H         1 THR         0.0257
    181 H81        51.4254   -5.0091   13.5918 H         1 THR         0.0257
    182 H82        51.0352   -3.2577   13.5074 H         1 THR         0.0257
    183 H83        49.9213   -4.6303   15.9902 H         1 SER         0.1876
    184 H84        50.0466   -1.7087   16.1590 H         1 SER         0.0749
    185 H85        48.4934   -3.3438   18.2218 H         1 SER         0.0599
    186 H86        47.8144   -2.1316   17.0833 H         1 SER         0.0599
    187 H87        48.2271   -1.2618   19.1805 H         1 SER         0.2096
@<TRIPOS>BOND
     1    1    2 1  
     2    2    3 1  
     3    2    5 1  
     4    3    4 2  
     5    3    7 am 
     6    5    6 1  
     7    7    8 1  
     8    8    9 1  
     9    9   10 2  
    10    9   11 am 
    11   11   12 1  
    12   12   13 1  
    13   12   15 1  
    14   13   14 2  
    15   13   17 am 
    16   15   16 1  
    17   17   18 1  
    18   18   19 1  
    19   18   21 1  
    20   19   20 2  
    21   19   28 am 
    22   21   22 1  
    23   22   23 ar 
    24   22   24 ar 
    25   23   25 ar 
    26   24   26 ar 
    27   25   27 ar 
    28   26   27 ar 
    29   28   29 1  
    30   29   30 1  
    31   29   32 1  
    32   30   31 2  
    33   30   37 am 
    34   32   33 1  
    35   33   34 1  
    36   34   35 ar 
    37   34   36 ar 
    38   37   38 1  
    39   38   39 1  
    40   38   41 1  
    41   39   40 2  
    42   39   45 am 
    43   41   42 1  
    44   42   43 ar 
    45   42   44 ar 
    46   45   46 1  
    47   46   47 1  
    48   46   49 1  
    49   47   48 2  
    50   47   53 am 
    51   49   50 1  
    52   50   51 1  
    53   50   52 1  
    54   53   54 1  
    55   54   55 1  
    56   54   57 1  
    57   55   56 2  
    58   55   58 am 
    59   58   59 1  
    60   59   60 1  
    61   59   62 1  
    62   60   61 2  
    63   60   66 am 
    64   62   63 1  
    65   62   64 1  
    66   63   65 1  
    67   66   67 1  
    68   67   68 1  
    69   67   70 1  
    70   68   69 1  
    71   69   72 1  
    72   70   71 2  
    73   70   76 am 
    74   72   73 ar 
    75   72   74 ar 
    76   72   75 ar 
    77   76   77 1  
    78   77   78 1  
    79   77   80 1  
    80   78   79 2  
    81   78   81 am 
    82   81   82 1  
    83   82   83 1  
    84   82   85 1  
    85   83   84 2  
    86   83   87 am 
    87   85   86 1  
    88   87   88 1  
    89   88   89 1  
    90   88   91 1  
    91   89   90 2  
    92   89   94 am 
    93   91   92 1  
    94   91   93 1  
    95   94   95 1  
    96   95   96 1  
    97   95   98 1  
    98   96   97 ar 
    99   96  100 ar 
   100   98   99 1  
   101    1  101 1  
   102    1  102 1  
   103    1  103 1  
   104    2  104 1  
   105    5  105 1  
   106    5  106 1  
   107    6  107 1  
   108    7  108 1  
   109    8  109 1  
   110    8  110 1  
   111   11  111 1  
   112   12  112 1  
   113   15  113 1  
   114   15  114 1  
   115   16  115 1  
   116   17  116 1  
   117   18  117 1  
   118   21  118 1  
   119   21  119 1  
   120   23  120 1  
   121   24  121 1  
   122   25  122 1  
   123   26  123 1  
   124   27  124 1  
   125   28  125 1  
   126   29  126 1  
   127   32  127 1  
   128   32  128 1  
   129   33  129 1  
   130   33  130 1  
   131   37  131 1  
   132   38  132 1  
   133   41  133 1  
   134   41  134 1  
   135   45  135 1  
   136   46  136 1  
   137   49  137 1  
   138   49  138 1  
   139   50  139 1  
   140   51  140 1  
   141   51  141 1  
   142   51  142 1  
   143   52  143 1  
   144   52  144 1  
   145   52  145 1  
   146   53  146 1  
   147   54  147 1  
   148   57  148 1  
   149   57  149 1  
   150   57  150 1  
   151   58  151 1  
   152   59  152 1  
   153   62  153 1  
   154   63  154 1  
   155   63  155 1  
   156   64  156 1  
   157   64  157 1  
   158   64  158 1  
   159   65  159 1  
   160   65  160 1  
   161   65  161 1  
   162   66  162 1  
   163   67  163 1  
   164   68  164 1  
   165   68  165 1  
   166   76  166 1  
   167   77  167 1  
   168   80  168 1  
   169   80  169 1  
   170   80  170 1  
   171   81  171 1  
   172   82  172 1  
   173   85  173 1  
   174   85  174 1  
   175   86  175 1  
   176   87  176 1  
   177   88  177 1  
   178   91  178 1  
   179   92  179 1  
   180   93  180 1  
   181   93  181 1  
   182   93  182 1  
   183   94  183 1  
   184   95  184 1  
   185   98  185 1  
   186   98  186 1  
   187   99  187 1  
@<TRIPOS>SUBSTRUCTURE
     1 SER         1

