### 
### Created by X-TOOL on Wed Jan  1 15:39:37 2020
### 

@<TRIPOS>MOLECULE
6bhv_ligand
   70    74     1     0     0
SMALL
GAST_HUCK


@<TRIPOS>ATOM
      1 O3        -19.0700   22.0260   36.3080 O.co2     1 DQV        -0.6127
      2 C4        -11.2490   22.9400   39.8900 C.ar      1 DQV        -0.0535
      3 C5        -12.3870   22.7680   39.1040 C.ar      1 DQV        -0.0064
      4 O4        -19.0720   19.6860   37.1330 O.co2     1 DQV        -0.6127
      5 C6        -12.9260   23.8700   38.4420 C.ar      1 DQV        -0.0381
      6 N1        -22.1150   28.9190   38.0700 N.pl3     1 DQV        -0.1919
      7 C7        -12.9130   21.3880   38.8220 C.3       1 DQV         0.1223
      8 C8        -15.0530   20.3960   38.8480 C.3       1 DQV         0.1185
      9 N2        -22.6010   30.2830   39.7890 N.2       1 DQV        -0.2958
     10 C9        -16.4780   20.8800   38.9520 C.3       1 DQV         0.1129
     11 O5        -19.2860   21.5530   38.7480 O.3       1 DQV        -0.1319
     12 C10       -21.5770   24.6020   38.2220 C.3       1 DQV         0.1128
     13 O6        -20.4800   22.9440   40.4990 O.co2     1 DQV        -0.6127
     14 C11       -21.3620   25.5840   37.1100 C.3       1 DQV         0.1189
     15 C12       -21.4690   27.8960   37.2610 C.3       1 DQV         0.2010
     16 N3        -24.9950   32.2250   39.5360 N.pl3     1 DQV        -0.3152
     17 C13       -20.0440   27.5220   37.6450 C.3       1 DQV         0.1385
     18 O7        -18.4980   23.8900   39.4120 O.co2     1 DQV        -0.6127
     19 C14       -19.9410   26.1390   36.9890 C.3       1 DQV         0.1149
     20 O8        -20.6150   23.5520   38.0910 O.3       1 DQV        -0.2476
     21 C15       -21.8040   29.3480   39.3320 C.2       1 DQV         0.1123
     22 N4        -25.2300   31.3740   37.3990 N.ar      1 DQV        -0.2698
     23 P1        -19.6680   23.0330   39.1740 P.3       1 DQV         0.2972
     24 O11       -19.5710   26.2050   35.6240 O.3       1 DQV        -0.3864
     25 O10       -19.1150   28.4390   37.0800 O.3       1 DQV        -0.3836
     26 C19       -23.2040   29.6600   37.6810 C.ar      1 DQV         0.1613
     27 N5        -23.8560   29.5980   36.5090 N.ar      1 DQV        -0.2714
     28 C18       -24.8470   30.4970   36.4630 C.ar      1 DQV         0.0533
     29 C17       -24.5720   31.3890   38.5830 C.ar      1 DQV         0.1298
     30 C16       -23.4910   30.4960   38.7460 C.ar      1 DQV         0.1045
     31 O9        -22.2260   26.7120   37.3460 O.3       1 DQV        -0.3364
     32 P         -18.6140   21.0820   37.3950 P.3       1 DQV         0.2972
     33 O2        -17.0410   21.2410   37.6730 O.3       1 DQV        -0.2476
     34 O1        -14.2500   21.4380   38.2850 O.3       1 DQV        -0.3529
     35 C20       -14.4230   20.0940   40.2070 C.3       1 DQV         0.1141
     36 O12       -14.5780   18.7280   40.5750 O.3       1 DQV        -0.3863
     37 C21       -12.9340   20.4150   40.0140 C.3       1 DQV         0.1193
     38 O13       -12.1570   19.2610   39.7250 O.3       1 DQV        -0.3845
     39 C3        -10.6470   24.1840   39.9980 C.ar      1 DQV        -0.0628
     40 C2        -11.1800   25.2730   39.3320 C.ar      1 DQV        -0.0489
     41 C1        -12.3250   25.1260   38.5450 C.ar      1 DQV         0.0430
     42 C         -12.8530   26.3000   37.7660 C.2       1 DQV         0.2008
     43 O         -12.0610   27.2230   37.4290 O.2       1 DQV        -0.3849
     44 N         -14.1590   26.3130   37.4540 N.am      1 DQV        -0.3001
     45 H1        -10.8307   22.0931   40.4218 H         1 DQV         0.0593
     46 H2        -13.8205   23.7506   37.8414 H         1 DQV         0.0608
     47 H3        -12.2521   20.9526   38.0581 H         1 DQV         0.0788
     48 H4        -15.0231   19.4970   38.2148 H         1 DQV         0.0652
     49 H5        -16.5024   21.7624   39.6083 H         1 DQV         0.0648
     50 H6        -17.0901   20.0788   39.3918 H         1 DQV         0.0648
     51 H7        -22.5928   24.1849   38.1578 H         1 DQV         0.0648
     52 H8        -21.4478   25.1050   39.1917 H         1 DQV         0.0648
     53 H9        -21.6287   25.0956   36.1611 H         1 DQV         0.0651
     54 H10       -21.4578   28.2534   36.2208 H         1 DQV         0.0996
     55 H11       -24.5122   32.2560   40.4453 H         1 DQV         0.1820
     56 H12       -25.8038   32.8383   39.3612 H         1 DQV         0.1820
     57 H13       -19.9066   27.4725   38.7352 H         1 DQV         0.0676
     58 H14       -19.2206   25.5083   37.5305 H         1 DQV         0.0648
     59 H15       -20.9689   28.9482   39.9053 H         1 DQV         0.1349
     60 H16       -18.7234   26.6271   35.5469 H         1 DQV         0.2100
     61 H17       -19.2897   28.5331   36.1509 H         1 DQV         0.2101
     62 H18       -25.4174   30.5175   35.5415 H         1 DQV         0.0996
     63 H19       -14.8644   20.7336   40.9855 H         1 DQV         0.0649
     64 H20       -14.1596   18.1765   39.9244 H         1 DQV         0.2100
     65 H21       -12.5311   20.8988   40.9160 H         1 DQV         0.0669
     66 H22       -12.2313   18.6428   40.4425 H         1 DQV         0.2102
     67 H23        -9.7571   24.3036   40.6053 H         1 DQV         0.0611
     68 H24       -10.7073   26.2445   39.4211 H         1 DQV         0.0611
     69 H25       -14.5420   27.0785   36.9370 H         1 DQV         0.1808
     70 H26       -14.7486   25.5571   37.7386 H         1 DQV         0.1808
@<TRIPOS>BOND
     1   32    1 ar 
     2    3    2 ar 
     3    2   39 ar 
     4    3    5 ar 
     5    7    3 1  
     6   32    4 ar 
     7    5   41 ar 
     8   15    6 1  
     9    6   21 1  
    10    6   26 1  
    11   34    7 1  
    12    7   37 1  
    13   10    8 1  
    14    8   34 1  
    15    8   35 1  
    16   21    9 2  
    17   30    9 1  
    18   33   10 1  
    19   11   23 1  
    20   32   11 1  
    21   12   14 1  
    22   20   12 1  
    23   23   13 ar 
    24   14   19 1  
    25   14   31 1  
    26   15   17 1  
    27   31   15 1  
    28   29   16 1  
    29   19   17 1  
    30   17   25 1  
    31   23   18 ar 
    32   19   24 1  
    33   23   20 1  
    34   28   22 ar 
    35   29   22 ar 
    36   26   27 ar 
    37   26   30 ar 
    38   27   28 ar 
    39   30   29 ar 
    40   32   33 1  
    41   35   36 1  
    42   35   37 1  
    43   37   38 1  
    44   39   40 ar 
    45   40   41 ar 
    46   41   42 1  
    47   42   43 2  
    48   42   44 am 
    49    2   45 1  
    50    5   46 1  
    51    7   47 1  
    52    8   48 1  
    53   10   49 1  
    54   10   50 1  
    55   12   51 1  
    56   12   52 1  
    57   14   53 1  
    58   15   54 1  
    59   16   55 1  
    60   16   56 1  
    61   17   57 1  
    62   19   58 1  
    63   21   59 1  
    64   24   60 1  
    65   25   61 1  
    66   28   62 1  
    67   35   63 1  
    68   36   64 1  
    69   37   65 1  
    70   38   66 1  
    71   39   67 1  
    72   40   68 1  
    73   44   69 1  
    74   44   70 1  
@<TRIPOS>SUBSTRUCTURE
     1 DQV         1

