6bhv_ligand
  -I-interpret- 

 72 76  0  0  0  0  0  0  0  0999 V2000
  -19.0700   22.0260   36.3080 O   0  0  0  0  0
  -11.2490   22.9400   39.8900 C   0  0  0  0  0
  -12.3870   22.7680   39.1040 C   0  0  0  0  0
  -19.0720   19.6860   37.1330 O   0  0  0  0  0
  -12.9260   23.8700   38.4420 C   0  0  0  0  0
  -22.1150   28.9190   38.0700 N   0  0  0  0  0
  -12.9130   21.3880   38.8220 C   0  0  0  0  0
  -15.0530   20.3960   38.8480 C   0  0  0  0  0
  -22.6010   30.2830   39.7890 N   0  0  0  0  0
  -16.4780   20.8800   38.9520 C   0  0  0  0  0
  -19.2860   21.5530   38.7480 O   0  0  0  0  0
  -21.5770   24.6020   38.2220 C   0  0  0  0  0
  -20.4800   22.9440   40.4990 O   0  0  0  0  0
  -21.3620   25.5840   37.1100 C   0  0  0  0  0
  -21.4690   27.8960   37.2610 C   0  0  0  0  0
  -24.9950   32.2250   39.5360 N   0  0  0  0  0
  -20.0440   27.5220   37.6450 C   0  0  0  0  0
  -18.4980   23.8900   39.4120 O   0  0  0  0  0
  -19.9410   26.1390   36.9890 C   0  0  0  0  0
  -20.6150   23.5520   38.0910 O   0  0  0  0  0
  -21.8040   29.3480   39.3320 C   0  0  0  0  0
  -25.2300   31.3740   37.3990 N   0  0  0  0  0
  -19.6680   23.0330   39.1740 P   0  0  0  0  0
  -19.5710   26.2050   35.6240 O   0  0  0  0  0
  -19.1150   28.4390   37.0800 O   0  0  0  0  0
  -23.2040   29.6600   37.6810 C   0  0  0  0  0
  -23.8560   29.5980   36.5090 N   0  0  0  0  0
  -24.8470   30.4970   36.4630 C   0  0  0  0  0
  -24.5720   31.3890   38.5830 C   0  0  0  0  0
  -23.4910   30.4960   38.7460 C   0  0  0  0  0
  -22.2260   26.7120   37.3460 O   0  0  0  0  0
  -18.6140   21.0820   37.3950 P   0  0  0  0  0
  -17.0410   21.2410   37.6730 O   0  0  0  0  0
  -14.2500   21.4380   38.2850 O   0  0  0  0  0
  -14.4230   20.0940   40.2070 C   0  0  0  0  0
  -14.5780   18.7280   40.5750 O   0  0  0  0  0
  -12.9340   20.4150   40.0140 C   0  0  0  0  0
  -12.1570   19.2610   39.7250 O   0  0  0  0  0
  -10.6470   24.1840   39.9980 C   0  0  0  0  0
  -11.1800   25.2730   39.3320 C   0  0  0  0  0
  -12.3250   25.1260   38.5450 C   0  0  0  0  0
  -12.8530   26.3000   37.7660 C   0  0  0  0  0
  -12.0610   27.2230   37.4290 O   0  0  0  0  0
  -14.1590   26.3130   37.4540 N   0  0  0  0  0
  -18.7603   22.9130   36.5054 H   0  0  0  0  0
  -10.8284   22.0884   40.4248 H   0  0  0  0  0
  -13.8254   23.7500   37.8381 H   0  0  0  0  0
  -12.1924   20.9977   38.1033 H   0  0  0  0  0
  -15.0838   19.4881   38.2457 H   0  0  0  0  0
  -16.4832   21.7695   39.5820 H   0  0  0  0  0
  -17.0772   20.0676   39.3631 H   0  0  0  0  0
  -22.5855   24.1921   38.1672 H   0  0  0  0  0
  -21.4580   25.0981   39.1852 H   0  0  0  0  0
  -21.2503   22.3872   40.3641 H   0  0  0  0  0
  -21.5683   25.0376   36.1897 H   0  0  0  0  0
  -21.4167   28.3361   36.2651 H   0  0  0  0  0
  -25.7960   32.8324   39.3629 H   0  0  0  0  0
  -24.5169   32.2557   40.4365 H   0  0  0  0  0
  -19.8300   27.5330   38.7137 H   0  0  0  0  0
  -19.1748   25.5282   37.4663 H   0  0  0  0  0
  -20.9681   28.9478   39.9058 H   0  0  0  0  0
  -18.6794   26.5535   35.5518 H   0  0  0  0  0
  -18.2239   28.1868   37.3330 H   0  0  0  0  0
  -25.4206   30.5176   35.5364 H   0  0  0  0  0
  -14.8936   20.6743   41.0006 H   0  0  0  0  0
  -14.1702   18.5802   41.4314 H   0  0  0  0  0
  -12.4976   20.8297   40.9227 H   0  0  0  0  0
  -12.1799   18.6646   40.4769 H   0  0  0  0  0
   -9.7522   24.3043   40.6087 H   0  0  0  0  0
  -10.7047   26.2498   39.4216 H   0  0  0  0  0
  -14.5487   27.0917   36.9229 H   0  0  0  0  0
  -14.7613   25.5441   37.7481 H   0  0  0  0  0
 32  1  1  0  0  0
  3  2  4  0  0  0
  2 39  4  0  0  0
  3  5  4  0  0  0
  7  3  1  0  0  0
 32  4  2  0  0  0
  5 41  4  0  0  0
 15  6  1  0  0  0
  6 21  4  0  0  0
  6 26  4  0  0  0
 34  7  1  0  0  0
  7 37  1  0  0  0
 10  8  1  0  0  0
  8 34  1  0  0  0
  8 35  1  0  0  0
 21  9  4  0  0  0
 30  9  4  0  0  0
 33 10  1  0  0  0
 11 23  1  0  0  0
 32 11  1  0  0  0
 12 14  1  0  0  0
 20 12  1  0  0  0
 23 13  1  0  0  0
 14 19  1  0  0  0
 14 31  1  0  0  0
 15 17  1  0  0  0
 31 15  1  0  0  0
 29 16  1  0  0  0
 19 17  1  0  0  0
 17 25  1  0  0  0
 23 18  2  0  0  0
 19 24  1  0  0  0
 23 20  1  0  0  0
 28 22  4  0  0  0
 29 22  4  0  0  0
 26 27  4  0  0  0
 26 30  4  0  0  0
 27 28  4  0  0  0
 30 29  4  0  0  0
 32 33  1  0  0  0
 35 36  1  0  0  0
 35 37  1  0  0  0
 37 38  1  0  0  0
 39 40  4  0  0  0
 40 41  4  0  0  0
 41 42  1  0  0  0
 42 43  2  0  0  0
 42 44  1  0  0  0
  1 45  1  0  0  0
  2 46  1  0  0  0
  5 47  1  0  0  0
  7 48  1  0  0  0
  8 49  1  0  0  0
 10 50  1  0  0  0
 10 51  1  0  0  0
 12 52  1  0  0  0
 12 53  1  0  0  0
 13 54  1  0  0  0
 14 55  1  0  0  0
 15 56  1  0  0  0
 16 57  1  0  0  0
 16 58  1  0  0  0
 17 59  1  0  0  0
 19 60  1  0  0  0
 21 61  1  0  0  0
 24 62  1  0  0  0
 25 63  1  0  0  0
 28 64  1  0  0  0
 35 65  1  0  0  0
 36 66  1  0  0  0
 37 67  1  0  0  0
 38 68  1  0  0  0
 39 69  1  0  0  0
 40 70  1  0  0  0
 44 71  1  0  0  0
 44 72  1  0  0  0
M  END
$$$$
