5f02_ligand
  -I-interpret- 

 66 70  0  0  0  0  0  0  0  0999 V2000
    8.5080   36.5600   19.2480 N   0  0  0  0  0
    9.3610   35.6120   18.5590 C   0  0  0  0  0
    9.4820   34.3920   19.5130 C   0  0  0  0  0
    9.2800   34.9890   20.8860 C   0  0  0  0  0
    8.2400   36.0890   20.5940 C   0  0  0  0  0
    8.3630   37.1700   21.6830 C   0  0  0  0  0
    8.3370   33.1250   19.1960 S   0  0  0  0  0
    7.2820   37.2290   22.5000 N   0  0  0  0  0
    9.3680   37.8770   21.8490 O   0  0  0  0  0
    7.2270   38.0680   23.6390 C   0  0  0  0  0
    7.7080   37.4120   24.8610 C   0  0  0  0  0
    7.6490   37.9280   26.0530 N   0  0  0  0  0
    7.4430   39.5710   23.4630 C   0  0  0  0  0
    6.0770   39.0630   23.7790 C   0  0  0  0  0
    8.6450   32.0720   20.0890 O   0  0  0  0  0
    7.0450   33.7160   19.2580 O   0  0  0  0  0
    8.6390   32.6520   17.5890 C   0  0  0  0  0
    9.7570   31.9570   17.1300 C   0  0  0  0  0
    9.9560   31.5600   15.8050 C   0  0  0  0  0
    8.9940   31.9070   14.8560 C   0  0  0  0  0
    7.8480   32.6120   15.2580 C   0  0  0  0  0
    7.6890   32.9720   16.5920 C   0  0  0  0  0
   10.9300   31.5080   18.2580 Cl  0  0  0  0  0
    9.2710   31.4880   13.5850 O   0  0  0  0  0
    8.2360   31.7130   12.6250 C   0  0  0  0  0
    7.8910   37.6740   18.7380 C   0  0  0  0  0
    8.1780   38.0990   17.3230 C   0  0  0  0  0
    7.1590   38.3580   19.4650 O   0  0  0  0  0
    7.7910   37.1010   16.1680 C   0  0  0  0  0
    6.8220   38.0850   15.6120 N   0  3  0  0  0
    7.0300   39.0090   16.7440 C   0  0  0  0  0
    9.5290   38.7030   17.2990 C   0  0  0  0  0
    9.8010   39.9070   17.8650 N   0  0  0  0  0
   11.0630   40.3880   17.7620 C   0  0  0  0  0
   12.1030   39.6930   17.1130 C   0  0  0  0  0
   11.7980   38.4700   16.5380 C   0  0  0  0  0
   10.5110   37.9690   16.6250 C   0  0  0  0  0
   13.6880   40.2970   17.0090 Cl  0  0  0  0  0
   10.3372   36.0424   18.3356 H   0  0  0  0  0
    8.9414   35.3248   17.5949 H   0  0  0  0  0
   10.4436   33.8939   19.3891 H   0  0  0  0  0
   10.1981   35.3656   21.3370 H   0  0  0  0  0
    8.9515   34.2654   21.6320 H   0  0  0  0  0
    7.2065   35.7442   20.6279 H   0  0  0  0  0
    6.4745   36.6442   22.2847 H   0  0  0  0  0
    8.1469   36.4192   24.7618 H   0  0  0  0  0
    7.2454   38.8550   26.1881 H   0  0  0  0  0
    7.9124   40.2448   22.7462 H   0  0  0  0  0
    8.1261   40.3402   23.8233 H   0  0  0  0  0
    5.2744   39.2802   24.4838 H   0  0  0  0  0
    5.0604   39.1847   23.4051 H   0  0  0  0  0
   10.8419   30.9926   15.5197 H   0  0  0  0  0
    7.0847   32.8765   14.5262 H   0  0  0  0  0
    6.7946   33.5239   16.8809 H   0  0  0  0  0
    7.3341   31.1849   12.9345 H   0  0  0  0  0
    8.0288   32.7811   12.5596 H   0  0  0  0  0
    8.5587   31.3440   11.6515 H   0  0  0  0  0
    7.4515   36.0959   16.4183 H   0  0  0  0  0
    8.5721   36.6948   15.5253 H   0  0  0  0  0
    5.8741   37.7748   15.3981 H   0  0  0  0  0
    6.9622   38.4308   14.6627 H   0  0  0  0  0
    7.2345   40.0605   16.5424 H   0  0  0  0  0
    6.1847   39.2696   17.3809 H   0  0  0  0  0
   11.2850   41.3600   18.2026 H   0  0  0  0  0
   12.5704   37.9034   16.0180 H   0  0  0  0  0
   10.2640   37.0091   16.1715 H   0  0  0  0  0
  1  2  1  0  0  0
  1  5  1  0  0  0
  1 26  1  0  0  0
  2  3  1  0  0  0
  3  4  1  0  0  0
  3  7  1  0  0  0
  4  5  1  0  0  0
  5  6  1  0  0  0
  6  8  1  0  0  0
  6  9  2  0  0  0
  7 15  2  0  0  0
  7 16  2  0  0  0
  7 17  1  0  0  0
  8 10  1  0  0  0
 10 11  1  0  0  0
 10 13  1  0  0  0
 10 14  1  0  0  0
 11 12  2  0  0  0
 13 14  1  0  0  0
 17 18  4  0  0  0
 17 22  4  0  0  0
 18 19  4  0  0  0
 18 23  1  0  0  0
 19 20  4  0  0  0
 20 21  4  0  0  0
 20 24  1  0  0  0
 21 22  4  0  0  0
 24 25  1  0  0  0
 26 27  1  0  0  0
 26 28  2  0  0  0
 27 29  1  0  0  0
 27 31  1  0  0  0
 27 32  1  0  0  0
 29 30  1  0  0  0
 30 31  1  0  0  0
 32 33  4  0  0  0
 32 37  4  0  0  0
 33 34  4  0  0  0
 34 35  4  0  0  0
 35 36  4  0  0  0
 35 38  1  0  0  0
 36 37  4  0  0  0
  2 39  1  0  0  0
  2 40  1  0  0  0
  3 41  1  0  0  0
  4 42  1  0  0  0
  4 43  1  0  0  0
  5 44  1  0  0  0
  8 45  1  0  0  0
 11 46  1  0  0  0
 12 47  1  0  0  0
 13 48  1  0  0  0
 13 49  1  0  0  0
 14 50  1  0  0  0
 14 51  1  0  0  0
 19 52  1  0  0  0
 21 53  1  0  0  0
 22 54  1  0  0  0
 25 55  1  0  0  0
 25 56  1  0  0  0
 25 57  1  0  0  0
 29 58  1  0  0  0
 29 59  1  0  0  0
 30 60  1  0  0  0
 30 61  1  0  0  0
 31 62  1  0  0  0
 31 63  1  0  0  0
 34 64  1  0  0  0
 36 65  1  0  0  0
 37 66  1  0  0  0
M  END
$$$$
