### 
### Created by X-TOOL on Mon Sep 10 21:13:26 2018
### 

@<TRIPOS>MOLECULE
5f02_ligand
   66    70     1     0     0
SMALL
GAST_HUCK


@<TRIPOS>ATOM
      1 N1          8.5080   36.5600   19.2480 N.am      1 5T9        -0.2553
      2 C2          9.3610   35.6120   18.5590 C.3       1 5T9         0.0587
      3 C3          9.4820   34.3920   19.5130 C.3       1 5T9         0.1053
      4 C4          9.2800   34.9890   20.8860 C.3       1 5T9         0.0123
      5 C5          8.2400   36.0890   20.5940 C.3       1 5T9         0.1343
      6 C6          8.3630   37.1700   21.6830 C.2       1 5T9         0.1971
      7 S7          8.3370   33.1250   19.1960 S.o2      1 5T9        -0.0024
      8 N8          7.2820   37.2290   22.5000 N.am      1 5T9        -0.2955
      9 O9          9.3680   37.8770   21.8490 O.2       1 5T9        -0.3951
     10 C10         7.2270   38.0680   23.6390 C.3       1 5T9         0.0783
     11 C11         7.7080   37.4120   24.8610 C.2       1 5T9         0.0437
     12 N12         7.6490   37.9280   26.0530 N.2       1 5T9        -0.2686
     13 C13         7.4430   39.5710   23.4630 C.3       1 5T9        -0.0407
     14 C14         6.0770   39.0630   23.7790 C.3       1 5T9        -0.0407
     15 O15         8.6450   32.0720   20.0890 O.2       1 5T9        -0.1703
     16 O16         7.0450   33.7160   19.2580 O.2       1 5T9        -0.1703
     17 C17         8.6390   32.6520   17.5890 C.ar      1 5T9         0.0913
     18 C18         9.7570   31.9570   17.1300 C.ar      1 5T9         0.0564
     19 C19         9.9560   31.5600   15.8050 C.ar      1 5T9        -0.0175
     20 C20         8.9940   31.9070   14.8560 C.ar      1 5T9         0.0913
     21 C21         7.8480   32.6120   15.2580 C.ar      1 5T9        -0.0312
     22 C22         7.6890   32.9720   16.5920 C.ar      1 5T9        -0.0453
     23 CL2        10.9300   31.5080   18.2580 Cl        1 5T9        -0.0717
     24 O24         9.2710   31.4880   13.5850 O.3       1 5T9        -0.3212
     25 C25         8.2360   31.7130   12.6250 C.3       1 5T9         0.0594
     26 C26         7.8910   37.6740   18.7380 C.2       1 5T9         0.1866
     27 C27         8.1780   38.0990   17.3230 C.3       1 5T9         0.1377
     28 O28         7.1590   38.3580   19.4650 O.2       1 5T9        -0.3626
     29 C29         7.7910   37.1010   16.1680 C.3       1 5T9        -0.0336
     30 N30         6.8220   38.0850   15.6120 N.4       1 5T9         0.2164
     31 C31         7.0300   39.0090   16.7440 C.3       1 5T9        -0.0336
     32 C32         9.5290   38.7030   17.2990 C.ar      1 5T9         0.0449
     33 N33         9.8010   39.9070   17.8650 N.ar      1 5T9        -0.2711
     34 C34        11.0630   40.3880   17.7620 C.ar      1 5T9         0.0560
     35 C35        12.1030   39.6930   17.1130 C.ar      1 5T9         0.0995
     36 C36        11.7980   38.4700   16.5380 C.ar      1 5T9         0.0004
     37 C37        10.5110   37.9690   16.6250 C.ar      1 5T9        -0.0125
     38 CL3        13.6880   40.2970   17.0090 Cl        1 5T9        -0.0331
     39 H1         10.3513   36.0523   18.3707 H         1 5T9         0.0544
     40 H2          8.9066   35.3095   17.6040 H         1 5T9         0.0544
     41 H3         10.4921   33.9637   19.4336 H         1 5T9         0.0561
     42 H4         10.2145   35.4144   21.2805 H         1 5T9         0.0332
     43 H5          8.8885   34.2440   21.5943 H         1 5T9         0.0332
     44 H6          7.2237   35.6698   20.6297 H         1 5T9         0.0804
     45 H7          6.4904   36.6556   22.2889 H         1 5T9         0.1774
     46 H8          8.1465   36.4201   24.7619 H         1 5T9         0.1090
     47 H9          8.0021   37.4119   26.8436 H         1 5T9         0.2165
     48 H10         7.6580   39.9805   22.4650 H         1 5T9         0.0220
     49 H11         8.0062   40.1360   24.2203 H         1 5T9         0.0220
     50 H12         5.6366   39.2553   24.7685 H         1 5T9         0.0220
     51 H13         5.2883   39.0998   23.0131 H         1 5T9         0.0220
     52 H14        10.8370   30.9958   15.5212 H         1 5T9         0.0547
     53 H15         7.0889   32.8751   14.5302 H         1 5T9         0.0544
     54 H16         6.7995   33.5209   16.8793 H         1 5T9         0.0608
     55 H17         8.5605   31.3410   11.6420 H         1 5T9         0.0577
     56 H18         8.0259   32.7907   12.5580 H         1 5T9         0.0577
     57 H19         7.3252   31.1805   12.9361 H         1 5T9         0.0577
     58 H20         7.3262   36.1688   16.5215 H         1 5T9         0.0719
     59 H21         8.6223   36.8616   15.4886 H         1 5T9         0.0719
     60 H22         5.8802   37.7319   15.5464 H         1 5T9         0.1997
     61 H23         7.1002   38.4674   14.7219 H         1 5T9         0.1997
     62 H24         7.3677   40.0115   16.4424 H         1 5T9         0.0719
     63 H25         6.1581   39.1002   17.4084 H         1 5T9         0.0719
     64 H26        11.2837   41.3546   18.2001 H         1 5T9         0.0940
     65 H27        12.5662   37.9065   16.0208 H         1 5T9         0.0814
     66 H28        10.2654   37.0144   16.1740 H         1 5T9         0.0945
@<TRIPOS>BOND
     1    1    2 1  
     2    1    5 1  
     3    1   26 am 
     4    2    3 1  
     5    3    4 1  
     6    3    7 1  
     7    4    5 1  
     8    5    6 1  
     9    6    8 am 
    10    6    9 2  
    11    7   15 2  
    12    7   16 2  
    13    7   17 1  
    14    8   10 1  
    15   10   11 1  
    16   10   13 1  
    17   10   14 1  
    18   11   12 2  
    19   13   14 1  
    20   17   18 ar 
    21   17   22 ar 
    22   18   19 ar 
    23   18   23 1  
    24   19   20 ar 
    25   20   21 ar 
    26   20   24 1  
    27   21   22 ar 
    28   24   25 1  
    29   26   27 1  
    30   26   28 2  
    31   27   29 1  
    32   27   31 1  
    33   27   32 1  
    34   29   30 1  
    35   30   31 1  
    36   32   33 ar 
    37   32   37 ar 
    38   33   34 ar 
    39   34   35 ar 
    40   35   36 ar 
    41   35   38 1  
    42   36   37 ar 
    43    2   39 1  
    44    2   40 1  
    45    3   41 1  
    46    4   42 1  
    47    4   43 1  
    48    5   44 1  
    49    8   45 1  
    50   11   46 1  
    51   12   47 1  
    52   13   48 1  
    53   13   49 1  
    54   14   50 1  
    55   14   51 1  
    56   19   52 1  
    57   21   53 1  
    58   22   54 1  
    59   25   55 1  
    60   25   56 1  
    61   25   57 1  
    62   29   58 1  
    63   29   59 1  
    64   30   60 1  
    65   30   61 1  
    66   31   62 1  
    67   31   63 1  
    68   34   64 1  
    69   36   65 1  
    70   37   66 1  
@<TRIPOS>SUBSTRUCTURE
     1 5T9         1

