4qf7_ligand
  -I-interpret- 

 53 56  0  0  0  0  0  0  0  0999 V2000
   21.8860    9.7970   -7.0780 C   0  0  0  0  0
   21.7160   10.8680   -8.1350 C   0  0  0  0  0
   22.1340   10.3530   -9.4640 C   0  0  0  0  0
   21.8180    8.9500   -9.7990 C   0  0  0  0  0
   21.5540    8.0760   -8.8060 C   0  0  0  0  0
   21.5840    6.6140   -9.1840 C   0  0  0  0  0
   21.7810    5.6710   -8.0550 C   0  0  0  0  0
   21.2450    6.1560   -6.7190 C   0  0  0  0  0
   21.6180    7.5380   -6.2920 C   0  0  0  0  0
   21.2090    8.5380   -7.3970 C   0  0  0  0  0
   21.1870    7.9140   -4.8150 C   0  0  0  0  0
   20.5170    6.7800   -3.9840 C   0  0  0  0  0
   20.4900    5.3530   -4.5540 C   0  0  0  0  0
   21.5770    5.2360   -5.5950 C   0  0  0  0  0
   21.8190    3.8220   -5.8870 C   0  0  0  0  0
   22.0200    3.5220   -4.4650 C   0  0  0  0  0
   20.8490    4.0980   -3.7360 C   0  0  0  0  0
   19.1190    5.2780   -5.1420 C   0  0  0  0  0
   20.0000    8.8830   -8.0880 C   0  0  0  0  0
   20.0900    2.7870   -3.7350 C   0  0  0  0  0
   18.9460    2.3760   -4.5790 C   0  0  0  0  0
   22.6280   11.1190  -10.2300 O   0  0  0  0  0
   20.8220    9.1470   -4.7110 O   0  0  0  0  0
   20.4300    1.9200   -3.0020 O   0  0  0  0  0
   18.9380    0.9600   -4.5460 O   0  0  0  0  0
   21.4463   10.1777   -6.1562 H   0  0  0  0  0
   22.9519    9.5823   -7.0016 H   0  0  0  0  0
   22.3363   11.7257   -7.8750 H   0  0  0  0  0
   20.6666   11.1591   -8.1806 H   0  0  0  0  0
   21.7983    8.6237  -10.8388 H   0  0  0  0  0
   22.4344    6.4820   -9.8530 H   0  0  0  0  0
   20.6106    6.3835   -9.6170 H   0  0  0  0  0
   22.8566    5.5403   -7.9358 H   0  0  0  0  0
   21.2347    4.7611   -8.3037 H   0  0  0  0  0
   20.1752    6.1710   -6.9273 H   0  0  0  0  0
   22.7025    7.5941   -6.1978 H   0  0  0  0  0
   19.4693    7.0708   -3.9066 H   0  0  0  0  0
   21.1149    6.7076   -3.0755 H   0  0  0  0  0
   22.5571    5.5775   -5.2619 H   0  0  0  0  0
   22.5977    3.5536   -6.6009 H   0  0  0  0  0
   21.0711    3.2605   -6.4470 H   0  0  0  0  0
   22.9534    3.9544   -4.1046 H   0  0  0  0  0
   22.0898    2.4467   -4.3006 H   0  0  0  0  0
   20.8005    4.5268   -2.7350 H   0  0  0  0  0
   18.3794    5.4387   -4.3576 H   0  0  0  0  0
   19.0110    6.0460   -5.9079 H   0  0  0  0  0
   18.9696    4.2947   -5.5880 H   0  0  0  0  0
   19.6185    8.0056   -8.6103 H   0  0  0  0  0
   19.2583    9.2303   -7.3687 H   0  0  0  0  0
   20.2078    9.6743   -8.8082 H   0  0  0  0  0
   19.0475    2.7503   -5.5977 H   0  0  0  0  0
   18.0080    2.7886   -4.2074 H   0  0  0  0  0
   18.2109    0.6327   -5.0806 H   0  0  0  0  0
  1  2  1  0  0  0
  1 10  1  0  0  0
  2  3  1  0  0  0
  3  4  1  0  0  0
  3 22  2  0  0  0
  4  5  2  0  0  0
  5  6  1  0  0  0
  5 10  1  0  0  0
  6  7  1  0  0  0
  7  8  1  0  0  0
  8  9  1  0  0  0
  8 14  1  0  0  0
  9 10  1  0  0  0
  9 11  1  0  0  0
 10 19  1  0  0  0
 11 12  1  0  0  0
 11 23  2  0  0  0
 12 13  1  0  0  0
 13 14  1  0  0  0
 13 17  1  0  0  0
 13 18  1  0  0  0
 14 15  1  0  0  0
 15 16  1  0  0  0
 16 17  1  0  0  0
 17 20  1  0  0  0
 20 21  1  0  0  0
 20 24  2  0  0  0
 21 25  1  0  0  0
  1 26  1  0  0  0
  1 27  1  0  0  0
  2 28  1  0  0  0
  2 29  1  0  0  0
  4 30  1  0  0  0
  6 31  1  0  0  0
  6 32  1  0  0  0
  7 33  1  0  0  0
  7 34  1  0  0  0
  8 35  1  0  0  0
  9 36  1  0  0  0
 12 37  1  0  0  0
 12 38  1  0  0  0
 14 39  1  0  0  0
 15 40  1  0  0  0
 15 41  1  0  0  0
 16 42  1  0  0  0
 16 43  1  0  0  0
 17 44  1  0  0  0
 18 45  1  0  0  0
 18 46  1  0  0  0
 18 47  1  0  0  0
 19 48  1  0  0  0
 19 49  1  0  0  0
 19 50  1  0  0  0
 21 51  1  0  0  0
 21 52  1  0  0  0
 25 53  1  0  0  0
M  END
$$$$
