1jaq_ligand
  -I-interpret- 

 43 42  0  0  0  0  0  0  0  0999 V2000
   26.8430   59.7710   53.4900 C   0  0  0  0  0
   27.2550   58.6470   53.6670 O   0  0  0  0  0
   27.7710   60.8910   52.9840 C   0  0  0  0  0
   28.1990   60.6030   51.5540 C   0  0  0  0  0
   27.9860   61.4070   50.6410 O   0  0  0  0  0
   29.0010   60.9470   53.8590 C   0  0  0  0  0
   28.9460   61.9840   54.9840 C   0  0  0  0  0
   29.2660   63.3870   54.4510 C   0  0  0  0  0
   27.5730   61.9580   55.7150 C   0  0  0  0  0
   25.5830   60.0800   53.7210 N   0  0  0  0  0
   24.7190   59.0810   54.1600 O   0  0  0  0  0
   28.8560   59.4730   51.3550 N   0  0  0  0  0
   29.3250   59.1540   50.0270 C   0  0  0  0  0
   28.2420   58.4100   49.2240 C   0  0  0  0  0
   28.4690   58.0280   48.0740 O   0  0  0  0  0
   30.6140   58.3850   50.1030 C   0  0  0  0  0
   25.9370   56.1170   48.8290 C   0  0  0  0  0
   26.3920   55.2060   49.6780 N   0  0  0  0  0
   25.1680   55.8360   47.9080 O   0  0  0  0  0
   25.9430   57.5180   49.3080 C   0  0  0  0  0
   27.1300   58.1020   49.9100 N   0  0  0  0  0
   27.2382   61.8412   53.0195 H   0  0  0  0  0
   29.8344   61.2255   53.2140 H   0  0  0  0  0
   29.0944   59.9706   54.3345 H   0  0  0  0  0
   29.7092   61.7206   55.7163 H   0  0  0  0  0
   28.4915   63.6924   53.7474 H   0  0  0  0  0
   29.3013   64.0909   55.2825 H   0  0  0  0  0
   30.2317   63.3708   53.9458 H   0  0  0  0  0
   27.5969   62.6521   56.5551 H   0  0  0  0  0
   26.7871   62.2536   55.0200 H   0  0  0  0  0
   27.3764   60.9501   56.0804 H   0  0  0  0  0
   25.2473   61.0329   53.5808 H   0  0  0  0  0
   23.8418   59.4504   54.2851 H   0  0  0  0  0
   29.0296   58.8338   52.1307 H   0  0  0  0  0
   29.5289   60.0803   49.4899 H   0  0  0  0  0
   30.4351   57.4254   50.5880 H   0  0  0  0  0
   30.9964   58.2188   49.0959 H   0  0  0  0  0
   31.3422   58.9550   50.6800 H   0  0  0  0  0
   26.1065   54.2315   49.5817 H   0  0  0  0  0
   27.0275   55.4796   50.4274 H   0  0  0  0  0
   25.2095   57.5234   50.1142 H   0  0  0  0  0
   25.7907   58.1060   48.4029 H   0  0  0  0  0
   27.1173   58.2888   50.9127 H   0  0  0  0  0
  1 10  1  0  0  0
  3  1  1  0  0  0
  1  2  2  0  0  0
  3  6  1  0  0  0
  4  3  1  0  0  0
  4  5  2  0  0  0
  6  7  1  0  0  0
  7  9  1  0  0  0
  7  8  1  0  0  0
 10 11  1  0  0  0
 14 13  1  0  0  0
 13 16  1  0  0  0
 13 12  1  0  0  0
 14 15  2  0  0  0
 20 17  1  0  0  0
 17 19  2  0  0  0
 17 18  1  0  0  0
 21 20  1  0  0  0
 12  4  1  0  0  0
 21 14  1  0  0  0
  3 22  1  0  0  0
  6 23  1  0  0  0
  6 24  1  0  0  0
  7 25  1  0  0  0
  8 26  1  0  0  0
  8 27  1  0  0  0
  8 28  1  0  0  0
  9 29  1  0  0  0
  9 30  1  0  0  0
  9 31  1  0  0  0
 10 32  1  0  0  0
 11 33  1  0  0  0
 12 34  1  0  0  0
 13 35  1  0  0  0
 16 36  1  0  0  0
 16 37  1  0  0  0
 16 38  1  0  0  0
 18 39  1  0  0  0
 18 40  1  0  0  0
 20 41  1  0  0  0
 20 42  1  0  0  0
 21 43  1  0  0  0
M  END
$$$$
