3fei_ligand
  -I-interpret- 

 51 53  0  0  0  0  0  0  0  0999 V2000
   48.0770   31.0950   35.1900 N   0  0  0  0  0
   48.3560   31.4880   36.4230 C   0  0  0  0  0
   47.3110   32.7150   37.0750 S   0  0  0  0  0
   46.9890   31.7680   34.7000 C   0  0  0  0  0
   46.4480   32.6790   35.5610 C   0  0  0  0  0
   48.4710   38.0940   28.5530 C   0  0  0  0  0
   46.3480   35.4980   30.2460 C   0  0  0  0  0
   46.6050   36.4950   29.1620 C   0  0  0  0  0
   49.4190   31.0020   37.2940 C   0  0  0  0  0
   45.4390   35.7820   31.2780 C   0  0  0  0  0
   47.8950   37.2030   29.6000 C   0  0  0  0  0
   45.2200   34.8520   32.2780 C   0  0  0  0  0
   48.2400   39.2980   28.4940 O   0  0  0  0  0
   47.0560   34.2920   30.2290 C   0  0  0  0  0
   49.5380   31.5550   38.5760 C   0  0  0  0  0
   50.3150   30.0000   36.8960 C   0  0  0  0  0
   46.3950   31.5680   33.3200 C   0  0  0  0  0
   45.9290   33.6560   32.2320 C   0  0  0  0  0
   45.6680   32.7760   33.2350 O   0  0  0  0  0
   49.2860   37.5030   27.6590 O   0  0  0  0  0
   51.4260   30.1400   39.0380 C   0  0  0  0  0
   46.8460   33.3470   31.2280 C   0  0  0  0  0
   50.5380   31.1330   39.4460 C   0  0  0  0  0
   51.3150   29.5760   37.7670 C   0  0  0  0  0
   52.6980   29.5990   40.1390 Cl  0  0  0  0  0
   47.6990   37.9910   30.7720 O   0  0  0  0  0
   44.6710   37.0660   31.3160 C   0  0  0  0  0
   48.9290   38.6250   31.1170 C   0  0  0  0  0
   48.6920   39.6220   32.2510 C   0  0  0  0  0
   45.5856   33.3046   35.3308 H   0  0  0  0  0
   45.7754   37.1911   29.0381 H   0  0  0  0  0
   46.7061   36.0232   28.1846 H   0  0  0  0  0
   48.5931   36.3891   29.7957 H   0  0  0  0  0
   44.5104   35.0510   33.0811 H   0  0  0  0  0
   47.7728   34.0924   29.4325 H   0  0  0  0  0
   48.8374   32.3264   38.8959 H   0  0  0  0  0
   50.2289   29.5532   35.9055 H   0  0  0  0  0
   45.8067   30.6593   33.1923 H   0  0  0  0  0
   47.1171   31.4007   32.5208 H   0  0  0  0  0
   49.3503   36.5658   27.8569 H   0  0  0  0  0
   47.3803   32.3969   31.2260 H   0  0  0  0  0
   50.6261   31.5754   40.4383 H   0  0  0  0  0
   52.0140   28.8002   37.4545 H   0  0  0  0  0
   45.3675   37.9032   31.3617 H   0  0  0  0  0
   44.0597   37.1490   30.4174 H   0  0  0  0  0
   44.0285   37.0777   32.1964 H   0  0  0  0  0
   49.3209   39.1524   30.2473 H   0  0  0  0  0
   49.6462   37.8712   31.4417 H   0  0  0  0  0
   47.9742   40.3754   31.9266 H   0  0  0  0  0
   48.2994   39.0948   33.1205 H   0  0  0  0  0
   49.6340   40.1044   32.5118 H   0  0  0  0  0
  1  2  4  0  0  0
  4  1  4  0  0  0
  3  2  4  0  0  0
  2  9  1  0  0  0
  5  3  4  0  0  0
  4  5  4  0  0  0
 17  4  1  0  0  0
 11  6  1  0  0  0
  6 13  2  0  0  0
  6 20  1  0  0  0
  7  8  1  0  0  0
 10  7  4  0  0  0
  7 14  4  0  0  0
  8 11  1  0  0  0
  9 15  4  0  0  0
  9 16  4  0  0  0
 12 10  4  0  0  0
 10 27  1  0  0  0
 11 26  1  0  0  0
 18 12  4  0  0  0
 14 22  4  0  0  0
 15 23  4  0  0  0
 16 24  4  0  0  0
 19 17  1  0  0  0
 18 19  1  0  0  0
 18 22  4  0  0  0
 23 21  4  0  0  0
 21 24  4  0  0  0
 21 25  1  0  0  0
 26 28  1  0  0  0
 28 29  1  0  0  0
  5 30  1  0  0  0
  8 31  1  0  0  0
  8 32  1  0  0  0
 11 33  1  0  0  0
 12 34  1  0  0  0
 14 35  1  0  0  0
 15 36  1  0  0  0
 16 37  1  0  0  0
 17 38  1  0  0  0
 17 39  1  0  0  0
 20 40  1  0  0  0
 22 41  1  0  0  0
 23 42  1  0  0  0
 24 43  1  0  0  0
 27 44  1  0  0  0
 27 45  1  0  0  0
 27 46  1  0  0  0
 28 47  1  0  0  0
 28 48  1  0  0  0
 29 49  1  0  0  0
 29 50  1  0  0  0
 29 51  1  0  0  0
M  END
$$$$
