3bum_ligand
  -I-interpret- 

139140  0  0  0  0  0  0  0  0999 V2000
   64.5380   39.0290   -1.8620 N   0  3  0  0  0
   65.0240   38.9280   -3.2370 C   0  0  0  0  0
   64.6130   40.1060   -4.1050 C   0  0  0  0  0
   63.4600   40.5400   -4.0590 O   0  0  0  0  0
   64.5110   37.6510   -3.9260 C   0  0  0  0  0
   64.8770   36.5080   -3.1380 O   0  0  0  0  0
   65.1250   37.5150   -5.3290 C   0  0  0  0  0
   65.5470   40.6330   -4.8870 N   0  0  0  0  0
   65.2080   41.7460   -5.7540 C   0  0  0  0  0
   64.5470   41.2550   -7.0420 C   0  0  0  0  0
   64.7710   40.1190   -7.4690 O   0  0  0  0  0
   66.4500   42.5900   -6.0610 C   0  0  0  0  0
   67.0530   43.2390   -4.8030 C   0  0  0  0  0
   66.3510   43.9160   -4.0460 O   0  0  0  0  0
   68.3590   43.0410   -4.5910 N   0  0  0  0  0
   63.7120   42.0810   -7.6560 N   0  0  0  0  0
   63.0490   41.6190   -8.8460 C   0  0  0  0  0
   63.8210   41.7080  -10.1560 C   0  0  0  0  0
   64.0690   42.8000  -10.6690 O   0  0  0  0  0
   61.7090   42.3280   -9.0560 C   0  0  0  0  0
   61.3350   42.3310  -10.5510 C   0  0  0  0  0
   59.9210   41.8920  -10.8610 C   0  0  0  0  0
   59.6090   40.6750  -10.8250 O   0  0  0  0  0
   59.1020   42.7770  -11.1700 O   0  0  0  0  0
   64.1870   40.5460  -10.6840 N   0  0  0  0  0
   64.8360   40.4570  -11.9690 C   0  0  0  0  0
   63.8390   39.9580  -12.9930 C   0  0  0  0  0
   63.2020   38.9280  -12.7780 O   0  0  0  0  0
   66.0330   39.5210  -11.9070 C   0  0  0  0  0
   67.1470   40.1450  -11.1150 C   0  0  0  0  0
   67.8830   41.2210  -11.6580 C   0  0  0  0  0
   67.4550   39.6510   -9.8130 C   0  0  0  0  0
   68.9130   41.7980  -10.9040 C   0  0  0  0  0
   68.4880   40.2150   -9.0320 C   0  0  0  0  0
   69.2040   41.2980   -9.6120 C   0  0  0  0  0
   70.2510   41.9030   -8.8370 O   0  0  0  0  0
   70.8120   41.3990   -7.3840 P   0  0  0  0  0
   69.7190   41.4490   -6.4270 O   0  0  0  0  0
   71.9120   42.3160   -6.9700 O   0  0  0  0  0
   71.3150   39.9790   -7.4880 O   0  0  0  0  0
   63.6950   40.6880  -14.0940 N   0  0  0  0  0
   62.7250   40.3290  -15.1010 C   0  0  0  0  0
   63.3110   39.8400  -16.4300 C   0  0  0  0  0
   64.4690   40.0690  -16.7240 O   0  0  0  0  0
   61.7760   41.5300  -15.3700 C   0  0  0  0  0
   62.5430   42.7360  -15.5040 O   0  0  0  0  0
   60.8150   41.7050  -14.2160 C   0  0  0  0  0
   62.4960   39.1540  -17.2180 N   0  0  0  0  0
   62.9230   38.6580  -18.5120 C   0  0  0  0  0
   63.5940   39.7210  -19.3950 C   0  0  0  0  0
   63.2220   40.9000  -19.3560 O   0  0  0  0  0
   61.7220   38.0680  -19.2590 C   0  0  0  0  0
   60.4340   38.8860  -19.1190 C   0  0  0  0  0
   59.2510   38.2120  -19.7900 C   0  0  0  0  0
   59.2650   36.9630  -19.8700 O   0  0  0  0  0
   58.3080   38.9180  -20.2250 O   0  0  0  0  0
   64.5810   39.3030  -20.1810 N   0  0  0  0  0
   65.2650   40.2390  -21.0450 C   0  0  0  0  0
   64.3010   40.8960  -22.0150 C   0  0  0  0  0
   63.3440   40.2560  -22.4880 O   0  0  0  0  0
   64.5340   42.1780  -22.3420 N   0  0  0  0  0
   63.6970   42.9540  -23.2610 C   0  0  0  0  0
   63.5710   42.2780  -24.6230 C   0  0  0  0  0
   64.5770   41.9410  -25.2470 O   0  0  0  0  0
   64.4290   44.2970  -23.3710 C   0  0  0  0  0
   65.3020   44.3480  -22.1590 C   0  0  0  0  0
   65.7270   42.9440  -21.9400 C   0  0  0  0  0
   62.3200   42.0930  -25.0410 N   0  0  0  0  0
   61.9140   41.4860  -26.3050 C   0  0  0  0  0
   62.6180   40.2000  -26.7710 C   0  0  0  0  0
   63.8090   39.9880  -26.5330 O   0  0  0  0  0
   61.9440   42.5540  -27.4140 C   0  0  0  0  0
   60.7840   43.3830  -27.2710 O   0  0  0  0  0
   61.9420   41.9340  -28.7890 C   0  0  0  0  0
   61.9226   39.2917  -27.4494 O   0  0  0  0  0
   64.8966   39.8845   -1.4379 H   0  0  0  0  0
   63.5182   39.0506   -1.8638 H   0  0  0  0  0
   64.8612   38.2221   -1.3283 H   0  0  0  0  0
   66.1101   38.9113   -3.1463 H   0  0  0  0  0
   63.4266   37.7112   -4.0182 H   0  0  0  0  0
   64.4951   36.5898   -2.2610 H   0  0  0  0  0
   66.2104   37.4598   -5.2454 H   0  0  0  0  0
   64.7491   36.6079   -5.8023 H   0  0  0  0  0
   64.8492   38.3812   -5.9304 H   0  0  0  0  0
   66.4957   40.2585   -4.8786 H   0  0  0  0  0
   64.4897   42.3774   -5.2310 H   0  0  0  0  0
   66.1521   43.3892   -6.7397 H   0  0  0  0  0
   67.2040   41.9313   -6.4918 H   0  0  0  0  0
   68.8124   43.4570   -3.7775 H   0  0  0  0  0
   68.9013   42.4741   -5.2429 H   0  0  0  0  0
   63.5439   43.0197   -7.2942 H   0  0  0  0  0
   62.9328   40.5566   -8.6317 H   0  0  0  0  0
   61.7923   43.3575   -8.7076 H   0  0  0  0  0
   60.9359   41.8014   -8.4965 H   0  0  0  0  0
   61.9988   41.6190  -11.0415 H   0  0  0  0  0
   61.4256   43.3615  -10.8946 H   0  0  0  0  0
   60.3748   40.1570  -10.5667 H   0  0  0  0  0
   64.0032   39.6881  -10.1638 H   0  0  0  0  0
   65.1957   41.4455  -12.2546 H   0  0  0  0  0
   66.3841   39.3268  -12.9205 H   0  0  0  0  0
   65.7317   38.5917  -11.4236 H   0  0  0  0  0
   67.6519   41.5988  -12.6540 H   0  0  0  0  0
   66.8790   38.8176   -9.4107 H   0  0  0  0  0
   69.4886   42.6294  -11.3109 H   0  0  0  0  0
   68.7241   39.8395   -8.0363 H   0  0  0  0  0
   72.6240   42.2702   -7.6123 H   0  0  0  0  0
   72.0372   39.9420   -8.1194 H   0  0  0  0  0
   64.2782   41.5138  -14.2295 H   0  0  0  0  0
   62.1869   39.4771  -14.6854 H   0  0  0  0  0
   61.2218   41.3308  -16.2872 H   0  0  0  0  0
   61.9512   43.4735  -15.6699 H   0  0  0  0  0
   60.2204   40.7989  -14.0994 H   0  0  0  0  0
   61.3777   41.8921  -13.3014 H   0  0  0  0  0
   60.1565   42.5497  -14.4182 H   0  0  0  0  0
   61.5425   38.9698  -16.9060 H   0  0  0  0  0
   63.6762   37.8958  -18.3125 H   0  0  0  0  0
   61.5274   37.0847  -18.8307 H   0  0  0  0  0
   61.9786   38.0497  -20.3182 H   0  0  0  0  0
   60.5916   39.8516  -19.5995 H   0  0  0  0  0
   60.2097   38.9863  -18.0571 H   0  0  0  0  0
   58.5011   39.8440  -20.0612 H   0  0  0  0  0
   64.8562   38.3208  -20.1746 H   0  0  0  0  0
   66.0188   39.6977  -21.6167 H   0  0  0  0  0
   65.7195   41.0140  -20.4277 H   0  0  0  0  0
   62.6725   43.0567  -22.9033 H   0  0  0  0  0
   63.7363   45.1376  -23.4111 H   0  0  0  0  0
   65.0053   44.3738  -24.2930 H   0  0  0  0  0
   64.7743   44.7520  -21.2951 H   0  0  0  0  0
   66.1541   45.0130  -22.2999 H   0  0  0  0  0
   66.6167   42.6753  -22.5095 H   0  0  0  0  0
   66.0321   42.7475  -20.9122 H   0  0  0  0  0
   61.5746   42.4052  -24.4186 H   0  0  0  0  0
   60.9082   41.1219  -26.0956 H   0  0  0  0  0
   62.8608   43.1348  -27.3128 H   0  0  0  0  0
   60.7865   44.0558  -27.9558 H   0  0  0  0  0
   62.8206   41.2987  -28.9010 H   0  0  0  0  0
   61.0403   41.3346  -28.9146 H   0  0  0  0  0
   61.9636   42.7222  -29.5416 H   0  0  0  0  0
   61.0183   39.5961  -27.5551 H   0  0  0  0  0
  1  2  1  0  0  0
  2  3  1  0  0  0
  2  5  1  0  0  0
  3  4  2  0  0  0
  3  8  1  0  0  0
  5  6  1  0  0  0
  5  7  1  0  0  0
  8  9  1  0  0  0
  9 10  1  0  0  0
  9 12  1  0  0  0
 10 11  2  0  0  0
 10 16  1  0  0  0
 12 13  1  0  0  0
 13 14  2  0  0  0
 13 15  1  0  0  0
 16 17  1  0  0  0
 17 18  1  0  0  0
 17 20  1  0  0  0
 18 19  2  0  0  0
 18 25  1  0  0  0
 20 21  1  0  0  0
 21 22  1  0  0  0
 22 23  1  0  0  0
 22 24  2  0  0  0
 25 26  1  0  0  0
 26 27  1  0  0  0
 26 29  1  0  0  0
 27 28  2  0  0  0
 27 41  1  0  0  0
 29 30  1  0  0  0
 30 31  4  0  0  0
 30 32  4  0  0  0
 31 33  4  0  0  0
 32 34  4  0  0  0
 33 35  4  0  0  0
 34 35  4  0  0  0
 35 36  1  0  0  0
 36 37  1  0  0  0
 37 38  2  0  0  0
 37 39  1  0  0  0
 37 40  1  0  0  0
 41 42  1  0  0  0
 42 43  1  0  0  0
 42 45  1  0  0  0
 43 44  2  0  0  0
 43 48  1  0  0  0
 45 46  1  0  0  0
 45 47  1  0  0  0
 48 49  1  0  0  0
 49 50  1  0  0  0
 49 52  1  0  0  0
 50 51  2  0  0  0
 50 57  1  0  0  0
 52 53  1  0  0  0
 53 54  1  0  0  0
 54 55  2  0  0  0
 54 56  1  0  0  0
 57 58  1  0  0  0
 58 59  1  0  0  0
 59 60  2  0  0  0
 59 61  1  0  0  0
 61 62  1  0  0  0
 61 67  1  0  0  0
 62 63  1  0  0  0
 62 65  1  0  0  0
 63 64  2  0  0  0
 63 68  1  0  0  0
 65 66  1  0  0  0
 66 67  1  0  0  0
 68 69  1  0  0  0
 69 70  1  0  0  0
 69 72  1  0  0  0
 70 71  2  0  0  0
 72 73  1  0  0  0
 72 74  1  0  0  0
 70 75  1  0  0  0
  1 76  1  0  0  0
  1 77  1  0  0  0
  1 78  1  0  0  0
  2 79  1  0  0  0
  5 80  1  0  0  0
  6 81  1  0  0  0
  7 82  1  0  0  0
  7 83  1  0  0  0
  7 84  1  0  0  0
  8 85  1  0  0  0
  9 86  1  0  0  0
 12 87  1  0  0  0
 12 88  1  0  0  0
 15 89  1  0  0  0
 15 90  1  0  0  0
 16 91  1  0  0  0
 17 92  1  0  0  0
 20 93  1  0  0  0
 20 94  1  0  0  0
 21 95  1  0  0  0
 21 96  1  0  0  0
 23 97  1  0  0  0
 25 98  1  0  0  0
 26 99  1  0  0  0
 29100  1  0  0  0
 29101  1  0  0  0
 31102  1  0  0  0
 32103  1  0  0  0
 33104  1  0  0  0
 34105  1  0  0  0
 39106  1  0  0  0
 40107  1  0  0  0
 41108  1  0  0  0
 42109  1  0  0  0
 45110  1  0  0  0
 46111  1  0  0  0
 47112  1  0  0  0
 47113  1  0  0  0
 47114  1  0  0  0
 48115  1  0  0  0
 49116  1  0  0  0
 52117  1  0  0  0
 52118  1  0  0  0
 53119  1  0  0  0
 53120  1  0  0  0
 56121  1  0  0  0
 57122  1  0  0  0
 58123  1  0  0  0
 58124  1  0  0  0
 62125  1  0  0  0
 65126  1  0  0  0
 65127  1  0  0  0
 66128  1  0  0  0
 66129  1  0  0  0
 67130  1  0  0  0
 67131  1  0  0  0
 68132  1  0  0  0
 69133  1  0  0  0
 72134  1  0  0  0
 73135  1  0  0  0
 74136  1  0  0  0
 74137  1  0  0  0
 74138  1  0  0  0
 75139  1  0  0  0
M  END
$$$$
