### 
### Created by X-TOOL on Mon Sep 10 21:12:58 2018
### 

@<TRIPOS>MOLECULE
3bum_ligand
  135   136     1     0     0
SMALL
GAST_HUCK


@<TRIPOS>ATOM
      1 N          64.5380   39.0290   -1.8620 N.4       1 THR         0.2398
      2 CA         65.0240   38.9280   -3.2370 C.3       1 THR         0.0910
      3 C          64.6130   40.1060   -4.1050 C.2       1 THR         0.2294
      4 O          63.4600   40.5400   -4.0590 O.2       1 THR        -0.3906
      5 CB         64.5110   37.6510   -3.9260 C.3       1 THR         0.1120
      6 OG1        64.8770   36.5080   -3.1380 O.3       1 THR        -0.3840
      7 CG2        65.1250   37.5150   -5.3290 C.3       1 THR        -0.0314
      8 N          65.5470   40.6330   -4.8870 N.am      1 ASN        -0.2588
      9 CA         65.2080   41.7460   -5.7540 C.3       1 ASN         0.1477
     10 C          64.5470   41.2550   -7.0420 C.2       1 ASN         0.2063
     11 O          64.7710   40.1190   -7.4690 O.2       1 ASN        -0.3942
     12 CB         66.4500   42.5900   -6.0610 C.3       1 ASN         0.0773
     13 CG         67.0530   43.2390   -4.8030 C.2       1 ASN         0.1780
     14 OD1        66.3510   43.9160   -4.0460 O.2       1 ASN        -0.3970
     15 ND2        68.3590   43.0410   -4.5910 N.am      1 ASN        -0.3007
     16 N          63.7120   42.0810   -7.6560 N.am      1 GLU        -0.2635
     17 CA         63.0490   41.6190   -8.8460 C.3       1 GLU         0.1325
     18 C          63.8210   41.7080  -10.1560 C.2       1 GLU         0.2042
     19 O          64.0690   42.8000  -10.6690 O.2       1 GLU        -0.3944
     20 CB         61.7090   42.3280   -9.0560 C.3       1 GLU        -0.0008
     21 CG         61.3350   42.3310  -10.5510 C.3       1 GLU         0.0044
     22 CD         59.9210   41.8920  -10.8610 C.2       1 GLU         0.0350
     23 OE1        59.6090   40.6750  -10.8250 O.co2     1 GLU        -0.5690
     24 OE2        59.1020   42.7770  -11.1700 O.co2     1 GLU        -0.5690
     25 N          64.1870   40.5460  -10.6840 N.am      1 PTR        -0.2607
     26 CA         64.8360   40.4570  -11.9690 C.3       1 PTR         0.1468
     27 C          63.8390   39.9580  -12.9930 C.2       1 PTR         0.2075
     28 O          63.2020   38.9280  -12.7780 O.2       1 PTR        -0.3941
     29 CB         66.0330   39.5210  -11.9070 C.3       1 PTR         0.0400
     30 CG         67.1470   40.1450  -11.1150 C.ar      1 PTR        -0.0004
     31 CD1        67.8830   41.2210  -11.6580 C.ar      1 PTR        -0.0239
     32 CD2        67.4550   39.6510   -9.8130 C.ar      1 PTR        -0.0239
     33 CE1        68.9130   41.7980  -10.9040 C.ar      1 PTR         0.0115
     34 CE2        68.4880   40.2150   -9.0320 C.ar      1 PTR         0.0115
     35 CZ         69.2040   41.2980   -9.6120 C.ar      1 PTR         0.1728
     36 OH         70.2510   41.9030   -8.8370 O.3       1 PTR        -0.2040
     37 P          70.8120   41.3990   -7.3840 P.3       1 PTR         0.1348
     38 O1P        69.7190   41.4490   -6.4270 O.co2     1 PTR        -0.6653
     39 O2P        71.9120   42.3160   -6.9700 O.co2     1 PTR        -0.6653
     40 O3P        71.3150   39.9790   -7.4880 O.co2     1 PTR        -0.6653
     41 N          63.6950   40.6880  -14.0940 N.am      1 THR        -0.2611
     42 CA         62.7250   40.3290  -15.1010 C.3       1 THR         0.1565
     43 C          63.3110   39.8400  -16.4300 C.2       1 THR         0.2065
     44 O          64.4690   40.0690  -16.7240 O.2       1 THR        -0.3943
     45 CB         61.7760   41.5300  -15.3700 C.3       1 THR         0.0924
     46 OG1        62.5430   42.7360  -15.5040 O.3       1 THR        -0.3874
     47 CG2        60.8150   41.7050  -14.2160 C.3       1 THR        -0.0346
     48 N          62.4960   39.1540  -17.2180 N.am      1 GLU        -0.2635
     49 CA         62.9230   38.6580  -18.5120 C.3       1 GLU         0.1325
     50 C          63.5940   39.7210  -19.3950 C.2       1 GLU         0.2038
     51 O          63.2220   40.9000  -19.3560 O.2       1 GLU        -0.3944
     52 CB         61.7220   38.0680  -19.2590 C.3       1 GLU        -0.0008
     53 CG         60.4340   38.8860  -19.1190 C.3       1 GLU         0.0044
     54 CD         59.2510   38.2120  -19.7900 C.2       1 GLU         0.0350
     55 OE1        59.2650   36.9630  -19.8700 O.co2     1 GLU        -0.5690
     56 OE2        58.3080   38.9180  -20.2250 O.co2     1 GLU        -0.5690
     57 N          64.5810   39.3030  -20.1810 N.am      1 GLY        -0.2664
     58 CA         65.2650   40.2390  -21.0450 C.3       1 GLY         0.1203
     59 C          64.3010   40.8960  -22.0150 C.2       1 GLY         0.2032
     60 O          63.3440   40.2560  -22.4880 O.2       1 GLY        -0.3945
     61 N          64.5340   42.1780  -22.3420 N.am      1 PRO        -0.2501
     62 CA         63.6970   42.9540  -23.2610 C.3       1 PRO         0.1338
     63 C          63.5710   42.2780  -24.6230 C.2       1 PRO         0.2043
     64 O          64.5770   41.9410  -25.2470 O.2       1 PRO        -0.3944
     65 CB         64.4290   44.2970  -23.3710 C.3       1 PRO        -0.0104
     66 CG         65.3020   44.3480  -22.1590 C.3       1 PRO        -0.0281
     67 CD         65.7270   42.9440  -21.9400 C.3       1 PRO         0.0369
     68 N          62.3200   42.0930  -25.0410 N.am      1 THR        -0.2602
     69 CA         61.9140   41.4860  -26.3050 C.3       1 THR         0.1677
     70 C          62.6180   40.2000  -26.7710 C.2       1 THR         0.2597
     71 O          63.8090   39.9880  -26.5330 O.2       1 THR        -0.3679
     72 CB         61.9440   42.5540  -27.4140 C.3       1 THR         0.0937
     73 OG1        60.7840   43.3830  -27.2710 O.3       1 THR        -0.3873
     74 CG2        61.9420   41.9340  -28.7890 C.3       1 THR        -0.0344
     75 H1         64.8918   39.8742   -1.4418 H         1 THR         0.2016
     76 H2         64.8569   38.2321   -1.3335 H         1 THR         0.2016
     77 H3         63.5302   39.0505   -1.8625 H         1 THR         0.2016
     78 H4         66.1227   38.8915   -3.1989 H         1 THR         0.1125
     79 H5         63.4156   37.7012   -4.0129 H         1 THR         0.0674
     80 H6         64.5612   35.7184   -3.5616 H         1 THR         0.2102
     81 H7         64.7484   36.5985   -5.8067 H         1 THR         0.0258
     82 H8         66.2206   37.4617   -5.2462 H         1 THR         0.0258
     83 H9         64.8453   38.3874   -5.9378 H         1 THR         0.0258
     84 H10        66.4771   40.2658   -4.8787 H         1 ASN         0.1886
     85 H11        64.4856   42.3836   -5.2234 H         1 ASN         0.0826
     86 H12        66.1692   43.3854   -6.7670 H         1 ASN         0.0551
     87 H13        67.2105   41.9424   -6.5217 H         1 ASN         0.0551
     88 H14        68.8014   43.4405   -3.7881 H         1 ASN         0.1814
     89 H15        68.8928   42.4935   -5.2354 H         1 ASN         0.1814
     90 H16        63.5472   43.0013   -7.3013 H         1 GLU         0.1883
     91 H17        62.8404   40.5523   -8.6768 H         1 GLU         0.0801
     92 H18        61.7875   43.3656   -8.6994 H         1 GLU         0.0330
     93 H19        60.9274   41.8029   -8.4874 H         1 GLU         0.0330
     94 H20        62.0246   41.6536  -11.0759 H         1 GLU         0.0433
     95 H21        61.4651   43.3545  -10.9325 H         1 GLU         0.0433
     96 H22        64.0068   39.7049  -10.1740 H         1 PTR         0.1886
     97 H23        65.1845   41.4579  -12.2635 H         1 PTR         0.0840
     98 H24        66.3857   39.3158  -12.9285 H         1 PTR         0.0584
     99 H25        65.7313   38.5784  -11.4270 H         1 PTR         0.0584
    100 H26        67.6532   41.5967  -12.6485 H         1 PTR         0.0703
    101 H27        66.8822   38.8222   -9.4129 H         1 PTR         0.0703
    102 H28        69.4854   42.6248  -11.3086 H         1 PTR         0.0736
    103 H29        68.7228   39.8416   -8.0418 H         1 PTR         0.0736
    104 H30        64.2668   41.4976  -14.2268 H         1 THR         0.1884
    105 H31        62.1255   39.5037  -14.6894 H         1 THR         0.0826
    106 H32        61.2109   41.3460  -16.2956 H         1 THR         0.0639
    107 H33        63.0283   42.8921  -14.7023 H         1 THR         0.2101
    108 H34        60.1498   42.5573  -14.4188 H         1 THR         0.0257
    109 H35        61.3817   41.8939  -13.2923 H         1 THR         0.0257
    110 H36        60.2143   40.7912  -14.0973 H         1 THR         0.0257
    111 H37        61.5612   38.9735  -16.9121 H         1 GLU         0.1883
    112 H38        63.6556   37.8563  -18.3370 H         1 GLU         0.0801
    113 H39        61.5337   37.0577  -18.8668 H         1 GLU         0.0330
    114 H40        61.9767   38.0051  -20.3273 H         1 GLU         0.0330
    115 H41        60.5887   39.8722  -19.5810 H         1 GLU         0.0433
    116 H42        60.2095   39.0131  -18.0497 H         1 GLU         0.0433
    117 H43        64.8508   38.3401  -20.1748 H         1 GLY         0.1881
    118 H44        66.0375   39.7023  -21.6152 H         1 GLY         0.0763
    119 H45        65.7386   41.0167  -20.4279 H         1 GLY         0.0763
    120 H46        62.6914   43.0957  -22.8383 H         1 PRO         0.0802
    121 H47        63.7125   45.1316  -23.3693 H         1 PRO         0.0313
    122 H48        65.0348   44.3356  -24.2883 H         1 PRO         0.0313
    123 H49        64.7391   44.7224  -21.2913 H         1 PRO         0.0287
    124 H50        66.1745   44.9939  -22.3366 H         1 PRO         0.0287
    125 H51        66.5927   42.6890  -22.5689 H         1 PRO         0.0524
    126 H52        65.9759   42.7651  -20.8836 H         1 PRO         0.0524
    127 H53        61.5892   42.3991  -24.4308 H         1 THR         0.1885
    128 H54        60.8612   41.1998  -26.1644 H         1 THR         0.0843
    129 O          61.9226   39.2917  -27.4494 O.3       1 THR        -0.2909
    130 H55        62.8513   43.1654  -27.3000 H         1 THR         0.0641
    131 H56        60.7865   44.0488  -27.9486 H         1 THR         0.2101
    132 H57        61.9638   42.7285  -29.5495 H         1 THR         0.0257
    133 H58        61.0324   41.3288  -28.9170 H         1 THR         0.0257
    134 H59        62.8283   41.2926  -28.9033 H         1 THR         0.0257
    135 H60        62.3175   39.1657  -28.3042 H         1 THR         0.2540
@<TRIPOS>BOND
     1    1    2 1  
     2    2    3 1  
     3    2    5 1  
     4    3    4 2  
     5    3    8 am 
     6    5    6 1  
     7    5    7 1  
     8    8    9 1  
     9    9   10 1  
    10    9   12 1  
    11   10   11 2  
    12   10   16 am 
    13   12   13 1  
    14   13   14 2  
    15   13   15 am 
    16   16   17 1  
    17   17   18 1  
    18   17   20 1  
    19   18   19 2  
    20   18   25 am 
    21   20   21 1  
    22   21   22 1  
    23   22   23 ar 
    24   22   24 ar 
    25   25   26 1  
    26   26   27 1  
    27   26   29 1  
    28   27   28 2  
    29   27   41 am 
    30   29   30 1  
    31   30   31 ar 
    32   30   32 ar 
    33   31   33 ar 
    34   32   34 ar 
    35   33   35 ar 
    36   34   35 ar 
    37   35   36 1  
    38   36   37 1  
    39   37   38 ar 
    40   37   39 ar 
    41   37   40 ar 
    42   41   42 1  
    43   42   43 1  
    44   42   45 1  
    45   43   44 2  
    46   43   48 am 
    47   45   46 1  
    48   45   47 1  
    49   48   49 1  
    50   49   50 1  
    51   49   52 1  
    52   50   51 2  
    53   50   57 am 
    54   52   53 1  
    55   53   54 1  
    56   54   55 ar 
    57   54   56 ar 
    58   57   58 1  
    59   58   59 1  
    60   59   60 2  
    61   59   61 am 
    62   61   62 1  
    63   61   67 1  
    64   62   63 1  
    65   62   65 1  
    66   63   64 2  
    67   63   68 am 
    68   65   66 1  
    69   66   67 1  
    70   68   69 1  
    71   69   70 1  
    72   69   72 1  
    73   70   71 2  
    74   72   73 1  
    75   72   74 1  
    76    1   75 1  
    77    1   76 1  
    78    1   77 1  
    79    2   78 1  
    80    5   79 1  
    81    6   80 1  
    82    7   81 1  
    83    7   82 1  
    84    7   83 1  
    85    8   84 1  
    86    9   85 1  
    87   12   86 1  
    88   12   87 1  
    89   15   88 1  
    90   15   89 1  
    91   16   90 1  
    92   17   91 1  
    93   20   92 1  
    94   20   93 1  
    95   21   94 1  
    96   21   95 1  
    97   25   96 1  
    98   26   97 1  
    99   29   98 1  
   100   29   99 1  
   101   31  100 1  
   102   32  101 1  
   103   33  102 1  
   104   34  103 1  
   105   41  104 1  
   106   42  105 1  
   107   45  106 1  
   108   46  107 1  
   109   47  108 1  
   110   47  109 1  
   111   47  110 1  
   112   48  111 1  
   113   49  112 1  
   114   52  113 1  
   115   52  114 1  
   116   53  115 1  
   117   53  116 1  
   118   57  117 1  
   119   58  118 1  
   120   58  119 1  
   121   62  120 1  
   122   65  121 1  
   123   65  122 1  
   124   66  123 1  
   125   66  124 1  
   126   67  125 1  
   127   67  126 1  
   128   68  127 1  
   129   69  128 1  
   130   70  129 1  
   131   72  130 1  
   132   73  131 1  
   133   74  132 1  
   134   74  133 1  
   135   74  134 1  
   136  129  135 1  
@<TRIPOS>SUBSTRUCTURE
     1 THR         1

