4xxs_ligand
  -I-interpret- 

 43 46  0  0  0  0  0  0  0  0999 V2000
   19.2790  -38.7140    8.1000 C   0  0  0  0  0
   19.4930  -39.1340    6.7890 C   0  0  0  0  0
   20.7650  -39.3280    6.2880 C   0  0  0  0  0
   21.8270  -39.0790    7.1120 C   0  0  0  0  0
   21.6920  -38.6370    8.4060 C   0  0  0  0  0
   20.4120  -38.4850    8.8710 C   0  0  0  0  0
   20.2460  -38.1220   10.1680 F   0  0  0  0  0
   17.6430  -37.0110    8.9800 C   0  0  0  0  0
   16.3720  -36.7290    9.5750 O   0  0  0  0  0
   16.0840  -37.5120   10.7370 C   0  0  0  0  0
   16.1160  -39.0080   10.4470 C   0  0  0  0  0
   14.7390  -37.0440   11.1970 C   0  0  0  0  0
   23.0630  -39.3190    6.6400 F   0  0  0  0  0
   17.8180  -38.5170    8.5920 C   0  0  0  0  0
   17.4610  -39.4360    9.8280 C   0  0  0  0  0
   17.5540  -40.9030    9.4140 C   0  0  0  0  0
   16.4190  -41.3010    8.0610 S   0  0  0  0  0
   16.2730  -39.8070    7.1500 C   0  0  0  0  0
   16.8400  -38.6680    7.4760 N   0  0  0  0  0
   15.4360  -39.9030    6.1010 N   0  0  0  0  0
   14.4110  -36.3400   12.4250 C   0  0  0  0  0
   13.1140  -36.0900   12.4820 N   0  0  0  0  0
   12.5860  -36.6280   11.3030 N   0  0  0  0  0
   13.5280  -37.1910   10.5390 C   0  0  0  0  0
   11.1540  -36.5520   11.0410 C   0  0  0  0  0
   18.6343  -39.3141    6.1422 H   0  0  0  0  0
   20.9180  -39.6700    5.2644 H   0  0  0  0  0
   22.5583  -38.4186    9.0304 H   0  0  0  0  0
   18.4131  -36.7656    9.7113 H   0  0  0  0  0
   17.7189  -36.4223    8.0658 H   0  0  0  0  0
   16.8382  -37.3766   11.5122 H   0  0  0  0  0
   15.3211  -39.2389    9.7379 H   0  0  0  0  0
   15.9826  -39.5443   11.3865 H   0  0  0  0  0
   18.1852  -39.3104   10.6329 H   0  0  0  0  0
   17.2867  -41.5169   10.2741 H   0  0  0  0  0
   18.5711  -41.0965    9.0730 H   0  0  0  0  0
   16.5974  -37.8384    6.9344 H   0  0  0  0  0
   14.9620  -40.7848    5.9058 H   0  0  0  0  0
   15.1328  -36.0577   13.1915 H   0  0  0  0  0
   13.3721  -37.6764    9.5756 H   0  0  0  0  0
   10.6131  -37.0713   11.8321 H   0  0  0  0  0
   10.8458  -35.5068   11.0140 H   0  0  0  0  0
   10.9361  -37.0213   10.0816 H   0  0  0  0  0
  1  2  4  0  0  0
  1  6  4  0  0  0
 14  1  1  0  0  0
  2  3  4  0  0  0
  3  4  4  0  0  0
  5  4  4  0  0  0
  4 13  1  0  0  0
  6  5  4  0  0  0
  6  7  1  0  0  0
  8  9  1  0  0  0
  8 14  1  0  0  0
  9 10  1  0  0  0
 10 11  1  0  0  0
 10 12  1  0  0  0
 11 15  1  0  0  0
 12 21  4  0  0  0
 12 24  4  0  0  0
 14 15  1  0  0  0
 14 19  1  0  0  0
 15 16  1  0  0  0
 16 17  1  0  0  0
 17 18  1  0  0  0
 18 19  1  0  0  0
 18 20  2  0  0  0
 21 22  4  0  0  0
 22 23  4  0  0  0
 23 24  4  0  0  0
 23 25  1  0  0  0
  2 26  1  0  0  0
  3 27  1  0  0  0
  5 28  1  0  0  0
  8 29  1  0  0  0
  8 30  1  0  0  0
 10 31  1  0  0  0
 11 32  1  0  0  0
 11 33  1  0  0  0
 15 34  1  0  0  0
 16 35  1  0  0  0
 16 36  1  0  0  0
 19 37  1  0  0  0
 20 38  1  0  0  0
 21 39  1  0  0  0
 24 40  1  0  0  0
 25 41  1  0  0  0
 25 42  1  0  0  0
 25 43  1  0  0  0
M  END
$$$$
