1o5r_ligand
  -I-interpret- 

 59 62  0  0  0  0  0  0  0  0999 V2000
   51.9840   54.5140   20.7520 C   0  0  0  0  0
   52.0530   55.5750   21.7700 N   0  0  0  0  0
   51.7930   54.9070   22.8850 C   0  0  0  0  0
   51.6380   53.6160   22.7630 N   0  0  0  0  0
   51.7660   53.3080   21.3420 C   0  0  0  0  0
   51.7380   51.9640   20.7950 C   0  0  0  0  0
   51.9080   51.9200   19.6970 O   0  0  0  0  0
   51.4150   51.0140   21.5230 N   0  0  0  0  0
   52.0850   57.0330   21.6130 C   0  0  0  0  0
   53.5120   57.6680   21.6270 C   0  0  0  0  0
   54.5430   57.4310   22.6980 O   0  0  0  0  0
   51.3820   57.4530   20.3350 C   0  0  0  0  0
   49.8710   57.5460   20.5300 C   0  0  0  0  0
   49.2310   57.6440   19.2360 N   0  0  0  0  0
   48.7350   58.8100   18.7000 C   0  0  0  0  0
   48.2680   58.5680   17.4420 C   0  0  0  0  0
   48.4750   57.1790   17.2260 C   0  0  0  0  0
   49.0830   56.6520   18.3890 C   0  0  0  0  0
   48.1540   56.3370   16.1950 C   0  0  0  0  0
   48.4460   54.9760   16.2970 C   0  0  0  0  0
   49.0830   54.5020   17.4470 C   0  0  0  0  0
   49.3700   55.3570   18.4790 C   0  0  0  0  0
   49.3130   53.2450   17.7210 N   0  0  0  0  0
   49.2560   52.2020   16.8530 C   0  0  0  0  0
   48.7460   52.3280   15.7660 O   0  0  0  0  0
   49.5190   51.0810   17.4430 N   0  0  0  0  0
   49.2960   49.8220   16.7820 C   0  0  0  0  0
   47.7260   49.3490   18.7000 C   0  0  0  0  0
   48.0320   49.2190   17.3550 C   0  0  0  0  0
   47.1680   48.5140   16.5360 C   0  0  0  0  0
   45.9940   47.9860   17.0600 C   0  0  0  0  0
   45.6590   48.1380   18.4150 C   0  0  0  0  0
   46.5700   48.7720   19.2010 C   0  0  0  0  0
   52.0921   54.6722   19.6790 H   0  0  0  0  0
   51.7130   55.4074   23.8501 H   0  0  0  0  0
   51.2814   50.0860   21.1212 H   0  0  0  0  0
   51.2829   51.1603   22.5238 H   0  0  0  0  0
   51.5650   57.4100   22.4937 H   0  0  0  0  0
   53.2958   58.7304   21.7393 H   0  0  0  0  0
   53.9775   57.2203   20.7489 H   0  0  0  0  0
   55.3385   57.9265   22.4901 H   0  0  0  0  0
   51.5851   56.7053   19.5683 H   0  0  0  0  0
   51.7531   58.4359   20.0447 H   0  0  0  0  0
   49.6319   58.4276   21.1247 H   0  0  0  0  0
   49.5132   56.6570   21.0493 H   0  0  0  0  0
   48.7180   59.7769   19.2028 H   0  0  0  0  0
   47.8295   59.2867   16.7498 H   0  0  0  0  0
   47.6726   56.7279   15.2986 H   0  0  0  0  0
   48.1808   54.2921   15.4907 H   0  0  0  0  0
   49.8390   54.9708   19.3840 H   0  0  0  0  0
   49.5607   53.0247   18.6856 H   0  0  0  0  0
   49.8907   51.0896   18.3928 H   0  0  0  0  0
   50.1419   49.1538   16.9434 H   0  0  0  0  0
   49.1917   49.9711   15.7073 H   0  0  0  0  0
   48.3920   49.9030   19.3615 H   0  0  0  0  0
   47.4076   48.3730   15.4820 H   0  0  0  0  0
   45.3167   47.4405   16.4029 H   0  0  0  0  0
   44.7163   47.7666   18.8168 H   0  0  0  0  0
   46.3824   48.8288   20.2732 H   0  0  0  0  0
  1  2  4  0  0  0
  1  5  4  0  0  0
  2  3  4  0  0  0
  2  9  1  0  0  0
  3  4  4  0  0  0
  4  5  4  0  0  0
  5  6  1  0  0  0
  6  7  2  0  0  0
  6  8  1  0  0  0
  9 10  1  0  0  0
  9 12  1  0  0  0
 10 11  1  0  0  0
 12 13  1  0  0  0
 13 14  1  0  0  0
 14 15  4  0  0  0
 14 18  4  0  0  0
 15 16  4  0  0  0
 16 17  4  0  0  0
 17 18  4  0  0  0
 17 19  4  0  0  0
 18 22  4  0  0  0
 19 20  4  0  0  0
 20 21  4  0  0  0
 21 22  4  0  0  0
 21 23  1  0  0  0
 23 24  1  0  0  0
 24 25  2  0  0  0
 24 26  1  0  0  0
 26 27  1  0  0  0
 27 29  1  0  0  0
 29 28  4  0  0  0
 28 33  4  0  0  0
 29 30  4  0  0  0
 30 31  4  0  0  0
 31 32  4  0  0  0
 32 33  4  0  0  0
  1 34  1  0  0  0
  3 35  1  0  0  0
  8 36  1  0  0  0
  8 37  1  0  0  0
  9 38  1  0  0  0
 10 39  1  0  0  0
 10 40  1  0  0  0
 11 41  1  0  0  0
 12 42  1  0  0  0
 12 43  1  0  0  0
 13 44  1  0  0  0
 13 45  1  0  0  0
 15 46  1  0  0  0
 16 47  1  0  0  0
 19 48  1  0  0  0
 20 49  1  0  0  0
 22 50  1  0  0  0
 23 51  1  0  0  0
 26 52  1  0  0  0
 27 53  1  0  0  0
 27 54  1  0  0  0
 28 55  1  0  0  0
 30 56  1  0  0  0
 31 57  1  0  0  0
 32 58  1  0  0  0
 33 59  1  0  0  0
M  END
$$$$
