2usn_ligand
  -I-interpret- 

 46 48  0  0  0  0  0  0  0  0999 V2000
   29.5350   45.6860   47.8140 C   0  0  0  0  0
   30.9930   47.5770   48.1550 C   0  0  0  0  0
   27.2250   44.9310   48.4900 C   0  0  0  0  0
   26.7170   44.1230   44.6680 C   0  0  0  0  0
   26.5710   45.0420   43.6710 C   0  0  0  0  0
   25.9120   46.2050   43.9200 C   0  0  0  0  0
   25.2900   46.3920   45.1150 C   0  0  0  0  0
   25.3960   45.4530   46.0910 C   0  0  0  0  0
   25.0450   41.1560   47.4640 C   0  0  0  0  0
   23.8870   39.2030   47.8560 C   0  0  0  0  0
   22.3150   39.0760   51.7930 C   0  0  0  0  0
   21.9770   40.0940   50.9490 C   0  0  0  0  0
   22.4810   40.1390   49.6670 C   0  0  0  0  0
   23.1560   38.0900   51.3370 C   0  0  0  0  0
   29.3870   47.2050   48.7000 S   0  0  0  0  0
   30.6270   45.5220   47.1740 N   0  0  0  0  0
   31.4840   46.5900   47.3960 N   0  0  0  0  0
   28.4300   44.7640   47.8390 N   0  0  0  0  0
   31.9500   49.0240   48.5730 S   0  0  0  0  0
   26.9670   46.0870   49.2150 O   0  0  0  0  0
   26.1880   43.8090   48.3620 C   0  0  0  0  0
   26.2330   43.2470   46.9260 C   0  0  0  0  0
   26.1450   44.3150   45.8960 C   0  0  0  0  0
   23.8090   40.4970   47.3530 O   0  0  0  0  0
   26.0150   40.7130   48.1080 O   0  0  0  0  0
   25.0960   42.3480   46.8300 N   0  0  0  0  0
   23.3440   39.1880   49.2460 C   0  0  0  0  0
   23.6690   38.1570   50.0620 C   0  0  0  0  0
   27.2993   43.2202   44.4834 H   0  0  0  0  0
   26.9803   44.8453   42.6801 H   0  0  0  0  0
   25.8822   46.9875   43.1618 H   0  0  0  0  0
   24.7062   47.2957   45.2897 H   0  0  0  0  0
   24.8815   45.6027   47.0402 H   0  0  0  0  0
   24.9261   38.8739   47.8639 H   0  0  0  0  0
   23.3056   38.5287   47.2272 H   0  0  0  0  0
   21.9248   39.0459   52.8103 H   0  0  0  0  0
   21.3024   40.8785   51.2920 H   0  0  0  0  0
   22.1835   40.9419   48.9925 H   0  0  0  0  0
   23.4171   37.2539   51.9858 H   0  0  0  0  0
   28.5506   43.8942   47.3200 H   0  0  0  0  0
   31.2176   49.8339   49.3323 H   0  0  0  0  0
   25.1932   44.2014   48.5727 H   0  0  0  0  0
   26.4138   43.0160   49.0749 H   0  0  0  0  0
   27.1808   42.7422   46.7391 H   0  0  0  0  0
   24.2999   42.6295   46.2579 H   0  0  0  0  0
   24.3409   37.3758   49.7066 H   0  0  0  0  0
  1 18  1  0  0  0
 16  1  4  0  0  0
  1 15  4  0  0  0
 17 16  4  0  0  0
 18  3  1  0  0  0
  3 20  2  0  0  0
  3 21  1  0  0  0
 21 22  1  0  0  0
 22 26  1  0  0  0
 22 23  1  0  0  0
 23  8  4  0  0  0
 23  4  4  0  0  0
  4  5  4  0  0  0
  5  6  4  0  0  0
  7  6  4  0  0  0
  8  7  4  0  0  0
 26  9  1  0  0  0
  9 24  1  0  0  0
  9 25  2  0  0  0
 24 10  1  0  0  0
 10 27  1  0  0  0
 27 13  4  0  0  0
 27 28  4  0  0  0
 28 14  4  0  0  0
 14 11  4  0  0  0
 12 11  4  0  0  0
 13 12  4  0  0  0
  2 19  1  0  0  0
 17  2  4  0  0  0
 15  2  4  0  0  0
  4 29  1  0  0  0
  5 30  1  0  0  0
  6 31  1  0  0  0
  7 32  1  0  0  0
  8 33  1  0  0  0
 10 34  1  0  0  0
 10 35  1  0  0  0
 11 36  1  0  0  0
 12 37  1  0  0  0
 13 38  1  0  0  0
 14 39  1  0  0  0
 18 40  1  0  0  0
 19 41  1  0  0  0
 21 42  1  0  0  0
 21 43  1  0  0  0
 22 44  1  0  0  0
 26 45  1  0  0  0
 28 46  1  0  0  0
M  END
$$$$
