6dd0_ligand
  -I-interpret- 

 25 26  0  0  0  0  0  0  0  0999 V2000
  -34.2200    3.3930    8.0830 C   0  0  0  0  0
  -33.8740    4.7400    8.1020 C   0  0  0  0  0
  -34.8840    5.6930    8.1270 C   0  0  0  0  0
  -34.6460    7.0580    7.4830 C   0  0  0  0  0
  -36.1920    5.2930    8.4630 C   0  0  0  0  0
  -37.2040    6.2250    8.7680 C   0  0  0  0  0
  -38.4800    5.7820    9.0940 C   0  0  0  0  0
  -38.7590    4.4190    9.1210 C   0  0  0  0  0
  -37.7630    3.5000    8.8210 C   0  0  0  0  0
  -36.4690    3.9470    8.4900 C   0  0  0  0  0
  -36.9360    7.5620    8.7430 F   0  0  0  0  0
  -40.0130    3.9860    9.4410 F   0  0  0  0  0
  -33.3760    2.5690    7.9630 O   0  0  0  0  0
  -34.6360    8.3470    5.0430 O   0  0  0  0  0
  -33.4700    6.1760    5.1470 O   0  0  0  0  0
  -35.9340    6.2550    5.1790 O   0  0  0  0  0
  -35.5080    3.0200    8.2000 O   0  0  0  0  0
  -34.6730    6.9540    5.6250 P   0  0  0  0  0
  -32.8269    5.0429    8.0973 H   0  0  0  0  0
  -33.6653    7.4186    7.7933 H   0  0  0  0  0
  -35.4411    7.7321    7.8015 H   0  0  0  0  0
  -39.2632    6.5028    9.3288 H   0  0  0  0  0
  -37.9822    2.4325    8.8416 H   0  0  0  0  0
  -33.8334    8.7903    5.3276 H   0  0  0  0  0
  -32.6686    6.6215    5.4313 H   0  0  0  0  0
  1  2  1  0  0  0
  1 13  2  0  0  0
  1 17  1  0  0  0
  2  3  2  0  0  0
  3  4  1  0  0  0
  3  5  1  0  0  0
  4 18  1  0  0  0
  5  6  4  0  0  0
  5 10  4  0  0  0
  6  7  4  0  0  0
  6 11  1  0  0  0
  7  8  4  0  0  0
  8  9  4  0  0  0
  8 12  1  0  0  0
  9 10  4  0  0  0
 10 17  1  0  0  0
 18 14  1  0  0  0
 18 15  1  0  0  0
 18 16  2  0  0  0
  2 19  1  0  0  0
  4 20  1  0  0  0
  4 21  1  0  0  0
  7 22  1  0  0  0
  9 23  1  0  0  0
 14 24  1  0  0  0
 15 25  1  0  0  0
M  END
$$$$
