### 
### Created by X-TOOL on Mon Aug  2 16:12:56 2021
### 

@<TRIPOS>MOLECULE
6dd0_ligand
   23    24     1     0     0
SMALL
GAST_HUCK


@<TRIPOS>ATOM
      1 C02       -34.2200    3.3930    8.0830 C.2       1 P9T         0.2457
      2 C03       -33.8740    4.7400    8.1020 C.2       1 P9T         0.0097
      3 C04       -34.8840    5.6930    8.1270 C.2       1 P9T        -0.0074
      4 C05       -34.6460    7.0580    7.4830 C.3       1 P9T         0.0589
      5 C10       -36.1920    5.2930    8.4630 C.ar      1 P9T         0.0650
      6 C11       -37.2040    6.2250    8.7680 C.ar      1 P9T         0.1429
      7 C13       -38.4800    5.7820    9.0940 C.ar      1 P9T         0.0023
      8 C14       -38.7590    4.4190    9.1210 C.ar      1 P9T         0.1298
      9 C16       -37.7630    3.5000    8.8210 C.ar      1 P9T         0.0093
     10 C17       -36.4690    3.9470    8.4900 C.ar      1 P9T         0.1399
     11 F12       -36.9360    7.5620    8.7430 F         1 P9T        -0.1803
     12 F15       -40.0130    3.9860    9.4410 F         1 P9T        -0.1824
     13 O01       -33.3760    2.5690    7.9630 O.2       1 P9T        -0.3875
     14 O07       -34.6360    8.3470    5.0430 O.co2     1 P9T        -0.5604
     15 O08       -33.4700    6.1760    5.1470 O.co2     1 P9T        -0.5604
     16 O09       -35.9340    6.2550    5.1790 O.co2     1 P9T        -0.5604
     17 O18       -35.5080    3.0200    8.2000 O.3       1 P9T        -0.2158
     18 P06       -34.6730    6.9540    5.6250 P.3       1 P9T         0.0732
     19 H1        -32.8279    5.0426    8.0973 H         1 P9T         0.0421
     20 H2        -33.6653    7.4383    7.8048 H         1 P9T         0.0656
     21 H3        -35.4342    7.7506    7.8131 H         1 P9T         0.0656
     22 H4        -39.2589    6.4989    9.3275 H         1 P9T         0.0526
     23 H5        -37.9810    2.4383    8.8415 H         1 P9T         0.0519
@<TRIPOS>BOND
     1    1    2 1  
     2    1   13 2  
     3    1   17 1  
     4    2    3 2  
     5    3    4 1  
     6    3    5 1  
     7    4   18 1  
     8    5    6 ar 
     9    5   10 ar 
    10    6    7 ar 
    11    6   11 1  
    12    7    8 ar 
    13    8    9 ar 
    14    8   12 1  
    15    9   10 ar 
    16   10   17 1  
    17   18   14 ar 
    18   18   15 ar 
    19   18   16 ar 
    20    2   19 1  
    21    4   20 1  
    22    4   21 1  
    23    7   22 1  
    24    9   23 1  
@<TRIPOS>SUBSTRUCTURE
     1 P9T         1

