4w52_ligand
  -I-interpret- 

 12 12  0  0  0  0  0  0  0  0999 V2000
  -32.9690    6.1960    2.8770 C   0  0  0  0  0
  -32.9450    7.0460    3.9730 C   0  0  0  0  0
  -33.7190    6.7980    5.1130 C   0  0  0  0  0
  -34.5400    5.6800    5.1430 C   0  0  0  0  0
  -34.5450    4.8250    4.0440 C   0  0  0  0  0
  -33.7870    5.0690    2.9150 C   0  0  0  0  0
  -32.3573    6.4066    1.9997 H   0  0  0  0  0
  -32.3073    7.9295    3.9460 H   0  0  0  0  0
  -33.6771    7.4749    5.9664 H   0  0  0  0  0
  -35.1686    5.4750    6.0096 H   0  0  0  0  0
  -35.1689    3.9318    4.0755 H   0  0  0  0  0
  -33.8285    4.3883    2.0647 H   0  0  0  0  0
  1  2  4  0  0  0
  1  6  4  0  0  0
  2  3  4  0  0  0
  3  4  4  0  0  0
  4  5  4  0  0  0
  5  6  4  0  0  0
  1  7  1  0  0  0
  2  8  1  0  0  0
  3  9  1  0  0  0
  4 10  1  0  0  0
  5 11  1  0  0  0
  6 12  1  0  0  0
M  END
$$$$
