6cd4_ligand
  -I-interpret- 

 88 93  0  0  0  0  0  0  0  0999 V2000
   15.7390   -4.2550    0.1790 C   0  0  0  0  0
   17.2150   -4.5240    0.4530 C   0  0  0  0  0
   18.0990   -4.0620   -0.7000 C   0  0  0  0  0
   16.9820   -7.7450   -6.0310 C   0  0  0  0  0
   13.8310  -13.0300   -7.8740 N   0  0  0  0  0
   17.2650   -8.4510   -4.8670 C   0  0  0  0  0
   17.7220   -7.7670   -3.7370 C   0  0  0  0  0
   15.9100   -9.4840   -7.2710 C   0  0  0  0  0
   14.4960  -10.8470   -8.5690 C   0  0  0  0  0
   14.5700  -11.8610   -7.6300 C   0  0  0  0  0
   15.3660  -11.5820   -6.4090 C   0  0  0  0  0
   16.1100  -13.7240   -5.7900 C   0  0  0  0  0
   17.3140  -14.1120   -5.2250 C   0  0  0  0  0
   15.5550  -12.5090   -5.3960 N   0  0  0  0  0
   16.8490   -5.5860   -7.1630 O   0  0  0  0  0
   16.2840   -4.3800   -2.2950 C   0  0  0  0  0
   17.1450   -6.2780   -6.0220 C   0  0  0  0  0
   15.3470   -4.8280   -1.1790 C   0  0  0  0  0
   16.3390   -4.2580   -7.0910 C   0  0  0  0  0
   18.3770   -5.6880   -2.4930 C   0  0  0  0  0
   13.4720  -15.1930   -7.7900 O   0  0  0  0  0
   17.8840   -6.3790   -3.7370 C   0  0  0  0  0
   17.6030   -5.6380   -4.8800 C   0  0  0  0  0
   17.9180  -15.3010   -5.6080 C   0  0  0  0  0
   17.3390  -16.1150   -6.5750 C   0  0  0  0  0
   16.1420  -15.7600   -7.1830 C   0  0  0  0  0
   15.5030  -14.5770   -6.8410 C   0  0  0  0  0
   14.2100  -14.2570   -7.5290 C   0  0  0  0  0
   12.5560  -12.7990   -8.5390 C   0  0  0  0  0
   15.3420  -12.1630   -3.9950 C   0  0  0  0  0
   15.2710   -4.3940    2.5540 C   0  0  0  0  0
   14.2940  -11.0660   -3.8590 C   0  0  0  0  0
   14.9800  -13.3980   -3.1820 C   0  0  0  0  0
   14.4350   -5.1250    3.6000 C   0  0  0  0  0
   12.6360   -5.3140    2.0110 C   0  0  0  0  0
   13.4890   -4.5900    0.9760 C   0  0  0  0  0
   12.2080   -5.6190    4.3490 C   0  0  0  0  0
   16.0110  -10.4060   -6.2970 N   0  0  0  0  0
   15.1560   -9.7040   -8.3700 N   0  0  0  0  0
   16.4880   -8.2720   -7.1750 N   0  0  0  0  0
   17.6260   -4.7680   -1.8810 N   0  0  0  0  0
   14.9070   -4.8820    1.2180 N   0  3  0  0  0
   13.0050   -4.8770    3.3650 N   0  3  0  0  0
   19.4710   -5.9930   -2.0480 O   0  0  0  0  0
   15.5789   -3.1768    0.1840 H   0  0  0  0  0
   17.3497   -5.5984    0.5784 H   0  0  0  0  0
   17.5032   -3.9722    1.3477 H   0  0  0  0  0
   19.1483   -4.2825   -0.5039 H   0  0  0  0  0
   18.0361   -2.9823   -0.8357 H   0  0  0  0  0
   17.1311   -9.5323   -4.8359 H   0  0  0  0  0
   17.9577   -8.3299   -2.8339 H   0  0  0  0  0
   13.8989  -10.9817   -9.4709 H   0  0  0  0  0
   17.7895  -13.4796   -4.4753 H   0  0  0  0  0
   16.2182   -3.3037   -2.4543 H   0  0  0  0  0
   16.0158   -4.8457   -3.2433 H   0  0  0  0  0
   14.3452   -4.4711   -1.4178 H   0  0  0  0  0
   15.3987   -5.9148   -1.1128 H   0  0  0  0  0
   15.3996   -4.2604   -6.5381 H   0  0  0  0  0
   17.0607   -3.6202   -6.5808 H   0  0  0  0  0
   16.1677   -3.8808   -8.0992 H   0  0  0  0  0
   17.7424   -4.5570   -4.8782 H   0  0  0  0  0
   18.8582  -15.6006   -5.1450 H   0  0  0  0  0
   17.8314  -17.0448   -6.8599 H   0  0  0  0  0
   15.7014  -16.4154   -7.9342 H   0  0  0  0  0
   11.9367  -12.1505   -7.9193 H   0  0  0  0  0
   12.7318  -12.3224   -9.5034 H   0  0  0  0  0
   12.0487  -13.7518   -8.6902 H   0  0  0  0  0
   16.2753  -11.7701   -3.5916 H   0  0  0  0  0
   16.3294   -4.5807    2.7359 H   0  0  0  0  0
   15.0802   -3.3227    2.6167 H   0  0  0  0  0
   14.6292  -10.1768   -4.3930 H   0  0  0  0  0
   13.3509  -11.4117   -4.2824 H   0  0  0  0  0
   14.1546  -10.8272   -2.8047 H   0  0  0  0  0
   14.0649  -13.8374   -3.5790 H   0  0  0  0  0
   15.7906  -14.1239   -3.2459 H   0  0  0  0  0
   14.8262  -13.1139   -2.1410 H   0  0  0  0  0
   14.7036   -4.7609    4.5917 H   0  0  0  0  0
   14.6293   -6.1953    3.5299 H   0  0  0  0  0
   12.8026   -6.3877    1.9239 H   0  0  0  0  0
   11.5857   -5.0822    1.8342 H   0  0  0  0  0
   13.3211   -3.5159    1.0547 H   0  0  0  0  0
   13.2139   -4.9295   -0.0226 H   0  0  0  0  0
   12.4122   -6.6852    4.2504 H   0  0  0  0  0
   12.4732   -5.2883    5.3532 H   0  0  0  0  0
   11.1488   -5.4327    4.1716 H   0  0  0  0  0
   16.5585   -7.7116   -8.0244 H   0  0  0  0  0
   15.0675   -5.8885    1.1771 H   0  0  0  0  0
   12.8214   -3.8780    3.4585 H   0  0  0  0  0
  1  2  1  0  0  0
  1 18  1  0  0  0
 42  1  1  0  0  0
  2  3  1  0  0  0
  3 41  1  0  0  0
  6  4  4  0  0  0
 17  4  4  0  0  0
  4 40  1  0  0  0
 10  5  1  0  0  0
  5 28  1  0  0  0
  5 29  1  0  0  0
  7  6  4  0  0  0
 22  7  4  0  0  0
  8 38  4  0  0  0
  8 39  4  0  0  0
 40  8  1  0  0  0
  9 10  4  0  0  0
 39  9  4  0  0  0
 11 10  4  0  0  0
 11 14  1  0  0  0
 38 11  4  0  0  0
 12 13  4  0  0  0
 14 12  1  0  0  0
 12 27  4  0  0  0
 13 24  4  0  0  0
 14 30  1  0  0  0
 17 15  1  0  0  0
 15 19  1  0  0  0
 18 16  1  0  0  0
 16 41  1  0  0  0
 23 17  4  0  0  0
 20 22  1  0  0  0
 41 20  1  0  0  0
 20 44  2  0  0  0
 28 21  2  0  0  0
 22 23  4  0  0  0
 24 25  4  0  0  0
 26 25  4  0  0  0
 27 26  4  0  0  0
 28 27  1  0  0  0
 30 32  1  0  0  0
 30 33  1  0  0  0
 34 31  1  0  0  0
 31 42  1  0  0  0
 43 34  1  0  0  0
 35 36  1  0  0  0
 35 43  1  0  0  0
 36 42  1  0  0  0
 43 37  1  0  0  0
  1 45  1  0  0  0
  2 46  1  0  0  0
  2 47  1  0  0  0
  3 48  1  0  0  0
  3 49  1  0  0  0
  6 50  1  0  0  0
  7 51  1  0  0  0
  9 52  1  0  0  0
 13 53  1  0  0  0
 16 54  1  0  0  0
 16 55  1  0  0  0
 18 56  1  0  0  0
 18 57  1  0  0  0
 19 58  1  0  0  0
 19 59  1  0  0  0
 19 60  1  0  0  0
 23 61  1  0  0  0
 24 62  1  0  0  0
 25 63  1  0  0  0
 26 64  1  0  0  0
 29 65  1  0  0  0
 29 66  1  0  0  0
 29 67  1  0  0  0
 30 68  1  0  0  0
 31 69  1  0  0  0
 31 70  1  0  0  0
 32 71  1  0  0  0
 32 72  1  0  0  0
 32 73  1  0  0  0
 33 74  1  0  0  0
 33 75  1  0  0  0
 33 76  1  0  0  0
 34 77  1  0  0  0
 34 78  1  0  0  0
 35 79  1  0  0  0
 35 80  1  0  0  0
 36 81  1  0  0  0
 36 82  1  0  0  0
 37 83  1  0  0  0
 37 84  1  0  0  0
 37 85  1  0  0  0
 40 86  1  0  0  0
 42 87  1  0  0  0
 43 88  1  0  0  0
M  END
$$$$
