### 
### Created by X-TOOL on Mon Sep 10 21:13:16 2018
### 

@<TRIPOS>MOLECULE
4lqg_ligand
   64    64     1     0     0
SMALL
GAST_HUCK


@<TRIPOS>ATOM
      1 CBH        27.6600   51.5530   44.3160 C.2       1 CTW         0.2036
      2 OAF        27.9450   50.6170   43.5650 O.2       1 CTW        -0.3865
      3 CBJ        28.2220   51.6520   45.6250 C.ar      1 CTW         0.0458
      4 CAP        29.1300   50.6580   46.0520 C.ar      1 CTW        -0.0437
      5 CAN        29.7400   50.6910   47.3170 C.ar      1 CTW        -0.0223
      6 CBI        29.4590   51.7460   48.2020 C.ar      1 CTW         0.1375
      7 FAM        30.1710   51.7720   49.6470 F         1 CTW        -0.1794
      8 CAO        28.5540   52.7550   47.8010 C.ar      1 CTW        -0.0223
      9 CAQ        27.9430   52.7090   46.5290 C.ar      1 CTW        -0.0437
     10 NAZ        26.8790   52.5690   43.8860 N.am      1 CTW        -0.2711
     11 CBL        26.2560   52.5780   42.5310 C.3       1 CTW         0.0959
     12 CBE        26.1400   54.0160   41.9580 C.2       1 CTW         0.0602
     13 OAC        26.3720   54.1450   40.7210 O.co2     1 CTW        -0.5666
     14 CAX        24.8240   51.9910   42.5760 C.3       1 CTW        -0.0010
     15 CAU        24.8500   50.5400   43.0270 C.3       1 CTW         0.0410
     16 CBG        23.5260   50.1890   43.6770 C.2       1 CTW         0.1778
     17 OAE        23.0430   50.8890   44.5920 O.2       1 CTW        -0.3970
     18 OAJ        25.7950   54.9370   42.7590 O.co2     1 CTW        -0.5666
     19 PBN        17.5940   43.9950   43.5150 P.3       1 CTW         0.2031
     20 OAL        18.2750   42.9910   42.4640 O.co2     1 CTW        -0.6076
     21 OAG        16.9300   43.3190   44.6410 O.co2     1 CTW        -0.6076
     22 OBB        18.6380   44.9360   44.1310 O.3       1 CTW        -0.2612
     23 CAS        19.5170   45.6810   43.2680 C.3       1 CTW         0.0842
     24 CAR        20.0900   46.8800   43.9630 C.3       1 CTW        -0.0205
     25 CB         21.4000   47.2610   43.2210 C.3       1 CTW        -0.0155
     26 CA         21.8040   48.5580   43.8420 C.3       1 CTW         0.0944
     27 C          22.2160   48.2830   45.3320 C.2       1 CTW         0.0601
     28 OXT        21.4730   48.7490   46.2210 O.co2     1 CTW        -0.5666
     29 O          23.2920   47.6740   45.5410 O.co2     1 CTW        -0.5666
     30 N          22.9830   49.0660   43.2020 N.am      1 CTW        -0.2714
     31 NBA        16.5010   44.9210   42.6290 N.am      1 CTW        -0.2605
     32 CBM        16.0420   44.3860   41.3280 C.3       1 CTW         0.0893
     33 CBF        17.1300   44.5530   40.2440 C.2       1 CTW         0.0564
     34 OAK        17.0220   43.7900   39.2370 O.co2     1 CTW        -0.5670
     35 CAW        14.7470   45.1390   40.8600 C.3       1 CTW        -0.0099
     36 CAT        15.0220   46.6890   40.8300 C.3       1 CTW         0.0034
     37 CBC        13.8800   47.4930   40.1020 C.2       1 CTW         0.0350
     38 OAA        13.0830   46.8800   39.3860 O.co2     1 CTW        -0.5690
     39 OAH        13.8340   48.7290   40.2790 O.co2     1 CTW        -0.5690
     40 OAD        18.0150   45.4490   40.4130 O.co2     1 CTW        -0.5670
     41 H1         29.3645   49.8406   45.3797 H         1 CTW         0.0659
     42 H2         30.4260   49.9044   47.6099 H         1 CTW         0.0616
     43 H3         28.3269   53.5719   48.4765 H         1 CTW         0.0616
     44 H4         27.2514   53.4919   46.2393 H         1 CTW         0.0659
     45 H5         26.7130   53.3421   44.4982 H         1 CTW         0.1867
     46 H6         26.8785   51.9699   41.8582 H         1 CTW         0.0727
     47 H7         24.3788   52.0486   41.5718 H         1 CTW         0.0330
     48 H8         24.2159   52.5769   43.2809 H         1 CTW         0.0330
     49 H9         25.6642   50.3960   43.7525 H         1 CTW         0.0504
     50 H10        25.0152   49.8883   42.1564 H         1 CTW         0.0504
     51 H11        18.9512   46.0164   42.3863 H         1 CTW         0.0623
     52 H12        20.3412   45.0267   42.9477 H         1 CTW         0.0623
     53 H13        20.3091   46.6374   45.0133 H         1 CTW         0.0293
     54 H14        19.3766   47.7163   43.9209 H         1 CTW         0.0293
     55 H15        21.2172   47.3839   42.1433 H         1 CTW         0.0306
     56 H16        22.1742   46.4953   43.3766 H         1 CTW         0.0306
     57 H17        20.9805   49.2848   43.7825 H         1 CTW         0.0726
     58 H18        23.3875   48.5912   42.4204 H         1 CTW         0.1875
     59 H19        16.1736   45.8020   42.9705 H         1 CTW         0.1677
     60 H20        15.8153   43.3162   41.4464 H         1 CTW         0.0681
     61 H21        13.9259   44.9260   41.5602 H         1 CTW         0.0319
     62 H22        14.4679   44.7968   39.8526 H         1 CTW         0.0319
     63 H23        15.9704   46.8684   40.3024 H         1 CTW         0.0432
     64 H24        15.1038   47.0524   41.8650 H         1 CTW         0.0432
@<TRIPOS>BOND
     1    1    2 2  
     2    1    3 1  
     3   10    1 am 
     4    3    4 ar 
     5    3    9 ar 
     6    4    5 ar 
     7    5    6 ar 
     8    6    7 1  
     9    8    6 ar 
    10    9    8 ar 
    11   11   10 1  
    12   11   12 1  
    13   14   11 1  
    14   12   13 ar 
    15   12   18 ar 
    16   15   14 1  
    17   16   15 1  
    18   16   17 2  
    19   30   16 am 
    20   19   20 ar 
    21   19   21 ar 
    22   22   19 1  
    23   19   31 am 
    24   23   22 1  
    25   24   23 1  
    26   25   24 1  
    27   26   25 1  
    28   26   27 1  
    29   26   30 1  
    30   27   28 ar 
    31   27   29 ar 
    32   31   32 1  
    33   32   33 1  
    34   32   35 1  
    35   33   34 ar 
    36   33   40 ar 
    37   35   36 1  
    38   36   37 1  
    39   37   38 ar 
    40   37   39 ar 
    41    4   41 1  
    42    5   42 1  
    43    8   43 1  
    44    9   44 1  
    45   10   45 1  
    46   11   46 1  
    47   14   47 1  
    48   14   48 1  
    49   15   49 1  
    50   15   50 1  
    51   23   51 1  
    52   23   52 1  
    53   24   53 1  
    54   24   54 1  
    55   25   55 1  
    56   25   56 1  
    57   26   57 1  
    58   30   58 1  
    59   31   59 1  
    60   32   60 1  
    61   35   61 1  
    62   35   62 1  
    63   36   63 1  
    64   36   64 1  
@<TRIPOS>SUBSTRUCTURE
     1 CTW         1

