4lqg_ligand
  -I-interpret- 

 69 69  0  0  0  0  0  0  0  0999 V2000
   27.6600   51.5530   44.3160 C   0  0  0  0  0
   27.9450   50.6170   43.5650 O   0  0  0  0  0
   28.2220   51.6520   45.6250 C   0  0  0  0  0
   29.1300   50.6580   46.0520 C   0  0  0  0  0
   29.7400   50.6910   47.3170 C   0  0  0  0  0
   29.4590   51.7460   48.2020 C   0  0  0  0  0
   30.1710   51.7720   49.6470 F   0  0  0  0  0
   28.5540   52.7550   47.8010 C   0  0  0  0  0
   27.9430   52.7090   46.5290 C   0  0  0  0  0
   26.8790   52.5690   43.8860 N   0  0  0  0  0
   26.2560   52.5780   42.5310 C   0  0  0  0  0
   26.1400   54.0160   41.9580 C   0  0  0  0  0
   26.3720   54.1450   40.7210 O   0  0  0  0  0
   24.8240   51.9910   42.5760 C   0  0  0  0  0
   24.8500   50.5400   43.0270 C   0  0  0  0  0
   23.5260   50.1890   43.6770 C   0  0  0  0  0
   23.0430   50.8890   44.5920 O   0  0  0  0  0
   25.7950   54.9370   42.7590 O   0  0  0  0  0
   17.5940   43.9950   43.5150 P   0  0  0  0  0
   18.2750   42.9910   42.4640 O   0  0  0  0  0
   16.9300   43.3190   44.6410 O   0  0  0  0  0
   18.6380   44.9360   44.1310 O   0  0  0  0  0
   19.5170   45.6810   43.2680 C   0  0  0  0  0
   20.0900   46.8800   43.9630 C   0  0  0  0  0
   21.4000   47.2610   43.2210 C   0  0  0  0  0
   21.8040   48.5580   43.8420 C   0  0  0  0  0
   22.2160   48.2830   45.3320 C   0  0  0  0  0
   21.4730   48.7490   46.2210 O   0  0  0  0  0
   23.2920   47.6740   45.5410 O   0  0  0  0  0
   22.9830   49.0660   43.2020 N   0  0  0  0  0
   16.5010   44.9210   42.6290 N   0  0  0  0  0
   16.0420   44.3860   41.3280 C   0  0  0  0  0
   17.1300   44.5530   40.2440 C   0  0  0  0  0
   17.0220   43.7900   39.2370 O   0  0  0  0  0
   14.7470   45.1390   40.8600 C   0  0  0  0  0
   15.0220   46.6890   40.8300 C   0  0  0  0  0
   13.8800   47.4930   40.1020 C   0  0  0  0  0
   13.0830   46.8800   39.3860 O   0  0  0  0  0
   13.8340   48.7290   40.2790 O   0  0  0  0  0
   18.0150   45.4490   40.4130 O   0  0  0  0  0
   29.3658   49.8361   45.3760 H   0  0  0  0  0
   30.4298   49.9001   47.6115 H   0  0  0  0  0
   28.3257   53.5764   48.4802 H   0  0  0  0  0
   27.2476   53.4962   46.2377 H   0  0  0  0  0
   26.7097   53.3576   44.5104 H   0  0  0  0  0
   26.9051   51.9742   41.8968 H   0  0  0  0  0
   24.3919   52.0409   41.5765 H   0  0  0  0  0
   24.2293   52.5686   43.2837 H   0  0  0  0  0
   25.6568   50.3974   43.7459 H   0  0  0  0  0
   25.0137   49.8942   42.1643 H   0  0  0  0  0
   25.6835   54.5693   43.6387 H   0  0  0  0  0
   18.6869   43.4974   41.7601 H   0  0  0  0  0
   18.9437   46.0242   42.4068 H   0  0  0  0  0
   20.3394   45.0304   42.9706 H   0  0  0  0  0
   20.2942   46.6549   45.0098 H   0  0  0  0  0
   19.3828   47.7092   43.9422 H   0  0  0  0  0
   21.2546   47.3465   42.1441 H   0  0  0  0  0
   22.1700   46.4964   43.3239 H   0  0  0  0  0
   20.9750   49.2602   43.7534 H   0  0  0  0  0
   23.6796   47.4144   44.7020 H   0  0  0  0  0
   23.3956   48.5817   42.4048 H   0  0  0  0  0
   16.1670   45.8196   42.9773 H   0  0  0  0  0
   15.8305   43.3252   41.4628 H   0  0  0  0  0
   13.9335   44.9280   41.5541 H   0  0  0  0  0
   14.4707   44.7999   39.8616 H   0  0  0  0  0
   15.9499   46.8544   40.2825 H   0  0  0  0  0
   15.0748   47.0402   41.8605 H   0  0  0  0  0
   14.5441   48.9934   40.8685 H   0  0  0  0  0
   17.8726   45.8826   41.2576 H   0  0  0  0  0
  1  2  2  0  0  0
  1  3  1  0  0  0
 10  1  1  0  0  0
  3  4  4  0  0  0
  3  9  4  0  0  0
  4  5  4  0  0  0
  5  6  4  0  0  0
  6  7  1  0  0  0
  8  6  4  0  0  0
  9  8  4  0  0  0
 11 10  1  0  0  0
 11 12  1  0  0  0
 14 11  1  0  0  0
 12 13  2  0  0  0
 12 18  1  0  0  0
 15 14  1  0  0  0
 16 15  1  0  0  0
 16 17  2  0  0  0
 30 16  1  0  0  0
 19 20  1  0  0  0
 19 21  2  0  0  0
 22 19  1  0  0  0
 19 31  1  0  0  0
 23 22  1  0  0  0
 24 23  1  0  0  0
 25 24  1  0  0  0
 26 25  1  0  0  0
 26 27  1  0  0  0
 26 30  1  0  0  0
 27 28  2  0  0  0
 27 29  1  0  0  0
 31 32  1  0  0  0
 32 33  1  0  0  0
 32 35  1  0  0  0
 33 34  2  0  0  0
 33 40  1  0  0  0
 35 36  1  0  0  0
 36 37  1  0  0  0
 37 38  2  0  0  0
 37 39  1  0  0  0
  4 41  1  0  0  0
  5 42  1  0  0  0
  8 43  1  0  0  0
  9 44  1  0  0  0
 10 45  1  0  0  0
 11 46  1  0  0  0
 14 47  1  0  0  0
 14 48  1  0  0  0
 15 49  1  0  0  0
 15 50  1  0  0  0
 18 51  1  0  0  0
 20 52  1  0  0  0
 23 53  1  0  0  0
 23 54  1  0  0  0
 24 55  1  0  0  0
 24 56  1  0  0  0
 25 57  1  0  0  0
 25 58  1  0  0  0
 26 59  1  0  0  0
 29 60  1  0  0  0
 30 61  1  0  0  0
 31 62  1  0  0  0
 32 63  1  0  0  0
 35 64  1  0  0  0
 35 65  1  0  0  0
 36 66  1  0  0  0
 36 67  1  0  0  0
 39 68  1  0  0  0
 40 69  1  0  0  0
M  END
$$$$
