4uvv_ligand
  -I-interpret- 

 31 33  0  0  0  0  0  0  0  0999 V2000
  -39.6630  -12.6910   12.5620 C   0  0  0  0  0
  -39.7640  -12.8850   13.9440 C   0  0  0  0  0
  -40.6190  -13.8840   14.4450 C   0  0  0  0  0
  -41.3940  -14.7250   13.5780 C   0  0  0  0  0
  -40.7180  -14.0360   15.8350 C   0  0  0  0  0
  -39.9950  -13.2150   16.7170 C   0  0  0  0  0
  -39.1420  -12.2290   16.2140 C   0  0  0  0  0
  -39.0260  -12.0720   14.8330 C   0  0  0  0  0
  -38.1360  -11.1050   14.2930 C   0  0  0  0  0
  -37.4130  -10.3980   14.9850 O   0  0  0  0  0
  -38.0730  -10.9390   12.9300 N   0  0  0  0  0
  -38.8280  -11.7260   12.0330 C   0  0  0  0  0
  -38.7420  -11.4740   10.6180 C   0  0  0  0  0
  -38.3670  -10.1850   10.2030 C   0  0  0  0  0
  -38.2920   -9.8600    8.8410 C   0  0  0  0  0
  -38.6070  -10.8180    7.8740 C   0  0  0  0  0
  -38.5000  -10.4770    6.1330 Cl  0  0  0  0  0
  -39.0180  -12.0910    8.2730 C   0  0  0  0  0
  -39.0940  -12.4110    9.6280 C   0  0  0  0  0
  -40.2544  -13.3131   11.8901 H   0  0  0  0  0
  -42.0635  -14.1080   12.9786 H   0  0  0  0  0
  -40.7256  -15.2818   12.9213 H   0  0  0  0  0
  -41.9795  -15.4217   14.1779 H   0  0  0  0  0
  -41.3708  -14.8088   16.2410 H   0  0  0  0  0
  -40.0996  -13.3473   17.7939 H   0  0  0  0  0
  -38.5749  -11.5911   16.8919 H   0  0  0  0  0
  -37.4570  -10.2194   12.5518 H   0  0  0  0  0
  -38.1311   -9.4272   10.9501 H   0  0  0  0  0
  -37.9876   -8.8587    8.5363 H   0  0  0  0  0
  -39.2803  -12.8372    7.5230 H   0  0  0  0  0
  -39.4317  -13.4036    9.9258 H   0  0  0  0  0
  1  2  1  0  0  0
  1 12  2  0  0  0
  2  3  4  0  0  0
  2  8  4  0  0  0
  3  4  1  0  0  0
  3  5  4  0  0  0
  5  6  4  0  0  0
  6  7  4  0  0  0
  7  8  4  0  0  0
  8  9  1  0  0  0
  9 10  2  0  0  0
  9 11  1  0  0  0
 11 12  1  0  0  0
 12 13  1  0  0  0
 13 14  4  0  0  0
 13 19  4  0  0  0
 14 15  4  0  0  0
 15 16  4  0  0  0
 16 17  1  0  0  0
 16 18  4  0  0  0
 18 19  4  0  0  0
  1 20  1  0  0  0
  4 21  1  0  0  0
  4 22  1  0  0  0
  4 23  1  0  0  0
  5 24  1  0  0  0
  6 25  1  0  0  0
  7 26  1  0  0  0
 11 27  1  0  0  0
 14 28  1  0  0  0
 15 29  1  0  0  0
 18 30  1  0  0  0
 19 31  1  0  0  0
M  END
$$$$
