5aqr_ligand
  -I-interpret- 

 22 23  0  0  0  0  0  0  0  0999 V2000
  204.1680   -4.4850   64.4350 N   0  0  0  0  0
  203.5160   -4.9800   63.3700 C   0  0  0  0  0
  202.8490   -4.1140   62.5600 N   0  0  0  0  0
  202.2290   -4.6330   61.4990 C   0  0  0  0  0
  202.1650   -5.8880   61.1180 N   0  0  0  0  0
  202.8210   -6.7840   61.9210 C   0  0  0  0  0
  203.5340   -6.3970   63.0850 C   0  0  0  0  0
  204.1700   -7.3950   63.8540 C   0  0  0  0  0
  204.0890   -8.7090   63.4820 C   0  0  0  0  0
  204.6490   -9.7640   64.1550 O   0  0  0  0  0
  205.3870   -9.4920   65.3420 C   0  0  0  0  0
  203.3940   -9.0870   62.3440 C   0  0  0  0  0
  202.7730   -8.1520   61.5770 C   0  0  0  0  0
  204.1550   -3.4820   64.6200 H   0  0  0  0  0
  204.6761   -5.1121   65.0587 H   0  0  0  0  0
  201.7052   -3.9195   60.8629 H   0  0  0  0  0
  204.7282   -7.1176   64.7482 H   0  0  0  0  0
  206.2230   -8.8337   65.1057 H   0  0  0  0  0
  204.7361   -9.0078   66.0700 H   0  0  0  0  0
  205.7648  -10.4270   65.7557 H   0  0  0  0  0
  203.3451  -10.1389   62.0627 H   0  0  0  0  0
  202.2306   -8.4631   60.6842 H   0  0  0  0  0
  1  2  1  0  0  0
  2  3  4  0  0  0
  2  7  4  0  0  0
  3  4  4  0  0  0
  4  5  4  0  0  0
  5  6  4  0  0  0
  6  7  4  0  0  0
  6 13  4  0  0  0
  7  8  4  0  0  0
  8  9  4  0  0  0
  9 10  1  0  0  0
  9 12  4  0  0  0
 10 11  1  0  0  0
 12 13  4  0  0  0
  1 14  1  0  0  0
  1 15  1  0  0  0
  4 16  1  0  0  0
  8 17  1  0  0  0
 11 18  1  0  0  0
 11 19  1  0  0  0
 11 20  1  0  0  0
 12 21  1  0  0  0
 13 22  1  0  0  0
M  END
$$$$
