3q4k_ligand
  -I-interpret- 

103104  0  0  0  0  0  0  0  0999 V2000
  -14.6280    0.7040   29.5910 C   0  0  0  0  0
  -14.2210    1.1360   30.6670 O   0  0  0  0  0
  -15.6120   -0.4540   29.5240 C   0  0  0  0  0
  -14.2920    1.4010   28.3590 N   0  0  0  0  0
  -13.4240    2.6990   28.4120 C   0  0  0  0  0
  -13.7780    3.7900   29.5590 C   0  0  0  0  0
  -14.8300    4.4420   29.4880 O   0  0  0  0  0
  -13.1420    3.3980   26.9930 C   0  0  0  0  0
  -11.8620    4.2520   26.9860 C   0  0  0  0  0
  -10.6090    3.4910   27.3500 C   0  0  0  0  0
  -10.4260    2.4110   26.8090 O   0  0  0  0  0
   -9.7920    3.8930   28.4630 N   0  0  0  0  0
  -12.6870    4.1470   30.4880 N   0  0  0  0  0
  -12.5140    5.5080   30.9640 C   0  0  0  0  0
  -11.6360    6.3000   29.9950 C   0  0  0  0  0
  -10.8440    5.7190   29.2630 O   0  0  0  0  0
  -11.8260    5.5160   32.3740 C   0  0  0  0  0
  -12.4620    4.8000   33.6320 C   0  0  0  0  0
  -13.8920    4.4310   33.3980 C   0  0  0  0  0
  -14.4870    3.7990   34.6180 C   0  0  0  0  0
  -13.6650    2.7300   35.2760 C   0  0  0  0  0
  -12.1760    2.8540   35.2080 C   0  0  0  0  0
  -11.6110    3.6590   34.0760 C   0  0  0  0  0
  -11.9840    7.6290   29.4880 N   0  0  0  0  0
  -12.5500    8.8300   30.3010 C   0  0  0  0  0
  -11.4740    9.7290   31.1200 C   0  0  0  0  0
  -11.3770    9.6970   32.3470 O   0  0  0  0  0
  -14.0290    8.5460   30.9090 C   0  0  0  0  0
  -15.0120    8.7270   29.7520 C   0  0  0  0  0
  -16.1820    8.1140   29.7650 O   0  0  0  0  0
  -14.4180    9.2870   28.6680 O   0  0  0  0  0
  -10.5600   10.5390   30.2690 N   0  0  0  0  0
   -9.6240   11.5710   30.7690 C   0  0  0  0  0
  -10.2690   12.9140   31.0930 C   0  0  0  0  0
   -9.7030   13.6710   31.8820 O   0  0  0  0  0
   -8.4650   11.7900   29.7540 C   0  0  0  0  0
   -7.4890   10.6630   29.5420 C   0  0  0  0  0
   -6.7480   10.7530   28.2420 C   0  0  0  0  0
   -6.6370   10.3430   30.7520 C   0  0  0  0  0
  -11.5140   13.3520   30.3990 N   0  0  0  0  0
  -12.0850   14.7350   30.6220 C   0  0  0  0  0
  -13.5940   14.7310   30.7560 C   0  0  0  0  0
  -14.2000   15.4400   31.8100 O   0  0  0  0  0
  -14.3620   13.9820   29.8280 O   0  0  0  0  0
  -11.6400   15.8170   29.6120 C   0  0  0  0  0
  -10.1850   15.7110   29.1350 C   0  0  0  0  0
   -9.9090   15.2100   27.8630 C   0  0  0  0  0
   -9.1610   16.0820   29.9950 C   0  0  0  0  0
   -8.5920   15.0880   27.4550 C   0  0  0  0  0
   -7.8420   15.9600   29.5930 C   0  0  0  0  0
   -7.5720   15.4590   28.3240 C   0  0  0  0  0
   -5.9310   15.2880   27.8290 Cl  0  0  0  0  0
  -15.1706   -1.3320   29.9956 H   0  0  0  0  0
  -16.5285   -0.1811   30.0472 H   0  0  0  0  0
  -15.8396   -0.6758   28.4814 H   0  0  0  0  0
  -14.6223    1.0431   27.4628 H   0  0  0  0  0
  -12.4814    2.2629   28.7428 H   0  0  0  0  0
  -13.9820    4.0577   26.7755 H   0  0  0  0  0
  -13.0174    2.6076   26.2529 H   0  0  0  0  0
  -11.9926    5.0339   27.7342 H   0  0  0  0  0
  -11.7289    4.6242   25.9702 H   0  0  0  0  0
   -9.0555    3.2754   28.8044 H   0  0  0  0  0
   -9.9490    4.7958   28.9111 H   0  0  0  0  0
  -12.0414    3.4224   30.8019 H   0  0  0  0  0
  -13.5010    5.9653   31.0335 H   0  0  0  0  0
  -11.8331    6.5698   32.6526 H   0  0  0  0  0
  -10.9025    4.9614   32.2077 H   0  0  0  0  0
  -12.4831    5.5079   34.4605 H   0  0  0  0  0
  -13.9399    3.7180   32.5750 H   0  0  0  0  0
  -14.4533    5.3351   33.1623 H   0  0  0  0  0
  -15.4095    3.3178   34.2932 H   0  0  0  0  0
  -14.5948    4.5967   35.3530 H   0  0  0  0  0
  -13.9048    1.8096   34.7435 H   0  0  0  0  0
  -13.9132    2.7834   36.3360 H   0  0  0  0  0
  -11.7990    1.8407   35.0698 H   0  0  0  0  0
  -11.8786    3.3726   36.1195 H   0  0  0  0  0
  -10.6716    4.0844   34.4290 H   0  0  0  0  0
  -11.5176    2.9847   33.2247 H   0  0  0  0  0
  -11.8394    7.7853   28.4905 H   0  0  0  0  0
  -12.7820    9.6185   29.5851 H   0  0  0  0  0
  -14.2549    9.2316   31.7257 H   0  0  0  0  0
  -14.0949    7.5407   31.3252 H   0  0  0  0  0
  -13.5751    9.6667   28.9268 H   0  0  0  0  0
  -10.5802   10.3698   29.2633 H   0  0  0  0  0
   -9.2470   11.1772   31.7129 H   0  0  0  0  0
   -7.8749   12.6109   30.1615 H   0  0  0  0  0
   -8.9497   11.9383   28.7890 H   0  0  0  0  0
   -8.1018    9.7682   29.4330 H   0  0  0  0  0
   -7.4600   10.7295   27.4170 H   0  0  0  0  0
   -6.1841   11.6853   28.2105 H   0  0  0  0  0
   -6.0630    9.9094   28.1566 H   0  0  0  0  0
   -6.0554   11.2226   31.0281 H   0  0  0  0  0
   -7.2815   10.0564   31.5830 H   0  0  0  0  0
   -5.9629    9.5205   30.5129 H   0  0  0  0  0
  -11.9878   12.7093   29.7643 H   0  0  0  0  0
  -11.6426   15.0250   31.5750 H   0  0  0  0  0
  -13.7766   13.5718   29.1872 H   0  0  0  0  0
  -11.7321   16.7761   30.1216 H   0  0  0  0  0
  -12.2674   15.6962   28.7289 H   0  0  0  0  0
  -10.7214   14.9178   27.1976 H   0  0  0  0  0
   -9.3952   16.4693   30.9866 H   0  0  0  0  0
   -8.3568   14.7048   26.4621 H   0  0  0  0  0
   -7.0297   16.2513   30.2589 H   0  0  0  0  0
  1  2  2  0  0  0
  1  3  1  0  0  0
  1  4  1  0  0  0
  4  5  1  0  0  0
  5  6  1  0  0  0
  5  8  1  0  0  0
  6  7  2  0  0  0
  6 13  1  0  0  0
  8  9  1  0  0  0
  9 10  1  0  0  0
 10 11  2  0  0  0
 10 12  1  0  0  0
 13 14  1  0  0  0
 14 15  1  0  0  0
 14 17  1  0  0  0
 15 16  2  0  0  0
 15 24  1  0  0  0
 17 18  1  0  0  0
 18 19  1  0  0  0
 18 23  1  0  0  0
 19 20  1  0  0  0
 20 21  1  0  0  0
 21 22  1  0  0  0
 22 23  1  0  0  0
 24 25  1  0  0  0
 25 26  1  0  0  0
 25 28  1  0  0  0
 26 27  2  0  0  0
 26 32  1  0  0  0
 28 29  1  0  0  0
 29 30  2  0  0  0
 29 31  1  0  0  0
 32 33  1  0  0  0
 33 34  1  0  0  0
 33 36  1  0  0  0
 34 35  2  0  0  0
 34 40  1  0  0  0
 36 37  1  0  0  0
 37 38  1  0  0  0
 37 39  1  0  0  0
 40 41  1  0  0  0
 41 42  1  0  0  0
 41 45  1  0  0  0
 42 43  2  0  0  0
 42 44  1  0  0  0
 45 46  1  0  0  0
 46 47  4  0  0  0
 46 48  4  0  0  0
 47 49  4  0  0  0
 48 50  4  0  0  0
 49 51  4  0  0  0
 50 51  4  0  0  0
 51 52  1  0  0  0
  3 53  1  0  0  0
  3 54  1  0  0  0
  3 55  1  0  0  0
  4 56  1  0  0  0
  5 57  1  0  0  0
  8 58  1  0  0  0
  8 59  1  0  0  0
  9 60  1  0  0  0
  9 61  1  0  0  0
 12 62  1  0  0  0
 12 63  1  0  0  0
 13 64  1  0  0  0
 14 65  1  0  0  0
 17 66  1  0  0  0
 17 67  1  0  0  0
 18 68  1  0  0  0
 19 69  1  0  0  0
 19 70  1  0  0  0
 20 71  1  0  0  0
 20 72  1  0  0  0
 21 73  1  0  0  0
 21 74  1  0  0  0
 22 75  1  0  0  0
 22 76  1  0  0  0
 23 77  1  0  0  0
 23 78  1  0  0  0
 24 79  1  0  0  0
 25 80  1  0  0  0
 28 81  1  0  0  0
 28 82  1  0  0  0
 31 83  1  0  0  0
 32 84  1  0  0  0
 33 85  1  0  0  0
 36 86  1  0  0  0
 36 87  1  0  0  0
 37 88  1  0  0  0
 38 89  1  0  0  0
 38 90  1  0  0  0
 38 91  1  0  0  0
 39 92  1  0  0  0
 39 93  1  0  0  0
 39 94  1  0  0  0
 40 95  1  0  0  0
 41 96  1  0  0  0
 44 97  1  0  0  0
 45 98  1  0  0  0
 45 99  1  0  0  0
 47100  1  0  0  0
 48101  1  0  0  0
 49102  1  0  0  0
 50103  1  0  0  0
M  END
$$$$
