### 
### Created by X-TOOL on Mon Sep 10 21:13:08 2018
### 

@<TRIPOS>MOLECULE
3q4k_ligand
  101   102     1     0     0
SMALL
GAST_HUCK


@<TRIPOS>ATOM
      1 C         -14.6280    0.7040   29.5910 C.2       1 ACE         0.1751
      2 O         -14.2210    1.1360   30.6670 O.2       1 ACE        -0.3972
      3 CH3       -15.6120   -0.4540   29.5240 C.3       1 ACE         0.0258
      4 N         -14.2920    1.4010   28.3590 N.am      1 GLN        -0.2657
      5 CA        -13.4240    2.6990   28.4120 C.3       1 GLN         0.1329
      6 C         -13.7780    3.7900   29.5590 C.2       1 GLN         0.2040
      7 O         -14.8300    4.4420   29.4880 O.2       1 GLN        -0.3944
      8 CB        -13.1420    3.3980   26.9930 C.3       1 GLN         0.0045
      9 CG        -11.8620    4.2520   26.9860 C.3       1 GLN         0.0412
     10 CD        -10.6090    3.4910   27.3500 C.2       1 GLN         0.1737
     11 OE1       -10.4260    2.4110   26.8090 O.2       1 GLN        -0.3973
     12 NE2        -9.7920    3.8930   28.4630 N.am      1 GLN        -0.3009
     13 N         -12.6870    4.1470   30.4880 N.am      1 ALC        -0.2637
     14 CA        -12.5140    5.5080   30.9640 C.3       1 ALC         0.1312
     15 C         -11.6360    6.3000   29.9950 C.2       1 ALC         0.2040
     16 O         -10.8440    5.7190   29.2630 O.2       1 ALC        -0.3944
     17 CB        -11.8260    5.5160   32.3740 C.3       1 ALC        -0.0096
     18 CG        -12.4620    4.8000   33.6320 C.3       1 ALC        -0.0368
     19 CD2       -13.8920    4.4310   33.3980 C.3       1 ALC        -0.0500
     20 CE2       -14.4870    3.7990   34.6180 C.3       1 ALC        -0.0528
     21 CZ        -13.6650    2.7300   35.2760 C.3       1 ALC        -0.0530
     22 CE1       -12.1760    2.8540   35.2080 C.3       1 ALC        -0.0528
     23 CD1       -11.6110    3.6590   34.0760 C.3       1 ALC        -0.0500
     24 N         -11.9840    7.6290   29.4880 N.am      1 ASP        -0.2622
     25 CA        -12.5500    8.8300   30.3010 C.3       1 ASP         0.1423
     26 C         -11.4740    9.7290   31.1200 C.2       1 ASP         0.2056
     27 O         -11.3770    9.6970   32.3470 O.2       1 ASP        -0.3943
     28 CB        -14.0290    8.5460   30.9090 C.3       1 ASP         0.0406
     29 CG        -15.0120    8.7270   29.7520 C.2       1 ASP         0.0393
     30 OD1       -16.1820    8.1140   29.7650 O.co2     1 ASP        -0.5688
     31 OD2       -14.4180    9.2870   28.6680 O.co2     1 ASP        -0.5688
     32 N         -10.5600   10.5390   30.2690 N.am      1 LEU        -0.2636
     33 CA         -9.6240   11.5710   30.7690 C.3       1 LEU         0.1312
     34 C         -10.2690   12.9140   31.0930 C.2       1 LEU         0.2035
     35 O          -9.7030   13.6710   31.8820 O.2       1 LEU        -0.3944
     36 CB         -8.4650   11.7900   29.7540 C.3       1 LEU        -0.0101
     37 CG         -7.4890   10.6630   29.5420 C.3       1 LEU        -0.0425
     38 CD1        -6.7480   10.7530   28.2420 C.3       1 LEU        -0.0625
     39 CD2        -6.6370   10.3430   30.7520 C.3       1 LEU        -0.0625
     40 N         -11.5140   13.3520   30.3990 N.am      1 200        -0.2677
     41 CA        -12.0850   14.7350   30.6220 C.3       1 200         0.1040
     42 C         -13.5940   14.7310   30.7560 C.2       1 200         0.0621
     43 O         -14.2000   15.4400   31.8100 O.co2     1 200        -0.5664
     44 OXT       -14.3620   13.9820   29.8280 O.co2     1 200        -0.5664
     45 CB        -11.6400   15.8170   29.6120 C.3       1 200         0.0161
     46 CG        -10.1850   15.7110   29.1350 C.ar      1 200        -0.0389
     47 CD1        -9.9090   15.2100   27.8630 C.ar      1 200        -0.0595
     48 CD2        -9.1610   16.0820   29.9950 C.ar      1 200        -0.0595
     49 CE1        -8.5920   15.0880   27.4550 C.ar      1 200        -0.0546
     50 CE2        -7.8420   15.9600   29.5930 C.ar      1 200        -0.0546
     51 CZ         -7.5720   15.4590   28.3240 C.ar      1 200         0.0330
     52 CL         -5.9310   15.2880   27.8290 Cl        1 200        -0.0771
     53 H1        -15.8425   -0.6789   28.4722 H         1 ACE         0.0467
     54 H2        -16.5374   -0.1798   30.0516 H         1 ACE         0.0467
     55 H3        -15.1677   -1.3408   29.9996 H         1 ACE         0.0467
     56 H4        -14.6158    1.0501   27.4803 H         1 GLN         0.1883
     57 H5        -12.4383    2.3184   28.7177 H         1 GLN         0.0801
     58 H6        -13.9963    4.0452   26.7454 H         1 GLN         0.0337
     59 H7        -13.0433    2.6127   26.2291 H         1 GLN         0.0337
     60 H8        -11.9900    5.0717   27.7083 H         1 GLN         0.0504
     61 H9        -11.7312    4.6696   25.9768 H         1 GLN         0.0504
     62 H10        -8.9658    3.3769   28.6890 H         1 GLN         0.1814
     63 H11       -10.0500    4.6887   29.0110 H         1 GLN         0.1814
     64 H12       -12.0540    3.4366   30.7958 H         1 ALC         0.1883
     65 H13       -13.5008    5.9883   31.0382 H         1 ALC         0.0800
     66 H14       -11.7089    6.5740   32.6511 H         1 ALC         0.0315
     67 H15       -10.8341    5.0620   32.2328 H         1 ALC         0.0315
     68 H16       -12.4605    5.5316   34.4534 H         1 ALC         0.0303
     69 H17       -13.9482    3.7202   32.5604 H         1 ALC         0.0268
     70 H18       -14.4618    5.3381   33.1480 H         1 ALC         0.0268
     71 H19       -15.4499    3.3524   34.3294 H         1 ALC         0.0265
     72 H20       -14.6588    4.5941   35.3584 H         1 ALC         0.0265
     73 H21       -13.9361    1.7725   34.8073 H         1 ALC         0.0265
     74 H22       -13.9442    2.7096   36.3398 H         1 ALC         0.0265
     75 H23       -11.7615    1.8379   35.1319 H         1 ALC         0.0265
     76 H24       -11.8385    3.3184   36.1463 H         1 ALC         0.0265
     77 H25       -10.6384    4.0618   34.3951 H         1 ALC         0.0268
     78 H26       -11.4657    2.9866   33.2176 H         1 ALC         0.0268
     79 H27       -11.8422    7.7823   28.5100 H         1 ASP         0.1884
     80 H28       -12.8007    9.5334   29.4934 H         1 ASP         0.0819
     81 H29       -14.2532    9.2609   31.7143 H         1 ASP         0.0478
     82 H30       -14.0885    7.5204   31.3021 H         1 ASP         0.0478
     83 H31       -10.5798   10.3731   29.2830 H         1 LEU         0.1883
     84 H32        -9.1902   11.1851   31.7033 H         1 LEU         0.0800
     85 H33        -7.8887   12.6614   30.0984 H         1 LEU         0.0315
     86 H34        -8.9220   12.0147   28.7790 H         1 LEU         0.0315
     87 H35        -8.1250    9.7732   29.4250 H         1 LEU         0.0298
     88 H36        -6.0563    9.9022   28.1546 H         1 LEU         0.0232
     89 H37        -6.1784   11.6934   28.2089 H         1 LEU         0.0232
     90 H38        -7.4655   10.7294   27.4086 H         1 LEU         0.0232
     91 H39        -7.2738   10.3003   31.6479 H         1 LEU         0.0232
     92 H40        -5.8747   11.1254   30.8810 H         1 LEU         0.0232
     93 H41        -6.1436    9.3708   30.6063 H         1 LEU         0.0232
     94 H42       -11.9785   12.7219   29.7767 H         1 200         0.1877
     95 H43       -11.6894   15.0571   31.5965 H         1 200         0.0749
     96 H44       -11.7707   16.8002   30.0877 H         1 200         0.0468
     97 H45       -12.2928   15.7469   28.7294 H         1 200         0.0468
     98 H46       -10.7169   14.9194   27.2013 H         1 200         0.0557
     99 H47        -9.3939   16.4672   30.9811 H         1 200         0.0557
    100 H48        -8.3581   14.7069   26.4675 H         1 200         0.0606
    101 H49        -7.0342   16.2497   30.2553 H         1 200         0.0606
@<TRIPOS>BOND
     1    1    2 2  
     2    1    3 1  
     3    1    4 am 
     4    4    5 1  
     5    5    6 1  
     6    5    8 1  
     7    6    7 2  
     8    6   13 am 
     9    8    9 1  
    10    9   10 1  
    11   10   11 2  
    12   10   12 am 
    13   13   14 1  
    14   14   15 1  
    15   14   17 1  
    16   15   16 2  
    17   15   24 am 
    18   17   18 1  
    19   18   19 1  
    20   18   23 1  
    21   19   20 1  
    22   20   21 1  
    23   21   22 1  
    24   22   23 1  
    25   24   25 1  
    26   25   26 1  
    27   25   28 1  
    28   26   27 2  
    29   26   32 am 
    30   28   29 1  
    31   29   30 ar 
    32   29   31 ar 
    33   32   33 1  
    34   33   34 1  
    35   33   36 1  
    36   34   35 2  
    37   34   40 am 
    38   36   37 1  
    39   37   38 1  
    40   37   39 1  
    41   40   41 1  
    42   41   42 1  
    43   41   45 1  
    44   42   43 ar 
    45   42   44 ar 
    46   45   46 1  
    47   46   47 ar 
    48   46   48 ar 
    49   47   49 ar 
    50   48   50 ar 
    51   49   51 ar 
    52   50   51 ar 
    53   51   52 1  
    54    3   53 1  
    55    3   54 1  
    56    3   55 1  
    57    4   56 1  
    58    5   57 1  
    59    8   58 1  
    60    8   59 1  
    61    9   60 1  
    62    9   61 1  
    63   12   62 1  
    64   12   63 1  
    65   13   64 1  
    66   14   65 1  
    67   17   66 1  
    68   17   67 1  
    69   18   68 1  
    70   19   69 1  
    71   19   70 1  
    72   20   71 1  
    73   20   72 1  
    74   21   73 1  
    75   21   74 1  
    76   22   75 1  
    77   22   76 1  
    78   23   77 1  
    79   23   78 1  
    80   24   79 1  
    81   25   80 1  
    82   28   81 1  
    83   28   82 1  
    84   32   83 1  
    85   33   84 1  
    86   36   85 1  
    87   36   86 1  
    88   37   87 1  
    89   38   88 1  
    90   38   89 1  
    91   38   90 1  
    92   39   91 1  
    93   39   92 1  
    94   39   93 1  
    95   40   94 1  
    96   41   95 1  
    97   45   96 1  
    98   45   97 1  
    99   47   98 1  
   100   48   99 1  
   101   49  100 1  
   102   50  101 1  
@<TRIPOS>SUBSTRUCTURE
     1 ACE         1

