5eto_ligand
  -I-interpret- 

 29 31  0  0  0  0  0  0  0  0999 V2000
  -12.7510   27.7720  -19.3130 C   0  0  0  0  0
  -10.4560   27.4920  -18.6190 C   0  0  0  0  0
   -9.4760   26.6940  -18.1110 C   0  0  0  0  0
  -12.0250   25.7560  -18.2700 C   0  0  0  0  0
  -11.7410   27.0260  -18.7130 C   0  0  0  0  0
   -9.6920   25.3910  -17.6880 C   0  0  0  0  0
   -9.4650   20.5770  -19.4470 C   0  0  0  0  0
  -11.0040   24.9650  -17.7880 C   0  0  0  0  0
   -9.9720   21.4450  -20.3940 C   0  0  0  0  0
   -9.9750   19.3050  -19.4030 C   0  0  0  0  0
  -11.4770   19.9870  -21.1000 C   0  0  0  0  0
   -8.3950   22.4620  -19.2630 C   0  0  0  0  0
   -8.5390   24.4380  -17.2520 C   0  0  0  0  0
  -13.5950   28.3850  -19.8310 N   0  0  0  0  0
  -10.9980   21.2140  -21.2270 N   0  0  0  0  0
   -9.3000   22.5980  -20.2360 N   0  0  0  0  0
  -11.0380   19.0610  -20.2260 N   0  0  0  0  0
   -8.4640   21.2040  -18.7710 N   0  0  0  0  0
  -12.5130   19.6290  -21.8680 N   0  0  0  0  0
   -9.6080   18.3540  -18.5960 O   0  0  0  0  0
  -11.3370   23.7460  -17.4170 F   0  0  0  0  0
   -7.3600   23.6940  -18.6900 S   0  0  0  0  0
  -10.2177   28.5024  -18.9511 H   0  0  0  0  0
   -8.4680   27.1013  -18.0327 H   0  0  0  0  0
  -13.0470   25.3783  -18.2996 H   0  0  0  0  0
   -9.0271   23.5758  -16.7977 H   0  0  0  0  0
   -7.8859   25.0384  -16.6187 H   0  0  0  0  0
  -11.3660   21.9039  -21.8820 H   0  0  0  0  0
  -12.9228   18.7000  -21.7710 H   0  0  0  0  0
  5  1  1  0  0  0
  1 14  3  0  0  0
  3  2  4  0  0  0
  2  5  4  0  0  0
  6  3  4  0  0  0
  4  5  4  0  0  0
  8  4  4  0  0  0
  6  8  4  0  0  0
 13  6  1  0  0  0
  7  9  4  0  0  0
  7 10  1  0  0  0
 18  7  4  0  0  0
  8 21  1  0  0  0
  9 15  1  0  0  0
 16  9  4  0  0  0
 10 17  1  0  0  0
 10 20  2  0  0  0
 15 11  1  0  0  0
 17 11  4  0  0  0
 11 19  2  0  0  0
 12 16  4  0  0  0
 12 18  4  0  0  0
 22 12  1  0  0  0
 13 22  1  0  0  0
  2 23  1  0  0  0
  3 24  1  0  0  0
  4 25  1  0  0  0
 13 26  1  0  0  0
 13 27  1  0  0  0
 15 28  1  0  0  0
 19 29  1  0  0  0
M  END
$$$$
