### 
### Created by X-TOOL on Mon Sep 10 21:13:14 2018
### 

@<TRIPOS>MOLECULE
4aif_ligand
  100    99     1     0     0
SMALL
GAST_HUCK


@<TRIPOS>ATOM
      1 N          30.4770  -18.4720   22.9070 N.4       1 SER         0.2396
      2 CA         29.8900  -19.2300   24.0090 C.3       1 SER         0.0885
      3 C          28.7570  -18.4560   24.6890 C.2       1 SER         0.2290
      4 O          27.6820  -18.2880   24.1090 O.2       1 SER        -0.3906
      5 CB         30.9650  -19.6420   25.0220 C.3       1 SER         0.1041
      6 OG         31.8100  -18.5520   25.3520 O.3       1 SER        -0.3870
      7 N          28.9900  -17.9900   25.9130 N.am      1 ARG        -0.2610
      8 CA         27.9610  -17.2410   26.6230 C.3       1 ARG         0.1311
      9 C          27.7340  -15.8740   25.9870 C.2       1 ARG         0.2039
     10 O          28.6570  -15.2470   25.4650 O.2       1 ARG        -0.3944
     11 CB         28.2830  -17.1010   28.1140 C.3       1 ARG        -0.0126
     12 CG         27.4300  -17.9900   29.0110 C.3       1 ARG        -0.0517
     13 CD         27.8680  -17.9050   30.4680 C.3       1 ARG        -0.0651
     14 N          26.4840  -15.4320   26.0330 N.am      1 MET        -0.2637
     15 CA         26.0820  -14.1740   25.4320 C.3       1 MET         0.1317
     16 C          26.7190  -12.9640   26.1240 C.2       1 MET         0.2039
     17 O          26.9310  -11.9350   25.4940 O.2       1 MET        -0.3944
     18 CB         24.5510  -14.0540   25.4250 C.3       1 MET        -0.0034
     19 CG         23.8320  -15.0760   24.5320 C.3       1 MET        -0.0024
     20 SD         24.2700  -15.0180   22.7700 S.3       1 MET        -0.1639
     21 CE         25.5420  -16.2840   22.7020 C.3       1 MET        -0.0181
     22 N          27.0250  -13.0850   27.4120 N.am      1 GLU        -0.2640
     23 CA         27.6230  -11.9650   28.1440 C.3       1 GLU         0.1282
     24 C          29.1470  -11.9260   28.0150 C.2       1 GLU         0.2036
     25 O          29.7850  -10.9620   28.4320 O.2       1 GLU        -0.3944
     26 CB         27.2140  -11.9750   29.6260 C.3       1 GLU        -0.0244
     27 N          29.7340  -12.9650   27.4310 N.am      1 GLU        -0.2636
     28 CA         31.1880  -13.0140   27.3010 C.3       1 GLU         0.1325
     29 C          31.7190  -12.2860   26.0640 C.2       1 GLU         0.2040
     30 O          31.0920  -12.2880   25.0010 O.2       1 GLU        -0.3944
     31 CB         31.6790  -14.4570   27.3120 C.3       1 GLU        -0.0008
     32 CG         31.4240  -15.1630   28.6290 C.3       1 GLU         0.0044
     33 CD         31.7670  -16.6350   28.5660 C.2       1 GLU         0.0350
     34 OE1        31.9910  -17.1380   27.4420 O.co2     1 GLU        -0.5690
     35 OE2        31.8120  -17.2840   29.6350 O.co2     1 GLU        -0.5690
     36 N          32.8820  -11.6610   26.2040 N.am      1 VAL        -0.2635
     37 CA         33.4770  -10.9700   25.0730 C.3       1 VAL         0.1332
     38 C          34.2460  -11.9500   24.1860 C.2       1 VAL         0.2037
     39 O          34.8570  -12.8960   24.6820 O.2       1 VAL        -0.3944
     40 CB         34.3300   -9.7610   25.5230 C.3       1 VAL        -0.0063
     41 CG1        33.4030   -8.6630   26.0710 C.3       1 VAL        -0.0584
     42 CG2        35.3640  -10.1860   26.5730 C.3       1 VAL        -0.0584
     43 N          34.1790  -11.7040   22.8770 N.am      1 ASP        -0.2679
     44 CA         34.6200  -12.6270   21.8220 C.3       1 ASP         0.1057
     45 C          33.6020  -13.7440   21.5560 C.2       1 ASP         0.0618
     46 O          32.4700  -13.4780   21.1450 O.co2     1 ASP        -0.5665
     47 CB         35.9990  -13.2020   22.1230 C.3       1 ASP         0.0351
     48 CG         37.1080  -12.2630   21.7260 C.2       1 ASP         0.0387
     49 OD1        36.9120  -11.0390   21.8620 O.co2     1 ASP        -0.5688
     50 OD2        38.1680  -12.7470   21.2700 O.co2     1 ASP        -0.5688
     51 OXT        33.8750  -14.9340   21.7410 O.co2     1 ASP        -0.5665
     52 H1         31.2167  -19.0111   22.4849 H         1 SER         0.2016
     53 H2         30.8517  -17.6045   23.2579 H         1 SER         0.2016
     54 H3         29.7678  -18.2773   22.2177 H         1 SER         0.2016
     55 H4         29.4574  -20.1493   23.5874 H         1 SER         0.1122
     56 H5         31.5744  -20.4489   24.5889 H         1 SER         0.0640
     57 H6         30.4742  -20.0041   25.9374 H         1 SER         0.0640
     58 H7         31.2900  -17.8531   25.7309 H         1 SER         0.2099
     59 H8         29.8753  -18.1544   26.3480 H         1 ARG         0.1884
     60 H9         27.0224  -17.8084   26.5385 H         1 ARG         0.0800
     61 H10        28.1204  -16.0535   28.4076 H         1 ARG         0.0312
     62 H11        29.3398  -17.3650   28.2674 H         1 ARG         0.0312
     63 H12        27.5218  -19.0322   28.6713 H         1 ARG         0.0265
     64 H13        26.3801  -17.6706   28.9351 H         1 ARG         0.0265
     65 H14        27.2302  -18.5586   31.0813 H         1 ARG         0.0230
     66 H15        27.7741  -16.8668   30.8192 H         1 ARG         0.0230
     67 H16        28.9158  -18.2283   30.5554 H         1 ARG         0.0230
     68 H17        25.7938  -15.9859   26.4987 H         1 MET         0.1883
     69 H18        26.4270  -14.1781   24.3875 H         1 MET         0.0800
     70 H19        24.2878  -13.0458   25.0726 H         1 MET         0.0320
     71 H20        24.1920  -14.1874   26.4562 H         1 MET         0.0320
     72 H21        22.7497  -14.8996   24.6183 H         1 MET         0.0378
     73 H22        24.0707  -16.0819   24.9078 H         1 MET         0.0378
     74 H23        25.9179  -16.3711   21.6719 H         1 MET         0.0340
     75 H24        25.1176  -17.2477   23.0202 H         1 MET         0.0340
     76 H25        26.3696  -16.0086   23.3722 H         1 MET         0.0340
     77 H26        26.8457  -13.9474   27.8854 H         1 GLU         0.1883
     78 H27        27.2312  -11.0394   27.6971 H         1 GLU         0.0797
     79 H28        27.6807  -11.1223   30.1409 H         1 GLU         0.0277
     80 H29        27.5490  -12.9131   30.0925 H         1 GLU         0.0277
     81 H30        26.1197  -11.8966   29.7049 H         1 GLU         0.0277
     82 H31        29.1775  -13.7174   27.0786 H         1 GLU         0.1883
     83 H32        31.6093  -12.5083   28.1823 H         1 GLU         0.0801
     84 H33        32.7617  -14.4597   27.1175 H         1 GLU         0.0330
     85 H34        31.1616  -15.0088   26.5134 H         1 GLU         0.0330
     86 H35        30.3597  -15.0583   28.8864 H         1 GLU         0.0433
     87 H36        32.0382  -14.6896   29.4091 H         1 GLU         0.0433
     88 H37        33.3487  -11.6659   27.0884 H         1 VAL         0.1883
     89 H38        32.6522  -10.5676   24.4666 H         1 VAL         0.0802
     90 H39        34.8674   -9.3636   24.6493 H         1 VAL         0.0343
     91 H40        34.0059   -7.8009   26.3923 H         1 VAL         0.0234
     92 H41        32.8374   -9.0551   26.9291 H         1 VAL         0.0234
     93 H42        32.7027   -8.3476   25.2835 H         1 VAL         0.0234
     94 H43        36.0113  -10.9703   26.1537 H         1 VAL         0.0234
     95 H44        34.8455  -10.5749   27.4618 H         1 VAL         0.0234
     96 H45        35.9769   -9.3177   26.8566 H         1 VAL         0.0234
     97 H46        33.7996  -10.8239   22.5915 H         1 ASP         0.1876
     98 H47        34.7056  -12.0400   20.8957 H         1 ASP         0.0745
     99 H48        36.1181  -14.1447   21.5688 H         1 ASP         0.0471
    100 H49        36.0721  -13.3996   23.2026 H         1 ASP         0.0471
@<TRIPOS>BOND
     1    1    2 1  
     2    2    3 1  
     3    2    5 1  
     4    3    4 2  
     5    3    7 am 
     6    5    6 1  
     7    7    8 1  
     8    8    9 1  
     9    8   11 1  
    10    9   10 2  
    11    9   14 am 
    12   11   12 1  
    13   12   13 1  
    14   14   15 1  
    15   15   16 1  
    16   15   18 1  
    17   16   17 2  
    18   16   22 am 
    19   18   19 1  
    20   19   20 1  
    21   20   21 1  
    22   22   23 1  
    23   23   24 1  
    24   23   26 1  
    25   24   25 2  
    26   24   27 am 
    27   27   28 1  
    28   28   29 1  
    29   28   31 1  
    30   29   30 2  
    31   29   36 am 
    32   31   32 1  
    33   32   33 1  
    34   33   34 ar 
    35   33   35 ar 
    36   36   37 1  
    37   37   38 1  
    38   37   40 1  
    39   38   39 2  
    40   38   43 am 
    41   40   41 1  
    42   40   42 1  
    43   43   44 1  
    44   44   45 1  
    45   44   47 1  
    46   45   46 ar 
    47   45   51 ar 
    48   47   48 1  
    49   48   49 ar 
    50   48   50 ar 
    51    1   52 1  
    52    1   53 1  
    53    1   54 1  
    54    2   55 1  
    55    5   56 1  
    56    5   57 1  
    57    6   58 1  
    58    7   59 1  
    59    8   60 1  
    60   11   61 1  
    61   11   62 1  
    62   12   63 1  
    63   12   64 1  
    64   13   65 1  
    65   13   66 1  
    66   13   67 1  
    67   14   68 1  
    68   15   69 1  
    69   18   70 1  
    70   18   71 1  
    71   19   72 1  
    72   19   73 1  
    73   21   74 1  
    74   21   75 1  
    75   21   76 1  
    76   22   77 1  
    77   23   78 1  
    78   26   79 1  
    79   26   80 1  
    80   26   81 1  
    81   27   82 1  
    82   28   83 1  
    83   31   84 1  
    84   31   85 1  
    85   32   86 1  
    86   32   87 1  
    87   36   88 1  
    88   37   89 1  
    89   40   90 1  
    90   41   91 1  
    91   41   92 1  
    92   41   93 1  
    93   42   94 1  
    94   42   95 1  
    95   42   96 1  
    96   43   97 1  
    97   44   98 1  
    98   47   99 1  
    99   47  100 1  
@<TRIPOS>SUBSTRUCTURE
     1 SER         1

