4aif_ligand
  -I-interpret- 

103102  0  0  0  0  0  0  0  0999 V2000
   30.4770  -18.4720   22.9070 N   0  3  0  0  0
   29.8900  -19.2300   24.0090 C   0  0  0  0  0
   28.7570  -18.4560   24.6890 C   0  0  0  0  0
   27.6820  -18.2880   24.1090 O   0  0  0  0  0
   30.9650  -19.6420   25.0220 C   0  0  0  0  0
   31.8100  -18.5520   25.3520 O   0  0  0  0  0
   28.9900  -17.9900   25.9130 N   0  0  0  0  0
   27.9610  -17.2410   26.6230 C   0  0  0  0  0
   27.7340  -15.8740   25.9870 C   0  0  0  0  0
   28.6570  -15.2470   25.4650 O   0  0  0  0  0
   28.2830  -17.1010   28.1140 C   0  0  0  0  0
   27.4300  -17.9900   29.0110 C   0  0  0  0  0
   27.8680  -17.9050   30.4680 C   0  0  0  0  0
   26.4840  -15.4320   26.0330 N   0  0  0  0  0
   26.0820  -14.1740   25.4320 C   0  0  0  0  0
   26.7190  -12.9640   26.1240 C   0  0  0  0  0
   26.9310  -11.9350   25.4940 O   0  0  0  0  0
   24.5510  -14.0540   25.4250 C   0  0  0  0  0
   23.8320  -15.0760   24.5320 C   0  0  0  0  0
   24.2700  -15.0180   22.7700 S   0  0  0  0  0
   25.5420  -16.2840   22.7020 C   0  0  0  0  0
   27.0250  -13.0850   27.4120 N   0  0  0  0  0
   27.6230  -11.9650   28.1440 C   0  0  0  0  0
   29.1470  -11.9260   28.0150 C   0  0  0  0  0
   29.7850  -10.9620   28.4320 O   0  0  0  0  0
   27.2140  -11.9750   29.6260 C   0  0  0  0  0
   29.7340  -12.9650   27.4310 N   0  0  0  0  0
   31.1880  -13.0140   27.3010 C   0  0  0  0  0
   31.7190  -12.2860   26.0640 C   0  0  0  0  0
   31.0920  -12.2880   25.0010 O   0  0  0  0  0
   31.6790  -14.4570   27.3120 C   0  0  0  0  0
   31.4240  -15.1630   28.6290 C   0  0  0  0  0
   31.7670  -16.6350   28.5660 C   0  0  0  0  0
   31.9910  -17.1380   27.4420 O   0  0  0  0  0
   31.8120  -17.2840   29.6350 O   0  0  0  0  0
   32.8820  -11.6610   26.2040 N   0  0  0  0  0
   33.4770  -10.9700   25.0730 C   0  0  0  0  0
   34.2460  -11.9500   24.1860 C   0  0  0  0  0
   34.8570  -12.8960   24.6820 O   0  0  0  0  0
   34.3300   -9.7610   25.5230 C   0  0  0  0  0
   33.4030   -8.6630   26.0710 C   0  0  0  0  0
   35.3640  -10.1860   26.5730 C   0  0  0  0  0
   34.1790  -11.7040   22.8770 N   0  0  0  0  0
   34.6200  -12.6270   21.8220 C   0  0  0  0  0
   33.6020  -13.7440   21.5560 C   0  0  0  0  0
   32.4700  -13.4780   21.1450 O   0  0  0  0  0
   35.9990  -13.2020   22.1230 C   0  0  0  0  0
   37.1080  -12.2630   21.7260 C   0  0  0  0  0
   36.9120  -11.0390   21.8620 O   0  0  0  0  0
   38.1680  -12.7470   21.2700 O   0  0  0  0  0
   33.8750  -14.9340   21.7410 O   0  0  0  0  0
   29.7441  -18.2098   22.2479 H   0  0  0  0  0
   30.9228  -17.6311   23.2738 H   0  0  0  0  0
   31.1726  -19.0476   22.4325 H   0  0  0  0  0
   29.4545  -20.1366   23.5889 H   0  0  0  0  0
   31.5739  -20.4303   24.5792 H   0  0  0  0  0
   30.4708  -19.9844   25.9312 H   0  0  0  0  0
   32.4703  -18.8410   25.9861 H   0  0  0  0  0
   29.8930  -18.1577   26.3567 H   0  0  0  0  0
   27.0364  -17.8122   26.5398 H   0  0  0  0  0
   28.0831  -16.0670   28.3949 H   0  0  0  0  0
   29.3221  -17.3996   28.2525 H   0  0  0  0  0
   27.5415  -19.0220   28.6782 H   0  0  0  0  0
   26.3951  -17.6547   28.9431 H   0  0  0  0  0
   28.9063  -18.2256   30.5532 H   0  0  0  0  0
   27.7745  -16.8758   30.8147 H   0  0  0  0  0
   27.2354  -18.5530   31.0746 H   0  0  0  0  0
   25.7800  -15.9969   26.5080 H   0  0  0  0  0
   26.4451  -14.1748   24.4042 H   0  0  0  0  0
   24.3117  -13.0656   25.0326 H   0  0  0  0  0
   24.2139  -14.2319   26.4462 H   0  0  0  0  0
   22.7677  -14.8495   24.5952 H   0  0  0  0  0
   24.1232  -16.0627   24.8923 H   0  0  0  0  0
   26.3614  -16.0100   23.3665 H   0  0  0  0  0
   25.1203  -17.2383   23.0175 H   0  0  0  0  0
   25.9136  -16.3694   21.6809 H   0  0  0  0  0
   26.8421  -13.9647   27.8948 H   0  0  0  0  0
   27.2314  -11.0589   27.6818 H   0  0  0  0  0
   26.1295  -11.8973   29.7028 H   0  0  0  0  0
   27.5465  -12.9050   30.0871 H   0  0  0  0  0
   27.6771  -11.1297   30.1351 H   0  0  0  0  0
   29.1663  -13.7324   27.0716 H   0  0  0  0  0
   31.5845  -12.4825   28.1661 H   0  0  0  0  0
   32.7565  -14.4411   27.1484 H   0  0  0  0  0
   31.1359  -14.9972   26.5365 H   0  0  0  0  0
   30.3630  -15.0723   28.8618 H   0  0  0  0  0
   32.0545  -14.7007   29.3885 H   0  0  0  0  0
   31.9017  -16.4618   26.7665 H   0  0  0  0  0
   33.3580  -11.6660   27.1061 H   0  0  0  0  0
   32.6746  -10.5535   24.4640 H   0  0  0  0  0
   34.8780   -9.3673   24.6670 H   0  0  0  0  0
   32.7096   -8.3514   25.2898 H   0  0  0  0  0
   32.8432   -9.0528   26.9211 H   0  0  0  0  0
   34.0015   -7.8093   26.3891 H   0  0  0  0  0
   34.8499  -10.5973   27.4417 H   0  0  0  0  0
   36.0226  -10.9428   26.1469 H   0  0  0  0  0
   35.9518   -9.3188   26.8740 H   0  0  0  0  0
   33.7920  -10.8063   22.5858 H   0  0  0  0  0
   34.6924  -12.0388   20.9072 H   0  0  0  0  0
   36.1140  -14.1227   21.5511 H   0  0  0  0  0
   36.0677  -13.3719   23.1975 H   0  0  0  0  0
   38.1004  -13.7045   21.2541 H   0  0  0  0  0
   34.7780  -15.0084   22.0583 H   0  0  0  0  0
  1  2  1  0  0  0
  2  3  1  0  0  0
  2  5  1  0  0  0
  3  4  2  0  0  0
  3  7  1  0  0  0
  5  6  1  0  0  0
  7  8  1  0  0  0
  8  9  1  0  0  0
  8 11  1  0  0  0
  9 10  2  0  0  0
  9 14  1  0  0  0
 11 12  1  0  0  0
 12 13  1  0  0  0
 14 15  1  0  0  0
 15 16  1  0  0  0
 15 18  1  0  0  0
 16 17  2  0  0  0
 16 22  1  0  0  0
 18 19  1  0  0  0
 19 20  1  0  0  0
 20 21  1  0  0  0
 22 23  1  0  0  0
 23 24  1  0  0  0
 23 26  1  0  0  0
 24 25  2  0  0  0
 24 27  1  0  0  0
 27 28  1  0  0  0
 28 29  1  0  0  0
 28 31  1  0  0  0
 29 30  2  0  0  0
 29 36  1  0  0  0
 31 32  1  0  0  0
 32 33  1  0  0  0
 33 34  1  0  0  0
 33 35  2  0  0  0
 36 37  1  0  0  0
 37 38  1  0  0  0
 37 40  1  0  0  0
 38 39  2  0  0  0
 38 43  1  0  0  0
 40 41  1  0  0  0
 40 42  1  0  0  0
 43 44  1  0  0  0
 44 45  1  0  0  0
 44 47  1  0  0  0
 45 46  2  0  0  0
 45 51  1  0  0  0
 47 48  1  0  0  0
 48 49  2  0  0  0
 48 50  1  0  0  0
  1 52  1  0  0  0
  1 53  1  0  0  0
  1 54  1  0  0  0
  2 55  1  0  0  0
  5 56  1  0  0  0
  5 57  1  0  0  0
  6 58  1  0  0  0
  7 59  1  0  0  0
  8 60  1  0  0  0
 11 61  1  0  0  0
 11 62  1  0  0  0
 12 63  1  0  0  0
 12 64  1  0  0  0
 13 65  1  0  0  0
 13 66  1  0  0  0
 13 67  1  0  0  0
 14 68  1  0  0  0
 15 69  1  0  0  0
 18 70  1  0  0  0
 18 71  1  0  0  0
 19 72  1  0  0  0
 19 73  1  0  0  0
 21 74  1  0  0  0
 21 75  1  0  0  0
 21 76  1  0  0  0
 22 77  1  0  0  0
 23 78  1  0  0  0
 26 79  1  0  0  0
 26 80  1  0  0  0
 26 81  1  0  0  0
 27 82  1  0  0  0
 28 83  1  0  0  0
 31 84  1  0  0  0
 31 85  1  0  0  0
 32 86  1  0  0  0
 32 87  1  0  0  0
 34 88  1  0  0  0
 36 89  1  0  0  0
 37 90  1  0  0  0
 40 91  1  0  0  0
 41 92  1  0  0  0
 41 93  1  0  0  0
 41 94  1  0  0  0
 42 95  1  0  0  0
 42 96  1  0  0  0
 42 97  1  0  0  0
 43 98  1  0  0  0
 44 99  1  0  0  0
 47100  1  0  0  0
 47101  1  0  0  0
 50102  1  0  0  0
 51103  1  0  0  0
M  END
$$$$
