6n3k_ligand
  -I-interpret- 

 57 59  0  0  0  0  0  0  0  0999 V2000
   13.6090   81.1490  108.6710 C   0  0  0  0  0
    7.4930   89.4670  103.7100 C   0  0  0  0  0
    5.2830   89.7150  102.4110 C   0  0  0  0  0
    4.4080   89.6710   99.0420 C   0  0  0  0  0
    5.6920   89.6690   98.4980 C   0  0  0  0  0
    4.9100   88.3900   96.6200 C   0  0  0  0  0
    3.3740   89.0270   98.3680 C   0  0  0  0  0
    5.4150   88.1920  102.3450 C   0  0  0  0  0
    6.7000   86.5970  106.8340 O   0  0  0  0  0
    7.7460   86.7690  106.3050 C   0  0  0  0  0
    8.9320   86.1080  106.8390 N   0  0  0  0  0
    8.7650   85.2560  108.0070 C   0  0  0  0  0
   10.0860   84.5740  108.3520 C   0  0  0  0  0
   10.6270   83.7990  107.1590 C   0  0  0  0  0
   11.6920   82.8620  107.6720 C   0  0  0  0  0
   12.0890   82.9790  108.9970 C   0  0  0  0  0
   13.0520   82.1160  109.4990 C   0  0  0  0  0
   13.2080   81.0370  107.3420 C   0  0  0  0  0
   12.2400   81.8940  106.8360 C   0  0  0  0  0
    7.9070   87.6330  105.1310 N   0  0  0  0  0
    6.8230   88.3680  104.5070 C   0  0  0  0  0
    6.4360   90.4060  103.1360 C   0  0  0  0  0
    5.3420   90.2210  101.1000 O   0  0  0  0  0
    4.1460   90.3650  100.3850 C   0  0  0  0  0
    6.7120   90.2900   99.1570 F   0  0  0  0  0
    5.9450   89.0340   97.2880 C   0  0  0  0  0
    3.6260   88.3850   97.1590 C   0  0  0  0  0
    2.1100   89.0200   98.8940 F   0  0  0  0  0
    5.9640   87.4960  103.5970 C   0  0  0  0  0
   14.3667   80.4719  109.0653 H   0  0  0  0  0
    8.0635   89.0240  102.8937 H   0  0  0  0  0
    8.1599   90.0305  104.3625 H   0  0  0  0  0
    4.3498   89.9085  102.9399 H   0  0  0  0  0
    5.1039   87.8878   95.6722 H   0  0  0  0  0
    6.1294   87.9858  101.5480 H   0  0  0  0  0
    4.4045   87.8078  102.2054 H   0  0  0  0  0
    9.8473   86.2386  106.4082 H   0  0  0  0  0
    8.0154   84.4949  107.7903 H   0  0  0  0  0
    8.4460   85.8661  108.8521 H   0  0  0  0  0
    9.9164   83.8780  109.1736 H   0  0  0  0  0
   10.8117   85.3379  108.6312 H   0  0  0  0  0
   11.0443   84.4815  106.4186 H   0  0  0  0  0
    9.8276   83.2386  106.6743 H   0  0  0  0  0
   11.6477   83.7426  109.6376 H   0  0  0  0  0
   13.3704   82.1960  110.5384 H   0  0  0  0  0
   13.6537   80.2773  106.6998 H   0  0  0  0  0
   11.9141   81.8098  105.7993 H   0  0  0  0  0
    8.8397   87.7228  104.7279 H   0  0  0  0  0
    6.1390   88.7527  105.2635 H   0  0  0  0  0
    6.9391   91.0335  102.4003 H   0  0  0  0  0
    6.0008   90.9425  103.9792 H   0  0  0  0  0
    3.3012   89.9226  100.9130 H   0  0  0  0  0
    3.8740   91.4125  100.2548 H   0  0  0  0  0
    6.9496   89.0409   96.8651 H   0  0  0  0  0
    2.8171   87.8776   96.6333 H   0  0  0  0  0
    6.6042   86.6861  103.2473 H   0  0  0  0  0
    5.1000   87.1882  104.1860 H   0  0  0  0  0
 17  1  4  0  0  0
 18  1  4  0  0  0
  2 21  1  0  0  0
 22  2  1  0  0  0
  3  8  1  0  0  0
  3 22  1  0  0  0
 23  3  1  0  0  0
  4  5  4  0  0  0
  4  7  4  0  0  0
 24  4  1  0  0  0
  5 25  1  0  0  0
  5 26  4  0  0  0
 26  6  4  0  0  0
 27  6  4  0  0  0
  7 27  4  0  0  0
  7 28  1  0  0  0
  8 29  1  0  0  0
 10  9  2  0  0  0
 10 11  1  0  0  0
 20 10  1  0  0  0
 11 12  1  0  0  0
 12 13  1  0  0  0
 13 14  1  0  0  0
 14 15  1  0  0  0
 15 16  4  0  0  0
 15 19  4  0  0  0
 16 17  4  0  0  0
 19 18  4  0  0  0
 21 20  1  0  0  0
 29 21  1  0  0  0
 23 24  1  0  0  0
  1 30  1  0  0  0
  2 31  1  0  0  0
  2 32  1  0  0  0
  3 33  1  0  0  0
  6 34  1  0  0  0
  8 35  1  0  0  0
  8 36  1  0  0  0
 11 37  1  0  0  0
 12 38  1  0  0  0
 12 39  1  0  0  0
 13 40  1  0  0  0
 13 41  1  0  0  0
 14 42  1  0  0  0
 14 43  1  0  0  0
 16 44  1  0  0  0
 17 45  1  0  0  0
 18 46  1  0  0  0
 19 47  1  0  0  0
 20 48  1  0  0  0
 21 49  1  0  0  0
 22 50  1  0  0  0
 22 51  1  0  0  0
 24 52  1  0  0  0
 24 53  1  0  0  0
 26 54  1  0  0  0
 27 55  1  0  0  0
 29 56  1  0  0  0
 29 57  1  0  0  0
M  END
$$$$
