4dvf_ligand
  -I-interpret- 

142145  0  0  0  0  0  0  0  0999 V2000
    2.8420    2.1540    2.7620 C   0  0  0  0  0
   -1.9700    4.0420    3.1460 C   0  0  0  0  0
   -1.1620    4.0100    1.8860 C   0  0  0  0  0
   -1.3360    3.8880    4.4800 C   0  0  0  0  0
    0.3210    3.8240    1.9720 C   0  0  0  0  0
    0.1400    3.7010    4.5670 C   0  0  0  0  0
    3.0230    4.5980    2.6120 N   0  0  0  0  0
    0.9550    3.6610    3.3050 C   0  0  0  0  0
    2.4590    3.4790    3.3690 C   0  0  0  0  0
    3.9370   11.0650    4.8800 C   0  0  0  0  0
    3.8330    5.7070    4.5150 O   0  0  0  0  0
    7.2410    7.5100   -1.2060 O   0  0  0  0  0
    2.2160   10.4920    2.9690 O   0  0  0  0  0
    3.3300   12.6780    2.8470 O   0  0  0  0  0
    4.1070    8.2530    2.8270 C   0  0  0  0  0
    5.3690    8.9510    0.6140 C   0  0  0  0  0
    4.8910    6.4360    1.1600 C   0  0  0  0  0
    4.6000   10.7100    2.1950 N   0  0  0  0  0
    3.6770    5.6780    3.3000 C   0  0  0  0  0
    6.1420    7.0420   -0.9560 C   0  0  0  0  0
    4.6660    9.3000    1.8940 C   0  0  0  0  0
    4.2230    6.8090    2.4430 C   0  0  0  0  0
    5.4420    7.5190    0.2840 C   0  0  0  0  0
    3.4280   11.2500    3.1630 S   0  0  0  0  0
    5.4720    5.9930   -1.7050 N   0  0  0  0  0
    6.1120    5.4100   -2.8630 C   0  0  0  0  0
    6.0740    3.9190   -2.6280 C   0  0  0  0  0
    6.4650    3.5610   -1.1960 C   0  0  0  0  0
    7.5960    4.2170   -0.4610 C   0  0  0  0  0
    5.7360    2.4760   -0.4920 C   0  0  0  0  0
    7.9440    3.7830    0.9240 C   0  0  0  0  0
    6.0760    2.0480    0.8840 C   0  0  0  0  0
    7.1940    2.6970    1.6060 C   0  0  0  0  0
    5.3430    5.8410   -4.1140 C   0  0  0  0  0
    4.0060    5.4800   -4.0920 O   0  0  0  0  0
    5.6780    7.2610   -4.6130 C   0  0  0  0  0
    7.1340    7.3690   -5.1030 C   0  0  0  0  0
    8.0570    7.8180   -4.4200 O   0  0  0  0  0
    7.3460    6.8920   -6.4750 N   0  0  0  0  0
    8.6630    6.9680   -7.0390 C   0  0  0  0  0
    9.0690    8.4050   -7.0190 C   0  0  0  0  0
    8.2980    9.2880   -7.3210 O   0  0  0  0  0
    8.5870    6.5020   -8.4910 C   0  0  0  0  0
    9.9410    6.6290   -9.1920 C   0  0  0  0  0
   10.8580    5.5450   -8.7050 C   0  0  0  0  0
    9.6890    6.4540  -10.6810 C   0  0  0  0  0
   10.4410    8.7140   -6.6810 N   0  0  0  0  0
   10.9180   10.0650   -6.7100 C   0  0  0  0  0
   11.8420   10.2450   -7.9140 C   0  0  0  0  0
   12.4820    9.2940   -8.3220 O   0  0  0  0  0
   11.7770   10.2920   -5.4860 C   0  0  0  0  0
   11.9910   11.5360   -8.5540 N   0  0  0  0  0
   12.9300   11.6660   -9.6540 C   0  0  0  0  0
   12.3350   12.2820  -10.8750 C   0  0  0  0  0
   12.6190   13.4060  -11.2250 O   0  0  0  0  0
   14.1120   12.5330   -9.2390 C   0  0  0  0  0
   14.7960   11.9350   -8.0030 C   0  0  0  0  0
   14.6060   12.5710   -6.6610 C   0  0  0  0  0
   16.3260   10.1450   -6.9230 C   0  0  0  0  0
   15.2870   11.9790   -5.4590 C   0  0  0  0  0
   16.1400   10.7670   -5.5870 C   0  0  0  0  0
   11.2440   12.6830   -8.1000 C   0  0  0  0  0
    9.8950   15.6100  -13.6360 C   0  0  0  0  0
    9.4890   13.7130  -11.7700 O   0  0  0  0  0
   10.2760    9.7030  -12.6070 C   0  0  0  0  0
    9.7740   10.9700  -13.2510 C   0  0  0  0  0
   10.9700   10.1490  -11.3400 C   0  0  0  0  0
   10.4550   14.3270  -13.7160 O   0  0  0  0  0
   10.1370   13.3710  -12.7620 C   0  0  0  0  0
   10.7630   11.9970  -12.8700 C   0  0  0  0  0
   11.3940   11.5050  -11.6430 N   0  0  0  0  0
    2.4686    2.1029    1.7392 H   0  0  0  0  0
    3.9277    2.0574    2.7591 H   0  0  0  0  0
    2.4057    1.3467    3.3502 H   0  0  0  0  0
   -3.0492    4.1816    3.0827 H   0  0  0  0  0
   -1.6481    4.1209    0.9167 H   0  0  0  0  0
   -1.9431    3.9115    5.3850 H   0  0  0  0  0
    0.9282    3.8084    1.0669 H   0  0  0  0  0
    0.6242    3.5942    5.5377 H   0  0  0  0  0
    2.9519    4.6115    1.5946 H   0  0  0  0  0
    2.8339    3.4736    4.3925 H   0  0  0  0  0
    3.1500   11.4414    5.5335 H   0  0  0  0  0
    4.1150   10.0110    5.0933 H   0  0  0  0  0
    4.8531   11.6310    5.0491 H   0  0  0  0  0
    3.6280    8.5419    3.7625 H   0  0  0  0  0
    5.8004    9.7145   -0.0334 H   0  0  0  0  0
    4.9763    5.3901    0.8653 H   0  0  0  0  0
    5.2845   11.3557    1.8014 H   0  0  0  0  0
    4.5501    5.6677   -1.4140 H   0  0  0  0  0
    7.1429    5.7316   -3.0108 H   0  0  0  0  0
    6.7853    3.4469   -3.3057 H   0  0  0  0  0
    5.0562    3.5703   -2.8028 H   0  0  0  0  0
    8.1657    5.0134   -0.9399 H   0  0  0  0  0
    4.9178    1.9745   -1.0088 H   0  0  0  0  0
    8.7657    4.2732    1.4461 H   0  0  0  0  0
    5.5034    1.2553    1.3654 H   0  0  0  0  0
    7.4609    2.3848    2.6157 H   0  0  0  0  0
    5.7362    5.2348   -4.9301 H   0  0  0  0  0
    3.5820    5.7775   -4.9003 H   0  0  0  0  0
    5.5442    7.9552   -3.7834 H   0  0  0  0  0
    5.0180    7.4942   -5.4486 H   0  0  0  0  0
    6.5702    6.5130   -7.0181 H   0  0  0  0  0
    9.3717    6.3528   -6.4845 H   0  0  0  0  0
    7.8657    7.1274   -9.0171 H   0  0  0  0  0
    8.2894    5.4535   -8.5021 H   0  0  0  0  0
   10.4025    7.5946   -8.9855 H   0  0  0  0  0
   10.9943    5.6429   -7.6280 H   0  0  0  0  0
   10.4205    4.5724   -8.9303 H   0  0  0  0  0
   11.8227    5.6354   -9.2043 H   0  0  0  0  0
    9.2520    5.4718  -10.8613 H   0  0  0  0  0
    9.0024    7.2274  -11.0253 H   0  0  0  0  0
   10.6326    6.5378  -11.2202 H   0  0  0  0  0
   11.0769    7.9609   -6.4187 H   0  0  0  0  0
   10.0691   10.7474   -6.7522 H   0  0  0  0  0
   11.1806   10.1248   -4.5891 H   0  0  0  0  0
   12.6174    9.5980   -5.4997 H   0  0  0  0  0
   12.1499   11.3162   -5.4902 H   0  0  0  0  0
   13.2375   10.6484   -9.8948 H   0  0  0  0  0
   13.7546   13.5348   -9.0006 H   0  0  0  0  0
   14.8291   12.5765  -10.0588 H   0  0  0  0  0
   15.8622   12.0381   -8.2049 H   0  0  0  0  0
   14.3542   10.9439   -7.8998 H   0  0  0  0  0
   13.5407   12.4682   -6.4543 H   0  0  0  0  0
   15.0391   13.5661   -6.7624 H   0  0  0  0  0
   15.3575    9.8370   -7.3170 H   0  0  0  0  0
   16.7812   10.8687   -7.5991 H   0  0  0  0  0
   16.9753    9.2745   -6.8299 H   0  0  0  0  0
   15.1543   12.4433   -4.4818 H   0  0  0  0  0
   16.6239   10.3395   -4.7088 H   0  0  0  0  0
   10.1770   12.4783   -8.1882 H   0  0  0  0  0
   11.4912   12.8868   -7.0582 H   0  0  0  0  0
   11.5011   13.5478   -8.7117 H   0  0  0  0  0
    8.8089   15.5349  -13.6888 H   0  0  0  0  0
   10.1830   16.0725  -12.6920 H   0  0  0  0  0
   10.2593   16.2164  -14.4653 H   0  0  0  0  0
   10.9529    9.1586  -13.2655 H   0  0  0  0  0
    9.4618    9.0096  -12.3963 H   0  0  0  0  0
    8.7691   11.2273  -12.9163 H   0  0  0  0  0
    9.6854   10.8704  -14.3328 H   0  0  0  0  0
   11.8044    9.5012  -11.0712 H   0  0  0  0  0
   10.3178   10.1009  -10.4680 H   0  0  0  0  0
   11.5281   12.1424  -13.6326 H   0  0  0  0  0
  9  1  1  0  0  0
  3  2  4  0  0  0
  4  2  4  0  0  0
  5  3  4  0  0  0
  6  4  4  0  0  0
  8  5  4  0  0  0
  8  6  4  0  0  0
  7  9  1  0  0  0
 19  7  1  0  0  0
  9  8  1  0  0  0
 24 10  1  0  0  0
 19 11  2  0  0  0
 20 12  2  0  0  0
 24 13  2  0  0  0
 24 14  2  0  0  0
 21 15  4  0  0  0
 22 15  4  0  0  0
 16 21  4  0  0  0
 23 16  4  0  0  0
 17 22  4  0  0  0
 23 17  4  0  0  0
 21 18  1  0  0  0
 18 24  1  0  0  0
 22 19  1  0  0  0
 20 23  1  0  0  0
 25 20  1  0  0  0
 26 25  1  0  0  0
 26 27  1  0  0  0
 34 26  1  0  0  0
 27 28  1  0  0  0
 28 29  4  0  0  0
 28 30  4  0  0  0
 29 31  4  0  0  0
 30 32  4  0  0  0
 31 33  4  0  0  0
 32 33  4  0  0  0
 34 35  1  0  0  0
 36 34  1  0  0  0
 37 36  1  0  0  0
 37 38  2  0  0  0
 39 37  1  0  0  0
 40 39  1  0  0  0
 41 40  1  0  0  0
 40 43  1  0  0  0
 41 42  2  0  0  0
 47 41  1  0  0  0
 43 44  1  0  0  0
 44 45  1  0  0  0
 44 46  1  0  0  0
 48 47  1  0  0  0
 49 48  1  0  0  0
 48 51  1  0  0  0
 49 50  2  0  0  0
 52 49  1  0  0  0
 53 52  1  0  0  0
 52 62  1  0  0  0
 54 53  1  0  0  0
 53 56  1  0  0  0
 54 55  2  0  0  0
 71 54  1  0  0  0
 56 57  1  0  0  0
 57 58  1  0  0  0
 58 60  1  0  0  0
 61 59  1  0  0  0
 60 61  2  0  0  0
 68 63  1  0  0  0
 69 64  2  0  0  0
 66 65  1  0  0  0
 65 67  1  0  0  0
 70 66  1  0  0  0
 67 71  1  0  0  0
 69 68  1  0  0  0
 69 70  1  0  0  0
 70 71  1  0  0  0
  1 72  1  0  0  0
  1 73  1  0  0  0
  1 74  1  0  0  0
  2 75  1  0  0  0
  3 76  1  0  0  0
  4 77  1  0  0  0
  5 78  1  0  0  0
  6 79  1  0  0  0
  7 80  1  0  0  0
  9 81  1  0  0  0
 10 82  1  0  0  0
 10 83  1  0  0  0
 10 84  1  0  0  0
 15 85  1  0  0  0
 16 86  1  0  0  0
 17 87  1  0  0  0
 18 88  1  0  0  0
 25 89  1  0  0  0
 26 90  1  0  0  0
 27 91  1  0  0  0
 27 92  1  0  0  0
 29 93  1  0  0  0
 30 94  1  0  0  0
 31 95  1  0  0  0
 32 96  1  0  0  0
 33 97  1  0  0  0
 34 98  1  0  0  0
 35 99  1  0  0  0
 36100  1  0  0  0
 36101  1  0  0  0
 39102  1  0  0  0
 40103  1  0  0  0
 43104  1  0  0  0
 43105  1  0  0  0
 44106  1  0  0  0
 45107  1  0  0  0
 45108  1  0  0  0
 45109  1  0  0  0
 46110  1  0  0  0
 46111  1  0  0  0
 46112  1  0  0  0
 47113  1  0  0  0
 48114  1  0  0  0
 51115  1  0  0  0
 51116  1  0  0  0
 51117  1  0  0  0
 53118  1  0  0  0
 56119  1  0  0  0
 56120  1  0  0  0
 57121  1  0  0  0
 57122  1  0  0  0
 58123  1  0  0  0
 58124  1  0  0  0
 59125  1  0  0  0
 59126  1  0  0  0
 59127  1  0  0  0
 60128  1  0  0  0
 61129  1  0  0  0
 62130  1  0  0  0
 62131  1  0  0  0
 62132  1  0  0  0
 63133  1  0  0  0
 63134  1  0  0  0
 63135  1  0  0  0
 65136  1  0  0  0
 65137  1  0  0  0
 66138  1  0  0  0
 66139  1  0  0  0
 67140  1  0  0  0
 67141  1  0  0  0
 70142  1  0  0  0
M  END
$$$$
