### 
### Created by X-TOOL on Mon Sep 10 21:13:15 2018
### 

@<TRIPOS>MOLECULE
4dvf_ligand
  142   145     1     0     0
SMALL
GAST_HUCK


@<TRIPOS>ATOM
      1 CAE         2.8420    2.1540    2.7620 C.3       1 QSC        -0.0320
      2 CAT        -1.9700    4.0420    3.1460 C.ar      1 QSC        -0.0687
      3 CAY        -1.1620    4.0100    1.8860 C.ar      1 QSC        -0.0685
      4 CAZ        -1.3360    3.8880    4.4800 C.ar      1 QSC        -0.0685
      5 CBE         0.3210    3.8240    1.9720 C.ar      1 QSC        -0.0582
      6 CBF         0.1400    3.7010    4.5670 C.ar      1 QSC        -0.0582
      7 NBR         3.0230    4.5980    2.6120 N.am      1 QSC        -0.2723
      8 CCI         0.9550    3.6610    3.3050 C.ar      1 QSC        -0.0183
      9 CCL         2.4590    3.4790    3.3690 C.3       1 QSC         0.0723
     10 CAG         3.9370   11.0650    4.8800 C.3       1 USC         0.0788
     11 OAI         3.8330    5.7070    4.5150 O.2       1 USC        -0.3845
     12 OAJ         7.2410    7.5100   -1.2060 O.2       1 USC        -0.3847
     13 OAO         2.2160   10.4920    2.9690 O.2       1 USC        -0.1502
     14 OAP         3.3300   12.6780    2.8470 O.2       1 USC        -0.1502
     15 CBG         4.1070    8.2530    2.8270 C.ar      1 USC        -0.0216
     16 CBH         5.3690    8.9510    0.6140 C.ar      1 USC        -0.0216
     17 CBI         4.8910    6.4360    1.1600 C.ar      1 USC        -0.0393
     18 NBU         4.6000   10.7100    2.1950 N.am      1 USC        -0.1898
     19 CBX         3.6770    5.6780    3.3000 C.2       1 USC         0.2041
     20 CBY         6.1420    7.0420   -0.9560 C.2       1 USC         0.2025
     21 CCF         4.6660    9.3000    1.8940 C.ar      1 USC         0.0726
     22 CCG         4.2230    6.8090    2.4430 C.ar      1 USC         0.0398
     23 CCH         5.4420    7.5190    0.2840 C.ar      1 USC         0.0397
     24 SCT         3.4280   11.2500    3.1630 S.o2      1 USC         0.0573
     25 N           5.4720    5.9930   -1.7050 N.am      1 PSA        -0.2786
     26 CA          6.1120    5.4100   -2.8630 C.3       1 PSA         0.0789
     27 CB          6.0740    3.9190   -2.6280 C.3       1 PSA         0.0065
     28 CG          6.4650    3.5610   -1.1960 C.ar      1 PSA        -0.0408
     29 CD1         7.5960    4.2170   -0.4610 C.ar      1 PSA        -0.0603
     30 CD2         5.7360    2.4760   -0.4920 C.ar      1 PSA        -0.0603
     31 CE1         7.9440    3.7830    0.9240 C.ar      1 PSA        -0.0686
     32 CE2         6.0760    2.0480    0.8840 C.ar      1 PSA        -0.0686
     33 CZ          7.1940    2.6970    1.6060 C.ar      1 PSA        -0.0687
     34 CH          5.3430    5.8410   -4.1140 C.3       1 PSA         0.0964
     35 OH          4.0060    5.4800   -4.0920 O.3       1 PSA        -0.3870
     36 CM          5.6780    7.2610   -4.6130 C.3       1 PSA         0.0657
     37 C           7.1340    7.3690   -5.1030 C.2       1 PSA         0.1808
     38 O           8.0570    7.8180   -4.4200 O.2       1 PSA        -0.3968
     39 N           7.3460    6.8920   -6.4750 N.am      1 LEU        -0.2655
     40 CA          8.6630    6.9680   -7.0390 C.3       1 LEU         0.1311
     41 C           9.0690    8.4050   -7.0190 C.2       1 LEU         0.2039
     42 O           8.2980    9.2880   -7.3210 O.2       1 LEU        -0.3944
     43 CB          8.5870    6.5020   -8.4910 C.3       1 LEU        -0.0101
     44 CG          9.9410    6.6290   -9.1920 C.3       1 LEU        -0.0425
     45 CD1        10.8580    5.5450   -8.7050 C.3       1 LEU        -0.0625
     46 CD2         9.6890    6.4540  -10.6810 C.3       1 LEU        -0.0625
     47 N          10.4410    8.7140   -6.6810 N.am      1 ALA        -0.2640
     48 CA         10.9180   10.0650   -6.7100 C.3       1 ALA         0.1284
     49 C          11.8420   10.2450   -7.9140 C.2       1 ALA         0.2059
     50 O          12.4820    9.2940   -8.3220 O.2       1 ALA        -0.3942
     51 CB         11.7770   10.2920   -5.4860 C.3       1 ALA        -0.0244
     52 N          11.9910   11.5360   -8.5540 N.am      1 ZAE        -0.2529
     53 CA         12.9300   11.6660   -9.6540 C.3       1 ZAE         0.1337
     54 C          12.3350   12.2820  -10.8750 C.2       1 ZAE         0.2067
     55 O          12.6190   13.4060  -11.2250 O.2       1 ZAE        -0.3942
     56 CB         14.1120   12.5330   -9.2390 C.3       1 ZAE        -0.0107
     57 CG         14.7960   11.9350   -8.0030 C.3       1 ZAE        -0.0422
     58 CD2        14.6060   12.5710   -6.6610 C.3       1 ZAE        -0.0363
     59 CE1        16.3260   10.1450   -6.9230 C.3       1 ZAE        -0.0486
     60 CE2        15.2870   11.9790   -5.4590 C.2       1 ZAE        -0.0989
     61 CZ         16.1400   10.7670   -5.5870 C.2       1 ZAE        -0.1017
     62 C10        11.2440   12.6830   -8.1000 C.3       1 ZAE         0.0254
     63 CM          9.8950   15.6100  -13.6360 C.3       1 PLJ         0.0658
     64 O           9.4890   13.7130  -11.7700 O.2       1 PLJ        -0.3678
     65 CG         10.2760    9.7030  -12.6070 C.3       1 PLJ        -0.0280
     66 CB          9.7740   10.9700  -13.2510 C.3       1 PLJ        -0.0090
     67 CD         10.9700   10.1490  -11.3400 C.3       1 PLJ         0.0371
     68 OXT        10.4550   14.3270  -13.7160 O.3       1 PLJ        -0.2784
     69 C          10.1370   13.3710  -12.7620 C.2       1 PLJ         0.2595
     70 CA         10.7630   11.9970  -12.8700 C.3       1 PLJ         0.1450
     71 N          11.3940   11.5050  -11.6430 N.am      1 PLJ        -0.2485
     72 H1          2.4023    1.3384    3.3548 H         1 QSC         0.0274
     73 H2          3.9375    2.0552    2.7585 H         1 QSC         0.0274
     74 H3          2.4657    2.1011    1.7297 H         1 QSC         0.0274
     75 H4         -3.0432    4.1809    3.0830 H         1 QSC         0.0559
     76 H5         -1.6454    4.1203    0.9221 H         1 QSC         0.0599
     77 H6         -1.9397    3.9113    5.3800 H         1 QSC         0.0599
     78 H7          0.9249    3.8085    1.0719 H         1 QSC         0.0557
     79 H8          0.6216    3.5947    5.5323 H         1 QSC         0.0557
     80 H9          2.9533    4.6113    1.6145 H         1 QSC         0.1875
     81 H10         2.8062    3.5144    4.4121 H         1 QSC         0.0716
     82 H11         4.0133    9.9957    5.1266 H         1 USC         0.0487
     83 H12         3.1931   11.5404    5.5362 H         1 USC         0.0487
     84 H13         4.9155   11.5457    5.0262 H         1 USC         0.0487
     85 H14         3.6306    8.5403    3.7573 H         1 USC         0.0566
     86 H15         5.7980    9.7103   -0.0298 H         1 USC         0.0566
     87 H16         4.9759    5.3958    0.8669 H         1 USC         0.0576
     88 H17         5.2711   11.3430    1.8091 H         1 USC         0.2157
     89 H18         4.5682    5.6741   -1.4197 H         1 PSA         0.1851
     90 H19         7.1552    5.7490   -2.9449 H         1 PSA         0.0605
     91 H20         6.7752    3.4312   -3.3211 H         1 PSA         0.0449
     92 H21         5.0544    3.5540   -2.8206 H         1 PSA         0.0449
     93 H22         8.1626    5.0090   -0.9373 H         1 PSA         0.0557
     94 H23         4.9223    1.9772   -1.0060 H         1 PSA         0.0557
     95 H24         8.7612    4.2705    1.4432 H         1 PSA         0.0599
     96 H25         5.5065    1.2596    1.3628 H         1 PSA         0.0599
     97 H26         7.4594    2.3865    2.6101 H         1 PSA         0.0559
     98 H27         5.7594    5.2000   -4.9050 H         1 PSA         0.0643
     99 H28         3.5864    5.7745   -4.8919 H         1 PSA         0.2101
    100 H29         5.5268    7.9727   -3.7881 H         1 PSA         0.0529
    101 H30         5.0034    7.5142   -5.4441 H         1 PSA         0.0529
    102 H31         6.5854    6.5204   -7.0074 H         1 LEU         0.1883
    103 H32         9.3730    6.3510   -6.4687 H         1 LEU         0.0800
    104 H33         7.8485    7.1174   -9.0258 H         1 LEU         0.0315
    105 H34         8.2709    5.4486   -8.5123 H         1 LEU         0.0315
    106 H35        10.3864    7.6147   -8.9919 H         1 LEU         0.0298
    107 H36        11.8320    5.6351   -9.2083 H         1 LEU         0.0232
    108 H37        10.4177    4.5628   -8.9318 H         1 LEU         0.0232
    109 H38        10.9965    5.6427   -7.6181 H         1 LEU         0.0232
    110 H39         9.0169    7.2495  -11.0351 H         1 LEU         0.0232
    111 H40         9.2238    5.4737  -10.8615 H         1 LEU         0.0232
    112 H41        10.6439    6.5122  -11.2239 H         1 LEU         0.0232
    113 H42        11.0645    7.9756   -6.4239 H         1 ALA         0.1883
    114 H43        10.0773   10.7734   -6.7455 H         1 ALA         0.0797
    115 H44        12.1539   11.3254   -5.4891 H         1 ALA         0.0277
    116 H45        12.6256    9.5922   -5.4986 H         1 ALA         0.0277
    117 H46        11.1763   10.1236   -4.5801 H         1 ALA         0.0277
    118 H47        13.2924   10.6598   -9.9112 H         1 ZAE         0.0802
    119 H48        13.7548   13.5462   -9.0026 H         1 ZAE         0.0314
    120 H49        14.8350   12.5828  -10.0665 H         1 ZAE         0.0314
    121 H50        15.8772   11.9382   -8.2056 H         1 ZAE         0.0287
    122 H51        14.4424   10.8971   -7.9154 H         1 ZAE         0.0287
    123 H52        13.5259   12.5631   -6.4531 H         1 ZAE         0.0388
    124 H53        14.9553   13.6105   -6.7471 H         1 ZAE         0.0388
    125 H54        16.9812    9.2663   -6.8303 H         1 ZAE         0.0353
    126 H55        16.7854   10.8744   -7.6063 H         1 ZAE         0.0353
    127 H56        15.3493    9.8336   -7.3217 H         1 ZAE         0.0353
    128 H57        15.1544   12.4429   -4.4827 H         1 ZAE         0.0450
    129 H58        16.6234   10.3399   -4.7096 H         1 ZAE         0.0447
    130 H59        10.5905   12.3882   -7.2657 H         1 ZAE         0.0488
    131 H60        10.6308   13.0717   -8.9263 H         1 ZAE         0.0488
    132 H61        11.9408   13.4639   -7.7616 H         1 ZAE         0.0488
    133 H62        10.2619   16.2230  -14.4724 H         1 PLJ         0.0577
    134 H63        10.1850   16.0780  -12.6837 H         1 PLJ         0.0577
    135 H64         8.7988   15.5356  -13.6892 H         1 PLJ         0.0577
    136 H65        10.9832    9.1863  -13.2725 H         1 PLJ         0.0287
    137 H66         9.4371    9.0318  -12.3712 H         1 PLJ         0.0287
    138 H67         8.7761   11.2310  -12.8690 H         1 PLJ         0.0314
    139 H68         9.7306   10.8592  -14.3445 H         1 PLJ         0.0314
    140 H69        11.8354    9.5069  -11.1191 H         1 PLJ         0.0524
    141 H70        10.2762   10.1358  -10.4865 H         1 PLJ         0.0524
    142 H71        11.5337   12.0554  -13.6527 H         1 PLJ         0.0818
@<TRIPOS>BOND
     1    9    1 1  
     2    3    2 ar 
     3    4    2 ar 
     4    5    3 ar 
     5    6    4 ar 
     6    8    5 ar 
     7    8    6 ar 
     8    7    9 1  
     9   19    7 am 
    10    9    8 1  
    11   24   10 1  
    12   19   11 2  
    13   20   12 2  
    14   24   13 2  
    15   24   14 2  
    16   21   15 ar 
    17   22   15 ar 
    18   16   21 ar 
    19   23   16 ar 
    20   17   22 ar 
    21   23   17 ar 
    22   21   18 1  
    23   18   24 am 
    24   22   19 1  
    25   20   23 1  
    26   25   20 am 
    27   26   25 1  
    28   26   27 1  
    29   34   26 1  
    30   27   28 1  
    31   28   29 ar 
    32   28   30 ar 
    33   29   31 ar 
    34   30   32 ar 
    35   31   33 ar 
    36   32   33 ar 
    37   34   35 1  
    38   36   34 1  
    39   37   36 1  
    40   37   38 2  
    41   39   37 am 
    42   40   39 1  
    43   41   40 1  
    44   40   43 1  
    45   41   42 2  
    46   47   41 am 
    47   43   44 1  
    48   44   45 1  
    49   44   46 1  
    50   48   47 1  
    51   49   48 1  
    52   48   51 1  
    53   49   50 2  
    54   52   49 am 
    55   53   52 1  
    56   52   62 1  
    57   54   53 1  
    58   53   56 1  
    59   54   55 2  
    60   71   54 am 
    61   56   57 1  
    62   57   58 1  
    63   58   60 1  
    64   61   59 1  
    65   60   61 2  
    66   68   63 1  
    67   69   64 2  
    68   66   65 1  
    69   65   67 1  
    70   70   66 1  
    71   67   71 1  
    72   69   68 1  
    73   69   70 1  
    74   70   71 1  
    75    1   72 1  
    76    1   73 1  
    77    1   74 1  
    78    2   75 1  
    79    3   76 1  
    80    4   77 1  
    81    5   78 1  
    82    6   79 1  
    83    7   80 1  
    84    9   81 1  
    85   10   82 1  
    86   10   83 1  
    87   10   84 1  
    88   15   85 1  
    89   16   86 1  
    90   17   87 1  
    91   18   88 1  
    92   25   89 1  
    93   26   90 1  
    94   27   91 1  
    95   27   92 1  
    96   29   93 1  
    97   30   94 1  
    98   31   95 1  
    99   32   96 1  
   100   33   97 1  
   101   34   98 1  
   102   35   99 1  
   103   36  100 1  
   104   36  101 1  
   105   39  102 1  
   106   40  103 1  
   107   43  104 1  
   108   43  105 1  
   109   44  106 1  
   110   45  107 1  
   111   45  108 1  
   112   45  109 1  
   113   46  110 1  
   114   46  111 1  
   115   46  112 1  
   116   47  113 1  
   117   48  114 1  
   118   51  115 1  
   119   51  116 1  
   120   51  117 1  
   121   53  118 1  
   122   56  119 1  
   123   56  120 1  
   124   57  121 1  
   125   57  122 1  
   126   58  123 1  
   127   58  124 1  
   128   59  125 1  
   129   59  126 1  
   130   59  127 1  
   131   60  128 1  
   132   61  129 1  
   133   62  130 1  
   134   62  131 1  
   135   62  132 1  
   136   63  133 1  
   137   63  134 1  
   138   63  135 1  
   139   65  136 1  
   140   65  137 1  
   141   66  138 1  
   142   66  139 1  
   143   67  140 1  
   144   67  141 1  
   145   70  142 1  
@<TRIPOS>SUBSTRUCTURE
     1 QSC         1

