2uyw_ligand
  -I-interpret- 

 32 33  0  0  0  0  0  0  0  0999 V2000
    5.0870   35.2290   64.9790 C   0  0  0  0  0
    3.9130   35.4610   65.3690 O   0  0  0  0  0
    5.8660   36.2030   64.7920 O   0  0  0  0  0
    5.5620   33.8030   64.7880 C   0  0  0  0  0
    6.9520   33.6270   64.1850 C   0  0  0  0  0
    6.9030   33.5700   62.6440 C   0  0  0  0  0
    8.2790   33.4050   62.0230 C   0  0  0  0  0
    8.2790   33.1810   60.5070 C   0  0  0  0  0
    7.6530   31.6780   60.0190 S   0  0  0  0  0
    8.2530   31.9720   58.3370 C   0  0  0  0  0
    9.6140   32.6440   58.5050 C   0  0  0  0  0
   10.6330   31.6320   58.5340 N   0  0  0  0  0
   11.2530   31.6210   59.7220 C   0  0  0  0  0
   12.2740   30.7130   60.0050 O   0  0  0  0  0
   10.7480   32.5180   60.5490 N   0  0  0  0  0
    9.6830   33.2830   59.8820 C   0  0  0  0  0
    6.7197   35.8767   64.4984 H   0  0  0  0  0
    4.8666   33.3436   64.0855 H   0  0  0  0  0
    5.6058   33.3623   65.7840 H   0  0  0  0  0
    7.3682   32.6881   64.5502 H   0  0  0  0  0
    7.5637   34.4804   64.4776 H   0  0  0  0  0
    6.4836   34.5103   62.2863 H   0  0  0  0  0
    6.3002   32.7078   62.3588 H   0  0  0  0  0
    8.7245   32.5180   62.4734 H   0  0  0  0  0
    8.8211   34.3329   62.2052 H   0  0  0  0  0
    7.6307   33.9827   60.1534 H   0  0  0  0  0
    7.5643   32.5980   57.7695 H   0  0  0  0  0
    8.3316   31.0435   57.7715 H   0  0  0  0  0
    9.7492   33.3617   57.6958 H   0  0  0  0  0
   10.8541   31.0082   57.7579 H   0  0  0  0  0
   11.0526   32.6601   61.5120 H   0  0  0  0  0
    9.9286   34.3438   59.9315 H   0  0  0  0  0
  1  2  2  0  0  0
  1  3  1  0  0  0
  1  4  1  0  0  0
  4  5  1  0  0  0
  5  6  1  0  0  0
  6  7  1  0  0  0
  7  8  1  0  0  0
  8  9  1  0  0  0
  8 16  1  0  0  0
  9 10  1  0  0  0
 10 11  1  0  0  0
 11 12  1  0  0  0
 11 16  1  0  0  0
 12 13  1  0  0  0
 13 14  2  0  0  0
 13 15  1  0  0  0
 15 16  1  0  0  0
  3 17  1  0  0  0
  4 18  1  0  0  0
  4 19  1  0  0  0
  5 20  1  0  0  0
  5 21  1  0  0  0
  6 22  1  0  0  0
  6 23  1  0  0  0
  7 24  1  0  0  0
  7 25  1  0  0  0
  8 26  1  0  0  0
 10 27  1  0  0  0
 10 28  1  0  0  0
 11 29  1  0  0  0
 12 30  1  0  0  0
 15 31  1  0  0  0
 16 32  1  0  0  0
M  END
$$$$
