5w5k_ligand
  -I-interpret- 

 40 43  0  0  0  0  0  0  0  0999 V2000
  -36.3330   -4.4120   19.7840 C   0  0  0  0  0
  -36.8600   -3.3030   20.7230 C   0  0  0  0  0
  -36.3150   -1.9910   20.6830 C   0  0  0  0  0
  -36.7930   -0.9530   21.5440 C   0  0  0  0  0
  -37.8350   -1.1840   22.4780 C   0  0  0  0  0
  -38.3500   -0.0500   23.4060 C   0  0  0  0  0
  -38.7640    1.7400   21.7120 C   0  0  0  0  0
  -40.0770    1.1740   21.4850 C   0  0  0  0  0
  -40.8510    1.5080   20.3420 C   0  0  0  0  0
  -40.3310    2.4160   19.3930 C   0  0  0  0  0
  -39.0330    2.9900   19.5910 C   0  0  0  0  0
  -38.2610    2.6440   20.7520 C   0  0  0  0  0
  -36.0890    2.8860   22.8450 C   0  0  0  0  0
  -34.9570    3.4380   23.5330 C   0  0  0  0  0
  -34.6820    3.0240   24.8780 C   0  0  0  0  0
  -35.5460    2.0720   25.4800 C   0  0  0  0  0
  -36.9130    1.9400   23.5010 C   0  0  0  0  0
  -38.3860   -2.4940   22.5180 C   0  0  0  0  0
  -37.9040   -3.5300   21.6560 C   0  0  0  0  0
  -35.2240   -4.2340   18.9140 N   0  0  0  0  0
  -38.0510    1.3420   22.9000 N   0  0  0  0  0
  -36.6140    1.5570   24.8140 N   0  0  0  0  0
  -36.9180   -5.5280   19.7860 O   0  0  0  0  0
  -34.8190   -5.3080   18.0870 O   0  0  0  0  0
  -36.5850    3.3040   21.1370 S   0  0  0  0  0
  -35.5129   -1.7700   19.9788 H   0  0  0  0  0
  -36.3456    0.0389   21.4806 H   0  0  0  0  0
  -37.8430   -0.1614   24.3644 H   0  0  0  0  0
  -39.4341   -0.1470   23.4638 H   0  0  0  0  0
  -40.4833    0.4712   22.2124 H   0  0  0  0  0
  -41.8376    1.0676   20.1983 H   0  0  0  0  0
  -40.9160    2.6795   18.5118 H   0  0  0  0  0
  -38.6307    3.6905   18.8592 H   0  0  0  0  0
  -34.3127    4.1647   23.0381 H   0  0  0  0  0
  -33.8308    3.4301   25.4245 H   0  0  0  0  0
  -35.3485    1.7458   26.5011 H   0  0  0  0  0
  -39.1913   -2.7137   23.2189 H   0  0  0  0  0
  -38.3520   -4.5217   21.7183 H   0  0  0  0  0
  -34.7266   -3.3440   18.8860 H   0  0  0  0  0
  -34.0631   -5.0377   17.5606 H   0  0  0  0  0
  2  1  1  0  0  0
  1 20  1  0  0  0
  1 23  2  0  0  0
  3  2  4  0  0  0
  2 19  4  0  0  0
  4  3  4  0  0  0
  5  4  4  0  0  0
  6  5  1  0  0  0
  5 18  4  0  0  0
 21  6  1  0  0  0
  7  8  4  0  0  0
 12  7  4  0  0  0
  7 21  1  0  0  0
  8  9  4  0  0  0
 10  9  4  0  0  0
 11 10  4  0  0  0
 12 11  4  0  0  0
 25 12  1  0  0  0
 13 14  4  0  0  0
 13 17  4  0  0  0
 13 25  1  0  0  0
 14 15  4  0  0  0
 15 16  4  0  0  0
 16 22  4  0  0  0
 17 21  1  0  0  0
 17 22  4  0  0  0
 18 19  4  0  0  0
 20 24  1  0  0  0
  3 26  1  0  0  0
  4 27  1  0  0  0
  6 28  1  0  0  0
  6 29  1  0  0  0
  8 30  1  0  0  0
  9 31  1  0  0  0
 10 32  1  0  0  0
 11 33  1  0  0  0
 14 34  1  0  0  0
 15 35  1  0  0  0
 16 36  1  0  0  0
 18 37  1  0  0  0
 19 38  1  0  0  0
 20 39  1  0  0  0
 24 40  1  0  0  0
M  END
$$$$
