4hbp_ligand
  -I-interpret- 

 33 35  0  0  0  0  0  0  0  0999 V2000
  -26.1470  -44.9310  -42.8750 C   0  0  0  0  0
  -25.5420  -44.5910  -43.9180 O   0  0  0  0  0
  -27.3390  -45.5130  -42.9540 N   0  0  0  0  0
  -27.9390  -45.8040  -44.2600 C   0  0  0  0  0
  -29.2840  -45.0940  -44.2690 C   0  0  0  0  0
  -29.8980  -45.7780  -43.1500 N   0  0  0  0  0
  -29.4640  -45.2720  -41.8570 C   0  0  0  0  0
  -28.0780  -45.9120  -41.7490 C   0  0  0  0  0
  -31.1960  -46.1620  -43.3110 C   0  0  0  0  0
  -32.3280  -46.3020  -42.0290 S   0  0  0  0  0
  -33.5380  -46.8220  -43.0980 N   0  0  0  0  0
  -33.0420  -46.8830  -44.3750 C   0  0  0  0  0
  -31.7250  -46.5160  -44.5000 N   0  0  0  0  0
  -33.8800  -47.2970  -45.5340 C   0  0  0  0  0
  -34.8980  -48.2380  -45.3620 C   0  0  0  0  0
  -35.6880  -48.6090  -46.4530 C   0  0  0  0  0
  -35.4550  -48.0380  -47.7080 C   0  0  0  0  0
  -34.4380  -47.0970  -47.8790 C   0  0  0  0  0
  -33.6520  -46.7250  -46.7890 C   0  0  0  0  0
  -25.6945  -44.7490  -41.9002 H   0  0  0  0  0
  -28.0573  -46.8771  -44.4105 H   0  0  0  0  0
  -27.3028  -45.4561  -45.0738 H   0  0  0  0  0
  -29.8341  -45.1555  -45.2080 H   0  0  0  0  0
  -29.2357  -44.0088  -44.1787 H   0  0  0  0  0
  -30.1338  -45.5248  -41.0350 H   0  0  0  0  0
  -29.4562  -44.1843  -41.7871 H   0  0  0  0  0
  -27.5636  -45.5788  -40.8476 H   0  0  0  0  0
  -28.1537  -46.9971  -41.6792 H   0  0  0  0  0
  -35.0751  -48.6805  -44.3817 H   0  0  0  0  0
  -36.4845  -49.3422  -46.3261 H   0  0  0  0  0
  -36.0715  -48.3295  -48.5583 H   0  0  0  0  0
  -34.2593  -46.6554  -48.8594 H   0  0  0  0  0
  -32.8592  -45.9877  -46.9156 H   0  0  0  0  0
  1  2  2  0  0  0
  1  3  1  0  0  0
  3  4  1  0  0  0
  3  8  1  0  0  0
  4  5  1  0  0  0
  5  6  1  0  0  0
  6  7  1  0  0  0
  6  9  1  0  0  0
  7  8  1  0  0  0
  9 10  4  0  0  0
  9 13  4  0  0  0
 10 11  4  0  0  0
 11 12  4  0  0  0
 12 13  4  0  0  0
 12 14  1  0  0  0
 14 15  4  0  0  0
 14 19  4  0  0  0
 15 16  4  0  0  0
 16 17  4  0  0  0
 17 18  4  0  0  0
 18 19  4  0  0  0
  1 20  1  0  0  0
  4 21  1  0  0  0
  4 22  1  0  0  0
  5 23  1  0  0  0
  5 24  1  0  0  0
  7 25  1  0  0  0
  7 26  1  0  0  0
  8 27  1  0  0  0
  8 28  1  0  0  0
 15 29  1  0  0  0
 16 30  1  0  0  0
 17 31  1  0  0  0
 18 32  1  0  0  0
 19 33  1  0  0  0
M  END
$$$$
