5myn_ligand
  -I-interpret- 

 28 30  0  0  0  0  0  0  0  0999 V2000
  -27.9480   12.2280   -5.3970 C   0  0  0  0  0
  -28.2350   13.5690   -4.9260 N   0  0  0  0  0
  -28.8800   14.5480   -5.7770 C   0  0  0  0  0
  -30.1770   16.5560   -5.9630 C   0  0  0  0  0
  -29.4230   15.3200   -7.8780 C   0  0  0  0  0
  -26.8790    6.4630   -4.6620 C   0  0  0  0  0
  -26.6460    6.4940   -3.2970 C   0  0  0  0  0
  -26.7000    7.7110   -2.6290 C   0  0  0  0  0
  -26.9810    8.8440   -3.2610 N   0  0  0  0  0
  -27.2290    8.8500   -4.5590 C   0  0  0  0  0
  -27.1630    7.6680   -5.2810 C   0  0  0  0  0
  -27.4910   10.0290   -5.2380 C   0  0  0  0  0
  -27.4610   10.0600   -6.6190 C   0  0  0  0  0
  -27.8010   11.7010   -7.0440 S   0  0  0  0  0
  -27.7410   11.1720   -4.6290 N   0  0  0  0  0
  -29.5500   15.6030   -5.1890 C   0  0  0  0  0
  -30.1030   16.3870   -7.3290 C   0  0  0  0  0
  -28.8330   14.4450   -7.0930 N   0  0  0  0  0
  -30.8920   17.5550   -8.3920 Cl  0  0  0  0  0
  -27.9769   13.8289   -3.9740 H   0  0  0  0  0
  -30.7042   17.3998   -5.5177 H   0  0  0  0  0
  -29.3746   15.2021   -8.9605 H   0  0  0  0  0
  -26.8404    5.5301   -5.2244 H   0  0  0  0  0
  -26.4232    5.5755   -2.7540 H   0  0  0  0  0
  -26.5063    7.7361   -1.5566 H   0  0  0  0  0
  -27.3381    7.6882   -6.3566 H   0  0  0  0  0
  -27.2650    9.2281   -7.2955 H   0  0  0  0  0
  -29.5833   15.6828   -4.1024 H   0  0  0  0  0
  1  2  1  0  0  0
  1 14  4  0  0  0
 15  1  4  0  0  0
  2  3  1  0  0  0
  3 16  4  0  0  0
  3 18  4  0  0  0
 16  4  4  0  0  0
  4 17  4  0  0  0
  5 17  4  0  0  0
 18  5  4  0  0  0
  6  7  4  0  0  0
 11  6  4  0  0  0
  8  7  4  0  0  0
  9  8  4  0  0  0
 10  9  4  0  0  0
 10 11  4  0  0  0
 12 10  1  0  0  0
 12 13  4  0  0  0
 12 15  4  0  0  0
 13 14  4  0  0  0
 17 19  1  0  0  0
  2 20  1  0  0  0
  4 21  1  0  0  0
  5 22  1  0  0  0
  6 23  1  0  0  0
  7 24  1  0  0  0
  8 25  1  0  0  0
 11 26  1  0  0  0
 13 27  1  0  0  0
 16 28  1  0  0  0
M  END
$$$$
