3udn_ligand
  -I-interpret- 

 44 47  0  0  0  0  0  0  0  0999 V2000
   16.8260   42.3710   44.1840 C   0  0  0  0  0
   26.3510   37.1110   39.9060 C   0  0  0  0  0
   26.9520   37.2090   41.1520 C   0  0  0  0  0
   17.0520   40.8010   42.3300 C   0  0  0  0  0
   17.3730   40.1040   44.6080 C   0  0  0  0  0
   25.0090   36.8120   39.7890 C   0  0  0  0  0
   17.3300   39.5070   41.9110 C   0  0  0  0  0
   17.6430   38.8220   44.1930 C   0  0  0  0  0
   26.2310   36.9790   42.3050 C   0  0  0  0  0
   17.0890   41.0830   43.6860 C   0  0  0  0  0
   24.3050   36.5920   40.9540 C   0  0  0  0  0
   17.6190   38.5250   42.8500 C   0  0  0  0  0
   24.9000   36.6690   42.1740 C   0  0  0  0  0
   22.7700   36.0650   42.6110 C   0  0  0  0  0
   19.6010   36.2810   41.0590 C   0  0  0  0  0
   21.9480   37.3250   40.6960 C   0  0  0  0  0
   22.5530   34.9610   40.3800 C   0  0  0  0  0
   20.7550   36.5770   40.1320 C   0  0  0  0  0
   22.8910   36.2340   41.1150 C   0  0  0  0  0
   17.9330   37.1350   42.4230 C   0  0  0  0  0
   16.5770   43.4230   44.5940 N   0  0  0  0  0
   23.9750   36.3850   43.1770 N   0  0  0  0  0
   21.2730   35.2620   39.6860 N   0  3  0  0  0
   21.7500   35.7170   43.1920 O   0  0  0  0  0
   19.1750   35.1550   41.2350 O   0  0  0  0  0
   19.0900   37.3760   41.6270 O   0  0  0  0  0
   26.9465   37.2723   39.0074 H   0  0  0  0  0
   28.0078   37.4712   41.2210 H   0  0  0  0  0
   16.8095   41.5795   41.6067 H   0  0  0  0  0
   17.3841   40.3450   45.6710 H   0  0  0  0  0
   24.5247   36.7521   38.8143 H   0  0  0  0  0
   17.3215   39.2624   40.8488 H   0  0  0  0  0
   17.8745   38.0461   44.9227 H   0  0  0  0  0
   26.7016   37.0412   43.2862 H   0  0  0  0  0
   21.6741   37.9773   41.5252 H   0  0  0  0  0
   22.3947   38.0021   39.9680 H   0  0  0  0  0
   22.4618   34.1105   41.0556 H   0  0  0  0  0
   23.3383   34.6709   39.6820 H   0  0  0  0  0
   20.3407   37.2351   39.3682 H   0  0  0  0  0
   17.1218   36.6312   41.8975 H   0  0  0  0  0
   18.0892   36.4359   43.2446 H   0  0  0  0  0
   24.1662   36.4115   44.1786 H   0  0  0  0  0
   20.5904   34.5379   39.9098 H   0  0  0  0  0
   21.4340   35.2876   38.6791 H   0  0  0  0  0
 10  1  1  0  0  0
  1 21  3  0  0  0
  2  3  4  0  0  0
  6  2  4  0  0  0
  9  3  4  0  0  0
  7  4  4  0  0  0
  4 10  4  0  0  0
  8  5  4  0  0  0
  5 10  4  0  0  0
 11  6  4  0  0  0
 12  7  4  0  0  0
 12  8  4  0  0  0
 13  9  4  0  0  0
 11 13  4  0  0  0
 19 11  1  0  0  0
 20 12  1  0  0  0
 22 13  1  0  0  0
 19 14  1  0  0  0
 14 22  1  0  0  0
 14 24  2  0  0  0
 15 18  1  0  0  0
 15 25  2  0  0  0
 26 15  1  0  0  0
 18 16  1  0  0  0
 16 19  1  0  0  0
 17 19  1  0  0  0
 23 17  1  0  0  0
 18 23  1  0  0  0
 20 26  1  0  0  0
  2 27  1  0  0  0
  3 28  1  0  0  0
  4 29  1  0  0  0
  5 30  1  0  0  0
  6 31  1  0  0  0
  7 32  1  0  0  0
  8 33  1  0  0  0
  9 34  1  0  0  0
 16 35  1  0  0  0
 16 36  1  0  0  0
 17 37  1  0  0  0
 17 38  1  0  0  0
 18 39  1  0  0  0
 20 40  1  0  0  0
 20 41  1  0  0  0
 22 42  1  0  0  0
 23 43  1  0  0  0
 23 44  1  0  0  0
M  END
$$$$
