2y34_ligand
  -I-interpret- 

 28 29  0  0  0  0  0  0  0  0999 V2000
   36.3880  -16.7700    2.8300 O   0  0  0  0  0
   35.7900  -17.3170    1.8810 C   0  0  0  0  0
   34.6200  -17.0780    1.5110 O   0  0  0  0  0
   36.5440  -18.3850    1.0890 C   0  0  0  0  0
   37.9180  -18.5160    1.5930 N   0  0  0  0  0
   38.7190  -19.4490    1.0920 C   0  0  0  0  0
   38.3740  -20.2330    0.2060 O   0  0  0  0  0
   40.1290  -19.5310    1.6740 C   0  0  0  0  0
   40.8050  -20.6740    1.4890 N   0  0  0  0  0
   42.0280  -20.8830    1.9960 C   0  0  0  0  0
   42.7230  -22.4560    1.7570 Cl  0  0  0  0  0
   42.6510  -19.8780    2.7360 C   0  0  0  0  0
   40.6960  -18.4990    2.4140 C   0  0  0  0  0
   40.0200  -17.3440    2.6630 O   0  0  0  0  0
   41.9710  -18.6780    2.9400 C   0  0  0  0  0
   42.5530  -17.6500    3.6730 C   0  0  0  0  0
   43.8250  -17.8110    4.2140 C   0  0  0  0  0
   44.5060  -19.0070    4.0100 C   0  0  0  0  0
   43.9240  -20.0390    3.2760 C   0  0  0  0  0
   34.4031  -17.6349    0.7597 H   0  0  0  0  0
   36.5756  -18.0943    0.0390 H   0  0  0  0  0
   36.0308  -19.3402    1.2004 H   0  0  0  0  0
   38.2556  -17.8919    2.3258 H   0  0  0  0  0
   40.5723  -16.7575    3.1852 H   0  0  0  0  0
   42.0119  -16.7160    3.8243 H   0  0  0  0  0
   44.2832  -17.0082    4.7917 H   0  0  0  0  0
   45.5040  -19.1381    4.4281 H   0  0  0  0  0
   44.4658  -20.9726    3.1247 H   0  0  0  0  0
  1  2  2  0  0  0
  2  3  1  0  0  0
  2  4  1  0  0  0
  4  5  1  0  0  0
  5  6  1  0  0  0
  6  7  2  0  0  0
  6  8  1  0  0  0
  8  9  4  0  0  0
  8 13  4  0  0  0
  9 10  4  0  0  0
 10 11  1  0  0  0
 10 12  4  0  0  0
 12 15  4  0  0  0
 12 19  4  0  0  0
 13 14  1  0  0  0
 13 15  4  0  0  0
 15 16  4  0  0  0
 16 17  4  0  0  0
 17 18  4  0  0  0
 18 19  4  0  0  0
  3 20  1  0  0  0
  4 21  1  0  0  0
  4 22  1  0  0  0
  5 23  1  0  0  0
 14 24  1  0  0  0
 16 25  1  0  0  0
 17 26  1  0  0  0
 18 27  1  0  0  0
 19 28  1  0  0  0
M  END
$$$$
