4cpr_ligand
  -I-interpret- 

112114  0  0  0  0  0  0  0  0999 V2000
    7.9440   26.6820    5.8230 C   0  0  0  0  0
   10.1670   25.6040    5.7500 N   0  0  0  0  0
    8.3120   27.7760    5.3940 O   0  0  0  0  0
    8.9170   25.7210    6.5260 C   0  0  0  0  0
    9.1990   26.1870    7.9670 C   0  0  0  0  0
    5.0230   27.4490    7.3000 C   0  0  0  0  0
    4.5640   25.7740    0.7220 C   0  0  0  0  0
   19.4830   17.9600    7.2560 C   0  0  0  0  0
   14.4320   17.9290    4.0150 C   0  0  0  0  0
   16.4290   18.3610    2.5790 C   0  0  0  0  0
   14.5880   20.0530    2.7040 C   0  0  0  0  0
   18.7590   19.3550    4.9480 O   0  0  0  0  0
   16.1600   16.2440   10.8280 S   0  0  0  0  0
   13.9400   20.2750    5.5780 O   0  0  0  0  0
   10.2900   23.3550    5.9850 O   0  0  0  0  0
   12.4700   25.7160    4.4780 O   0  0  0  0  0
    5.0550   27.8670    6.0250 C   0  0  0  0  0
    5.7600   25.7140    1.3210 C   0  0  0  0  0
   17.2890   20.6640    8.7450 C   0  0  0  0  0
   15.9480   21.0310    8.7650 C   0  0  0  0  0
   17.6970   19.4830    9.3560 C   0  0  0  0  0
   15.5420   22.2320    8.1920 C   0  0  0  0  0
    7.9660   23.1560    2.8450 C   0  0  0  0  0
    8.3190   25.4360    2.1680 C   0  0  0  0  0
    9.3310   23.0030    3.0600 C   0  0  0  0  0
    9.6840   25.2850    2.3920 C   0  0  0  0  0
   17.1670   17.5340   10.5720 C   0  0  0  0  0
   18.2800   17.4190   11.3150 C   0  0  0  0  0
   16.7720   18.6800   10.0150 C   0  0  0  0  0
    5.6610   26.9530    4.9590 C   0  0  0  0  0
   13.6630   24.0770    6.2970 C   0  0  0  0  0
    6.0820   24.4940    2.1860 C   0  0  0  0  0
   15.0850   23.5280    6.3850 C   0  0  0  0  0
   12.9700   23.4430    5.0920 C   0  0  0  0  0
   17.3870   15.3230   11.7880 C   0  0  0  0  0
   11.5440   23.9390    3.1190 C   0  0  0  0  0
    6.7390   26.1580    5.5630 N   0  0  0  0  0
   16.7330   18.6450    5.5020 N   0  0  0  0  0
   15.7510   21.4690    6.2810 N   0  0  0  0  0
   18.6420   17.4820    6.2000 O   0  0  0  0  0
   18.0650   18.5270    5.5380 C   0  0  0  0  0
   15.1440   20.5290    5.5290 C   0  0  0  0  0
   10.6810   24.3970    5.4590 C   0  0  0  0  0
    7.4600   24.3590    2.3630 C   0  0  0  0  0
   18.4750   16.2060   11.8800 C   0  0  0  0  0
   10.1810   24.0890    2.8980 C   0  0  0  0  0
   15.0260   20.2430    9.4450 C   0  0  0  0  0
   15.4320   19.0510   10.0370 C   0  0  0  0  0
   16.1030   19.6830    4.6720 C   0  0  0  0  0
   15.0740   22.1690    6.9460 N   0  3  0  0  0
   15.3830   19.0100    3.4950 C   0  0  0  0  0
   11.9150   24.4000    4.5380 C   0  0  0  0  0
    9.0920   27.7150    8.0800 C   0  0  0  0  0
   10.5970   25.7340    8.4010 C   0  0  0  0  0
   10.6450   26.4470    5.4317 H   0  0  0  0  0
    8.4553   24.7351    6.5813 H   0  0  0  0  0
    8.4523   25.7379    8.6219 H   0  0  0  0  0
    5.4253   26.4707    7.5631 H   0  0  0  0  0
    4.5947   28.0878    8.0724 H   0  0  0  0  0
    3.8460   24.9650    0.8564 H   0  0  0  0  0
    4.3084   26.6318    0.1000 H   0  0  0  0  0
   20.2671   18.5908    6.8371 H   0  0  0  0  0
   18.8860   18.5396    7.9601 H   0  0  0  0  0
   19.9338   17.1121    7.7718 H   0  0  0  0  0
   13.9346   17.4486    3.1725 H   0  0  0  0  0
   14.9999   17.1861    4.5750 H   0  0  0  0  0
   13.6867   18.3853    4.6665 H   0  0  0  0  0
   16.9920   17.6170    3.1426 H   0  0  0  0  0
   15.9266   17.8795    1.7400 H   0  0  0  0  0
   17.1088   19.1271    2.2060 H   0  0  0  0  0
   14.0927   19.5688    1.8623 H   0  0  0  0  0
   13.8408   20.5081    3.3541 H   0  0  0  0  0
   15.2667   20.8218    2.3346 H   0  0  0  0  0
   11.8129   26.3237    4.1307 H   0  0  0  0  0
    4.6549   28.8438    5.7532 H   0  0  0  0  0
    6.4874   26.5159    1.1952 H   0  0  0  0  0
   18.0210   21.3023    8.2501 H   0  0  0  0  0
   18.7450   19.1858    9.3183 H   0  0  0  0  0
   16.4311   22.8611    8.1487 H   0  0  0  0  0
   14.7177   22.5954    8.8057 H   0  0  0  0  0
    7.2883   22.3286    3.0553 H   0  0  0  0  0
    7.9231   26.3971    1.8401 H   0  0  0  0  0
    9.7327   22.0336    3.3548 H   0  0  0  0  0
   10.3654   26.1064    2.1703 H   0  0  0  0  0
   18.9772   18.2455   11.4529 H   0  0  0  0  0
    6.0625   27.5559    4.1445 H   0  0  0  0  0
    4.8917   26.2884    4.5657 H   0  0  0  0  0
   13.6898   25.1606    6.1823 H   0  0  0  0  0
   13.1155   23.8376    7.2086 H   0  0  0  0  0
    5.7033   23.6014    1.6881 H   0  0  0  0  0
    5.6141   24.6228    3.1620 H   0  0  0  0  0
   15.6767   24.1752    7.0323 H   0  0  0  0  0
   15.5166   23.4963    5.3846 H   0  0  0  0  0
   12.4881   22.5153    5.4006 H   0  0  0  0  0
   13.7099   23.2359    4.3188 H   0  0  0  0  0
   17.3014   14.3171   12.1991 H   0  0  0  0  0
   12.0884   24.5467    2.3962 H   0  0  0  0  0
   11.8063   22.8867    3.0092 H   0  0  0  0  0
    6.5648   25.1791    5.7908 H   0  0  0  0  0
   16.1520   18.0126    6.0523 H   0  0  0  0  0
   16.7658   21.5717    6.2749 H   0  0  0  0  0
   19.4091   15.9334   12.3713 H   0  0  0  0  0
   13.9851   20.5591    9.5143 H   0  0  0  0  0
   14.6975   18.4061   10.5194 H   0  0  0  0  0
   16.8574   20.3589    4.2692 H   0  0  0  0  0
   14.1287   21.7860    6.9565 H   0  0  0  0  0
    9.2650   28.0146    9.1136 H   0  0  0  0  0
    9.8391   28.1789    7.4360 H   0  0  0  0  0
    8.0962   28.0321    7.7703 H   0  0  0  0  0
   11.3441   26.1979    7.7570 H   0  0  0  0  0
   10.7700   26.0336    9.4346 H   0  0  0  0  0
   10.6678   24.6494    8.3190 H   0  0  0  0  0
  1  3  2  0  0  0
  4  1  1  0  0  0
  1 37  1  0  0  0
  2  4  1  0  0  0
 43  2  1  0  0  0
  4  5  1  0  0  0
  5 53  1  0  0  0
  5 54  1  0  0  0
 17  6  2  0  0  0
 18  7  2  0  0  0
 40  8  1  0  0  0
 51  9  1  0  0  0
 51 10  1  0  0  0
 51 11  1  0  0  0
 41 12  2  0  0  0
 27 13  4  0  0  0
 13 35  4  0  0  0
 42 14  2  0  0  0
 43 15  2  0  0  0
 52 16  1  0  0  0
 30 17  1  0  0  0
 32 18  1  0  0  0
 20 19  4  0  0  0
 19 21  4  0  0  0
 22 20  1  0  0  0
 20 47  4  0  0  0
 21 29  4  0  0  0
 50 22  1  0  0  0
 25 23  4  0  0  0
 23 44  4  0  0  0
 26 24  4  0  0  0
 24 44  4  0  0  0
 46 25  4  0  0  0
 46 26  4  0  0  0
 27 28  4  0  0  0
 29 27  1  0  0  0
 28 45  4  0  0  0
 48 29  4  0  0  0
 37 30  1  0  0  0
 33 31  1  0  0  0
 31 34  1  0  0  0
 44 32  1  0  0  0
 50 33  1  0  0  0
 34 52  1  0  0  0
 45 35  4  0  0  0
 36 46  1  0  0  0
 52 36  1  0  0  0
 38 41  1  0  0  0
 49 38  1  0  0  0
 42 39  1  0  0  0
 39 50  1  0  0  0
 41 40  1  0  0  0
 49 42  1  0  0  0
 52 43  1  0  0  0
 47 48  4  0  0  0
 49 51  1  0  0  0
  2 55  1  0  0  0
  4 56  1  0  0  0
  5 57  1  0  0  0
  6 58  1  0  0  0
  6 59  1  0  0  0
  7 60  1  0  0  0
  7 61  1  0  0  0
  8 62  1  0  0  0
  8 63  1  0  0  0
  8 64  1  0  0  0
  9 65  1  0  0  0
  9 66  1  0  0  0
  9 67  1  0  0  0
 10 68  1  0  0  0
 10 69  1  0  0  0
 10 70  1  0  0  0
 11 71  1  0  0  0
 11 72  1  0  0  0
 11 73  1  0  0  0
 16 74  1  0  0  0
 17 75  1  0  0  0
 18 76  1  0  0  0
 19 77  1  0  0  0
 21 78  1  0  0  0
 22 79  1  0  0  0
 22 80  1  0  0  0
 23 81  1  0  0  0
 24 82  1  0  0  0
 25 83  1  0  0  0
 26 84  1  0  0  0
 28 85  1  0  0  0
 30 86  1  0  0  0
 30 87  1  0  0  0
 31 88  1  0  0  0
 31 89  1  0  0  0
 32 90  1  0  0  0
 32 91  1  0  0  0
 33 92  1  0  0  0
 33 93  1  0  0  0
 34 94  1  0  0  0
 34 95  1  0  0  0
 35 96  1  0  0  0
 36 97  1  0  0  0
 36 98  1  0  0  0
 37 99  1  0  0  0
 38100  1  0  0  0
 39101  1  0  0  0
 45102  1  0  0  0
 47103  1  0  0  0
 48104  1  0  0  0
 49105  1  0  0  0
 50106  1  0  0  0
 53107  1  0  0  0
 53108  1  0  0  0
 53109  1  0  0  0
 54110  1  0  0  0
 54111  1  0  0  0
 54112  1  0  0  0
M  END
$$$$
