5xih_ligand
  -I-interpret- 

 41 43  0  0  0  0  0  0  0  0999 V2000
    6.9510  -13.1860   23.8880 O   0  0  0  0  0
    7.1570  -14.3170   24.3260 C   0  0  0  0  0
    6.3530  -15.4820   23.8330 C   0  0  0  0  0
    7.2980  -16.6110   23.3500 C   0  0  0  0  0
    8.6460  -16.5510   24.1110 C   0  0  0  0  0
    8.4770  -15.9930   25.4630 N   0  3  0  0  0
    8.2210  -14.5530   25.3660 C   0  0  0  0  0
    7.7570  -13.9870   26.7100 C   0  0  0  0  0
    8.8820  -13.1550   27.3290 C   0  0  0  0  0
    8.2810  -11.9800   28.1030 C   0  0  0  0  0
    7.7530  -12.4230   29.4140 N   0  0  0  0  0
    8.5930  -13.0210   30.3240 C   0  0  0  0  0
    9.7840  -13.2000   30.0760 O   0  0  0  0  0
    7.9890  -13.4250   31.5890 C   0  0  0  0  0
    8.7630  -14.0370   32.5670 C   0  0  0  0  0
    8.1840  -14.4210   33.7710 C   0  0  0  0  0
    8.9350  -15.0150   34.7220 F   0  0  0  0  0
    6.8310  -14.1930   33.9950 C   0  0  0  0  0
    6.2690  -14.5660   35.1650 F   0  0  0  0  0
    6.0570  -13.5810   33.0160 C   0  0  0  0  0
    6.6340  -13.1960   31.8110 C   0  0  0  0  0
    5.8460  -12.5780   30.8260 N   0  0  0  0  0
    6.4420  -12.2370   29.7130 C   0  0  0  0  0
    5.7258  -15.1591   23.0021 H   0  0  0  0  0
    5.7308  -15.8579   24.6452 H   0  0  0  0  0
    7.4866  -16.4838   22.2840 H   0  0  0  0  0
    6.8257  -17.5746   23.5408 H   0  0  0  0  0
    9.3286  -15.9085   23.5548 H   0  0  0  0  0
    9.0370  -17.5644   24.2018 H   0  0  0  0  0
    9.3255  -16.1526   26.0061 H   0  0  0  0  0
    7.6896  -16.4489   25.9240 H   0  0  0  0  0
    9.1453  -14.0483   25.0848 H   0  0  0  0  0
    7.5006  -14.8072   27.3805 H   0  0  0  0  0
    6.8814  -13.3564   26.5558 H   0  0  0  0  0
    9.5304  -12.7760   26.5391 H   0  0  0  0  0
    9.4632  -13.7784   28.0085 H   0  0  0  0  0
    7.4617  -11.5594   27.5199 H   0  0  0  0  0
    9.0607  -11.2375   28.2727 H   0  0  0  0  0
    9.8236  -14.2159   32.3903 H   0  0  0  0  0
    4.9964  -13.4027   33.1932 H   0  0  0  0  0
    5.8267  -11.7571   28.9520 H   0  0  0  0  0
  1  2  2  0  0  0
  2  3  1  0  0  0
  2  7  1  0  0  0
  3  4  1  0  0  0
  4  5  1  0  0  0
  5  6  1  0  0  0
  6  7  1  0  0  0
  7  8  1  0  0  0
  8  9  1  0  0  0
  9 10  1  0  0  0
 10 11  1  0  0  0
 11 12  1  0  0  0
 11 23  1  0  0  0
 12 13  2  0  0  0
 12 14  1  0  0  0
 14 15  4  0  0  0
 14 21  4  0  0  0
 15 16  4  0  0  0
 16 17  1  0  0  0
 16 18  4  0  0  0
 18 19  1  0  0  0
 18 20  4  0  0  0
 20 21  4  0  0  0
 21 22  1  0  0  0
 22 23  2  0  0  0
  3 24  1  0  0  0
  3 25  1  0  0  0
  4 26  1  0  0  0
  4 27  1  0  0  0
  5 28  1  0  0  0
  5 29  1  0  0  0
  6 30  1  0  0  0
  6 31  1  0  0  0
  7 32  1  0  0  0
  8 33  1  0  0  0
  8 34  1  0  0  0
  9 35  1  0  0  0
  9 36  1  0  0  0
 10 37  1  0  0  0
 10 38  1  0  0  0
 15 39  1  0  0  0
 20 40  1  0  0  0
 23 41  1  0  0  0
M  END
$$$$
