1tnl_ligand
  -I-interpret- 

 22 23  0  0  0  0  0  0  0  0999 V2000
   30.1900   15.4610   14.8430 C   0  0  0  0  0
   28.9490   15.1840   15.6180 C   0  0  0  0  0
   29.3470   16.5960   15.4000 C   0  0  0  0  0
   29.1430   14.7060   17.0310 C   0  0  0  0  0
   28.6820   15.4810   18.0860 C   0  0  0  0  0
   28.7430   14.9720   19.3680 C   0  0  0  0  0
   29.2640   13.6990   19.5790 C   0  0  0  0  0
   29.7350   12.9350   18.5160 C   0  0  0  0  0
   29.6770   13.4390   17.2310 C   0  0  0  0  0
   29.9220   15.1630   13.4350 N   0  3  0  0  0
   31.2517   15.2195   14.8935 H   0  0  0  0  0
   28.0570   14.5894   15.4209 H   0  0  0  0  0
   28.9030   17.5325   15.0624 H   0  0  0  0  0
   29.4788   17.5114   15.9769 H   0  0  0  0  0
   28.2777   16.4770   17.9051 H   0  0  0  0  0
   28.3850   15.5641   20.2102 H   0  0  0  0  0
   29.3036   13.2951   20.5906 H   0  0  0  0  0
   30.1482   11.9426   18.6963 H   0  0  0  0  0
   30.0439   12.8527   16.3885 H   0  0  0  0  0
   30.5207   14.3951   13.1313 H   0  0  0  0  0
   28.9435   14.8967   13.3254 H   0  0  0  0  0
   30.1157   15.9904   12.8708 H   0  0  0  0  0
  2  1  1  0  0  0
  1  3  1  0  0  0
  1 10  1  0  0  0
  2  3  1  0  0  0
  2  4  1  0  0  0
  4  5  4  0  0  0
  4  9  4  0  0  0
  5  6  4  0  0  0
  6  7  4  0  0  0
  7  8  4  0  0  0
  8  9  4  0  0  0
  1 11  1  0  0  0
  2 12  1  0  0  0
  3 13  1  0  0  0
  3 14  1  0  0  0
  5 15  1  0  0  0
  6 16  1  0  0  0
  7 17  1  0  0  0
  8 18  1  0  0  0
  9 19  1  0  0  0
 10 20  1  0  0  0
 10 21  1  0  0  0
 10 22  1  0  0  0
M  END
$$$$
