### 
### Created by X-TOOL on Mon Sep 10 21:13:31 2018
### 

@<TRIPOS>MOLECULE
5U4C_LIGAND
   32    33     1     0     0
SMALL
GAST_HUCK


@<TRIPOS>ATOM
      1 C01        21.4840   87.0250   85.1940 C.ar      1 XBS        -0.0806
      2 C02        21.6630   85.7090   85.5820 C.ar      1 XBS        -0.0219
      3 C03        21.6820   85.3780   86.9280 C.ar      1 XBS        -0.0804
      4 C04        21.5050   86.3780   87.8740 C.ar      1 XBS        -0.0964
      5 C05        21.3410   87.6930   87.4750 C.ar      1 XBS        -0.0941
      6 C06        21.3220   88.0230   86.1360 C.ar      1 XBS        -0.0921
      7 C07        21.5320   86.0990   89.3590 C.2       1 XBS        -0.1475
      8 C08        22.3950   85.2680   89.9540 C.2       1 XBS        -0.1481
      9 C09        22.5010   84.9890   91.4370 C.ar      1 XBS        -0.0999
     10 C10        23.6120   84.3010   91.8930 C.ar      1 XBS        -0.0950
     11 C11        23.7660   84.0410   93.2420 C.ar      1 XBS        -0.0899
     12 C12        22.8110   84.4770   94.1430 C.ar      1 XBS        -0.0667
     13 C13        21.7000   85.1750   93.6940 C.ar      1 XBS        -0.0899
     14 C14        21.5470   85.4380   92.3380 C.ar      1 XBS        -0.0950
     15 C15        21.8400   84.6570   84.5130 C.2       1 XBS         0.0548
     16 O01        24.2850   83.6990   96.2170 O.3       1 XBS        -0.8710
     17 O02        21.9240   84.3090   96.6580 O.3       1 XBS        -0.8710
     18 O03        22.1470   83.4670   84.8140 O.co2     1 XBS        -0.5619
     19 O04        21.6820   84.9830   83.3050 O.co2     1 XBS        -0.5619
     20 B01        23.0130   84.1480   95.7470 B         1 XBS         3.0000
     21 H          21.4706   87.2773   84.1337 H         1 XBS         0.0377
     22 H          21.8341   84.3447   87.2397 H         1 XBS         0.0445
     23 H          21.2258   88.4749   88.2257 H         1 XBS         0.0404
     24 H          21.1810   89.0580   85.8247 H         1 XBS         0.0528
     25 H          20.8004   86.6082   89.9863 H         1 XBS         0.0033
     26 H          23.0922   84.7384   89.3047 H         1 XBS         0.0030
     27 H          24.3689   83.9627   91.1854 H         1 XBS         0.0398
     28 H          24.6393   83.4928   93.5955 H         1 XBS         0.0528
     29 H          20.9472   85.5171   94.4042 H         1 XBS         0.0528
     30 H          20.6799   85.9954   91.9837 H         1 XBS         0.0398
     31 H          24.8972   83.6468   95.4794 H         1 XBS        -0.1290
     32 H          21.1502   84.6150   96.1791 H         1 XBS        -0.1290
@<TRIPOS>BOND
     1    1    2 ar 
     2    1    6 ar 
     3    2    3 ar 
     4    2   15 1  
     5    3    4 ar 
     6    4    5 ar 
     7    4    7 1  
     8    5    6 ar 
     9    7    8 2  
    10    8    9 1  
    11    9   10 ar 
    12    9   14 ar 
    13   10   11 ar 
    14   11   12 ar 
    15   12   13 ar 
    16   12   20 1  
    17   13   14 ar 
    18   15   18 ar 
    19   15   19 ar 
    20   20   16 1  
    21   20   17 1  
    22    1   21 1  
    23    3   22 1  
    24    5   23 1  
    25    6   24 1  
    26    7   25 1  
    27    8   26 1  
    28   10   27 1  
    29   11   28 1  
    30   13   29 1  
    31   14   30 1  
    32   16   31 1  
    33   17   32 1  
@<TRIPOS>SUBSTRUCTURE
     1 XBS         1

