5U4C_LIGAND
  -I-interpret- 

 33 34  0  0  0  0  0  0  0  0999 V2000
   21.4840   87.0250   85.1940 C   0  0  0  0  0
   21.6630   85.7090   85.5820 C   0  0  0  0  0
   21.6820   85.3780   86.9280 C   0  0  0  0  0
   21.5050   86.3780   87.8740 C   0  0  0  0  0
   21.3410   87.6930   87.4750 C   0  0  0  0  0
   21.3220   88.0230   86.1360 C   0  0  0  0  0
   21.5320   86.0990   89.3590 C   0  0  0  0  0
   22.3950   85.2680   89.9540 C   0  0  0  0  0
   22.5010   84.9890   91.4370 C   0  0  0  0  0
   23.6120   84.3010   91.8930 C   0  0  0  0  0
   23.7660   84.0410   93.2420 C   0  0  0  0  0
   22.8110   84.4770   94.1430 C   0  0  0  0  0
   21.7000   85.1750   93.6940 C   0  0  0  0  0
   21.5470   85.4380   92.3380 C   0  0  0  0  0
   21.8400   84.6570   84.5130 C   0  0  0  0  0
   24.2850   83.6990   96.2170 O   0  0  0  0  0
   21.9240   84.3090   96.6580 O   0  0  0  0  0
   22.1470   83.4670   84.8140 O   0  0  0  0  0
   21.6820   84.9830   83.3050 O   0  0  0  0  0
   23.0130   84.1480   95.7470 B   0  0  0  0  0
   21.4706   87.2773   84.1337 H   0  0  0  0  0
   21.8341   84.3447   87.2397 H   0  0  0  0  0
   21.2258   88.4749   88.2257 H   0  0  0  0  0
   21.1810   89.0580   85.8247 H   0  0  0  0  0
   20.8004   86.6082   89.9863 H   0  0  0  0  0
   23.0922   84.7384   89.3047 H   0  0  0  0  0
   24.3689   83.9627   91.1854 H   0  0  0  0  0
   24.6393   83.4928   93.5955 H   0  0  0  0  0
   20.9472   85.5171   94.4042 H   0  0  0  0  0
   20.6799   85.9954   91.9837 H   0  0  0  0  0
   24.2411   83.5521   97.1647 H   0  0  0  0  0
   22.2121   84.0763   97.5437 H   0  0  0  0  0
   22.2282   83.3901   85.7675 H   0  0  0  0  0
  1  2  4  0  0  0
  1  6  4  0  0  0
  2  3  4  0  0  0
  2 15  1  0  0  0
  3  4  4  0  0  0
  4  5  4  0  0  0
  4  7  1  0  0  0
  5  6  4  0  0  0
  7  8  2  0  0  0
  8  9  1  0  0  0
  9 10  4  0  0  0
  9 14  4  0  0  0
 10 11  4  0  0  0
 11 12  4  0  0  0
 12 13  4  0  0  0
 12 20  1  0  0  0
 13 14  4  0  0  0
 15 18  1  0  0  0
 15 19  2  0  0  0
 20 16  1  0  0  0
 20 17  1  0  0  0
  1 21  1  0  0  0
  3 22  1  0  0  0
  5 23  1  0  0  0
  6 24  1  0  0  0
  7 25  1  0  0  0
  8 26  1  0  0  0
 10 27  1  0  0  0
 11 28  1  0  0  0
 13 29  1  0  0  0
 14 30  1  0  0  0
 16 31  1  0  0  0
 17 32  1  0  0  0
 18 33  1  0  0  0
M  END
$$$$
