6b1x_ligand
  -I-interpret- 

 48 49  0  0  0  0  0  0  0  0999 V2000
   -8.8630   -3.0100   -1.1870 O   0  0  0  0  0
   -9.2110   -1.6520   -0.6510 S   0  0  0  0  0
   -8.1350   -1.4790    0.3790 O   0  0  0  0  0
   -9.1440   -0.6090   -1.7160 O   0  0  0  0  0
  -10.5950   -1.5980   -0.0240 O   0  0  0  0  0
  -10.8080   -2.6170    1.0010 N   0  3  0  0  0
  -11.5440   -2.1280    2.1970 C   0  0  0  0  0
  -12.7190   -1.2020    1.9380 C   0  0  0  0  0
  -12.2660    0.1740    1.6160 C   0  0  0  0  0
  -10.6160   -1.4600    3.2790 C   0  0  0  0  0
  -10.3240   -0.0230    2.9200 N   0  0  0  0  0
   -9.0870    0.4250    2.6400 C   0  0  0  0  0
   -8.7820    1.4690    2.0850 O   0  0  0  0  0
  -11.5240    0.7770    2.8250 C   0  0  0  0  0
  -12.1540    1.0800    4.0030 C   0  0  0  0  0
  -11.7280    0.7260    5.1180 O   0  0  0  0  0
  -13.3880    1.6210    3.8730 N   0  0  0  0  0
  -14.0690    1.9710    5.0460 N   0  0  0  0  0
  -14.0560    3.2770    5.3870 C   0  0  0  0  0
  -13.2020    4.0840    5.0460 O   0  0  0  0  0
  -15.0510    3.6360    6.5040 C   0  0  0  0  0
  -16.3210    4.1900    5.8960 C   0  0  0  0  0
  -16.0170    5.6340    5.6890 C   0  0  0  0  0
  -14.9760    5.9990    6.6850 N   0  3  0  0  0
  -14.5490    4.7730    7.3600 C   0  0  0  0  0
   -9.4892   -3.2520   -1.8733 H   0  0  0  0  0
   -9.8884   -2.9250    1.3169 H   0  0  0  0  0
  -11.3715   -3.3559    0.5804 H   0  0  0  0  0
  -11.9555   -3.0627    2.5780 H   0  0  0  0  0
  -13.3322   -1.1619    2.8383 H   0  0  0  0  0
  -13.2821   -1.5879    1.0883 H   0  0  0  0  0
  -13.1322    0.7923    1.3803 H   0  0  0  0  0
  -11.5918    0.1400    0.7602 H   0  0  0  0  0
   -9.6757   -2.0095    3.3236 H   0  0  0  0  0
  -11.1246   -1.4855    4.2428 H   0  0  0  0  0
   -8.2612   -0.2184    2.9437 H   0  0  0  0  0
  -11.3616    1.8348    2.6184 H   0  0  0  0  0
  -13.8066    1.7684    2.9546 H   0  0  0  0  0
  -14.5506    1.2739    5.6140 H   0  0  0  0  0
  -15.1953    2.7230    7.0817 H   0  0  0  0  0
  -17.1888    4.0369    6.5375 H   0  0  0  0  0
  -16.5904    3.6859    4.9679 H   0  0  0  0  0
  -16.9118    6.2420    5.8222 H   0  0  0  0  0
  -15.6633    5.8146    4.6739 H   0  0  0  0  0
  -15.3526    6.6621    7.3624 H   0  0  0  0  0
  -14.1826    6.4410    6.2206 H   0  0  0  0  0
  -13.4651    4.7379    7.4700 H   0  0  0  0  0
  -14.9522    4.7161    8.3711 H   0  0  0  0  0
  1  2  1  0  0  0
  2  3  2  0  0  0
  2  4  2  0  0  0
  2  5  1  0  0  0
  5  6  1  0  0  0
  6  7  1  0  0  0
  7  8  1  0  0  0
  7 10  1  0  0  0
  8  9  1  0  0  0
  9 14  1  0  0  0
 10 11  1  0  0  0
 11 12  1  0  0  0
 11 14  1  0  0  0
 12 13  2  0  0  0
 14 15  1  0  0  0
 15 16  2  0  0  0
 15 17  1  0  0  0
 17 18  1  0  0  0
 18 19  1  0  0  0
 19 20  2  0  0  0
 19 21  1  0  0  0
 21 22  1  0  0  0
 21 25  1  0  0  0
 22 23  1  0  0  0
 23 24  1  0  0  0
 24 25  1  0  0  0
  1 26  1  0  0  0
  6 27  1  0  0  0
  6 28  1  0  0  0
  7 29  1  0  0  0
  8 30  1  0  0  0
  8 31  1  0  0  0
  9 32  1  0  0  0
  9 33  1  0  0  0
 10 34  1  0  0  0
 10 35  1  0  0  0
 12 36  1  0  0  0
 14 37  1  0  0  0
 17 38  1  0  0  0
 18 39  1  0  0  0
 21 40  1  0  0  0
 22 41  1  0  0  0
 22 42  1  0  0  0
 23 43  1  0  0  0
 23 44  1  0  0  0
 24 45  1  0  0  0
 24 46  1  0  0  0
 25 47  1  0  0  0
 25 48  1  0  0  0
M  END
$$$$
