5m39_ligand
  -I-interpret- 

 34 36  0  0  0  0  0  0  0  0999 V2000
   -9.1230   -5.7880   -7.3040 N   0  0  0  0  0
  -10.6820   -7.1470   -6.1450 C   0  0  0  0  0
   -8.3080   -7.7770   -4.4140 C   0  0  0  0  0
   -6.9060   -7.1620   -6.2990 C   0  0  0  0  0
  -11.7380   -6.6720   -6.8890 C   0  0  0  0  0
   -5.7890   -7.6800   -5.6620 C   0  0  0  0  0
   -5.9360   -8.2530   -4.3980 C   0  0  0  0  0
   -8.9390   -3.6160   -9.4550 C   0  0  0  0  0
   -3.5550   -8.6980   -4.2730 C   0  0  0  0  0
   -9.3600   -6.6810   -6.3900 C   0  0  0  0  0
  -11.4840   -5.6790   -7.8630 C   0  0  0  0  0
  -10.1870   -4.3200   -8.9820 C   0  0  0  0  0
   -8.5630   -8.9690   -1.9170 C   0  0  0  0  0
   -8.1700   -7.2160   -5.6810 C   0  0  0  0  0
   -7.1860   -8.2970   -3.7780 C   0  0  0  0  0
  -12.2090   -4.9590   -8.7170 N   0  0  0  0  0
  -11.4240   -4.1770   -9.3820 N   0  0  0  0  0
  -10.1850   -5.2550   -8.0300 N   0  0  0  0  0
   -7.2800   -8.8850   -2.5520 O   0  0  0  0  0
   -4.8760   -8.7860   -3.7190 O   0  0  0  0  0
  -10.8595   -7.8851   -5.3628 H   0  0  0  0  0
   -9.2827   -7.8081   -3.9271 H   0  0  0  0  0
   -6.8050   -6.7096   -7.2855 H   0  0  0  0  0
  -12.7471   -7.0526   -6.7310 H   0  0  0  0  0
   -4.8107   -7.6404   -6.1411 H   0  0  0  0  0
   -8.7943   -3.8105  -10.5177 H   0  0  0  0  0
   -9.0443   -2.5435   -9.2916 H   0  0  0  0  0
   -8.0800   -3.9873   -8.8961 H   0  0  0  0  0
   -3.5329   -9.2033   -5.2385 H   0  0  0  0  0
   -3.2864   -7.6498   -4.4039 H   0  0  0  0  0
   -2.8460   -9.1743   -3.5959 H   0  0  0  0  0
   -8.9608   -7.9648   -1.7702 H   0  0  0  0  0
   -9.2425   -9.5417   -2.5481 H   0  0  0  0  0
   -8.4575   -9.4641   -0.9517 H   0  0  0  0  0
 10  1  4  0  0  0
  1 18  4  0  0  0
  2  5  4  0  0  0
 10  2  4  0  0  0
  3 14  4  0  0  0
 15  3  4  0  0  0
  6  4  4  0  0  0
 14  4  4  0  0  0
  5 11  4  0  0  0
  7  6  4  0  0  0
 15  7  4  0  0  0
  7 20  1  0  0  0
 12  8  1  0  0  0
 20  9  1  0  0  0
 14 10  1  0  0  0
 11 16  4  0  0  0
 18 11  4  0  0  0
 12 17  4  0  0  0
 18 12  4  0  0  0
 19 13  1  0  0  0
 15 19  1  0  0  0
 16 17  4  0  0  0
  2 21  1  0  0  0
  3 22  1  0  0  0
  4 23  1  0  0  0
  5 24  1  0  0  0
  6 25  1  0  0  0
  8 26  1  0  0  0
  8 27  1  0  0  0
  8 28  1  0  0  0
  9 29  1  0  0  0
  9 30  1  0  0  0
  9 31  1  0  0  0
 13 32  1  0  0  0
 13 33  1  0  0  0
 13 34  1  0  0  0
M  END
$$$$
