6cse_ligand
  -I-interpret- 

 14 13  0  0  0  0  0  0  0  0999 V2000
  253.3250  -15.0430  -32.6170 N   0  3  0  0  0
  252.2960  -14.0520  -32.3260 C   0  0  0  0  0
  251.6580  -14.3040  -30.9640 C   0  0  0  0  0
  250.9230  -13.4650  -30.4430 O   0  0  0  0  0
  251.2380  -14.0510  -33.4180 C   0  0  0  0  0
  251.8620  -15.3520  -30.3520 O   0  0  0  0  0
  254.0260  -15.0311  -31.8762 H   0  0  0  0  0
  252.8991  -15.9684  -32.6689 H   0  0  0  0  0
  253.7672  -14.8204  -33.5088 H   0  0  0  0  0
  252.7705  -13.0711  -32.2973 H   0  0  0  0  0
  250.8497  -12.7022  -31.0213 H   0  0  0  0  0
  250.7349  -15.0178  -33.4355 H   0  0  0  0  0
  250.5103  -13.2649  -33.2164 H   0  0  0  0  0
  251.7130  -13.8696  -34.3822 H   0  0  0  0  0
  1  2  1  0  0  0
  2  3  1  0  0  0
  2  5  1  0  0  0
  3  4  1  0  0  0
  3  6  2  0  0  0
  1  7  1  0  0  0
  1  8  1  0  0  0
  1  9  1  0  0  0
  2 10  1  0  0  0
  4 11  1  0  0  0
  5 12  1  0  0  0
  5 13  1  0  0  0
  5 14  1  0  0  0
M  END
$$$$
