5edc_ligand
  -I-interpret- 

 45 48  0  0  0  0  0  0  0  0999 V2000
    6.1510    8.0970   19.7160 N   0  0  0  0  0
    5.7440    7.9180   18.4540 C   0  0  0  0  0
    4.4690    7.2500   18.1540 C   0  0  0  0  0
    3.6870    6.7870   19.1930 C   0  0  0  0  0
    5.3750    7.6390   20.7510 C   0  0  0  0  0
    4.1390    6.9700   20.5450 C   0  0  0  0  0
    3.3770    6.5070   21.6320 C   0  0  0  0  0
    3.8360    6.7050   22.9070 C   0  0  0  0  0
    5.0680    7.3660   23.1430 C   0  0  0  0  0
    5.8220    7.8250   22.0980 C   0  0  0  0  0
    2.4210    6.0910   18.9340 C   0  0  0  0  0
    2.4310    4.6860   19.0380 C   0  0  0  0  0
    1.2310    6.7690   18.5800 C   0  0  0  0  0
    0.0690    6.0200   18.3300 C   0  0  0  0  0
    1.2690    3.9620   18.8010 C   0  0  0  0  0
    0.0940    4.6330   18.4490 C   0  0  0  0  0
    4.0210    7.0860   16.7610 C   0  0  0  0  0
    3.7880    6.0490   16.1440 O   0  0  0  0  0
    3.8200    8.2970   16.1430 O   0  0  0  0  0
    6.5480    8.4130   17.3530 N   0  0  0  0  0
    6.6680    7.4950   16.2180 C   0  0  0  0  0
    7.8660    8.8560   17.8230 C   0  0  0  0  0
    8.6720    7.6920   18.4190 C   0  0  0  0  0
    7.8200    6.5040   16.4130 C   0  0  0  0  0
    8.1700    6.3690   17.8810 C   0  0  0  0  0
    2.9120    6.1670   24.2290 Cl  0  0  0  0  0
    2.4298    5.9953   21.4616 H   0  0  0  0  0
    5.4172    7.5096   24.1655 H   0  0  0  0  0
    6.7662    8.3340   22.2917 H   0  0  0  0  0
    3.3513    4.1664   19.3047 H   0  0  0  0  0
    1.2158    7.8561   18.5024 H   0  0  0  0  0
   -0.8531    6.5252   18.0426 H   0  0  0  0  0
    1.2735    2.8756   18.8891 H   0  0  0  0  0
   -0.8159    4.0618   18.2650 H   0  0  0  0  0
    4.0447    9.0060   16.7500 H   0  0  0  0  0
    6.8663    8.0811   15.3207 H   0  0  0  0  0
    5.7394    6.9308   16.1320 H   0  0  0  0  0
    7.7210    9.6082   18.5985 H   0  0  0  0  0
    8.4179    9.2588   16.9737 H   0  0  0  0  0
    8.5569    7.7000   19.5029 H   0  0  0  0  0
    9.7204    7.8106   18.1454 H   0  0  0  0  0
    8.6943    6.8708   15.8753 H   0  0  0  0  0
    7.5135    5.5293   16.0334 H   0  0  0  0  0
    7.2799    6.0716   18.4354 H   0  0  0  0  0
    8.9504    5.6167   17.9953 H   0  0  0  0  0
  1  2  4  0  0  0
  1  5  4  0  0  0
  2  3  4  0  0  0
  2 20  1  0  0  0
  3  4  4  0  0  0
  3 17  1  0  0  0
  4  6  4  0  0  0
  4 11  1  0  0  0
  5  6  4  0  0  0
  5 10  4  0  0  0
  6  7  4  0  0  0
  7  8  4  0  0  0
  8  9  4  0  0  0
  8 26  1  0  0  0
  9 10  4  0  0  0
 11 12  4  0  0  0
 11 13  4  0  0  0
 12 15  4  0  0  0
 13 14  4  0  0  0
 14 16  4  0  0  0
 15 16  4  0  0  0
 17 18  2  0  0  0
 17 19  1  0  0  0
 20 21  1  0  0  0
 20 22  1  0  0  0
 21 24  1  0  0  0
 22 23  1  0  0  0
 23 25  1  0  0  0
 24 25  1  0  0  0
  7 27  1  0  0  0
  9 28  1  0  0  0
 10 29  1  0  0  0
 12 30  1  0  0  0
 13 31  1  0  0  0
 14 32  1  0  0  0
 15 33  1  0  0  0
 16 34  1  0  0  0
 19 35  1  0  0  0
 21 36  1  0  0  0
 21 37  1  0  0  0
 22 38  1  0  0  0
 22 39  1  0  0  0
 23 40  1  0  0  0
 23 41  1  0  0  0
 24 42  1  0  0  0
 24 43  1  0  0  0
 25 44  1  0  0  0
 25 45  1  0  0  0
M  END
$$$$
