### 
### Created by X-TOOL on Wed Jan  1 15:39:38 2020
### 

@<TRIPOS>MOLECULE
6cw4_ligand
   33    33     1     0     0
SMALL
GAST_HUCK


@<TRIPOS>ATOM
      1 C1         12.4650    9.5150   -1.2180 C.3       1 FGV         0.1463
      2 C2         12.6130    9.2810    0.3040 C.3       1 FGV         0.1212
      3 C3         12.0540   10.4880    1.0850 C.3       1 FGV         0.1463
      4 C4         10.5740   10.7350    0.7160 C.3       1 FGV         0.1212
      5 C5         10.4220   10.9610   -0.8020 C.3       1 FGV         0.1463
      6 O1         12.9310    8.3800   -1.9240 O.3       1 FGV        -0.2675
      7 C6         10.9860    9.7560   -1.5860 C.3       1 FGV         0.1212
      8 O11        15.4830    8.9870   -1.3790 O.co2     1 FGV        -0.5537
      9 O12        15.1430    7.2540   -3.3530 O.co2     1 FGV        -0.5537
     10 O13        14.5520   10.0370   -3.6500 O.co2     1 FGV        -0.5537
     11 O2         11.9320    8.1140    0.6920 O.3       1 FGV        -0.3858
     12 O3         12.1440   10.2330    2.4740 O.3       1 FGV        -0.2675
     13 O4         10.0940   11.8650    1.3990 O.3       1 FGV        -0.3858
     14 O5          9.0480   11.1060   -1.1090 O.3       1 FGV        -0.2675
     15 O51         9.4550   12.8200   -3.1240 O.co2     1 FGV        -0.5537
     16 O52         7.0350   12.9150   -2.0700 O.co2     1 FGV        -0.5537
     17 O53         9.3280   13.9650   -0.7270 O.co2     1 FGV        -0.5537
     18 O6         10.8960   10.0000   -2.9670 O.3       1 FGV        -0.3858
     19 P1         14.5320    8.6790   -2.5680 P.3       1 FGV         0.2013
     20 P5          8.7280   12.7030   -1.7560 P.3       1 FGV         0.2013
     21 P3         13.4680   11.1410    3.1770 P.3       1 FGV         0.2013
     22 O31        13.2790   12.8520    2.9530 O.co2     1 FGV        -0.5537
     23 O32        13.6500   10.7590    4.8600 O.co2     1 FGV        -0.5537
     24 O33        14.7830   10.7090    2.4750 O.co2     1 FGV        -0.5537
     25 H1         13.0591   10.3947   -1.5063 H         1 FGV         0.0703
     26 H2         13.6808    9.1654    0.5416 H         1 FGV         0.0654
     27 H3         12.6439   11.3828    0.8373 H         1 FGV         0.0703
     28 H4          9.9818    9.8557    1.0095 H         1 FGV         0.0654
     29 H5         10.9652   11.8724   -1.0921 H         1 FGV         0.0703
     30 H6         10.3999    8.8595   -1.3354 H         1 FGV         0.0654
     31 H7         12.0538    7.9725    1.6235 H         1 FGV         0.2100
     32 H8          9.1779   11.9975    1.1851 H         1 FGV         0.2100
     33 H9         11.2445    9.2551   -3.4424 H         1 FGV         0.2100
@<TRIPOS>BOND
     1    1    2 1  
     2    1    6 1  
     3    1    7 1  
     4    2    3 1  
     5    2   11 1  
     6    3    4 1  
     7    3   12 1  
     8    4    5 1  
     9    4   13 1  
    10    5    7 1  
    11    5   14 1  
    12    6   19 1  
    13    7   18 1  
    14   19    8 ar 
    15   19    9 ar 
    16   19   10 ar 
    17   12   21 1  
    18   14   20 1  
    19   20   15 ar 
    20   20   16 ar 
    21   20   17 ar 
    22   21   22 ar 
    23   21   23 ar 
    24   21   24 ar 
    25    1   25 1  
    26    2   26 1  
    27    3   27 1  
    28    4   28 1  
    29    5   29 1  
    30    7   30 1  
    31   11   31 1  
    32   13   32 1  
    33   18   33 1  
@<TRIPOS>SUBSTRUCTURE
     1 FGV         1

