6cw4_ligand
  -I-interpret- 

 39 39  0  0  0  0  0  0  0  0999 V2000
   12.4650    9.5150   -1.2180 C   0  0  0  0  0
   12.6130    9.2810    0.3040 C   0  0  0  0  0
   12.0540   10.4880    1.0850 C   0  0  0  0  0
   10.5740   10.7350    0.7160 C   0  0  0  0  0
   10.4220   10.9610   -0.8020 C   0  0  0  0  0
   12.9310    8.3800   -1.9240 O   0  0  0  0  0
   10.9860    9.7560   -1.5860 C   0  0  0  0  0
   15.4830    8.9870   -1.3790 O   0  0  0  0  0
   15.1430    7.2540   -3.3530 O   0  0  0  0  0
   14.5520   10.0370   -3.6500 O   0  0  0  0  0
   11.9320    8.1140    0.6920 O   0  0  0  0  0
   12.1440   10.2330    2.4740 O   0  0  0  0  0
   10.0940   11.8650    1.3990 O   0  0  0  0  0
    9.0480   11.1060   -1.1090 O   0  0  0  0  0
    9.4550   12.8200   -3.1240 O   0  0  0  0  0
    7.0350   12.9150   -2.0700 O   0  0  0  0  0
    9.3280   13.9650   -0.7270 O   0  0  0  0  0
   10.8960   10.0000   -2.9670 O   0  0  0  0  0
   14.5320    8.6790   -2.5680 P   0  0  0  0  0
    8.7280   12.7030   -1.7560 P   0  0  0  0  0
   13.4680   11.1410    3.1770 P   0  0  0  0  0
   13.2790   12.8520    2.9530 O   0  0  0  0  0
   13.6500   10.7590    4.8600 O   0  0  0  0  0
   14.7830   10.7090    2.4750 O   0  0  0  0  0
   13.0524   10.3921   -1.4895 H   0  0  0  0  0
   13.6728    9.1645    0.5306 H   0  0  0  0  0
   12.6386   11.3705    0.8251 H   0  0  0  0  0
    9.9984    9.8554    1.0044 H   0  0  0  0  0
   10.9735   11.8577   -1.0845 H   0  0  0  0  0
   10.4010    8.8742   -1.3245 H   0  0  0  0  0
   14.5777    7.0324   -4.0966 H   0  0  0  0  0
   13.9682    9.8623   -4.3918 H   0  0  0  0  0
   12.2813    7.3641    0.2049 H   0  0  0  0  0
   10.1865   11.7291    2.3448 H   0  0  0  0  0
    6.5472   12.8495   -1.2458 H   0  0  0  0  0
    8.8928   13.9140    0.1271 H   0  0  0  0  0
   11.2482    9.2472   -3.4474 H   0  0  0  0  0
   12.4697   13.1421    3.3803 H   0  0  0  0  0
   12.8535   11.0121    5.3324 H   0  0  0  0  0
  1  2  1  0  0  0
  1  6  1  0  0  0
  1  7  1  0  0  0
  2  3  1  0  0  0
  2 11  1  0  0  0
  3  4  1  0  0  0
  3 12  1  0  0  0
  4  5  1  0  0  0
  4 13  1  0  0  0
  5  7  1  0  0  0
  5 14  1  0  0  0
  6 19  1  0  0  0
  7 18  1  0  0  0
 19  8  2  0  0  0
 19  9  1  0  0  0
 19 10  1  0  0  0
 12 21  1  0  0  0
 14 20  1  0  0  0
 20 15  2  0  0  0
 20 16  1  0  0  0
 20 17  1  0  0  0
 21 22  1  0  0  0
 21 23  1  0  0  0
 21 24  2  0  0  0
  1 25  1  0  0  0
  2 26  1  0  0  0
  3 27  1  0  0  0
  4 28  1  0  0  0
  5 29  1  0  0  0
  7 30  1  0  0  0
  9 31  1  0  0  0
 10 32  1  0  0  0
 11 33  1  0  0  0
 13 34  1  0  0  0
 16 35  1  0  0  0
 17 36  1  0  0  0
 18 37  1  0  0  0
 22 38  1  0  0  0
 23 39  1  0  0  0
M  END
$$$$
