4u82_ligand
  -I-interpret- 

 56 55  0  0  0  0  0  0  0  0999 V2000
   21.4110    2.1480    9.8650 C   0  0  0  0  0
   20.5410    0.6130   10.3620 S   0  0  0  0  0
   22.5290    1.5180    9.2330 C   0  0  0  0  0
   23.8620    2.0430    9.4880 C   0  0  0  0  0
   24.1370    3.3300   10.3870 C   0  0  0  0  0
   24.8470    1.2280    8.7000 C   0  0  0  0  0
   25.8200    0.6460    9.6460 C   0  0  0  0  0
   26.9950    0.4100    8.6600 C   0  0  0  0  0
   27.2030   -1.0330    8.2380 C   0  0  0  0  0
   28.2400   -1.3810    7.2640 C   0  0  0  0  0
   26.2580   -2.1290    8.7160 C   0  0  0  0  0
   29.5850   -0.7460    7.5690 C   0  0  0  0  0
   30.5240   -1.5750    6.7490 C   0  0  0  0  0
   31.1780   -0.8560    5.6010 C   0  0  0  0  0
   32.0830   -1.6170    4.6720 C   0  0  0  0  0
   30.7320    0.5180    5.1960 C   0  0  0  0  0
   19.8450    1.3210   12.1160 P   0  0  0  0  0
   19.3010    2.7930   12.0430 O   0  0  0  0  0
   20.9260    1.1940   13.1870 O   0  0  0  0  0
   18.6160    0.3630   12.4320 O   0  0  0  0  0
   17.1940    0.5850   13.0850 P   0  0  0  0  0
   17.5020    0.8490   14.5860 O   0  0  0  0  0
   16.6100    1.9450   12.4720 O   0  0  0  0  0
   16.3420   -0.5680   12.7590 O   0  0  0  0  0
   21.6462    2.8462   10.6683 H   0  0  0  0  0
   20.8412    2.8426    9.2478 H   0  0  0  0  0
   22.3853    0.6620    8.5737 H   0  0  0  0  0
   23.6286    4.1906    9.9524 H   0  0  0  0  0
   23.7606    3.1548   11.3948 H   0  0  0  0  0
   25.2093    3.5217   10.4265 H   0  0  0  0  0
   25.3598    1.8577    7.9729 H   0  0  0  0  0
   24.3309    0.4364    8.1568 H   0  0  0  0  0
   25.4754   -0.2422   10.1755 H   0  0  0  0  0
   26.0576    1.2704   10.5073 H   0  0  0  0  0
   27.9039    0.7198    9.1757 H   0  0  0  0  0
   26.7620    0.9707    7.7548 H   0  0  0  0  0
   27.8078   -0.9591    9.1418 H   0  0  0  0  0
   27.9149   -1.0142    6.2904 H   0  0  0  0  0
   28.3712   -2.4627    7.2938 H   0  0  0  0  0
   26.2779   -2.1748    9.8049 H   0  0  0  0  0
   25.2456   -1.9066    8.3789 H   0  0  0  0  0
   26.5770   -3.0868    8.3049 H   0  0  0  0  0
   29.8284   -0.7476    8.6315 H   0  0  0  0  0
   29.6235    0.3151    7.3225 H   0  0  0  0  0
   29.9326   -2.3820    6.3165 H   0  0  0  0  0
   31.3252   -1.8926    7.4164 H   0  0  0  0  0
   31.9147   -0.4700    6.3055 H   0  0  0  0  0
   32.9155   -2.0341    5.2386 H   0  0  0  0  0
   31.5221   -2.4240    4.2006 H   0  0  0  0  0
   32.4651   -0.9425    3.9057 H   0  0  0  0  0
   29.6802    0.4881    4.9115 H   0  0  0  0  0
   30.8638    1.2030    6.0336 H   0  0  0  0  0
   31.3291    0.8577    4.3497 H   0  0  0  0  0
   18.6240    2.8495   11.3647 H   0  0  0  0  0
   18.0634    1.6237   14.6649 H   0  0  0  0  0
   17.1898    2.6741   12.7039 H   0  0  0  0  0
  1  2  1  0  0  0
  1  3  1  0  0  0
  2 17  1  0  0  0
  3  4  2  0  0  0
  4  5  1  0  0  0
  4  6  1  0  0  0
  6  7  1  0  0  0
  7  8  1  0  0  0
  8  9  1  0  0  0
  9 10  1  0  0  0
  9 11  1  0  0  0
 10 12  1  0  0  0
 12 13  1  0  0  0
 13 14  1  0  0  0
 14 15  1  0  0  0
 14 16  1  0  0  0
 17 18  1  0  0  0
 17 19  2  0  0  0
 17 20  1  0  0  0
 20 21  1  0  0  0
 21 22  1  0  0  0
 21 23  1  0  0  0
 21 24  2  0  0  0
  1 25  1  0  0  0
  1 26  1  0  0  0
  3 27  1  0  0  0
  5 28  1  0  0  0
  5 29  1  0  0  0
  5 30  1  0  0  0
  6 31  1  0  0  0
  6 32  1  0  0  0
  7 33  1  0  0  0
  7 34  1  0  0  0
  8 35  1  0  0  0
  8 36  1  0  0  0
  9 37  1  0  0  0
 10 38  1  0  0  0
 10 39  1  0  0  0
 11 40  1  0  0  0
 11 41  1  0  0  0
 11 42  1  0  0  0
 12 43  1  0  0  0
 12 44  1  0  0  0
 13 45  1  0  0  0
 13 46  1  0  0  0
 14 47  1  0  0  0
 15 48  1  0  0  0
 15 49  1  0  0  0
 15 50  1  0  0  0
 16 51  1  0  0  0
 16 52  1  0  0  0
 16 53  1  0  0  0
 18 54  1  0  0  0
 22 55  1  0  0  0
 23 56  1  0  0  0
M  END
$$$$
