### 
### Created by X-TOOL on Mon Sep 10 21:13:23 2018
### 

@<TRIPOS>MOLECULE
4u82_ligand
   53    52     1     0     0
SMALL
GAST_HUCK


@<TRIPOS>ATOM
      1 C1         21.4110    2.1480    9.8650 C.3       1 FPS         0.0201
      2 S1         20.5410    0.6130   10.3620 S.3       1 FPS        -0.0179
      3 C2         22.5290    1.5180    9.2330 C.2       1 FPS        -0.0977
      4 C3         23.8620    2.0430    9.4880 C.2       1 FPS        -0.0832
      5 C4         24.1370    3.3300   10.3870 C.3       1 FPS        -0.0403
      6 C5         24.8470    1.2280    8.7000 C.3       1 FPS        -0.0286
      7 C6         25.8200    0.6460    9.6460 C.3       1 FPS        -0.0444
      8 C7         26.9950    0.4100    8.6600 C.3       1 FPS        -0.0487
      9 C8         27.2030   -1.0330    8.2380 C.3       1 FPS        -0.0437
     10 C10        28.2400   -1.3810    7.2640 C.3       1 FPS        -0.0504
     11 C9         26.2580   -2.1290    8.7160 C.3       1 FPS        -0.0624
     12 C11        29.5850   -0.7460    7.5690 C.3       1 FPS        -0.0526
     13 C12        30.5240   -1.5750    6.7490 C.3       1 FPS        -0.0507
     14 C13        31.1780   -0.8560    5.6010 C.3       1 FPS        -0.0467
     15 C14        32.0830   -1.6170    4.6720 C.3       1 FPS        -0.0627
     16 C15        30.7320    0.5180    5.1960 C.3       1 FPS        -0.0627
     17 PA         19.8450    1.3210   12.1160 P.3       1 FPS         0.2529
     18 O1A        19.3010    2.7930   12.0430 O.co2     1 FPS        -0.5506
     19 O2A        20.9260    1.1940   13.1870 O.co2     1 FPS        -0.5506
     20 O3A        18.6160    0.3630   12.4320 O.3       1 FPS        -0.1716
     21 PB         17.1940    0.5850   13.0850 P.3       1 FPS         0.2062
     22 O1B        17.5020    0.8490   14.5860 O.co2     1 FPS        -0.5889
     23 O2B        16.6100    1.9450   12.4720 O.co2     1 FPS        -0.5889
     24 O3B        16.3420   -0.5680   12.7590 O.co2     1 FPS        -0.5889
     25 H1         21.7068    2.7624   10.7282 H         1 FPS         0.0467
     26 H2         20.8211    2.7584    9.1654 H         1 FPS         0.0467
     27 H3         22.3854    0.6627    8.5743 H         1 FPS         0.0251
     28 H4         25.2189    3.5245   10.4276 H         1 FPS         0.0375
     29 H5         23.7576    3.1545   11.4045 H         1 FPS         0.0375
     30 H6         23.6244    4.1993    9.9494 H         1 FPS         0.0375
     31 H7         25.3692    1.8712    7.9764 H         1 FPS         0.0410
     32 H8         24.3216    0.4241    8.1636 H         1 FPS         0.0410
     33 H9         25.4561   -0.2932   10.0880 H         1 FPS         0.0287
     34 H10        26.0882    1.3491   10.4483 H         1 FPS         0.0287
     35 H11        27.9196    0.7605    9.1419 H         1 FPS         0.0269
     36 H12        26.8048    1.0054    7.7549 H         1 FPS         0.0269
     37 H13        27.8872   -1.2083    9.0813 H         1 FPS         0.0298
     38 H14        27.9123   -1.0447    6.2693 H         1 FPS         0.0268
     39 H15        28.3626   -2.4741    7.2595 H         1 FPS         0.0268
     40 H16        25.5441   -1.7079    9.4392 H         1 FPS         0.0232
     41 H17        26.8387   -2.9295    9.1977 H         1 FPS         0.0232
     42 H18        25.7091   -2.5406    7.8562 H         1 FPS         0.0232
     43 H19        29.8244   -0.8157    8.6404 H         1 FPS         0.0265
     44 H20        29.6077    0.3083    7.2560 H         1 FPS         0.0265
     45 H21        29.9586   -2.4253    6.3400 H         1 FPS         0.0268
     46 H22        31.3175   -1.9477    7.4133 H         1 FPS         0.0268
     47 H23        32.0052   -0.4805    6.2213 H         1 FPS         0.0295
     48 H24        32.4693   -0.9374    3.8981 H         1 FPS         0.0232
     49 H25        31.5181   -2.4318    4.1956 H         1 FPS         0.0232
     50 H26        32.9237   -2.0385    5.2426 H         1 FPS         0.0232
     51 H27        30.0801    0.9369    5.9768 H         1 FPS         0.0232
     52 H28        30.1772    0.4589    4.2480 H         1 FPS         0.0232
     53 H29        31.6116    1.1657    5.0663 H         1 FPS         0.0232
@<TRIPOS>BOND
     1    1    2 1  
     2    1    3 1  
     3    2   17 1  
     4    3    4 2  
     5    4    5 1  
     6    4    6 1  
     7    6    7 1  
     8    7    8 1  
     9    8    9 1  
    10    9   10 1  
    11    9   11 1  
    12   10   12 1  
    13   12   13 1  
    14   13   14 1  
    15   14   15 1  
    16   14   16 1  
    17   17   18 ar 
    18   17   19 ar 
    19   17   20 1  
    20   20   21 1  
    21   21   22 ar 
    22   21   23 ar 
    23   21   24 ar 
    24    1   25 1  
    25    1   26 1  
    26    3   27 1  
    27    5   28 1  
    28    5   29 1  
    29    5   30 1  
    30    6   31 1  
    31    6   32 1  
    32    7   33 1  
    33    7   34 1  
    34    8   35 1  
    35    8   36 1  
    36    9   37 1  
    37   10   38 1  
    38   10   39 1  
    39   11   40 1  
    40   11   41 1  
    41   11   42 1  
    42   12   43 1  
    43   12   44 1  
    44   13   45 1  
    45   13   46 1  
    46   14   47 1  
    47   15   48 1  
    48   15   49 1  
    49   15   50 1  
    50   16   51 1  
    51   16   52 1  
    52   16   53 1  
@<TRIPOS>SUBSTRUCTURE
     1 FPS         1

