6e5l_ligand
  -I-interpret- 

 53 54  0  0  0  0  0  0  0  0999 V2000
  -12.1440   -6.5040   18.6740 C   0  0  0  0  0
  -12.8520   -7.7210   19.2490 C   0  0  0  0  0
  -14.0660   -8.1840   18.4430 C   0  0  0  0  0
  -13.7390   -8.1860   16.9650 C   0  0  0  0  0
  -13.4460   -6.7400   16.5550 C   0  0  0  0  0
  -12.3750   -6.1010   17.4360 C   0  0  0  0  0
  -11.1820   -5.7310   19.5720 C   0  0  0  0  0
  -13.0180   -6.6420   15.0860 C   0  0  0  0  0
  -14.8850   -8.7510   16.1300 C   0  0  0  0  0
  -14.5320   -9.7050   14.9930 C   0  0  0  0  0
  -16.1470   -8.4260   16.3630 C   0  0  0  0  0
  -13.7940   -5.9000   14.1640 C   0  0  0  0  0
  -13.3900   -5.8190   12.8470 C   0  0  0  0  0
  -12.2700   -6.4290   12.4220 C   0  0  0  0  0
  -11.5090   -7.1630   13.2630 C   0  0  0  0  0
  -11.8490   -7.2760   14.5940 C   0  0  0  0  0
  -11.0470   -8.0190   15.4590 O   0  0  0  0  0
  -11.8950   -6.3290   11.0710 O   0  0  0  0  0
  -15.0580   -5.1590   14.5690 C   0  0  0  0  0
  -14.7350   -3.8840   15.3650 C   0  0  0  0  0
  -14.0170   -2.8310   14.5180 C   0  0  0  0  0
  -13.7750   -1.5630   15.3550 C   0  0  0  0  0
  -12.6530   -1.7980   16.3600 C   0  0  0  0  0
  -13.2124   -7.4434   20.2395 H   0  0  0  0  0
  -12.1336   -8.5408   19.2451 H   0  0  0  0  0
  -14.8971   -7.5025   18.6246 H   0  0  0  0  0
  -14.3359   -9.1941   18.7511 H   0  0  0  0  0
  -12.8757   -8.8266   16.7851 H   0  0  0  0  0
  -14.3796   -6.1936   16.6891 H   0  0  0  0  0
  -11.7796   -5.2833   17.0298 H   0  0  0  0  0
  -10.1927   -5.7162   19.1148 H   0  0  0  0  0
  -11.5425   -4.7096   19.6943 H   0  0  0  0  0
  -11.1263   -6.2171   20.5460 H   0  0  0  0  0
  -15.0217  -10.6644   15.1601 H   0  0  0  0  0
  -14.8712   -9.2824   14.0473 H   0  0  0  0  0
  -13.4518   -9.8475   14.9621 H   0  0  0  0  0
  -16.9403   -8.8405   15.7410 H   0  0  0  0  0
  -16.3928   -7.7439   17.1769 H   0  0  0  0  0
  -13.9905   -5.2495   12.1377 H   0  0  0  0  0
  -10.6202   -7.6693   12.8865 H   0  0  0  0  0
  -10.3017   -8.3790   14.9727 H   0  0  0  0  0
  -11.0795   -6.8154   10.9296 H   0  0  0  0  0
  -15.6561   -5.8168   15.1996 H   0  0  0  0  0
  -15.5952   -4.8738   13.6645 H   0  0  0  0  0
  -14.0764   -4.1594   16.1887 H   0  0  0  0  0
  -15.6760   -3.4547   15.7089 H   0  0  0  0  0
  -14.6349   -2.5804   13.6557 H   0  0  0  0  0
  -13.0592   -3.2299   14.1840 H   0  0  0  0  0
  -14.6888   -1.3129   15.8941 H   0  0  0  0  0
  -13.4920   -0.7467   14.6904 H   0  0  0  0  0
  -12.9281   -2.6167   17.0249 H   0  0  0  0  0
  -11.7371   -2.0533   15.8270 H   0  0  0  0  0
  -12.4944   -0.8915   16.9441 H   0  0  0  0  0
  1  2  1  0  0  0
  1  6  2  0  0  0
  1  7  1  0  0  0
  2  3  1  0  0  0
  3  4  1  0  0  0
  4  5  1  0  0  0
  4  9  1  0  0  0
  5  6  1  0  0  0
  5  8  1  0  0  0
  8 12  4  0  0  0
  8 16  4  0  0  0
  9 10  1  0  0  0
  9 11  2  0  0  0
 12 13  4  0  0  0
 12 19  1  0  0  0
 13 14  4  0  0  0
 14 15  4  0  0  0
 14 18  1  0  0  0
 15 16  4  0  0  0
 16 17  1  0  0  0
 19 20  1  0  0  0
 20 21  1  0  0  0
 21 22  1  0  0  0
 22 23  1  0  0  0
  2 24  1  0  0  0
  2 25  1  0  0  0
  3 26  1  0  0  0
  3 27  1  0  0  0
  4 28  1  0  0  0
  5 29  1  0  0  0
  6 30  1  0  0  0
  7 31  1  0  0  0
  7 32  1  0  0  0
  7 33  1  0  0  0
 10 34  1  0  0  0
 10 35  1  0  0  0
 10 36  1  0  0  0
 11 37  1  0  0  0
 11 38  1  0  0  0
 13 39  1  0  0  0
 15 40  1  0  0  0
 17 41  1  0  0  0
 18 42  1  0  0  0
 19 43  1  0  0  0
 19 44  1  0  0  0
 20 45  1  0  0  0
 20 46  1  0  0  0
 21 47  1  0  0  0
 21 48  1  0  0  0
 22 49  1  0  0  0
 22 50  1  0  0  0
 23 51  1  0  0  0
 23 52  1  0  0  0
 23 53  1  0  0  0
M  END
$$$$
