4qga_ligand
  -I-interpret- 

 58 61  0  0  0  0  0  0  0  0999 V2000
   12.7840   -3.0320    1.0020 C   0  0  0  0  0
   12.1800   -1.6850    0.8480 C   0  0  0  0  0
   11.7680   -0.9530    1.8980 C   0  0  0  0  0
   11.2050    0.3020    1.7890 N   0  0  0  0  0
   11.0450    0.9090    0.5620 C   0  0  0  0  0
   10.5880    2.0370    0.4230 O   0  0  0  0  0
   11.4340    0.1550   -0.5240 N   0  0  0  0  0
   12.0040   -1.0990   -0.5040 C   0  0  0  0  0
   12.3270   -1.6860   -1.5320 O   0  0  0  0  0
   10.6600    0.9880    2.9420 C   0  0  0  0  0
    9.7720    0.1050    3.8310 C   0  0  0  0  0
    9.1930    0.8570    5.0200 C   0  0  0  0  0
   10.2750    1.5970    5.7810 C   0  0  0  0  0
   11.0690    2.4490    4.8360 N   0  3  0  0  0
   11.7170    1.6630    3.7490 C   0  0  0  0  0
   12.0700    3.3140    5.5360 C   0  0  0  0  0
   13.2690    2.5920    6.0980 C   0  0  0  0  0
   13.2120    2.1790    7.4140 C   0  0  0  0  0
   14.2650    1.5070    7.9860 C   0  0  0  0  0
   15.4070    1.2530    7.2560 C   0  0  0  0  0
   15.4780    1.6750    5.9410 C   0  0  0  0  0
   14.4240    2.3520    5.3660 C   0  0  0  0  0
   14.5530    2.7660    4.0830 F   0  0  0  0  0
   16.6260    1.4910    5.1860 O   0  0  0  0  0
   16.7150    0.4540    4.2660 C   0  0  0  0  0
   15.8880   -0.6590    4.2590 C   0  0  0  0  0
   16.0770   -1.6480    3.3070 C   0  0  0  0  0
   17.0820   -1.5230    2.3690 C   0  0  0  0  0
   17.8980   -0.4120    2.3730 C   0  0  0  0  0
   17.7200    0.5730    3.3250 C   0  0  0  0  0
   19.1540   -0.2270    1.1970 Cl  0  0  0  0  0
   16.5090    0.5310    7.9240 C   0  0  0  0  0
   16.9610    1.0270    8.9910 O   0  0  0  0  0
   16.8970   -0.5360    7.3890 O   0  0  0  0  0
   13.6860   -2.9571    1.6094 H   0  0  0  0  0
   12.0699   -3.6954    1.4900 H   0  0  0  0  0
   13.0381   -3.4293    0.0193 H   0  0  0  0  0
   11.8859   -1.3766    2.8954 H   0  0  0  0  0
   11.2834    0.5709   -1.4431 H   0  0  0  0  0
   10.0075    1.7553    2.5252 H   0  0  0  0  0
   10.3891   -0.7060    4.2178 H   0  0  0  0  0
    8.9395   -0.2495    3.2232 H   0  0  0  0  0
    8.7253    0.1376    5.6921 H   0  0  0  0  0
    8.4678    1.5831    4.6525 H   0  0  0  0  0
   10.9375    0.8751    6.2586 H   0  0  0  0  0
    9.8135    2.2318    6.5374 H   0  0  0  0  0
   10.3849    3.0657    4.3976 H   0  0  0  0  0
   12.2983    2.3283    3.1106 H   0  0  0  0  0
   12.3823    0.9160    4.1819 H   0  0  0  0  0
   11.5531    3.7648    6.3832 H   0  0  0  0  0
   12.4493    4.0149    4.7924 H   0  0  0  0  0
   12.3212    2.3885    8.0062 H   0  0  0  0  0
   14.1974    1.1732    9.0214 H   0  0  0  0  0
   15.0932   -0.7555    4.9987 H   0  0  0  0  0
   15.4311   -2.5260    3.2988 H   0  0  0  0  0
   17.2306   -2.3044    1.6237 H   0  0  0  0  0
   18.3733    1.4455    3.3340 H   0  0  0  0  0
   16.4964    1.8445    9.1845 H   0  0  0  0  0
  1  2  1  0  0  0
  2  3  2  0  0  0
  2  8  1  0  0  0
  3  4  1  0  0  0
  4  5  1  0  0  0
  4 10  1  0  0  0
  5  6  2  0  0  0
  5  7  1  0  0  0
  7  8  1  0  0  0
  8  9  2  0  0  0
 10 11  1  0  0  0
 10 15  1  0  0  0
 11 12  1  0  0  0
 12 13  1  0  0  0
 13 14  1  0  0  0
 14 15  1  0  0  0
 14 16  1  0  0  0
 16 17  1  0  0  0
 17 18  4  0  0  0
 17 22  4  0  0  0
 18 19  4  0  0  0
 19 20  4  0  0  0
 20 21  4  0  0  0
 20 32  1  0  0  0
 21 22  4  0  0  0
 21 24  1  0  0  0
 22 23  1  0  0  0
 24 25  1  0  0  0
 25 26  4  0  0  0
 25 30  4  0  0  0
 26 27  4  0  0  0
 27 28  4  0  0  0
 28 29  4  0  0  0
 29 30  4  0  0  0
 29 31  1  0  0  0
 32 33  1  0  0  0
 32 34  2  0  0  0
  1 35  1  0  0  0
  1 36  1  0  0  0
  1 37  1  0  0  0
  3 38  1  0  0  0
  7 39  1  0  0  0
 10 40  1  0  0  0
 11 41  1  0  0  0
 11 42  1  0  0  0
 12 43  1  0  0  0
 12 44  1  0  0  0
 13 45  1  0  0  0
 13 46  1  0  0  0
 14 47  1  0  0  0
 15 48  1  0  0  0
 15 49  1  0  0  0
 16 50  1  0  0  0
 16 51  1  0  0  0
 18 52  1  0  0  0
 19 53  1  0  0  0
 26 54  1  0  0  0
 27 55  1  0  0  0
 28 56  1  0  0  0
 30 57  1  0  0  0
 33 58  1  0  0  0
M  END
$$$$
