2o3p_ligand
  -I-interpret- 

 32 34  0  0  0  0  0  0  0  0999 V2000
   74.0790   40.4680    1.9270 C   0  0  0  0  0
   73.8950   40.2410    0.5690 C   0  0  0  0  0
   74.1820   38.8910    0.0240 C   0  0  0  0  0
   74.6610   37.8490    0.9560 C   0  0  0  0  0
   74.8150   38.1650    2.3000 C   0  0  0  0  0
   74.5230   39.4470    2.7670 C   0  0  0  0  0
   74.0320   38.4810   -1.3970 C   0  0  0  0  0
   74.3640   37.1060   -1.7770 C   0  0  0  0  0
   74.8080   36.2100   -0.8820 C   0  0  0  0  0
   75.1560   34.7630   -1.1680 C   0  0  0  0  0
   75.0990   34.1800   -2.4400 C   0  0  0  0  0
   75.4180   32.8310   -2.6190 C   0  0  0  0  0
   75.7890   32.0330   -1.5340 C   0  0  0  0  0
   75.8560   32.6420   -0.2050 C   0  0  0  0  0
   75.5330   33.9840   -0.0550 C   0  0  0  0  0
   74.9460   36.5950    0.5050 O   0  0  0  0  0
   73.6500   39.2450   -2.2520 O   0  0  0  0  0
   76.2260   31.8700    0.8010 O   0  0  0  0  0
   76.1170   30.7430   -1.6460 O   0  0  0  0  0
   74.2110   36.8100   -3.0700 O   0  0  0  0  0
   74.6930   39.7160    4.0640 O   0  0  0  0  0
   73.4630   41.2300   -0.1870 O   0  0  0  0  0
   73.8740   41.4553    2.3408 H   0  0  0  0  0
   75.8840   38.0519    2.4804 H   0  0  0  0  0
   74.0949   37.5246    2.8093 H   0  0  0  0  0
   74.8032   34.7836   -3.2981 H   0  0  0  0  0
   75.3768   32.3962   -3.6177 H   0  0  0  0  0
   75.5713   34.4403    0.9341 H   0  0  0  0  0
   76.2302   32.3834    1.6122 H   0  0  0  0  0
   76.3365   30.3934   -0.7793 H   0  0  0  0  0
   73.8855   37.5826   -3.5377 H   0  0  0  0  0
   74.9990   38.9263    4.5160 H   0  0  0  0  0
  1  2  1  0  0  0
  1  6  2  0  0  0
  2  3  1  0  0  0
  2 22  2  0  0  0
  3  4  2  0  0  0
  3  7  1  0  0  0
  4  5  1  0  0  0
  4 16  1  0  0  0
  5  6  1  0  0  0
  6 21  1  0  0  0
  7  8  1  0  0  0
  7 17  2  0  0  0
  8  9  2  0  0  0
  8 20  1  0  0  0
  9 10  1  0  0  0
  9 16  1  0  0  0
 10 11  4  0  0  0
 10 15  4  0  0  0
 11 12  4  0  0  0
 12 13  4  0  0  0
 13 14  4  0  0  0
 13 19  1  0  0  0
 14 15  4  0  0  0
 14 18  1  0  0  0
  1 23  1  0  0  0
  5 24  1  0  0  0
  5 25  1  0  0  0
 11 26  1  0  0  0
 12 27  1  0  0  0
 15 28  1  0  0  0
 18 29  1  0  0  0
 19 30  1  0  0  0
 20 31  1  0  0  0
 21 32  1  0  0  0
M  END
$$$$
