### 
### Created by X-TOOL on Mon Sep 10 21:13:25 2018
### 

@<TRIPOS>MOLECULE
4x8n_ligand
  162   162     1     0     0
SMALL
GAST_HUCK


@<TRIPOS>ATOM
      1 N         -33.5770    9.0720  -30.3520 N.4       1 GLU         0.2380
      2 CA        -32.6690    8.0840  -29.7800 C.3       1 GLU         0.0665
      3 C         -33.0600    7.7310  -28.3460 C.2       1 GLU         0.2268
      4 O         -33.5090    8.5980  -27.5910 O.2       1 GLU        -0.3907
      5 CB        -31.2430    8.6140  -29.8130 C.3       1 GLU         0.0194
      6 CG        -30.1970    7.5400  -29.6720 C.3       1 GLU         0.0075
      7 CD        -28.8250    8.0710  -29.9510 C.2       1 GLU         0.0351
      8 OE1       -28.5730    8.4640  -31.1090 O.co2     1 GLU        -0.5690
      9 OE2       -28.0160    8.1300  -29.0040 O.co2     1 GLU        -0.5690
     10 N         -32.8880    6.4660  -27.9710 N.am      1 ARG        -0.2610
     11 CA        -33.2320    6.0090  -26.6190 C.3       1 ARG         0.1312
     12 C         -32.0720    6.1720  -25.6430 C.2       1 ARG         0.2039
     13 O         -30.9080    6.1850  -26.0480 O.2       1 ARG        -0.3944
     14 CB        -33.6890    4.5470  -26.6320 C.3       1 ARG        -0.0092
     15 CG        -35.0860    4.3210  -27.1920 C.3       1 ARG        -0.0156
     16 CD        -35.3630    2.8330  -27.3550 C.3       1 ARG         0.0627
     17 NE        -34.3380    2.1810  -28.1680 N.pl3     1 ARG        -0.2723
     18 CZ        -33.5350    1.2120  -27.7370 C.cat     1 ARG         0.2882
     19 NH1       -33.6350    0.7650  -26.4950 N.pl3     1 ARG        -0.2849
     20 NH2       -32.6350    0.6830  -28.5540 N.pl3     1 ARG        -0.2849
     21 N         -32.3970    6.2960  -24.3520 N.am      1 GLU        -0.2636
     22 CA        -31.3840    6.4490  -23.2930 C.3       1 GLU         0.1325
     23 C         -30.4590    5.2390  -23.2500 C.2       1 GLU         0.2041
     24 O         -29.2400    5.3670  -23.0530 O.2       1 GLU        -0.3944
     25 CB        -32.0560    6.6430  -21.9240 C.3       1 GLU        -0.0008
     26 CG        -31.1440    7.1750  -20.8050 C.3       1 GLU         0.0044
     27 CD        -30.3010    6.0930  -20.1310 C.2       1 GLU         0.0350
     28 OE1       -30.6520    4.8960  -20.2300 O.co2     1 GLU        -0.5690
     29 OE2       -29.2810    6.4480  -19.5010 O.co2     1 GLU        -0.5690
     30 N         -31.0500    4.0650  -23.4570 N.am      1 SEP        -0.2613
     31 CA        -30.3230    2.7970  -23.4140 C.3       1 SEP         0.1586
     32 CB        -31.2240    1.7180  -22.8070 C.3       1 SEP         0.1184
     33 OG        -32.2630    1.3950  -23.7220 O.3       1 SEP        -0.2714
     34 C         -29.8510    2.3210  -24.7940 C.2       1 SEP         0.2065
     35 O         -29.5710    1.1340  -24.9780 O.2       1 SEP        -0.3943
     36 P         -33.7520    1.6240  -23.1100 P.3       1 SEP         0.2010
     37 O1P       -33.9670    0.7180  -21.7990 O.co2     1 SEP        -0.5537
     38 O2P       -33.9370    3.1780  -22.7240 O.co2     1 SEP        -0.5537
     39 O3P       -34.8280    1.1910  -24.2180 O.co2     1 SEP        -0.5537
     40 N         -29.7750    3.2370  -25.7580 N.am      1 GLU        -0.2635
     41 CA        -29.4790    2.8860  -27.1490 C.3       1 GLU         0.1325
     42 C         -28.1670    2.1210  -27.3410 C.2       1 GLU         0.2041
     43 O         -28.0460    1.2770  -28.2350 O.2       1 GLU        -0.3944
     44 CB        -29.4330    4.1500  -28.0130 C.3       1 GLU        -0.0008
     45 CG        -29.2970    3.8740  -29.5030 C.3       1 GLU         0.0044
     46 CD        -30.6300    3.9270  -30.2330 C.2       1 GLU         0.0350
     47 OE1       -31.6020    4.5120  -29.6990 O.co2     1 GLU        -0.5690
     48 OE2       -30.7090    3.3830  -31.3470 O.co2     1 GLU        -0.5690
     49 N         -27.1790    2.4380  -26.5140 N.am      1 PHE        -0.2619
     50 CA        -25.8370    1.8870  -26.6740 C.3       1 PHE         0.1404
     51 C         -25.6030    0.6420  -25.8150 C.2       1 PHE         0.2060
     52 O         -24.5210    0.0590  -25.8550 O.2       1 PHE        -0.3942
     53 CB        -24.7780    2.9400  -26.2920 C.3       1 PHE         0.0214
     54 CG        -24.7630    4.1520  -27.1880 C.ar      1 PHE        -0.0386
     55 CD1       -25.6920    5.1650  -27.0230 C.ar      1 PHE        -0.0601
     56 CD2       -23.8040    4.2860  -28.1840 C.ar      1 PHE        -0.0601
     57 CE1       -25.6720    6.2810  -27.8420 C.ar      1 PHE        -0.0686
     58 CE2       -23.7880    5.3960  -29.0070 C.ar      1 PHE        -0.0686
     59 CZ        -24.7240    6.3930  -28.8320 C.ar      1 PHE        -0.0687
     60 N         -26.5890    0.2460  -25.0170 N.am      1 ASP        -0.2620
     61 CA        -26.2970   -0.7100  -23.9460 C.3       1 ASP         0.1423
     62 C         -26.4570   -2.1650  -24.3600 C.2       1 ASP         0.2056
     63 O         -27.4230   -2.5270  -25.0140 O.2       1 ASP        -0.3943
     64 CB        -27.1560   -0.4370  -22.7190 C.3       1 ASP         0.0406
     65 CG        -27.0270    0.9800  -22.2280 C.2       1 ASP         0.0393
     66 OD1       -25.9900    1.6280  -22.5000 O.co2     1 ASP        -0.5688
     67 OD2       -27.9640    1.4370  -21.5590 O.co2     1 ASP        -0.5688
     68 N         -25.4960   -2.9880  -23.9560 N.am      1 ILE        -0.2634
     69 CA        -25.5230   -4.4280  -24.2100 C.3       1 ILE         0.1335
     70 C         -26.5830   -5.1130  -23.3430 C.2       1 ILE         0.2042
     71 O         -26.7100   -4.8260  -22.1590 O.2       1 ILE        -0.3944
     72 CB        -24.1250   -5.0430  -23.9720 C.3       1 ILE        -0.0037
     73 CG1       -23.1250   -4.3930  -24.9370 C.3       1 ILE        -0.0491
     74 CG2       -24.1490   -6.5570  -24.1560 C.3       1 ILE        -0.0582
     75 CD1       -21.6740   -4.6710  -24.6340 C.3       1 ILE        -0.0648
     76 N         -27.3600   -6.0100  -23.9370 N.am      1 GLU        -0.2636
     77 CA        -28.4370   -6.6520  -23.1910 C.3       1 GLU         0.1324
     78 C         -27.9360   -7.7940  -22.3050 C.2       1 GLU         0.2034
     79 O         -26.8680   -8.3700  -22.5460 O.2       1 GLU        -0.3944
     80 CB        -29.5410   -7.1440  -24.1360 C.3       1 GLU        -0.0008
     81 CG        -29.1560   -8.3470  -24.9830 C.3       1 GLU         0.0044
     82 CD        -30.2450   -8.7250  -25.9760 C.2       1 GLU         0.0350
     83 OE1       -31.1800   -7.9190  -26.1660 O.co2     1 GLU        -0.5690
     84 OE2       -30.1670   -9.8230  -26.5650 O.co2     1 GLU        -0.5690
     85 N         -28.7090   -8.1050  -21.2680 N.am      1 ASP        -0.2698
     86 CA        -28.4470   -9.2670  -20.4260 C.3       1 ASP         0.0916
     87 C         -29.2730  -10.4660  -20.9020 C.2       1 ASP         0.0598
     88 O         -29.5570  -10.6080  -22.0970 O.co2     1 ASP        -0.5666
     89 CB        -28.7520   -8.9490  -18.9700 C.3       1 ASP        -0.0300
     90 OXT       -29.6750  -11.3190  -20.1020 O.co2     1 ASP        -0.5666
     91 H1        -33.2927    9.2829  -31.2958 H         1 GLU         0.2015
     92 H2        -33.5509    9.9133  -29.7973 H         1 GLU         0.2015
     93 H3        -34.5148    8.7026  -30.3582 H         1 GLU         0.2015
     94 H4        -32.7205    7.1698  -30.3895 H         1 GLU         0.1099
     95 H5        -31.1191    9.3304  -28.9876 H         1 GLU         0.0363
     96 H6        -31.0855    9.1289  -30.7722 H         1 GLU         0.0363
     97 H7        -30.4182    6.7300  -30.3826 H         1 GLU         0.0434
     98 H8        -30.2257    7.1454  -28.6456 H         1 GLU         0.0434
     99 H9        -32.5149    5.8098  -28.6269 H         1 ARG         0.1884
    100 H10       -34.0678    6.6273  -26.2596 H         1 ARG         0.0800
    101 H11       -33.6702    4.1732  -25.5977 H         1 ARG         0.0313
    102 H12       -32.9780    3.9714  -27.2429 H         1 ARG         0.0313
    103 H13       -35.1666    4.8133  -28.1724 H         1 ARG         0.0301
    104 H14       -35.8262    4.7532  -26.5026 H         1 ARG         0.0301
    105 H15       -36.3408    2.7031  -27.8418 H         1 ARG         0.0689
    106 H16       -35.3829    2.3625  -26.3609 H         1 ARG         0.0689
    107 H17       -34.2299    2.4939  -29.1433 H         1 ARG         0.2642
    108 H18       -33.0110    0.0145  -26.1659 H         1 ARG         0.2615
    109 H19       -34.3368    1.1677  -25.8577 H         1 ARG         0.2615
    110 H20       -32.5526    1.0268  -29.5214 H         1 ARG         0.2615
    111 H21       -32.0181   -0.0718  -28.2214 H         1 ARG         0.2615
    112 H22       -33.3635    6.2845  -24.0956 H         1 GLU         0.1883
    113 H23       -30.7812    7.3416  -23.5163 H         1 GLU         0.0801
    114 H24       -32.4545    5.6697  -21.6017 H         1 GLU         0.0330
    115 H25       -32.8850    7.3546  -22.0518 H         1 GLU         0.0330
    116 H26       -31.7750    7.6502  -20.0395 H         1 GLU         0.0433
    117 H27       -30.4650    7.9246  -21.2376 H         1 GLU         0.0433
    118 H28       -32.0311    4.0492  -23.6498 H         1 SEP         0.1884
    119 H29       -29.4387    2.9301  -22.7734 H         1 SEP         0.0827
    120 H30       -31.6638    2.0922  -21.8708 H         1 SEP         0.0662
    121 H31       -30.6274    0.8178  -22.5978 H         1 SEP         0.0662
    122 H32       -29.9252    4.1976  -25.5240 H         1 GLU         0.1883
    123 H33       -30.2972    2.2446  -27.5084 H         1 GLU         0.0801
    124 H34       -28.5730    4.7569  -27.6934 H         1 GLU         0.0330
    125 H35       -30.3621    4.7156  -27.8490 H         1 GLU         0.0330
    126 H36       -28.8617    2.8728  -29.6373 H         1 GLU         0.0433
    127 H37       -28.6257    4.6275  -29.9408 H         1 GLU         0.0433
    128 H38       -27.3586    3.0712  -25.7612 H         1 PHE         0.1885
    129 H39       -25.7041    1.6123  -27.7308 H         1 PHE         0.0823
    130 H40       -23.7869    2.4651  -26.3371 H         1 PHE         0.0474
    131 H41       -24.9783    3.2737  -25.2632 H         1 PHE         0.0474
    132 H42       -26.4424    5.0836  -26.2450 H         1 PHE         0.0557
    133 H43       -23.0588    3.5101  -28.3173 H         1 PHE         0.0557
    134 H44       -26.4046    7.0677  -27.7027 H         1 PHE         0.0599
    135 H45       -23.0414    5.4826  -29.7882 H         1 PHE         0.0599
    136 H46       -24.7127    7.2656  -29.4750 H         1 PHE         0.0559
    137 H47       -27.5170    0.5956  -25.1457 H         1 ASP         0.1884
    138 H48       -25.2446   -0.5635  -23.6615 H         1 ASP         0.0819
    139 H49       -26.8468   -1.1189  -21.9132 H         1 ASP         0.0478
    140 H50       -28.2086   -0.6266  -22.9761 H         1 ASP         0.0478
    141 H51       -24.7191   -2.6058  -23.4557 H         1 ILE         0.1883
    142 H52       -25.7914   -4.5860  -25.2650 H         1 ILE         0.0803
    143 H53       -23.8145   -4.8247  -22.9396 H         1 ILE         0.0345
    144 H54       -23.2778   -3.3042  -24.9044 H         1 ILE         0.0267
    145 H55       -23.3389   -4.7632  -25.9505 H         1 ILE         0.0267
    146 H56       -24.8716   -7.0001  -23.4550 H         1 ILE         0.0235
    147 H57       -23.1475   -6.9664  -23.9577 H         1 ILE         0.0235
    148 H58       -24.4453   -6.7963  -25.1880 H         1 ILE         0.0235
    149 H59       -21.0407   -4.1646  -25.3773 H         1 ILE         0.0230
    150 H60       -21.4920   -5.7551  -24.6749 H         1 ILE         0.0230
    151 H61       -21.4309   -4.2960  -23.6289 H         1 ILE         0.0230
    152 H62       -27.2072   -6.2461  -24.8967 H         1 GLU         0.1883
    153 H63       -28.8770   -5.8911  -22.5296 H         1 GLU         0.0801
    154 H64       -29.8073   -6.3186  -24.8126 H         1 GLU         0.0330
    155 H65       -30.4165   -7.4174  -23.5288 H         1 GLU         0.0330
    156 H66       -28.9707   -9.2034  -24.3180 H         1 GLU         0.0433
    157 H67       -28.2372   -8.1090  -25.5390 H         1 GLU         0.0433
    158 H68       -29.4951   -7.5234  -21.0589 H         1 ASP         0.1875
    159 H69       -27.3807   -9.5242  -20.5091 H         1 ASP         0.0723
    160 H70       -28.5490   -9.8353  -18.3509 H         1 ASP         0.0270
    161 H71       -29.8105   -8.6667  -18.8703 H         1 ASP         0.0270
    162 H72       -28.1171   -8.1152  -18.6360 H         1 ASP         0.0270
@<TRIPOS>BOND
     1    1    2 1  
     2    2    3 1  
     3    2    5 1  
     4    3    4 2  
     5    3   10 am 
     6    5    6 1  
     7    6    7 1  
     8    7    8 ar 
     9    7    9 ar 
    10   10   11 1  
    11   11   12 1  
    12   11   14 1  
    13   12   13 2  
    14   12   21 am 
    15   14   15 1  
    16   15   16 1  
    17   16   17 1  
    18   17   18 ar 
    19   18   19 ar 
    20   18   20 ar 
    21   21   22 1  
    22   22   23 1  
    23   22   25 1  
    24   23   24 2  
    25   23   30 am 
    26   25   26 1  
    27   26   27 1  
    28   27   28 ar 
    29   27   29 ar 
    30   30   31 1  
    31   31   32 1  
    32   31   34 1  
    33   32   33 1  
    34   33   36 1  
    35   34   35 2  
    36   34   40 am 
    37   36   37 ar 
    38   36   38 ar 
    39   36   39 ar 
    40   40   41 1  
    41   41   42 1  
    42   41   44 1  
    43   42   43 2  
    44   42   49 am 
    45   44   45 1  
    46   45   46 1  
    47   46   47 ar 
    48   46   48 ar 
    49   49   50 1  
    50   50   51 1  
    51   50   53 1  
    52   51   52 2  
    53   51   60 am 
    54   53   54 1  
    55   54   55 ar 
    56   54   56 ar 
    57   55   57 ar 
    58   56   58 ar 
    59   57   59 ar 
    60   58   59 ar 
    61   60   61 1  
    62   61   62 1  
    63   61   64 1  
    64   62   63 2  
    65   62   68 am 
    66   64   65 1  
    67   65   66 ar 
    68   65   67 ar 
    69   68   69 1  
    70   69   70 1  
    71   69   72 1  
    72   70   71 2  
    73   70   76 am 
    74   72   73 1  
    75   72   74 1  
    76   73   75 1  
    77   76   77 1  
    78   77   78 1  
    79   77   80 1  
    80   78   79 2  
    81   78   85 am 
    82   80   81 1  
    83   81   82 1  
    84   82   83 ar 
    85   82   84 ar 
    86   85   86 1  
    87   86   87 1  
    88   86   89 1  
    89   87   88 ar 
    90   87   90 ar 
    91    1   91 1  
    92    1   92 1  
    93    1   93 1  
    94    2   94 1  
    95    5   95 1  
    96    5   96 1  
    97    6   97 1  
    98    6   98 1  
    99   10   99 1  
   100   11  100 1  
   101   14  101 1  
   102   14  102 1  
   103   15  103 1  
   104   15  104 1  
   105   16  105 1  
   106   16  106 1  
   107   17  107 1  
   108   19  108 1  
   109   19  109 1  
   110   20  110 1  
   111   20  111 1  
   112   21  112 1  
   113   22  113 1  
   114   25  114 1  
   115   25  115 1  
   116   26  116 1  
   117   26  117 1  
   118   30  118 1  
   119   31  119 1  
   120   32  120 1  
   121   32  121 1  
   122   40  122 1  
   123   41  123 1  
   124   44  124 1  
   125   44  125 1  
   126   45  126 1  
   127   45  127 1  
   128   49  128 1  
   129   50  129 1  
   130   53  130 1  
   131   53  131 1  
   132   55  132 1  
   133   56  133 1  
   134   57  134 1  
   135   58  135 1  
   136   59  136 1  
   137   60  137 1  
   138   61  138 1  
   139   64  139 1  
   140   64  140 1  
   141   68  141 1  
   142   69  142 1  
   143   72  143 1  
   144   73  144 1  
   145   73  145 1  
   146   74  146 1  
   147   74  147 1  
   148   74  148 1  
   149   75  149 1  
   150   75  150 1  
   151   75  151 1  
   152   76  152 1  
   153   77  153 1  
   154   80  154 1  
   155   80  155 1  
   156   81  156 1  
   157   81  157 1  
   158   85  158 1  
   159   86  159 1  
   160   89  160 1  
   161   89  161 1  
   162   89  162 1  
@<TRIPOS>SUBSTRUCTURE
     1 GLU         1

