4x8n_ligand
  -I-interpret- 

169169  0  0  0  0  0  0  0  0999 V2000
  -33.5770    9.0720  -30.3520 N   0  3  0  0  0
  -32.6690    8.0840  -29.7800 C   0  0  0  0  0
  -33.0600    7.7310  -28.3460 C   0  0  0  0  0
  -33.5090    8.5980  -27.5910 O   0  0  0  0  0
  -31.2430    8.6140  -29.8130 C   0  0  0  0  0
  -30.1970    7.5400  -29.6720 C   0  0  0  0  0
  -28.8250    8.0710  -29.9510 C   0  0  0  0  0
  -28.5730    8.4640  -31.1090 O   0  0  0  0  0
  -28.0160    8.1300  -29.0040 O   0  0  0  0  0
  -32.8880    6.4660  -27.9710 N   0  0  0  0  0
  -33.2320    6.0090  -26.6190 C   0  0  0  0  0
  -32.0720    6.1720  -25.6430 C   0  0  0  0  0
  -30.9080    6.1850  -26.0480 O   0  0  0  0  0
  -33.6890    4.5470  -26.6320 C   0  0  0  0  0
  -35.0860    4.3210  -27.1920 C   0  0  0  0  0
  -35.3630    2.8330  -27.3550 C   0  0  0  0  0
  -34.3380    2.1810  -28.1680 N   0  0  0  0  0
  -33.5350    1.2120  -27.7370 C   0  0  0  0  0
  -33.6350    0.7650  -26.4950 N   0  0  0  0  0
  -32.6350    0.6830  -28.5540 N   0  0  0  0  0
  -32.3970    6.2960  -24.3520 N   0  0  0  0  0
  -31.3840    6.4490  -23.2930 C   0  0  0  0  0
  -30.4590    5.2390  -23.2500 C   0  0  0  0  0
  -29.2400    5.3670  -23.0530 O   0  0  0  0  0
  -32.0560    6.6430  -21.9240 C   0  0  0  0  0
  -31.1440    7.1750  -20.8050 C   0  0  0  0  0
  -30.3010    6.0930  -20.1310 C   0  0  0  0  0
  -30.6520    4.8960  -20.2300 O   0  0  0  0  0
  -29.2810    6.4480  -19.5010 O   0  0  0  0  0
  -31.0500    4.0650  -23.4570 N   0  0  0  0  0
  -30.3230    2.7970  -23.4140 C   0  0  0  0  0
  -31.2240    1.7180  -22.8070 C   0  0  0  0  0
  -32.2630    1.3950  -23.7220 O   0  0  0  0  0
  -29.8510    2.3210  -24.7940 C   0  0  0  0  0
  -29.5710    1.1340  -24.9780 O   0  0  0  0  0
  -33.7520    1.6240  -23.1100 P   0  0  0  0  0
  -33.9670    0.7180  -21.7990 O   0  0  0  0  0
  -33.9370    3.1780  -22.7240 O   0  0  0  0  0
  -34.8280    1.1910  -24.2180 O   0  0  0  0  0
  -29.7750    3.2370  -25.7580 N   0  0  0  0  0
  -29.4790    2.8860  -27.1490 C   0  0  0  0  0
  -28.1670    2.1210  -27.3410 C   0  0  0  0  0
  -28.0460    1.2770  -28.2350 O   0  0  0  0  0
  -29.4330    4.1500  -28.0130 C   0  0  0  0  0
  -29.2970    3.8740  -29.5030 C   0  0  0  0  0
  -30.6300    3.9270  -30.2330 C   0  0  0  0  0
  -31.6020    4.5120  -29.6990 O   0  0  0  0  0
  -30.7090    3.3830  -31.3470 O   0  0  0  0  0
  -27.1790    2.4380  -26.5140 N   0  0  0  0  0
  -25.8370    1.8870  -26.6740 C   0  0  0  0  0
  -25.6030    0.6420  -25.8150 C   0  0  0  0  0
  -24.5210    0.0590  -25.8550 O   0  0  0  0  0
  -24.7780    2.9400  -26.2920 C   0  0  0  0  0
  -24.7630    4.1520  -27.1880 C   0  0  0  0  0
  -25.6920    5.1650  -27.0230 C   0  0  0  0  0
  -23.8040    4.2860  -28.1840 C   0  0  0  0  0
  -25.6720    6.2810  -27.8420 C   0  0  0  0  0
  -23.7880    5.3960  -29.0070 C   0  0  0  0  0
  -24.7240    6.3930  -28.8320 C   0  0  0  0  0
  -26.5890    0.2460  -25.0170 N   0  0  0  0  0
  -26.2970   -0.7100  -23.9460 C   0  0  0  0  0
  -26.4570   -2.1650  -24.3600 C   0  0  0  0  0
  -27.4230   -2.5270  -25.0140 O   0  0  0  0  0
  -27.1560   -0.4370  -22.7190 C   0  0  0  0  0
  -27.0270    0.9800  -22.2280 C   0  0  0  0  0
  -25.9900    1.6280  -22.5000 O   0  0  0  0  0
  -27.9640    1.4370  -21.5590 O   0  0  0  0  0
  -25.4960   -2.9880  -23.9560 N   0  0  0  0  0
  -25.5230   -4.4280  -24.2100 C   0  0  0  0  0
  -26.5830   -5.1130  -23.3430 C   0  0  0  0  0
  -26.7100   -4.8260  -22.1590 O   0  0  0  0  0
  -24.1250   -5.0430  -23.9720 C   0  0  0  0  0
  -23.1250   -4.3930  -24.9370 C   0  0  0  0  0
  -24.1490   -6.5570  -24.1560 C   0  0  0  0  0
  -21.6740   -4.6710  -24.6340 C   0  0  0  0  0
  -27.3600   -6.0100  -23.9370 N   0  0  0  0  0
  -28.4370   -6.6520  -23.1910 C   0  0  0  0  0
  -27.9360   -7.7940  -22.3050 C   0  0  0  0  0
  -26.8680   -8.3700  -22.5460 O   0  0  0  0  0
  -29.5410   -7.1440  -24.1360 C   0  0  0  0  0
  -29.1560   -8.3470  -24.9830 C   0  0  0  0  0
  -30.2450   -8.7250  -25.9760 C   0  0  0  0  0
  -31.1800   -7.9190  -26.1660 O   0  0  0  0  0
  -30.1670   -9.8230  -26.5650 O   0  0  0  0  0
  -28.7090   -8.1050  -21.2680 N   0  0  0  0  0
  -28.4470   -9.2670  -20.4260 C   0  0  0  0  0
  -29.2730  -10.4660  -20.9020 C   0  0  0  0  0
  -29.5570  -10.6080  -22.0970 O   0  0  0  0  0
  -28.7520   -8.9490  -18.9700 C   0  0  0  0  0
  -29.6750  -11.3190  -20.1020 O   0  0  0  0  0
  -34.5305    8.7105  -30.3268 H   0  0  0  0  0
  -33.5246    9.9343  -29.8098 H   0  0  0  0  0
  -33.3087    9.2595  -31.3180 H   0  0  0  0  0
  -32.7361    7.1762  -30.3796 H   0  0  0  0  0
  -31.1279    9.2949  -28.9696 H   0  0  0  0  0
  -31.0938    9.0902  -30.7821 H   0  0  0  0  0
  -30.4143    6.7497  -30.3905 H   0  0  0  0  0
  -30.2213    7.1664  -28.6483 H   0  0  0  0  0
  -29.3400    8.3208  -31.6683 H   0  0  0  0  0
  -32.5074    5.7967  -28.6400 H   0  0  0  0  0
  -34.0525    6.6404  -26.2783 H   0  0  0  0  0
  -33.7051    4.2109  -25.5952 H   0  0  0  0  0
  -32.9976    4.0047  -27.2769 H   0  0  0  0  0
  -35.1581    4.8028  -28.1671 H   0  0  0  0  0
  -35.8161    4.7428  -26.5013 H   0  0  0  0  0
  -36.3251    2.7143  -27.8534 H   0  0  0  0  0
  -35.3636    2.3725  -26.3671 H   0  0  0  0  0
  -34.2309    2.4909  -29.1339 H   0  0  0  0  0
  -34.3300    1.1638  -25.8639 H   0  0  0  0  0
  -32.0241   -0.0644  -28.2246 H   0  0  0  0  0
  -32.5534    1.0234  -29.5121 H   0  0  0  0  0
  -33.3828    6.2842  -24.0905 H   0  0  0  0  0
  -30.7905    7.3340  -23.5224 H   0  0  0  0  0
  -32.3962    5.6582  -21.6039 H   0  0  0  0  0
  -32.8384    7.3885  -22.0662 H   0  0  0  0  0
  -31.7873    7.6099  -20.0401 H   0  0  0  0  0
  -30.4558    7.8887  -21.2578 H   0  0  0  0  0
  -31.4562    4.8416  -20.7514 H   0  0  0  0  0
  -32.0507    4.0489  -23.6536 H   0  0  0  0  0
  -29.4344    2.9658  -22.8058 H   0  0  0  0  0
  -31.6602    2.0896  -21.8798 H   0  0  0  0  0
  -30.6326    0.8260  -22.6006 H   0  0  0  0  0
  -33.3271    0.9696  -21.1291 H   0  0  0  0  0
  -33.2868    3.4215  -22.0609 H   0  0  0  0  0
  -29.9282    4.2168  -25.5194 H   0  0  0  0  0
  -30.2859    2.2204  -27.4554 H   0  0  0  0  0
  -28.5553    4.7196  -27.7075 H   0  0  0  0  0
  -30.3754    4.6776  -27.8658 H   0  0  0  0  0
  -28.8897    2.8700  -29.6218 H   0  0  0  0  0
  -28.6514    4.6423  -29.9284 H   0  0  0  0  0
  -31.3342    4.8619  -28.8461 H   0  0  0  0  0
  -27.3622    3.0839  -25.7461 H   0  0  0  0  0
  -25.7461    1.6047  -27.7229 H   0  0  0  0  0
  -23.8022    2.4622  -26.3799 H   0  0  0  0  0
  -25.0158    3.2859  -25.2861 H   0  0  0  0  0
  -26.4465    5.0831  -26.2407 H   0  0  0  0  0
  -23.0547    3.5058  -28.3181 H   0  0  0  0  0
  -26.4087    7.0721  -27.7020 H   0  0  0  0  0
  -23.0373    5.4831  -29.7925 H   0  0  0  0  0
  -24.7127    7.2704  -29.4786 H   0  0  0  0  0
  -27.5356    0.6025  -25.1483 H   0  0  0  0  0
  -25.2443   -0.5590  -23.7069 H   0  0  0  0  0
  -26.8229   -1.1008  -21.9211 H   0  0  0  0  0
  -28.1975   -0.6039  -22.9940 H   0  0  0  0  0
  -25.4012    1.0815  -23.0256 H   0  0  0  0  0
  -24.7035   -2.5982  -23.4457 H   0  0  0  0  0
  -25.7922   -4.5907  -25.2536 H   0  0  0  0  0
  -23.8197   -4.8484  -22.9439 H   0  0  0  0  0
  -23.2628   -3.3149  -24.8539 H   0  0  0  0  0
  -23.3254   -4.8083  -25.9247 H   0  0  0  0  0
  -24.8484   -6.9971  -23.4452 H   0  0  0  0  0
  -24.4648   -6.7933  -25.1721 H   0  0  0  0  0
  -23.1509   -6.9588  -23.9817 H   0  0  0  0  0
  -21.4344   -4.2991  -23.6378 H   0  0  0  0  0
  -21.4950   -5.7454  -24.6748 H   0  0  0  0  0
  -21.0475   -4.1687  -25.3711 H   0  0  0  0  0
  -27.2041   -6.2508  -24.9158 H   0  0  0  0  0
  -28.8553   -5.8941  -22.5287 H   0  0  0  0  0
  -29.7603   -6.3269  -24.8233 H   0  0  0  0  0
  -30.3820   -7.4484  -23.5130 H   0  0  0  0  0
  -28.9975   -9.1941  -24.3156 H   0  0  0  0  0
  -28.2584   -8.0913  -25.5460 H   0  0  0  0  0
  -31.0482   -7.1426  -25.6170 H   0  0  0  0  0
  -29.5109   -7.5117  -21.0547 H   0  0  0  0  0
  -27.3905   -9.5232  -20.5055 H   0  0  0  0  0
  -28.1223   -8.1226  -18.6403 H   0  0  0  0  0
  -29.8010   -8.6694  -18.8725 H   0  0  0  0  0
  -28.5505   -9.8279  -18.3576 H   0  0  0  0  0
  -29.3855  -11.0872  -19.2165 H   0  0  0  0  0
  1  2  1  0  0  0
  2  3  1  0  0  0
  2  5  1  0  0  0
  3  4  2  0  0  0
  3 10  1  0  0  0
  5  6  1  0  0  0
  6  7  1  0  0  0
  7  8  1  0  0  0
  7  9  2  0  0  0
 10 11  1  0  0  0
 11 12  1  0  0  0
 11 14  1  0  0  0
 12 13  2  0  0  0
 12 21  1  0  0  0
 14 15  1  0  0  0
 15 16  1  0  0  0
 16 17  1  0  0  0
 17 18  1  0  0  0
 18 19  2  0  0  0
 18 20  1  0  0  0
 21 22  1  0  0  0
 22 23  1  0  0  0
 22 25  1  0  0  0
 23 24  2  0  0  0
 23 30  1  0  0  0
 25 26  1  0  0  0
 26 27  1  0  0  0
 27 28  1  0  0  0
 27 29  2  0  0  0
 30 31  1  0  0  0
 31 32  1  0  0  0
 31 34  1  0  0  0
 32 33  1  0  0  0
 33 36  1  0  0  0
 34 35  2  0  0  0
 34 40  1  0  0  0
 36 37  1  0  0  0
 36 38  1  0  0  0
 36 39  2  0  0  0
 40 41  1  0  0  0
 41 42  1  0  0  0
 41 44  1  0  0  0
 42 43  2  0  0  0
 42 49  1  0  0  0
 44 45  1  0  0  0
 45 46  1  0  0  0
 46 47  1  0  0  0
 46 48  2  0  0  0
 49 50  1  0  0  0
 50 51  1  0  0  0
 50 53  1  0  0  0
 51 52  2  0  0  0
 51 60  1  0  0  0
 53 54  1  0  0  0
 54 55  4  0  0  0
 54 56  4  0  0  0
 55 57  4  0  0  0
 56 58  4  0  0  0
 57 59  4  0  0  0
 58 59  4  0  0  0
 60 61  1  0  0  0
 61 62  1  0  0  0
 61 64  1  0  0  0
 62 63  2  0  0  0
 62 68  1  0  0  0
 64 65  1  0  0  0
 65 66  1  0  0  0
 65 67  2  0  0  0
 68 69  1  0  0  0
 69 70  1  0  0  0
 69 72  1  0  0  0
 70 71  2  0  0  0
 70 76  1  0  0  0
 72 73  1  0  0  0
 72 74  1  0  0  0
 73 75  1  0  0  0
 76 77  1  0  0  0
 77 78  1  0  0  0
 77 80  1  0  0  0
 78 79  2  0  0  0
 78 85  1  0  0  0
 80 81  1  0  0  0
 81 82  1  0  0  0
 82 83  1  0  0  0
 82 84  2  0  0  0
 85 86  1  0  0  0
 86 87  1  0  0  0
 86 89  1  0  0  0
 87 88  2  0  0  0
 87 90  1  0  0  0
  1 91  1  0  0  0
  1 92  1  0  0  0
  1 93  1  0  0  0
  2 94  1  0  0  0
  5 95  1  0  0  0
  5 96  1  0  0  0
  6 97  1  0  0  0
  6 98  1  0  0  0
  8 99  1  0  0  0
 10100  1  0  0  0
 11101  1  0  0  0
 14102  1  0  0  0
 14103  1  0  0  0
 15104  1  0  0  0
 15105  1  0  0  0
 16106  1  0  0  0
 16107  1  0  0  0
 17108  1  0  0  0
 19109  1  0  0  0
 20110  1  0  0  0
 20111  1  0  0  0
 21112  1  0  0  0
 22113  1  0  0  0
 25114  1  0  0  0
 25115  1  0  0  0
 26116  1  0  0  0
 26117  1  0  0  0
 28118  1  0  0  0
 30119  1  0  0  0
 31120  1  0  0  0
 32121  1  0  0  0
 32122  1  0  0  0
 37123  1  0  0  0
 38124  1  0  0  0
 40125  1  0  0  0
 41126  1  0  0  0
 44127  1  0  0  0
 44128  1  0  0  0
 45129  1  0  0  0
 45130  1  0  0  0
 47131  1  0  0  0
 49132  1  0  0  0
 50133  1  0  0  0
 53134  1  0  0  0
 53135  1  0  0  0
 55136  1  0  0  0
 56137  1  0  0  0
 57138  1  0  0  0
 58139  1  0  0  0
 59140  1  0  0  0
 60141  1  0  0  0
 61142  1  0  0  0
 64143  1  0  0  0
 64144  1  0  0  0
 66145  1  0  0  0
 68146  1  0  0  0
 69147  1  0  0  0
 72148  1  0  0  0
 73149  1  0  0  0
 73150  1  0  0  0
 74151  1  0  0  0
 74152  1  0  0  0
 74153  1  0  0  0
 75154  1  0  0  0
 75155  1  0  0  0
 75156  1  0  0  0
 76157  1  0  0  0
 77158  1  0  0  0
 80159  1  0  0  0
 80160  1  0  0  0
 81161  1  0  0  0
 81162  1  0  0  0
 83163  1  0  0  0
 85164  1  0  0  0
 86165  1  0  0  0
 89166  1  0  0  0
 89167  1  0  0  0
 89168  1  0  0  0
 90169  1  0  0  0
M  END
$$$$
