4obz_ligand
  -I-interpret- 

 47 48  0  0  0  0  0  0  0  0999 V2000
  -31.3930    1.3260  -17.3320 C   0  0  0  0  0
  -32.4980    1.9960  -17.8690 C   0  0  0  0  0
  -31.4660   -0.0660  -17.1620 C   0  0  0  0  0
  -30.1880   -1.0890  -15.3630 C   0  0  0  0  0
  -33.9850   -2.8870  -17.0800 C   0  0  0  0  0
  -32.5470    3.5030  -18.0490 C   0  0  0  0  0
  -33.3800    4.0700  -16.9140 C   0  0  0  0  0
  -35.6720    4.3440  -16.0870 C   0  0  0  0  0
  -36.6250    6.6180  -13.3890 C   0  0  0  0  0
  -37.5600    8.7420  -13.9970 C   0  0  0  0  0
  -37.1150    9.2690  -12.7850 C   0  0  0  0  0
  -37.3150    7.4160  -14.3070 C   0  0  0  0  0
  -36.2070    7.1370  -12.1500 C   0  0  0  0  0
  -32.8510    4.4520  -15.8840 O   0  0  0  0  0
  -33.6540    1.2780  -18.1720 C   0  0  0  0  0
  -33.7440   -0.0870  -17.9750 C   0  0  0  0  0
  -32.6530   -0.7860  -17.4650 C   0  0  0  0  0
  -32.7660   -2.1590  -17.2810 O   0  0  0  0  0
  -30.3570   -0.7160  -16.7240 O   0  0  0  0  0
  -34.7510    3.9970  -17.0470 N   0  0  0  0  0
  -36.8720    4.1800  -16.4890 N   0  0  0  0  0
  -35.3930    4.8580  -14.8220 N   0  0  0  0  0
  -36.4020    5.1700  -13.7880 C   0  0  0  0  0
  -36.4250    8.4790  -11.8580 C   0  0  0  0  0
  -37.4040   10.7230  -12.4970 C   0  0  0  0  0
  -30.4934    1.8738  -17.0512 H   0  0  0  0  0
  -30.2094   -0.1965  -14.7377 H   0  0  0  0  0
  -30.9950   -1.7599  -15.0686 H   0  0  0  0  0
  -29.2304   -1.5957  -15.2427 H   0  0  0  0  0
  -34.4812   -2.5212  -16.1811 H   0  0  0  0  0
  -34.6382   -2.7441  -17.9408 H   0  0  0  0  0
  -33.7589   -3.9472  -16.9659 H   0  0  0  0  0
  -32.9898    3.7581  -19.0118 H   0  0  0  0  0
  -31.5411    3.9224  -18.0306 H   0  0  0  0  0
  -38.1010    9.3749  -14.7004 H   0  0  0  0  0
  -37.6555    6.9987  -15.2547 H   0  0  0  0  0
  -35.7150    6.4908  -11.4230 H   0  0  0  0  0
  -34.5145    1.8103  -18.5773 H   0  0  0  0  0
  -34.6662   -0.6148  -18.2181 H   0  0  0  0  0
  -37.0512    3.8274  -17.4292 H   0  0  0  0  0
  -34.4149    5.0327  -14.5914 H   0  0  0  0  0
  -37.3512    4.8477  -14.2161 H   0  0  0  0  0
  -36.0368    4.6830  -12.8838 H   0  0  0  0  0
  -36.0647    8.9085  -10.9232 H   0  0  0  0  0
  -36.9404   11.3431  -13.2642 H   0  0  0  0  0
  -38.4819   10.8852  -12.4991 H   0  0  0  0  0
  -36.9976   10.9864  -11.5205 H   0  0  0  0  0
  2  1  4  0  0  0
  1  3  4  0  0  0
  6  2  1  0  0  0
  2 15  4  0  0  0
  3 17  4  0  0  0
  3 19  1  0  0  0
 19  4  1  0  0  0
 18  5  1  0  0  0
  7  6  1  0  0  0
  7 14  2  0  0  0
 20  7  1  0  0  0
  8 20  4  0  0  0
  8 21  2  0  0  0
 22  8  1  0  0  0
  9 12  4  0  0  0
  9 13  4  0  0  0
 23  9  1  0  0  0
 10 11  4  0  0  0
 12 10  4  0  0  0
 24 11  4  0  0  0
 11 25  1  0  0  0
 13 24  4  0  0  0
 15 16  4  0  0  0
 16 17  4  0  0  0
 17 18  1  0  0  0
 22 23  1  0  0  0
  1 26  1  0  0  0
  4 27  1  0  0  0
  4 28  1  0  0  0
  4 29  1  0  0  0
  5 30  1  0  0  0
  5 31  1  0  0  0
  5 32  1  0  0  0
  6 33  1  0  0  0
  6 34  1  0  0  0
 10 35  1  0  0  0
 12 36  1  0  0  0
 13 37  1  0  0  0
 15 38  1  0  0  0
 16 39  1  0  0  0
 21 40  1  0  0  0
 22 41  1  0  0  0
 23 42  1  0  0  0
 23 43  1  0  0  0
 24 44  1  0  0  0
 25 45  1  0  0  0
 25 46  1  0  0  0
 25 47  1  0  0  0
M  END
$$$$
