1q95_ligand
  -I-interpret- 

 26 25  0  0  0  0  0  0  0  0999 V2000
   33.4760   54.4570   63.9920 P   0  0  0  0  0
   34.1190   55.7270   63.7230 O   0  0  0  0  0
   32.8700   54.3920   65.3740 O   0  0  0  0  0
   34.4750   53.2940   63.7970 O   0  0  0  0  0
   32.1060   54.0500   62.8310 C   0  0  0  0  0
   32.4750   54.4020   61.4420 C   0  0  0  0  0
   33.1810   53.6500   60.7230 O   0  0  0  0  0
   32.0560   55.5270   60.9840 N   0  0  0  0  0
   32.2790   56.1030   59.7120 C   0  0  0  0  0
   33.6950   56.5450   59.4140 C   0  0  0  0  0
   34.6240   56.3920   60.2880 O   0  0  0  0  0
   34.0120   57.0650   58.3180 O   0  0  0  0  0
   31.2510   57.3080   59.4870 C   0  0  0  0  0
   31.2820   58.4880   60.4680 C   0  0  0  0  0
   30.4700   59.5020   60.3460 O   0  0  0  0  0
   32.1240   58.4630   61.4220 O   0  0  0  0  0
   32.4583   53.5342   65.5016 H   0  0  0  0  0
   34.0340   52.4609   63.9788 H   0  0  0  0  0
   31.2218   54.6203   63.1158 H   0  0  0  0  0
   31.9073   52.9795   62.8821 H   0  0  0  0  0
   31.4855   56.0791   61.6244 H   0  0  0  0  0
   32.1073   55.2953   59.0005 H   0  0  0  0  0
   34.2562   55.9868   61.0768 H   0  0  0  0  0
   30.2620   56.8651   59.6043 H   0  0  0  0  0
   31.5176   57.7339   58.5197 H   0  0  0  0  0
   29.9040   59.3672   59.5824 H   0  0  0  0  0
  1  2  2  0  0  0
  1  3  1  0  0  0
  1  4  1  0  0  0
  1  5  1  0  0  0
  5  6  1  0  0  0
  6  7  2  0  0  0
  6  8  1  0  0  0
  8  9  1  0  0  0
  9 10  1  0  0  0
  9 13  1  0  0  0
 10 11  1  0  0  0
 10 12  2  0  0  0
 13 14  1  0  0  0
 14 15  1  0  0  0
 14 16  2  0  0  0
  3 17  1  0  0  0
  4 18  1  0  0  0
  5 19  1  0  0  0
  5 20  1  0  0  0
  8 21  1  0  0  0
  9 22  1  0  0  0
 11 23  1  0  0  0
 13 24  1  0  0  0
 13 25  1  0  0  0
 15 26  1  0  0  0
M  END
$$$$
