2pem_ligand
  -I-interpret- 

109110  0  0  0  0  0  0  0  0999 V2000
   25.5740   14.0200  -64.8600 N   0  3  0  0  0
   25.3550   13.7100  -63.4080 C   0  0  0  0  0
   26.0840   14.6820  -62.4470 C   0  0  0  0  0
   27.3040   14.8910  -62.5450 O   0  0  0  0  0
   25.7210   12.2390  -63.0940 C   0  0  0  0  0
   25.3160   15.2950  -61.5440 N   0  0  0  0  0
   25.8840   15.9330  -60.3540 C   0  0  0  0  0
   25.7950   14.8820  -59.2450 C   0  0  0  0  0
   24.7220   14.3220  -58.9780 O   0  0  0  0  0
   25.1330   17.2330  -59.9130 C   0  0  0  0  0
   24.8270   18.1680  -61.1010 C   0  0  0  0  0
   25.9280   17.9600  -58.8320 C   0  0  0  0  0
   23.5530   17.8070  -61.9020 C   0  0  0  0  0
   26.9300   14.6060  -58.6170 N   0  0  0  0  0
   27.0010   13.5970  -57.5760 C   0  0  0  0  0
   26.8440   14.2160  -56.1780 C   0  0  0  0  0
   27.2930   15.3400  -55.9240 O   0  0  0  0  0
   28.3200   12.8230  -57.6950 C   0  0  0  0  0
   26.1770   13.4830  -55.2880 N   0  0  0  0  0
   26.1610   13.8260  -53.8710 C   0  0  0  0  0
   27.0280   12.8100  -53.1360 C   0  0  0  0  0
   26.9450   11.6190  -53.4250 O   0  0  0  0  0
   24.7290   13.8170  -53.3230 C   0  0  0  0  0
   24.6050   14.3590  -51.9220 C   0  0  0  0  0
   24.3670   15.7020  -51.7030 C   0  0  0  0  0
   24.7280   13.5230  -50.8210 C   0  0  0  0  0
   24.2550   16.2050  -50.4110 C   0  0  0  0  0
   24.6140   14.0210  -49.5310 C   0  0  0  0  0
   24.3750   15.3640  -49.3290 C   0  0  0  0  0
   27.8670   13.2840  -52.2110 N   0  0  0  0  0
   28.7100   12.4210  -51.3820 C   0  0  0  0  0
   28.7400   12.9220  -49.9570 C   0  0  0  0  0
   28.7720   14.1330  -49.7410 O   0  0  0  0  0
   30.1480   12.3960  -51.8960 C   0  0  0  0  0
   30.5460   11.0830  -52.5520 C   0  0  0  0  0
   30.6930   11.2190  -54.0710 C   0  0  0  0  0
   31.6360   11.9320  -54.5070 O   0  0  0  0  0
   29.8810   10.6080  -54.8200 O   0  0  0  0  0
   28.7400   12.0130  -48.9780 N   0  0  0  0  0
   28.9510   12.4480  -47.5860 C   0  0  0  0  0
   30.3960   12.4220  -47.1210 C   0  0  0  0  0
   31.0000   11.3590  -46.9780 O   0  0  0  0  0
   28.0260   11.7970  -46.5370 C   0  0  0  0  0
   27.3450   10.5190  -46.9640 C   0  0  0  0  0
   27.8640    9.2900  -46.6040 C   0  0  0  0  0
   26.1230   10.5550  -47.6310 C   0  0  0  0  0
   27.2050    8.1190  -46.9560 C   0  0  0  0  0
   25.4660    9.3880  -47.9840 C   0  0  0  0  0
   26.0050    8.1740  -47.6480 C   0  0  0  0  0
   30.9340   13.6200  -46.8990 N   0  0  0  0  0
   32.2610   13.7950  -46.3250 C   0  0  0  0  0
   32.2510   13.1400  -44.9480 C   0  0  0  0  0
   31.2820   13.2880  -44.1880 O   0  0  0  0  0
   32.6260   15.2870  -46.2230 C   0  0  0  0  0
   33.1870   12.4260  -44.5890 O   0  0  0  0  0
   25.3260   14.9929  -65.0399 H   0  0  0  0  0
   26.5552   13.8691  -65.0944 H   0  0  0  0  0
   24.9892   13.4080  -65.4291 H   0  0  0  0  0
   24.2898   13.8551  -63.2278 H   0  0  0  0  0
   26.7964   12.1015  -63.2069 H   0  0  0  0  0
   25.4288   12.0037  -62.0706 H   0  0  0  0  0
   25.1947   11.5797  -63.7842 H   0  0  0  0  0
   24.3063   15.3199  -61.6863 H   0  0  0  0  0
   26.9035   16.2539  -60.5677 H   0  0  0  0  0
   24.1703   16.9310  -59.5007 H   0  0  0  0  0
   25.6671   18.0875  -61.7908 H   0  0  0  0  0
   24.6680   19.1635  -60.6866 H   0  0  0  0  0
   26.0471   17.3057  -57.9684 H   0  0  0  0  0
   26.9090   18.2293  -59.2234 H   0  0  0  0  0
   25.3937   18.8624  -58.5348 H   0  0  0  0  0
   23.6554   16.8020  -62.3115 H   0  0  0  0  0
   22.6870   17.8450  -61.2412 H   0  0  0  0  0
   23.4225   18.5206  -62.7155 H   0  0  0  0  0
   27.7755   15.1163  -58.8723 H   0  0  0  0  0
   26.1715   12.9027  -57.7104 H   0  0  0  0  0
   28.3697   12.3402  -58.6710 H   0  0  0  0  0
   29.1562   13.5138  -57.5870 H   0  0  0  0  0
   28.3681   12.0670  -56.9113 H   0  0  0  0  0
   25.6642   12.6606  -55.6060 H   0  0  0  0  0
   26.5537   14.8321  -53.7243 H   0  0  0  0  0
   24.3989   12.7785  -53.2982 H   0  0  0  0  0
   24.1308   14.4572  -53.9714 H   0  0  0  0  0
   24.2657   16.3762  -52.5535 H   0  0  0  0  0
   24.9168   12.4601  -50.9719 H   0  0  0  0  0
   24.0717   17.2682  -50.2555 H   0  0  0  0  0
   24.7134   13.3507  -48.6773 H   0  0  0  0  0
   24.2816   15.7573  -48.3167 H   0  0  0  0  0
   27.9228   14.2935  -52.0762 H   0  0  0  0  0
   28.2831   11.4191  -51.4267 H   0  0  0  0  0
   30.8019   12.5396  -51.0359 H   0  0  0  0  0
   30.2351   13.1756  -52.6528 H   0  0  0  0  0
   29.7637   10.3513  -52.3503 H   0  0  0  0  0
   31.5090   10.7769  -52.1433 H   0  0  0  0  0
   29.2480   10.1288  -54.2803 H   0  0  0  0  0
   28.5952   11.0263  -49.1922 H   0  0  0  0  0
   28.6531   13.4948  -47.6453 H   0  0  0  0  0
   27.2322   12.5169  -46.3376 H   0  0  0  0  0
   28.6579   11.5398  -45.6869 H   0  0  0  0  0
   28.7957    9.2392  -46.0406 H   0  0  0  0  0
   25.6762   11.5177  -47.8794 H   0  0  0  0  0
   27.6330    7.1533  -46.6871 H   0  0  0  0  0
   24.5225    9.4352  -48.5278 H   0  0  0  0  0
   25.4913    7.2532  -47.9243 H   0  0  0  0  0
   30.3935   14.4504  -47.1414 H   0  0  0  0  0
   33.0142   13.3307  -46.9615 H   0  0  0  0  0
   30.6375   13.8667  -44.6020 H   0  0  0  0  0
   32.6137   15.7316  -47.2181 H   0  0  0  0  0
   31.9001   15.7947  -45.5878 H   0  0  0  0  0
   33.6217   15.3874  -45.7911 H   0  0  0  0  0
  1  2  1  0  0  0
  2  3  1  0  0  0
  2  5  1  0  0  0
  3  4  2  0  0  0
  3  6  1  0  0  0
  6  7  1  0  0  0
  7  8  1  0  0  0
  7 10  1  0  0  0
  8  9  2  0  0  0
  8 14  1  0  0  0
 10 11  1  0  0  0
 10 12  1  0  0  0
 11 13  1  0  0  0
 14 15  1  0  0  0
 15 16  1  0  0  0
 15 18  1  0  0  0
 16 17  2  0  0  0
 16 19  1  0  0  0
 19 20  1  0  0  0
 20 21  1  0  0  0
 20 23  1  0  0  0
 21 22  2  0  0  0
 21 30  1  0  0  0
 23 24  1  0  0  0
 24 25  4  0  0  0
 24 26  4  0  0  0
 25 27  4  0  0  0
 26 28  4  0  0  0
 27 29  4  0  0  0
 28 29  4  0  0  0
 30 31  1  0  0  0
 31 32  1  0  0  0
 31 34  1  0  0  0
 32 33  2  0  0  0
 32 39  1  0  0  0
 34 35  1  0  0  0
 35 36  1  0  0  0
 36 37  2  0  0  0
 36 38  1  0  0  0
 39 40  1  0  0  0
 40 41  1  0  0  0
 40 43  1  0  0  0
 41 42  2  0  0  0
 41 50  1  0  0  0
 43 44  1  0  0  0
 44 45  4  0  0  0
 44 46  4  0  0  0
 45 47  4  0  0  0
 46 48  4  0  0  0
 47 49  4  0  0  0
 48 49  4  0  0  0
 50 51  1  0  0  0
 51 52  1  0  0  0
 51 54  1  0  0  0
 52 53  1  0  0  0
 52 55  2  0  0  0
  1 56  1  0  0  0
  1 57  1  0  0  0
  1 58  1  0  0  0
  2 59  1  0  0  0
  5 60  1  0  0  0
  5 61  1  0  0  0
  5 62  1  0  0  0
  6 63  1  0  0  0
  7 64  1  0  0  0
 10 65  1  0  0  0
 11 66  1  0  0  0
 11 67  1  0  0  0
 12 68  1  0  0  0
 12 69  1  0  0  0
 12 70  1  0  0  0
 13 71  1  0  0  0
 13 72  1  0  0  0
 13 73  1  0  0  0
 14 74  1  0  0  0
 15 75  1  0  0  0
 18 76  1  0  0  0
 18 77  1  0  0  0
 18 78  1  0  0  0
 19 79  1  0  0  0
 20 80  1  0  0  0
 23 81  1  0  0  0
 23 82  1  0  0  0
 25 83  1  0  0  0
 26 84  1  0  0  0
 27 85  1  0  0  0
 28 86  1  0  0  0
 29 87  1  0  0  0
 30 88  1  0  0  0
 31 89  1  0  0  0
 34 90  1  0  0  0
 34 91  1  0  0  0
 35 92  1  0  0  0
 35 93  1  0  0  0
 38 94  1  0  0  0
 39 95  1  0  0  0
 40 96  1  0  0  0
 43 97  1  0  0  0
 43 98  1  0  0  0
 45 99  1  0  0  0
 46100  1  0  0  0
 47101  1  0  0  0
 48102  1  0  0  0
 49103  1  0  0  0
 50104  1  0  0  0
 51105  1  0  0  0
 53106  1  0  0  0
 54107  1  0  0  0
 54108  1  0  0  0
 54109  1  0  0  0
M  END
$$$$
