### 
### Created by X-TOOL on Mon Sep 10 21:12:56 2018
### 

@<TRIPOS>MOLECULE
2pem_ligand
  107   108     1     0     0
SMALL
GAST_HUCK


@<TRIPOS>ATOM
      1 N          25.5740   14.0200  -64.8600 N.4       1 GLU         0.2377
      2 CA         25.3550   13.7100  -63.4080 C.3       1 GLU         0.0621
      3 C          26.0840   14.6820  -62.4470 C.2       1 GLU         0.2264
      4 O          27.3040   14.8910  -62.5450 O.2       1 GLU        -0.3907
      5 CB         25.7210   12.2390  -63.0940 C.3       1 GLU        -0.0040
      6 N          25.3160   15.2950  -61.5440 N.am      1 ILE        -0.2608
      7 CA         25.8840   15.9330  -60.3540 C.3       1 ILE         0.1336
      8 C          25.7950   14.8820  -59.2450 C.2       1 ILE         0.2042
      9 O          24.7220   14.3220  -58.9780 O.2       1 ILE        -0.3944
     10 CB         25.1330   17.2330  -59.9130 C.3       1 ILE        -0.0037
     11 CG1        24.8270   18.1680  -61.1010 C.3       1 ILE        -0.0491
     12 CG2        25.9280   17.9600  -58.8320 C.3       1 ILE        -0.0582
     13 CD1        23.5530   17.8070  -61.9020 C.3       1 ILE        -0.0648
     14 N          26.9300   14.6060  -58.6170 N.am      1 LYS        -0.2640
     15 CA         27.0010   13.5970  -57.5760 C.3       1 LYS         0.1282
     16 C          26.8440   14.2160  -56.1780 C.2       1 LYS         0.2037
     17 O          27.2930   15.3400  -55.9240 O.2       1 LYS        -0.3944
     18 CB         28.3200   12.8230  -57.6950 C.3       1 LYS        -0.0244
     19 N          26.1770   13.4830  -55.2880 N.am      1 PHE        -0.2619
     20 CA         26.1610   13.8260  -53.8710 C.3       1 PHE         0.1404
     21 C          27.0280   12.8100  -53.1360 C.2       1 PHE         0.2060
     22 O          26.9450   11.6190  -53.4250 O.2       1 PHE        -0.3942
     23 CB         24.7290   13.8170  -53.3230 C.3       1 PHE         0.0214
     24 CG         24.6050   14.3590  -51.9220 C.ar      1 PHE        -0.0386
     25 CD1        24.3670   15.7020  -51.7030 C.ar      1 PHE        -0.0601
     26 CD2        24.7280   13.5230  -50.8210 C.ar      1 PHE        -0.0601
     27 CE1        24.2550   16.2050  -50.4110 C.ar      1 PHE        -0.0686
     28 CE2        24.6140   14.0210  -49.5310 C.ar      1 PHE        -0.0686
     29 CZ         24.3750   15.3640  -49.3290 C.ar      1 PHE        -0.0687
     30 N          27.8670   13.2840  -52.2110 N.am      1 GLU        -0.2635
     31 CA         28.7100   12.4210  -51.3820 C.3       1 GLU         0.1325
     32 C          28.7400   12.9220  -49.9570 C.2       1 GLU         0.2041
     33 O          28.7720   14.1330  -49.7410 O.2       1 GLU        -0.3944
     34 CB         30.1480   12.3960  -51.8960 C.3       1 GLU        -0.0008
     35 CG         30.5460   11.0830  -52.5520 C.3       1 GLU         0.0044
     36 CD         30.6930   11.2190  -54.0710 C.2       1 GLU         0.0350
     37 OE1        31.6360   11.9320  -54.5070 O.co2     1 GLU        -0.5690
     38 OE2        29.8810   10.6080  -54.8200 O.co2     1 GLU        -0.5690
     39 N          28.7400   12.0130  -48.9780 N.am      1 PHE        -0.2619
     40 CA         28.9510   12.4480  -47.5860 C.3       1 PHE         0.1404
     41 C          30.3960   12.4220  -47.1210 C.2       1 PHE         0.2054
     42 O          31.0000   11.3590  -46.9780 O.2       1 PHE        -0.3942
     43 CB         28.0260   11.7970  -46.5370 C.3       1 PHE         0.0214
     44 CG         27.3450   10.5190  -46.9640 C.ar      1 PHE        -0.0386
     45 CD1        27.8640    9.2900  -46.6040 C.ar      1 PHE        -0.0601
     46 CD2        26.1230   10.5550  -47.6310 C.ar      1 PHE        -0.0601
     47 CE1        27.2050    8.1190  -46.9560 C.ar      1 PHE        -0.0686
     48 CE2        25.4660    9.3880  -47.9840 C.ar      1 PHE        -0.0686
     49 CZ         26.0050    8.1740  -47.6480 C.ar      1 PHE        -0.0687
     50 N          30.9340   13.6200  -46.8990 N.am      1 ASP        -0.2696
     51 CA         32.2610   13.7950  -46.3250 C.3       1 ASP         0.0916
     52 C          32.2510   13.1400  -44.9480 C.2       1 ASP         0.0598
     53 O          31.2820   13.2880  -44.1880 O.co2     1 ASP        -0.5666
     54 CB         32.6260   15.2870  -46.2230 C.3       1 ASP        -0.0300
     55 OXT        33.1870   12.4260  -44.5890 O.co2     1 ASP        -0.5666
     56 H1         25.0737   13.3520  -65.4253 H         1 GLU         0.2015
     57 H2         26.5585   13.9675  -65.0701 H         1 GLU         0.2015
     58 H3         25.2368   14.9487  -65.0599 H         1 GLU         0.2015
     59 H4         24.2777   13.8259  -63.2183 H         1 GLU         0.1095
     60 H5         25.5516   12.0391  -62.0257 H         1 GLU         0.0310
     61 H6         26.7798   12.0648  -63.3362 H         1 GLU         0.0310
     62 H7         25.0917   11.5678  -63.6969 H         1 GLU         0.0310
     63 H8         24.3261   15.3195  -61.6835 H         1 ILE         0.1885
     64 H9         26.9361   16.1890  -60.5477 H         1 ILE         0.0803
     65 H10        24.1701   16.9290  -59.4767 H         1 ILE         0.0345
     66 H11        25.6840   18.1372  -61.7899 H         1 ILE         0.0267
     67 H12        24.7071   19.1892  -60.7102 H         1 ILE         0.0267
     68 H13        26.1310   17.2701  -57.9997 H         1 ILE         0.0235
     69 H14        25.3464   18.8179  -58.4636 H         1 ILE         0.0235
     70 H15        26.8796   18.3159  -59.2535 H         1 ILE         0.0235
     71 H16        23.4202   18.5265  -62.7234 H         1 ILE         0.0230
     72 H17        22.6782   17.8450  -61.2362 H         1 ILE         0.0230
     73 H18        23.6551   16.7930  -62.3158 H         1 ILE         0.0230
     74 H19        27.7589   15.1063  -58.8673 H         1 LYS         0.1883
     75 H20        26.1722   12.8897  -57.7269 H         1 LYS         0.0797
     76 H21        28.3697   12.0596  -56.9046 H         1 LYS         0.0277
     77 H22        29.1647   13.5191  -57.5861 H         1 LYS         0.0277
     78 H23        28.3714   12.3352  -58.6796 H         1 LYS         0.0277
     79 H24        25.6743   12.6767  -55.5997 H         1 PHE         0.1885
     80 H25        26.5846   14.8321  -53.7353 H         1 PHE         0.0823
     81 H26        24.3641   12.7793  -53.3259 H         1 PHE         0.0474
     82 H27        24.1006   14.4285  -53.9872 H         1 PHE         0.0474
     83 H28        24.2662   16.3724  -52.5488 H         1 PHE         0.0557
     84 H29        24.9158   12.4660  -50.9710 H         1 PHE         0.0557
     85 H30        24.0727   17.2623  -50.2564 H         1 PHE         0.0599
     86 H31        24.7128   13.3544  -48.6819 H         1 PHE         0.0599
     87 H32        24.2821   15.7552  -48.3223 H         1 PHE         0.0559
     88 H33        27.9217   14.2737  -52.0788 H         1 GLU         0.1883
     89 H34        28.2992   11.4008  -51.4025 H         1 GLU         0.0801
     90 H35        30.8226   12.5768  -51.0462 H         1 GLU         0.0330
     91 H36        30.2654   13.2019  -52.6354 H         1 GLU         0.0330
     92 H37        29.7734   10.3303  -52.3364 H         1 GLU         0.0433
     93 H38        31.5071   10.7530  -52.1308 H         1 GLU         0.0433
     94 H39        28.5980   11.0457  -49.1880 H         1 PHE         0.1885
     95 H40        28.6706   13.5116  -47.5907 H         1 PHE         0.0823
     96 H41        27.2439   12.5258  -46.2781 H         1 PHE         0.0474
     97 H42        28.6305   11.5755  -45.6451 H         1 PHE         0.0474
     98 H43        28.7906    9.2394  -46.0437 H         1 PHE         0.0557
     99 H44        25.6786   11.5124  -47.8780 H         1 PHE         0.0557
    100 H45        27.6306    7.1586  -46.6886 H         1 PHE         0.0599
    101 H46        24.5277    9.4350  -48.5248 H         1 PHE         0.0599
    102 H47        25.4941    7.2583  -47.9227 H         1 PHE         0.0559
    103 H48        30.4041   14.4341  -47.1366 H         1 ASP         0.1875
    104 H49        33.0038   13.2935  -46.9627 H         1 ASP         0.0723
    105 H50        33.6308   15.3897  -45.7872 H         1 ASP         0.0270
    106 H51        31.8942   15.8006  -45.5821 H         1 ASP         0.0270
    107 H52        32.6140   15.7369  -47.2267 H         1 ASP         0.0270
@<TRIPOS>BOND
     1    1    2 1  
     2    2    3 1  
     3    2    5 1  
     4    3    4 2  
     5    3    6 am 
     6    6    7 1  
     7    7    8 1  
     8    7   10 1  
     9    8    9 2  
    10    8   14 am 
    11   10   11 1  
    12   10   12 1  
    13   11   13 1  
    14   14   15 1  
    15   15   16 1  
    16   15   18 1  
    17   16   17 2  
    18   16   19 am 
    19   19   20 1  
    20   20   21 1  
    21   20   23 1  
    22   21   22 2  
    23   21   30 am 
    24   23   24 1  
    25   24   25 ar 
    26   24   26 ar 
    27   25   27 ar 
    28   26   28 ar 
    29   27   29 ar 
    30   28   29 ar 
    31   30   31 1  
    32   31   32 1  
    33   31   34 1  
    34   32   33 2  
    35   32   39 am 
    36   34   35 1  
    37   35   36 1  
    38   36   37 ar 
    39   36   38 ar 
    40   39   40 1  
    41   40   41 1  
    42   40   43 1  
    43   41   42 2  
    44   41   50 am 
    45   43   44 1  
    46   44   45 ar 
    47   44   46 ar 
    48   45   47 ar 
    49   46   48 ar 
    50   47   49 ar 
    51   48   49 ar 
    52   50   51 1  
    53   51   52 1  
    54   51   54 1  
    55   52   53 ar 
    56   52   55 ar 
    57    1   56 1  
    58    1   57 1  
    59    1   58 1  
    60    2   59 1  
    61    5   60 1  
    62    5   61 1  
    63    5   62 1  
    64    6   63 1  
    65    7   64 1  
    66   10   65 1  
    67   11   66 1  
    68   11   67 1  
    69   12   68 1  
    70   12   69 1  
    71   12   70 1  
    72   13   71 1  
    73   13   72 1  
    74   13   73 1  
    75   14   74 1  
    76   15   75 1  
    77   18   76 1  
    78   18   77 1  
    79   18   78 1  
    80   19   79 1  
    81   20   80 1  
    82   23   81 1  
    83   23   82 1  
    84   25   83 1  
    85   26   84 1  
    86   27   85 1  
    87   28   86 1  
    88   29   87 1  
    89   30   88 1  
    90   31   89 1  
    91   34   90 1  
    92   34   91 1  
    93   35   92 1  
    94   35   93 1  
    95   39   94 1  
    96   40   95 1  
    97   43   96 1  
    98   43   97 1  
    99   45   98 1  
   100   46   99 1  
   101   47  100 1  
   102   48  101 1  
   103   49  102 1  
   104   50  103 1  
   105   51  104 1  
   106   54  105 1  
   107   54  106 1  
   108   54  107 1  
@<TRIPOS>SUBSTRUCTURE
     1 GLU         1

