4r4o_ligand
  -I-interpret- 

 59 63  0  0  0  0  0  0  0  0999 V2000
   -4.8660    9.3380    3.6980 C   0  0  0  0  0
   -5.2760   10.9820    2.0140 C   0  0  0  0  0
   -1.8990   11.2930   -0.0260 C   0  0  0  0  0
    0.4890   11.0600   -0.1060 C   0  0  0  0  0
    4.1600   12.1530    2.0340 C   0  0  0  0  0
    4.9360   10.9010    1.7940 C   0  0  0  0  0
    6.8060    9.5320    2.4160 C   0  0  0  0  0
    7.3140    7.4240    1.2190 C   0  0  0  0  0
    8.8360    5.7740    1.3890 C   0  0  0  0  0
   -6.9160   11.2890   -3.4150 O   0  0  0  0  0
   -5.6930   11.5890   -3.4390 C   0  0  0  0  0
   -4.8710   11.3550   -2.2230 C   0  0  0  0  0
   -5.3250   10.8360   -1.0950 N   0  0  0  0  0
   -4.3510   10.7520   -0.2120 N   0  0  0  0  0
   -4.5220   10.2500    1.1120 C   0  0  0  0  0
   -3.9280    9.0620    1.5020 C   0  0  0  0  0
   -4.1050    8.6120    2.7980 C   0  0  0  0  0
   -3.3750    7.1240    3.2740 Cl  0  0  0  0  0
   -5.1030    8.7860    5.3140 Cl  0  0  0  0  0
   -5.4510   10.5260    3.3080 C   0  0  0  0  0
   -3.2150   11.2300   -0.7130 C   0  0  0  0  0
   -0.7440   11.0070   -0.7380 C   0  0  0  0  0
    0.5580   11.3960    1.2380 C   0  0  0  0  0
    1.8660   11.4500    1.9390 C   0  0  0  0  0
    2.8590   12.3650    1.4660 N   0  0  0  0  0
    6.0370   10.6660    2.6000 C   0  0  0  0  0
    6.4690    8.6240    1.4270 C   0  0  0  0  0
    8.2900    6.9060    2.0780 C   0  0  0  0  0
    8.1320    5.7130    0.1820 C   0  0  0  0  0
    8.2790    4.7490   -0.9330 C   0  0  0  0  0
    9.2390    3.9340   -0.9710 O   0  0  0  0  0
    7.4150    4.7820   -1.8480 O   0  0  0  0  0
    7.2820    6.6970    0.1390 O   0  0  0  0  0
    5.3800    8.8610    0.6000 C   0  0  0  0  0
    4.6070   10.0010    0.7840 C   0  0  0  0  0
    1.9450   10.7890    3.4650 S   0  0  0  0  0
   -0.5930   11.6740    1.9500 C   0  0  0  0  0
   -1.8200   11.6320    1.3170 C   0  0  0  0  0
   -3.4880   11.6360   -2.0490 C   0  0  0  0  0
   -5.1620   12.0660   -4.4740 O   0  0  0  0  0
   -5.7334   11.9212    1.7029 H   0  0  0  0  0
    1.3997   10.8387   -0.6626 H   0  0  0  0  0
    4.7712   12.9256    1.5675 H   0  0  0  0  0
    3.9700   12.1338    3.1071 H   0  0  0  0  0
    7.6757    9.3533    3.0483 H   0  0  0  0  0
    9.6270    5.1065    1.7309 H   0  0  0  0  0
   -7.1423   10.9419   -2.5490 H   0  0  0  0  0
   -3.3278    8.4879    0.7961 H   0  0  0  0  0
   -6.0475   11.1015    4.0159 H   0  0  0  0  0
   -0.8053   10.7408   -1.7932 H   0  0  0  0  0
    2.6606   13.1004    0.7875 H   0  0  0  0  0
    6.2985   11.3780    3.3828 H   0  0  0  0  0
    8.5741    7.2828    3.0606 H   0  0  0  0  0
    9.7907    4.0547   -0.1947 H   0  0  0  0  0
    5.1316    8.1546   -0.1920 H   0  0  0  0  0
    3.7474   10.1896    0.1408 H   0  0  0  0  0
   -0.5329   11.9259    3.0088 H   0  0  0  0  0
   -2.7276   11.8656    1.8735 H   0  0  0  0  0
   -2.7954   12.0645   -2.7735 H   0  0  0  0  0
 17  1  4  0  0  0
  1 19  1  0  0  0
 20  1  4  0  0  0
 15  2  4  0  0  0
  2 20  4  0  0  0
  3 21  1  0  0  0
 22  3  4  0  0  0
  3 38  4  0  0  0
  4 22  4  0  0  0
 23  4  4  0  0  0
  5  6  1  0  0  0
 25  5  1  0  0  0
  6 26  4  0  0  0
  6 35  4  0  0  0
 26  7  4  0  0  0
  7 27  4  0  0  0
 27  8  1  0  0  0
  8 28  4  0  0  0
  8 33  4  0  0  0
 28  9  4  0  0  0
  9 29  4  0  0  0
 11 10  1  0  0  0
 12 11  1  0  0  0
 11 40  2  0  0  0
 12 13  4  0  0  0
 39 12  4  0  0  0
 14 13  4  0  0  0
 14 15  1  0  0  0
 21 14  4  0  0  0
 15 16  4  0  0  0
 16 17  4  0  0  0
 17 18  1  0  0  0
 21 39  4  0  0  0
 24 23  1  0  0  0
 23 37  4  0  0  0
 24 25  1  0  0  0
 24 36  2  0  0  0
 27 34  4  0  0  0
 29 30  1  0  0  0
 29 33  4  0  0  0
 30 31  1  0  0  0
 30 32  2  0  0  0
 34 35  4  0  0  0
 37 38  4  0  0  0
  2 41  1  0  0  0
  4 42  1  0  0  0
  5 43  1  0  0  0
  5 44  1  0  0  0
  7 45  1  0  0  0
  9 46  1  0  0  0
 10 47  1  0  0  0
 16 48  1  0  0  0
 20 49  1  0  0  0
 22 50  1  0  0  0
 25 51  1  0  0  0
 26 52  1  0  0  0
 28 53  1  0  0  0
 31 54  1  0  0  0
 34 55  1  0  0  0
 35 56  1  0  0  0
 37 57  1  0  0  0
 38 58  1  0  0  0
 39 59  1  0  0  0
M  END
$$$$
