### 
### Created by X-TOOL on Mon Sep 10 21:13:00 2018
### 

@<TRIPOS>MOLECULE
3e8u_ligand
  128   128     1     0     0
SMALL
GAST_HUCK


@<TRIPOS>ATOM
      1 CA         23.6090   30.5110   45.1100 C.3       1 GLY         0.0258
      2 C          23.7700   31.5340   46.2310 C.2       1 GLY         0.1751
      3 O          24.7790   32.2540   46.2890 O.2       1 GLY        -0.3972
      4 N          22.7720   31.6080   47.1080 N.am      1 VAL        -0.2656
      5 CA         22.7900   32.5030   48.2660 C.3       1 VAL         0.1332
      6 C          22.2310   31.7590   49.4800 C.2       1 VAL         0.2042
      7 O          21.0410   31.4630   49.5400 O.2       1 VAL        -0.3944
      8 CB         21.9430   33.7970   48.0250 C.3       1 VAL        -0.0063
      9 CG1        22.0180   34.7140   49.2180 C.3       1 VAL        -0.0584
     10 CG2        22.4180   34.5390   46.7990 C.3       1 VAL        -0.0584
     11 N          23.0810   31.4590   50.4550 N.am      1 GLN        -0.2636
     12 CA         22.5790   30.8800   51.6910 C.3       1 GLN         0.1330
     13 C          21.9970   31.9450   52.6240 C.2       1 GLN         0.2038
     14 O          20.7690   32.0850   52.7300 O.2       1 GLN        -0.3944
     15 CB         23.6400   30.0090   52.3850 C.3       1 GLN         0.0045
     16 CG         23.8210   28.6210   51.7450 C.3       1 GLN         0.0412
     17 CD         22.5610   27.7820   51.7840 C.2       1 GLN         0.1737
     18 OE1        21.6630   28.0210   52.6020 O.2       1 GLN        -0.3973
     19 NE2        22.4940   26.7750   50.9140 N.am      1 GLN        -0.3009
     20 N          22.8650   32.7050   53.2830 N.am      1 GLY        -0.2664
     21 CA         22.4180   33.7540   54.1860 C.3       1 GLY         0.1201
     22 C          22.1440   35.0330   53.4300 C.2       1 GLY         0.2008
     23 O          22.9660   35.4780   52.6230 O.2       1 GLY        -0.3947
     24 N          20.9710   35.6200   53.6870 N.am      1 SER        -0.2618
     25 CA         20.6260   36.8990   53.0950 C.3       1 SER         0.1539
     26 C          21.3200   38.0310   53.8530 C.2       1 SER         0.2060
     27 O          21.5550   37.9250   55.0610 O.2       1 SER        -0.3943
     28 CB         19.1060   37.1070   53.0930 C.3       1 SER         0.0843
     29 OG         18.7920   38.3650   52.5380 O.3       1 SER        -0.3903
     30 N          21.6460   39.1010   53.1270 N.am      1 GLY        -0.2663
     31 CA         22.1950   40.3170   53.7110 C.3       1 GLY         0.1201
     32 C          23.3750   40.0640   54.6250 C.2       1 GLY         0.2007
     33 O          24.3400   39.4170   54.2240 O.2       1 GLY        -0.3947
     34 N          23.2740   40.5400   55.8650 N.am      1 ALA        -0.2642
     35 CA         24.3340   40.3660   56.8710 C.3       1 ALA         0.1282
     36 C          24.8280   38.9270   57.0440 C.2       1 ALA         0.2037
     37 O          26.0010   38.7080   57.3290 O.2       1 ALA        -0.3944
     38 CB         23.8910   40.9430   58.2090 C.3       1 ALA        -0.0244
     39 N          23.9460   37.9510   56.8590 N.am      1 PHE        -0.2619
     40 CA         24.3050   36.5380   57.0220 C.3       1 PHE         0.1404
     41 C          25.1230   35.9470   55.8730 C.2       1 PHE         0.2058
     42 O          25.7090   34.8690   56.0230 O.2       1 PHE        -0.3942
     43 CB         23.0520   35.6840   57.2600 C.3       1 PHE         0.0214
     44 CG         22.3680   35.9680   58.5690 C.ar      1 PHE        -0.0386
     45 CD1        21.2420   36.7780   58.6170 C.ar      1 PHE        -0.0601
     46 CD2        22.8580   35.4250   59.7580 C.ar      1 PHE        -0.0601
     47 CE1        20.6100   37.0500   59.8180 C.ar      1 PHE        -0.0686
     48 CE2        22.2330   35.6850   60.9700 C.ar      1 PHE        -0.0686
     49 CZ         21.1060   36.4960   61.0030 C.ar      1 PHE        -0.0687
     50 N          25.1400   36.6340   54.7310 N.am      1 GLY        -0.2663
     51 CA         25.9210   36.2080   53.5730 C.3       1 GLY         0.1201
     52 C          27.2940   36.8540   53.5330 C.2       1 GLY         0.2007
     53 O          28.0210   36.7250   52.5370 O.2       1 GLY        -0.3947
     54 N          27.6530   37.5320   54.6230 N.am      1 ARG        -0.2640
     55 CA         28.9470   38.2040   54.7470 C.3       1 ARG         0.1307
     56 C          30.0430   37.2060   55.1310 C.2       1 ARG         0.1992
     57 O          30.9820   36.9940   54.3570 O.2       1 ARG        -0.3947
     58 CB         28.8730   39.3720   55.7360 C.3       1 ARG        -0.0092
     59 CG         28.2840   40.6400   55.1240 C.3       1 ARG        -0.0156
     60 CD         27.9040   41.6720   56.1850 C.3       1 ARG         0.0627
     61 NE         26.8830   42.5940   55.6800 N.pl3     1 ARG        -0.2723
     62 CZ         26.2330   43.4900   56.4170 C.cat     1 ARG         0.2882
     63 NH1        26.4870   43.6320   57.7210 N.pl3     1 ARG        -0.2849
     64 NH2        25.3250   44.2570   55.8420 N.pl3     1 ARG        -0.2849
     65 N          29.9130   36.5840   56.3060 N.am      1 GLY        -0.2990
     66 H1         22.6553   29.9773   45.2349 H         1 GLY         0.0467
     67 H2         24.4398   29.7911   45.1484 H         1 GLY         0.0467
     68 H3         23.6157   31.0272   44.1387 H         1 GLY         0.0467
     69 H4         21.9718   31.0245   46.9694 H         1 VAL         0.1883
     70 H5         23.8308   32.7965   48.4677 H         1 VAL         0.0802
     71 H6         20.8947   33.5009   47.8725 H         1 VAL         0.0343
     72 H7         21.4165   35.6148   49.0264 H         1 VAL         0.0234
     73 H8         23.0649   35.0026   49.3934 H         1 VAL         0.0234
     74 H9         21.6273   34.1942   50.1052 H         1 VAL         0.0234
     75 H10        22.3653   33.8738   45.9245 H         1 VAL         0.0234
     76 H11        23.4574   34.8665   46.9484 H         1 VAL         0.0234
     77 H12        21.7774   35.4172   46.6307 H         1 VAL         0.0234
     78 H13        24.0596   31.6300   50.3402 H         1 GLN         0.1883
     79 H14        21.7497   30.2115   51.4167 H         1 GLN         0.0801
     80 H15        23.3422   29.8704   53.4348 H         1 GLN         0.0337
     81 H16        24.6036   30.5379   52.3440 H         1 GLN         0.0337
     82 H17        24.6150   28.0861   52.2867 H         1 GLN         0.0504
     83 H18        24.1200   28.7555   50.6950 H         1 GLN         0.0504
     84 H19        21.6863   26.1858   50.8924 H         1 GLN         0.1814
     85 H20        23.2514   26.6085   50.2826 H         1 GLN         0.1814
     86 H21        23.8451   32.5528   53.1556 H         1 GLY         0.1881
     87 H22        23.1994   33.9399   54.9376 H         1 GLY         0.0763
     88 H23        21.4957   33.4279   54.6889 H         1 GLY         0.0763
     89 H24        20.3198   35.1698   54.2980 H         1 SER         0.1884
     90 H25        20.9788   36.9076   52.0532 H         1 SER         0.0823
     91 H26        18.7306   37.0607   54.1259 H         1 SER         0.0606
     92 H27        18.6308   36.3159   52.4943 H         1 SER         0.0606
     93 H28        17.8496   38.4848   52.5409 H         1 SER         0.2097
     94 H29        21.5073   39.0669   52.1372 H         1 GLY         0.1881
     95 H30        21.4037   40.8131   54.2921 H         1 GLY         0.0763
     96 H31        22.5211   40.9793   52.8955 H         1 GLY         0.0763
     97 H32        22.4445   41.0355   56.1227 H         1 ALA         0.1883
     98 H33        25.1964   40.9551   56.5256 H         1 ALA         0.0797
     99 H34        24.6919   40.8062   58.9505 H         1 ALA         0.0277
    100 H35        22.9832   40.4236   58.5498 H         1 ALA         0.0277
    101 H36        23.6780   42.0159   58.0932 H         1 ALA         0.0277
    102 H37        23.0091   38.1866   56.6008 H         1 PHE         0.1885
    103 H38        24.9299   36.4731   57.9249 H         1 PHE         0.0823
    104 H39        23.3457   34.6241   57.2442 H         1 PHE         0.0474
    105 H40        22.3387   35.8791   56.4457 H         1 PHE         0.0474
    106 H41        20.8516   37.2041   57.6999 H         1 PHE         0.0557
    107 H42        23.7378   34.7922   59.7346 H         1 PHE         0.0557
    108 H43        19.7348   37.6893   59.8403 H         1 PHE         0.0599
    109 H44        22.6228   35.2570   61.8865 H         1 PHE         0.0599
    110 H45        20.6113   36.6995   61.9458 H         1 PHE         0.0559
    111 H46        24.5981   37.4718   54.6648 H         1 GLY         0.1881
    112 H47        25.3749   36.4817   52.6582 H         1 GLY         0.0763
    113 H48        26.0453   35.1158   53.6129 H         1 GLY         0.0763
    114 H49        27.0112   37.5836   55.3881 H         1 ARG         0.1883
    115 H50        29.2047   38.6194   53.7616 H         1 ARG         0.0800
    116 H51        29.8900   39.5948   56.0911 H         1 ARG         0.0313
    117 H52        28.2452   39.0703   56.5874 H         1 ARG         0.0313
    118 H53        27.3832   40.3718   54.5525 H         1 ARG         0.0301
    119 H54        29.0284   41.0854   54.4476 H         1 ARG         0.0301
    120 H55        28.7995   42.2459   56.4655 H         1 ARG         0.0689
    121 H56        27.5110   41.1500   57.0699 H         1 ARG         0.0689
    122 H57        26.6511   42.5443   54.6777 H         1 ARG         0.2642
    123 H58        25.9715   44.3325   58.2728 H         1 ARG         0.2615
    124 H59        27.1983   43.0410   58.1745 H         1 ARG         0.2615
    125 H60        25.1244   44.1527   54.8371 H         1 ARG         0.2615
    126 H61        24.8173   44.9596   56.3983 H         1 ARG         0.2615
    127 H62        30.6032   35.9232   56.6010 H         1 GLY         0.1815
    128 H63        29.1255   36.7791   56.8906 H         1 GLY         0.1815
@<TRIPOS>BOND
     1    1    2 1  
     2    2    3 2  
     3    2    4 am 
     4    4    5 1  
     5    5    6 1  
     6    5    8 1  
     7    6    7 2  
     8    6   11 am 
     9    8    9 1  
    10    8   10 1  
    11   11   12 1  
    12   12   13 1  
    13   12   15 1  
    14   13   14 2  
    15   13   20 am 
    16   15   16 1  
    17   16   17 1  
    18   17   18 2  
    19   17   19 am 
    20   20   21 1  
    21   21   22 1  
    22   22   23 2  
    23   22   24 am 
    24   24   25 1  
    25   25   26 1  
    26   25   28 1  
    27   26   27 2  
    28   26   30 am 
    29   28   29 1  
    30   30   31 1  
    31   31   32 1  
    32   32   33 2  
    33   32   34 am 
    34   34   35 1  
    35   35   36 1  
    36   35   38 1  
    37   36   37 2  
    38   36   39 am 
    39   39   40 1  
    40   40   41 1  
    41   40   43 1  
    42   41   42 2  
    43   41   50 am 
    44   43   44 1  
    45   44   45 ar 
    46   44   46 ar 
    47   45   47 ar 
    48   46   48 ar 
    49   47   49 ar 
    50   48   49 ar 
    51   50   51 1  
    52   51   52 1  
    53   52   53 2  
    54   52   54 am 
    55   54   55 1  
    56   55   56 1  
    57   55   58 1  
    58   56   57 2  
    59   56   65 am 
    60   58   59 1  
    61   59   60 1  
    62   60   61 1  
    63   61   62 ar 
    64   62   63 ar 
    65   62   64 ar 
    66    1   66 1  
    67    1   67 1  
    68    1   68 1  
    69    4   69 1  
    70    5   70 1  
    71    8   71 1  
    72    9   72 1  
    73    9   73 1  
    74    9   74 1  
    75   10   75 1  
    76   10   76 1  
    77   10   77 1  
    78   11   78 1  
    79   12   79 1  
    80   15   80 1  
    81   15   81 1  
    82   16   82 1  
    83   16   83 1  
    84   19   84 1  
    85   19   85 1  
    86   20   86 1  
    87   21   87 1  
    88   21   88 1  
    89   24   89 1  
    90   25   90 1  
    91   28   91 1  
    92   28   92 1  
    93   29   93 1  
    94   30   94 1  
    95   31   95 1  
    96   31   96 1  
    97   34   97 1  
    98   35   98 1  
    99   38   99 1  
   100   38  100 1  
   101   38  101 1  
   102   39  102 1  
   103   40  103 1  
   104   43  104 1  
   105   43  105 1  
   106   45  106 1  
   107   46  107 1  
   108   47  108 1  
   109   48  109 1  
   110   49  110 1  
   111   50  111 1  
   112   51  112 1  
   113   51  113 1  
   114   54  114 1  
   115   55  115 1  
   116   58  116 1  
   117   58  117 1  
   118   59  118 1  
   119   59  119 1  
   120   60  120 1  
   121   60  121 1  
   122   61  122 1  
   123   63  123 1  
   124   63  124 1  
   125   64  125 1  
   126   64  126 1  
   127   65  127 1  
   128   65  128 1  
@<TRIPOS>SUBSTRUCTURE
     1 GLY         1

