3e8u_ligand
  -I-interpret- 

127127  0  0  0  0  0  0  0  0999 V2000
   23.6090   30.5110   45.1100 C   0  0  0  0  0
   23.7700   31.5340   46.2310 C   0  0  0  0  0
   24.7790   32.2540   46.2890 O   0  0  0  0  0
   22.7720   31.6080   47.1080 N   0  0  0  0  0
   22.7900   32.5030   48.2660 C   0  0  0  0  0
   22.2310   31.7590   49.4800 C   0  0  0  0  0
   21.0410   31.4630   49.5400 O   0  0  0  0  0
   21.9430   33.7970   48.0250 C   0  0  0  0  0
   22.0180   34.7140   49.2180 C   0  0  0  0  0
   22.4180   34.5390   46.7990 C   0  0  0  0  0
   23.0810   31.4590   50.4550 N   0  0  0  0  0
   22.5790   30.8800   51.6910 C   0  0  0  0  0
   21.9970   31.9450   52.6240 C   0  0  0  0  0
   20.7690   32.0850   52.7300 O   0  0  0  0  0
   23.6400   30.0090   52.3850 C   0  0  0  0  0
   23.8210   28.6210   51.7450 C   0  0  0  0  0
   22.5610   27.7820   51.7840 C   0  0  0  0  0
   21.6630   28.0210   52.6020 O   0  0  0  0  0
   22.4940   26.7750   50.9140 N   0  0  0  0  0
   22.8650   32.7050   53.2830 N   0  0  0  0  0
   22.4180   33.7540   54.1860 C   0  0  0  0  0
   22.1440   35.0330   53.4300 C   0  0  0  0  0
   22.9660   35.4780   52.6230 O   0  0  0  0  0
   20.9710   35.6200   53.6870 N   0  0  0  0  0
   20.6260   36.8990   53.0950 C   0  0  0  0  0
   21.3200   38.0310   53.8530 C   0  0  0  0  0
   21.5550   37.9250   55.0610 O   0  0  0  0  0
   19.1060   37.1070   53.0930 C   0  0  0  0  0
   18.7920   38.3650   52.5380 O   0  0  0  0  0
   21.6460   39.1010   53.1270 N   0  0  0  0  0
   22.1950   40.3170   53.7110 C   0  0  0  0  0
   23.3750   40.0640   54.6250 C   0  0  0  0  0
   24.3400   39.4170   54.2240 O   0  0  0  0  0
   23.2740   40.5400   55.8650 N   0  0  0  0  0
   24.3340   40.3660   56.8710 C   0  0  0  0  0
   24.8280   38.9270   57.0440 C   0  0  0  0  0
   26.0010   38.7080   57.3290 O   0  0  0  0  0
   23.8910   40.9430   58.2090 C   0  0  0  0  0
   23.9460   37.9510   56.8590 N   0  0  0  0  0
   24.3050   36.5380   57.0220 C   0  0  0  0  0
   25.1230   35.9470   55.8730 C   0  0  0  0  0
   25.7090   34.8690   56.0230 O   0  0  0  0  0
   23.0520   35.6840   57.2600 C   0  0  0  0  0
   22.3680   35.9680   58.5690 C   0  0  0  0  0
   21.2420   36.7780   58.6170 C   0  0  0  0  0
   22.8580   35.4250   59.7580 C   0  0  0  0  0
   20.6100   37.0500   59.8180 C   0  0  0  0  0
   22.2330   35.6850   60.9700 C   0  0  0  0  0
   21.1060   36.4960   61.0030 C   0  0  0  0  0
   25.1400   36.6340   54.7310 N   0  0  0  0  0
   25.9210   36.2080   53.5730 C   0  0  0  0  0
   27.2940   36.8540   53.5330 C   0  0  0  0  0
   28.0210   36.7250   52.5370 O   0  0  0  0  0
   27.6530   37.5320   54.6230 N   0  0  0  0  0
   28.9470   38.2040   54.7470 C   0  0  0  0  0
   30.0430   37.2060   55.1310 C   0  0  0  0  0
   30.9820   36.9940   54.3570 O   0  0  0  0  0
   28.8730   39.3720   55.7360 C   0  0  0  0  0
   28.2840   40.6400   55.1240 C   0  0  0  0  0
   27.9040   41.6720   56.1850 C   0  0  0  0  0
   26.8830   42.5940   55.6800 N   0  0  0  0  0
   26.2330   43.4900   56.4170 C   0  0  0  0  0
   26.4870   43.6320   57.7210 N   0  0  0  0  0
   25.3250   44.2570   55.8420 N   0  0  0  0  0
   29.9130   36.5840   56.3060 N   0  0  0  0  0
   23.6159   31.0238   44.1482 H   0  0  0  0  0
   24.4328   29.7983   45.1492 H   0  0  0  0  0
   22.6637   29.9828   45.2348 H   0  0  0  0  0
   21.9558   31.0128   46.9666 H   0  0  0  0  0
   23.8226   32.8077   48.4362 H   0  0  0  0  0
   20.9098   33.4850   47.8724 H   0  0  0  0  0
   23.0489   35.0376   49.3617 H   0  0  0  0  0
   21.3834   35.5835   49.0468 H   0  0  0  0  0
   21.6758   34.1820   50.1057 H   0  0  0  0  0
   21.7825   35.4089   46.6334 H   0  0  0  0  0
   23.4480   34.8630   46.9483 H   0  0  0  0  0
   22.3653   33.8789   45.9332 H   0  0  0  0  0
   24.0791   31.6334   50.3379 H   0  0  0  0  0
   21.7557   30.2166   51.4260 H   0  0  0  0  0
   23.3105   29.8525   53.4121 H   0  0  0  0  0
   24.5932   30.5313   52.3029 H   0  0  0  0  0
   24.5891   28.0927   52.3099 H   0  0  0  0  0
   24.0881   28.7702   50.6988 H   0  0  0  0  0
   21.6780   26.1631   50.9041 H   0  0  0  0  0
   23.2587   26.6161   50.2580 H   0  0  0  0  0
   23.8647   32.5497   53.1531 H   0  0  0  0  0
   23.2005   33.9414   54.9213 H   0  0  0  0  0
   21.4982   33.4299   54.6729 H   0  0  0  0  0
   20.3068   35.1608   54.3102 H   0  0  0  0  0
   20.9689   36.9053   52.0604 H   0  0  0  0  0
   18.7370   37.0650   54.1178 H   0  0  0  0  0
   18.6378   36.3246   52.4957 H   0  0  0  0  0
   17.8397   38.4861   52.5410 H   0  0  0  0  0
   21.5045   39.0663   52.1175 H   0  0  0  0  0
   21.4091   40.7788   54.3086 H   0  0  0  0  0
   22.5422   40.9474   52.8924 H   0  0  0  0  0
   22.4279   41.0454   56.1279 H   0  0  0  0  0
   25.1921   40.9177   56.4872 H   0  0  0  0  0
   23.6802   42.0061   58.0929 H   0  0  0  0  0
   22.9915   40.4276   58.5456 H   0  0  0  0  0
   24.6854   40.8068   58.9428 H   0  0  0  0  0
   22.9903   38.1913   56.5957 H   0  0  0  0  0
   24.9553   36.5128   57.8964 H   0  0  0  0  0
   23.3664   34.6405   57.2757 H   0  0  0  0  0
   22.3435   35.9153   56.4646 H   0  0  0  0  0
   20.8494   37.2065   57.6948 H   0  0  0  0  0
   23.7427   34.7887   59.7345 H   0  0  0  0  0
   19.7300   37.6928   59.8404 H   0  0  0  0  0
   22.6250   35.2546   61.8915 H   0  0  0  0  0
   20.6086   36.7006   61.9510 H   0  0  0  0  0
   24.5873   37.4886   54.6634 H   0  0  0  0  0
   25.3815   36.5057   52.6739 H   0  0  0  0  0
   26.0575   35.1284   53.6365 H   0  0  0  0  0
   26.9983   37.5846   55.4034 H   0  0  0  0  0
   29.2068   38.6219   53.7744 H   0  0  0  0  0
   29.8900   39.6003   56.0550 H   0  0  0  0  0
   28.2240   39.0690   56.5577 H   0  0  0  0  0
   27.3804   40.3652   54.5799 H   0  0  0  0  0
   29.0380   41.0842   54.4742 H   0  0  0  0  0
   28.7927   42.2453   56.4489 H   0  0  0  0  0
   27.5037   41.1490   57.0535 H   0  0  0  0  0
   26.6534   42.5447   54.6874 H   0  0  0  0  0
   25.9807   44.3297   58.2662 H   0  0  0  0  0
   27.1872   43.0427   58.1713 H   0  0  0  0  0
   25.1304   44.1577   54.8457 H   0  0  0  0  0
   30.6085   35.8981   56.5997 H   0  0  0  0  0
   29.1182   36.7949   56.9095 H   0  0  0  0  0
  1  2  1  0  0  0
  2  3  2  0  0  0
  2  4  1  0  0  0
  4  5  1  0  0  0
  5  6  1  0  0  0
  5  8  1  0  0  0
  6  7  2  0  0  0
  6 11  1  0  0  0
  8  9  1  0  0  0
  8 10  1  0  0  0
 11 12  1  0  0  0
 12 13  1  0  0  0
 12 15  1  0  0  0
 13 14  2  0  0  0
 13 20  1  0  0  0
 15 16  1  0  0  0
 16 17  1  0  0  0
 17 18  2  0  0  0
 17 19  1  0  0  0
 20 21  1  0  0  0
 21 22  1  0  0  0
 22 23  2  0  0  0
 22 24  1  0  0  0
 24 25  1  0  0  0
 25 26  1  0  0  0
 25 28  1  0  0  0
 26 27  2  0  0  0
 26 30  1  0  0  0
 28 29  1  0  0  0
 30 31  1  0  0  0
 31 32  1  0  0  0
 32 33  2  0  0  0
 32 34  1  0  0  0
 34 35  1  0  0  0
 35 36  1  0  0  0
 35 38  1  0  0  0
 36 37  2  0  0  0
 36 39  1  0  0  0
 39 40  1  0  0  0
 40 41  1  0  0  0
 40 43  1  0  0  0
 41 42  2  0  0  0
 41 50  1  0  0  0
 43 44  1  0  0  0
 44 45  4  0  0  0
 44 46  4  0  0  0
 45 47  4  0  0  0
 46 48  4  0  0  0
 47 49  4  0  0  0
 48 49  4  0  0  0
 50 51  1  0  0  0
 51 52  1  0  0  0
 52 53  2  0  0  0
 52 54  1  0  0  0
 54 55  1  0  0  0
 55 56  1  0  0  0
 55 58  1  0  0  0
 56 57  2  0  0  0
 56 65  1  0  0  0
 58 59  1  0  0  0
 59 60  1  0  0  0
 60 61  1  0  0  0
 61 62  1  0  0  0
 62 63  1  0  0  0
 62 64  2  0  0  0
  1 66  1  0  0  0
  1 67  1  0  0  0
  1 68  1  0  0  0
  4 69  1  0  0  0
  5 70  1  0  0  0
  8 71  1  0  0  0
  9 72  1  0  0  0
  9 73  1  0  0  0
  9 74  1  0  0  0
 10 75  1  0  0  0
 10 76  1  0  0  0
 10 77  1  0  0  0
 11 78  1  0  0  0
 12 79  1  0  0  0
 15 80  1  0  0  0
 15 81  1  0  0  0
 16 82  1  0  0  0
 16 83  1  0  0  0
 19 84  1  0  0  0
 19 85  1  0  0  0
 20 86  1  0  0  0
 21 87  1  0  0  0
 21 88  1  0  0  0
 24 89  1  0  0  0
 25 90  1  0  0  0
 28 91  1  0  0  0
 28 92  1  0  0  0
 29 93  1  0  0  0
 30 94  1  0  0  0
 31 95  1  0  0  0
 31 96  1  0  0  0
 34 97  1  0  0  0
 35 98  1  0  0  0
 38 99  1  0  0  0
 38100  1  0  0  0
 38101  1  0  0  0
 39102  1  0  0  0
 40103  1  0  0  0
 43104  1  0  0  0
 43105  1  0  0  0
 45106  1  0  0  0
 46107  1  0  0  0
 47108  1  0  0  0
 48109  1  0  0  0
 49110  1  0  0  0
 50111  1  0  0  0
 51112  1  0  0  0
 51113  1  0  0  0
 54114  1  0  0  0
 55115  1  0  0  0
 58116  1  0  0  0
 58117  1  0  0  0
 59118  1  0  0  0
 59119  1  0  0  0
 60120  1  0  0  0
 60121  1  0  0  0
 61122  1  0  0  0
 63123  1  0  0  0
 63124  1  0  0  0
 64125  1  0  0  0
 65126  1  0  0  0
 65127  1  0  0  0
M  END
$$$$
