3zim_ligand
  -I-interpret- 

 78 83  0  0  0  0  0  0  0  0999 V2000
  -32.9380   13.8670   29.8170 C   0  0  0  0  0
  -31.9860   14.1480   28.6810 C   0  0  0  0  0
  -32.2180   13.1580   27.5670 C   0  0  0  0  0
  -30.5310   14.1240   29.1460 C   0  0  0  0  0
  -30.1170   12.8240   29.6890 C   0  0  0  0  0
  -30.4370   12.4920   30.8120 O   0  0  0  0  0
  -29.2530   11.9050   28.8690 C   0  0  0  0  0
  -27.8030   12.1540   29.2930 C   0  0  0  0  0
  -26.7830   11.4290   28.4370 C   0  0  0  0  0
  -27.1790   10.6970   27.5490 O   0  0  0  0  0
  -25.4400   11.5830   28.6580 N   0  0  0  0  0
  -24.8800   12.4650   29.7100 C   0  0  0  0  0
  -23.9560   11.6460   30.6120 C   0  0  0  0  0
  -22.8530   11.1330   29.7860 N   0  3  0  0  0
  -23.3700   10.2110   28.7490 C   0  0  0  0  0
  -24.4080   10.8990   27.8370 C   0  0  0  0  0
  -21.8360   10.5040   30.6420 C   0  0  0  0  0
  -20.4810   10.4920   29.9850 C   0  0  0  0  0
  -20.0660    9.5450   29.1660 C   0  0  0  0  0
  -18.7800    9.6940   28.6790 C   0  0  0  0  0
  -18.1230    8.8400   27.8160 N   0  0  0  0  0
  -16.8650    9.1070   27.3780 C   0  0  0  0  0
  -16.2600   10.2110   27.8290 N   0  0  0  0  0
  -16.7870   11.0860   28.7100 C   0  0  0  0  0
  -18.1240   10.8300   29.1570 C   0  0  0  0  0
  -19.2580   11.6480   30.2310 S   0  0  0  0  0
  -16.0240   12.1750   29.1650 N   0  0  0  0  0
  -16.6200   13.3890   29.7940 C   0  0  0  0  0
  -15.7550   14.6630   29.8020 C   0  0  0  0  0
  -14.3760   14.3480   29.8520 O   0  0  0  0  0
  -13.9680   13.4730   28.8050 C   0  0  0  0  0
  -14.5440   12.1000   29.1570 C   0  0  0  0  0
  -16.2080    8.1790   26.4100 C   0  0  0  0  0
  -16.8330    6.9950   25.9660 C   0  0  0  0  0
  -16.2190    6.1240   25.0760 C   0  0  0  0  0
  -15.0010    6.3850   24.5330 C   0  0  0  0  0
  -14.3170    7.5500   24.8820 C   0  0  0  0  0
  -13.1470    8.0560   24.5160 N   0  0  0  0  0
  -12.9460    9.1720   25.1070 N   0  0  0  0  0
  -13.9410    9.4790   25.9110 C   0  0  0  0  0
  -14.8840    8.4600   25.8300 C   0  0  0  0  0
  -32.7255   12.8818   30.2322 H   0  0  0  0  0
  -32.8115   14.6239   30.5911 H   0  0  0  0  0
  -33.9625   13.8929   29.4457 H   0  0  0  0  0
  -32.1822   15.1531   28.3077 H   0  0  0  0  0
  -31.5775   13.4080   26.7212 H   0  0  0  0  0
  -31.9811   12.1542   27.9196 H   0  0  0  0  0
  -33.2625   13.1989   27.2580 H   0  0  0  0  0
  -30.4268   14.8619   29.9415 H   0  0  0  0  0
  -29.9043   14.3340   28.2792 H   0  0  0  0  0
  -29.3823   12.1026   27.8049 H   0  0  0  0  0
  -29.5300   10.8643   29.0372 H   0  0  0  0  0
  -27.6940   11.7840   30.3125 H   0  0  0  0  0
  -27.6130   13.2224   29.1908 H   0  0  0  0  0
  -25.6908   12.8875   30.3035 H   0  0  0  0  0
  -24.3161   13.2748   29.2470 H   0  0  0  0  0
  -24.5052   10.8193   31.0626 H   0  0  0  0  0
  -23.5658   12.2692   31.4167 H   0  0  0  0  0
  -22.4032   11.9068   29.2967 H   0  0  0  0  0
  -23.8547    9.3715   29.2475 H   0  0  0  0  0
  -22.5329    9.8859   28.1312 H   0  0  0  0  0
  -23.9019   11.6363   27.2138 H   0  0  0  0  0
  -24.8899   10.1457   27.2138 H   0  0  0  0  0
  -22.1354    9.4726   30.8281 H   0  0  0  0  0
  -21.7635   11.0779   31.5659 H   0  0  0  0  0
  -20.6961    8.6993   28.8906 H   0  0  0  0  0
  -16.7854   13.1331   30.8406 H   0  0  0  0  0
  -17.5025   13.6303   29.2015 H   0  0  0  0  0
  -16.0092   15.2495   30.6849 H   0  0  0  0  0
  -15.9505   15.2209   28.8862 H   0  0  0  0  0
  -12.8819   13.4365   28.7208 H   0  0  0  0  0
  -14.3315   13.8180   27.8371 H   0  0  0  0  0
  -14.2204   11.3686   28.4164 H   0  0  0  0  0
  -14.1893   11.7981   30.1425 H   0  0  0  0  0
  -17.8309    6.7560   26.3337 H   0  0  0  0  0
  -16.7307    5.2008   24.8040 H   0  0  0  0  0
  -14.5584    5.6844   23.8249 H   0  0  0  0  0
  -14.0134   10.3730   26.5304 H   0  0  0  0  0
  1  2  1  0  0  0
  2  3  1  0  0  0
  2  4  1  0  0  0
  4  5  1  0  0  0
  5  6  2  0  0  0
  5  7  1  0  0  0
  7  8  1  0  0  0
  8  9  1  0  0  0
  9 10  2  0  0  0
  9 11  1  0  0  0
 11 12  1  0  0  0
 11 16  1  0  0  0
 12 13  1  0  0  0
 13 14  1  0  0  0
 14 15  1  0  0  0
 14 17  1  0  0  0
 15 16  1  0  0  0
 17 18  1  0  0  0
 18 19  4  0  0  0
 18 26  4  0  0  0
 19 20  4  0  0  0
 20 21  4  0  0  0
 20 25  4  0  0  0
 21 22  4  0  0  0
 22 23  4  0  0  0
 22 33  1  0  0  0
 23 24  4  0  0  0
 24 25  4  0  0  0
 24 27  1  0  0  0
 25 26  4  0  0  0
 27 28  1  0  0  0
 27 32  1  0  0  0
 28 29  1  0  0  0
 29 30  1  0  0  0
 30 31  1  0  0  0
 31 32  1  0  0  0
 33 34  4  0  0  0
 33 41  4  0  0  0
 34 35  4  0  0  0
 35 36  4  0  0  0
 36 37  4  0  0  0
 37 38  4  0  0  0
 37 41  4  0  0  0
 38 39  4  0  0  0
 39 40  4  0  0  0
 40 41  4  0  0  0
  1 42  1  0  0  0
  1 43  1  0  0  0
  1 44  1  0  0  0
  2 45  1  0  0  0
  3 46  1  0  0  0
  3 47  1  0  0  0
  3 48  1  0  0  0
  4 49  1  0  0  0
  4 50  1  0  0  0
  7 51  1  0  0  0
  7 52  1  0  0  0
  8 53  1  0  0  0
  8 54  1  0  0  0
 12 55  1  0  0  0
 12 56  1  0  0  0
 13 57  1  0  0  0
 13 58  1  0  0  0
 14 59  1  0  0  0
 15 60  1  0  0  0
 15 61  1  0  0  0
 16 62  1  0  0  0
 16 63  1  0  0  0
 17 64  1  0  0  0
 17 65  1  0  0  0
 19 66  1  0  0  0
 28 67  1  0  0  0
 28 68  1  0  0  0
 29 69  1  0  0  0
 29 70  1  0  0  0
 31 71  1  0  0  0
 31 72  1  0  0  0
 32 73  1  0  0  0
 32 74  1  0  0  0
 34 75  1  0  0  0
 35 76  1  0  0  0
 36 77  1  0  0  0
 40 78  1  0  0  0
M  END
$$$$
