4hy0_ligand
  -I-interpret- 

 90 94  0  0  0  0  0  0  0  0999 V2000
   -0.5860    1.0650  -35.5510 N   0  3  0  0  0
   -0.2600   -0.3650  -35.3670 C   0  0  0  0  0
   -0.8190    1.7640  -34.2770 C   0  0  0  0  0
   -0.8940    3.2770  -34.4810 C   0  0  0  0  0
   -2.1150    1.2870  -33.6820 C   0  0  0  0  0
   -3.1210    1.2180  -34.3460 O   0  0  0  0  0
   -3.7440    1.6040  -30.8120 C   0  0  0  0  0
   -2.8940    2.3680  -30.4040 O   0  0  0  0  0
   -3.2610    0.4440  -31.6520 C   0  0  0  0  0
   -2.1060    0.9380  -32.3920 N   0  0  0  0  0
   -2.6380   -0.7250  -30.8870 C   0  0  0  0  0
   -3.2880   -1.1050  -29.5580 C   0  0  0  0  0
   -2.2940   -2.0640  -28.8800 C   0  0  0  0  0
   -1.9300   -3.2640  -29.7840 C   0  0  0  0  0
   -0.8660   -3.9690  -29.2260 F   0  0  0  0  0
   -3.0350   -4.1100  -29.8740 F   0  0  0  0  0
   -1.5130   -2.8730  -31.2030 C   0  0  0  0  0
   -2.5900   -1.9630  -31.7900 C   0  0  0  0  0
  -11.1230   -1.6940  -28.9500 C   0  0  0  0  0
  -11.4560   -0.2230  -29.2390 C   0  0  0  0  0
  -10.3180    0.6050  -28.9410 O   0  0  0  0  0
   -9.7770    1.3780  -30.0270 C   0  0  0  0  0
   -8.6680    0.5900  -30.7870 C   0  0  0  0  0
   -7.5250    1.6170  -30.9320 C   0  0  0  0  0
   -6.1410    0.9540  -30.9850 C   0  0  0  0  0
   -5.0520    1.8590  -30.5190 N   0  0  0  0  0
   -5.3330    3.0550  -29.6980 C   0  0  0  0  0
   -6.7840    3.5530  -29.8050 C   0  0  0  0  0
   -7.6410    2.4010  -29.6760 N   0  3  0  0  0
   -9.0710    2.6360  -29.4700 C   0  0  0  0  0
   -5.0590    2.7500  -28.2590 C   0  0  0  0  0
   -4.9910    1.5980  -27.8890 O   0  0  0  0  0
   -4.9000    3.7880  -27.4160 N   0  0  0  0  0
   -4.6400    3.5980  -25.9890 C   0  0  0  0  0
   -6.0100    3.4290  -25.3180 C   0  0  0  0  0
   -5.9720    3.9200  -23.8650 C   0  0  0  0  0
   -5.5330    5.2810  -23.8350 O   0  0  0  0  0
   -4.3300    5.5540  -24.4030 C   0  0  0  0  0
   -3.5870    6.6290  -23.9200 C   0  0  0  0  0
   -2.3660    6.9270  -24.4920 C   0  0  0  0  0
   -1.8870    6.1510  -25.5380 C   0  0  0  0  0
   -2.6220    5.0800  -26.0170 C   0  0  0  0  0
   -3.8540    4.7790  -25.4520 C   0  0  0  0  0
   -1.4434    1.1222  -36.1005 H   0  0  0  0  0
    0.2079    1.5101  -36.0114 H   0  0  0  0  0
    0.6447   -0.4557  -34.7659 H   0  0  0  0  0
   -1.0865   -0.8623  -34.8593 H   0  0  0  0  0
   -0.0987   -0.8278  -36.3406 H   0  0  0  0  0
    0.0141    1.5452  -33.6090 H   0  0  0  0  0
   -1.7176    3.5110  -35.1555 H   0  0  0  0  0
   -1.0600    3.7641  -33.5201 H   0  0  0  0  0
    0.0423    3.6310  -34.9123 H   0  0  0  0  0
   -4.1395    0.1025  -32.1994 H   0  0  0  0  0
   -1.2241    1.0237  -31.8867 H   0  0  0  0  0
   -1.6461   -0.3635  -30.6159 H   0  0  0  0  0
   -4.2606   -1.5741  -29.7065 H   0  0  0  0  0
   -3.4834   -0.2277  -28.9414 H   0  0  0  0  0
   -2.7609   -2.4513  -27.9744 H   0  0  0  0  0
   -1.3796   -1.5099  -28.6679 H   0  0  0  0  0
   -1.4038   -3.7659  -31.8185 H   0  0  0  0  0
   -0.5564   -2.3509  -31.1796 H   0  0  0  0  0
   -2.3579   -1.6910  -32.8197 H   0  0  0  0  0
   -3.5566   -2.4657  -31.8213 H   0  0  0  0  0
  -10.2810   -2.0031  -29.5694 H   0  0  0  0  0
  -10.8620   -1.8061  -27.8977 H   0  0  0  0  0
  -11.9904   -2.3132  -29.1785 H   0  0  0  0  0
  -12.2965    0.0840  -28.6166 H   0  0  0  0  0
  -11.7141   -0.1133  -30.2923 H   0  0  0  0  0
  -10.6103    1.6194  -30.6869 H   0  0  0  0  0
   -9.0119    0.2114  -31.7495 H   0  0  0  0  0
   -8.3556   -0.3078  -30.2537 H   0  0  0  0  0
   -7.6090    2.1956  -31.8519 H   0  0  0  0  0
   -5.9358    0.6896  -32.0224 H   0  0  0  0  0
   -6.1600    0.0860  -30.3260 H   0  0  0  0  0
   -4.6827    3.8411  -30.0817 H   0  0  0  0  0
   -6.9498    4.0495  -30.7611 H   0  0  0  0  0
   -6.9987    4.2806  -29.0223 H   0  0  0  0  0
   -7.3156    1.9394  -28.8266 H   0  0  0  0  0
   -9.3037    2.7928  -28.4167 H   0  0  0  0  0
   -9.4055    3.5409  -29.9772 H   0  0  0  0  0
   -4.9629    4.7371  -27.7842 H   0  0  0  0  0
   -4.0308    2.7173  -25.7857 H   0  0  0  0  0
   -6.2753    2.3718  -25.3240 H   0  0  0  0  0
   -6.7446    4.0173  -25.8678 H   0  0  0  0  0
   -5.2823    3.3022  -23.2899 H   0  0  0  0  0
   -6.9692    3.8495  -23.4307 H   0  0  0  0  0
   -3.9674    7.2315  -23.0951 H   0  0  0  0  0
   -1.7803    7.7690  -24.1231 H   0  0  0  0  0
   -0.9223    6.3871  -25.9870 H   0  0  0  0  0
   -2.2342    4.4743  -26.8361 H   0  0  0  0  0
  1  2  1  0  0  0
  3  1  1  0  0  0
  3  4  1  0  0  0
  5  3  1  0  0  0
  5  6  2  0  0  0
 10  5  1  0  0  0
  7  8  2  0  0  0
  7  9  1  0  0  0
 26  7  1  0  0  0
  9 10  1  0  0  0
  9 11  1  0  0  0
 11 12  1  0  0  0
 11 18  1  0  0  0
 12 13  1  0  0  0
 13 14  1  0  0  0
 14 15  1  0  0  0
 14 16  1  0  0  0
 17 14  1  0  0  0
 18 17  1  0  0  0
 20 19  1  0  0  0
 21 20  1  0  0  0
 22 21  1  0  0  0
 23 22  1  0  0  0
 22 30  1  0  0  0
 24 23  1  0  0  0
 25 24  1  0  0  0
 24 29  1  0  0  0
 25 26  1  0  0  0
 26 27  1  0  0  0
 27 28  1  0  0  0
 27 31  1  0  0  0
 28 29  1  0  0  0
 29 30  1  0  0  0
 31 32  2  0  0  0
 31 33  1  0  0  0
 33 34  1  0  0  0
 34 35  1  0  0  0
 34 43  1  0  0  0
 35 36  1  0  0  0
 36 37  1  0  0  0
 37 38  1  0  0  0
 38 39  4  0  0  0
 38 43  4  0  0  0
 39 40  4  0  0  0
 40 41  4  0  0  0
 41 42  4  0  0  0
 42 43  4  0  0  0
  1 44  1  0  0  0
  1 45  1  0  0  0
  2 46  1  0  0  0
  2 47  1  0  0  0
  2 48  1  0  0  0
  3 49  1  0  0  0
  4 50  1  0  0  0
  4 51  1  0  0  0
  4 52  1  0  0  0
  9 53  1  0  0  0
 10 54  1  0  0  0
 11 55  1  0  0  0
 12 56  1  0  0  0
 12 57  1  0  0  0
 13 58  1  0  0  0
 13 59  1  0  0  0
 17 60  1  0  0  0
 17 61  1  0  0  0
 18 62  1  0  0  0
 18 63  1  0  0  0
 19 64  1  0  0  0
 19 65  1  0  0  0
 19 66  1  0  0  0
 20 67  1  0  0  0
 20 68  1  0  0  0
 22 69  1  0  0  0
 23 70  1  0  0  0
 23 71  1  0  0  0
 24 72  1  0  0  0
 25 73  1  0  0  0
 25 74  1  0  0  0
 27 75  1  0  0  0
 28 76  1  0  0  0
 28 77  1  0  0  0
 29 78  1  0  0  0
 30 79  1  0  0  0
 30 80  1  0  0  0
 33 81  1  0  0  0
 34 82  1  0  0  0
 35 83  1  0  0  0
 35 84  1  0  0  0
 36 85  1  0  0  0
 36 86  1  0  0  0
 39 87  1  0  0  0
 40 88  1  0  0  0
 41 89  1  0  0  0
 42 90  1  0  0  0
M  END
$$$$
