4tk3_ligand
  -I-interpret- 

145147  0  0  0  0  0  0  0  0999 V2000
  251.4240  195.3280  101.1200 N   0  3  0  0  0
  252.6020  195.2130  101.9710 C   0  0  0  0  0
  253.3660  196.5270  102.0670 C   0  0  0  0  0
  253.5690  197.2170  101.0680 O   0  0  0  0  0
  253.5340  194.1150  101.4540 C   0  0  0  0  0
  254.8870  194.1130  102.1100 C   0  0  0  0  0
  255.0680  193.5240  103.3510 C   0  0  0  0  0
  255.9770  194.7020  101.4870 C   0  0  0  0  0
  256.3100  193.5220  103.9600 C   0  0  0  0  0
  257.2210  194.7050  102.0920 C   0  0  0  0  0
  257.3880  194.1120  103.3290 C   0  0  0  0  0
  253.7960  196.8600  103.2790 N   0  0  0  0  0
  254.6250  198.0360  103.5050 C   0  0  0  0  0
  255.5530  197.8130  104.6920 C   0  0  0  0  0
  255.1430  197.2760  105.7200 O   0  0  0  0  0
  253.7580  199.2750  103.7360 C   0  0  0  0  0
  254.5610  200.4220  103.9580 O   0  0  0  0  0
  256.8060  198.2250  104.5430 N   0  0  0  0  0
  257.7830  198.0920  105.6150 C   0  0  0  0  0
  257.6200  199.2440  106.6050 C   0  0  0  0  0
  258.2570  199.2750  107.6590 O   0  0  0  0  0
  259.2240  198.0590  105.0640 C   0  0  0  0  0
  260.1610  197.3390  106.0370 C   0  0  0  0  0
  259.7080  199.4630  104.7300 C   0  0  0  0  0
  259.8640  195.8660  106.1820 C   0  0  0  0  0
  256.7550  200.1890  106.2530 N   0  0  0  0  0
  256.4090  201.2980  107.1340 C   0  0  0  0  0
  255.0720  201.0190  107.8130 C   0  0  0  0  0
  254.1250  200.5680  107.1660 O   0  0  0  0  0
  256.3350  202.6320  106.3600 C   0  0  0  0  0
  255.8820  203.7640  107.2700 C   0  0  0  0  0
  257.6810  202.9540  105.7320 C   0  0  0  0  0
  255.0030  201.2760  109.1160 N   0  0  0  0  0
  253.7920  201.0430  109.8850 C   0  0  0  0  0
  252.5730  201.7620  109.3380 C   0  0  0  0  0
  252.6150  202.9640  109.0780 O   0  0  0  0  0
  251.4860  201.0180  109.1610 N   0  0  0  0  0
  250.2490  201.5740  108.6240 C   0  0  0  0  0
  249.2990  201.9540  109.7550 C   0  0  0  0  0
  249.5260  201.6000  110.9120 O   0  0  0  0  0
  249.5480  200.5800  107.6740 C   0  0  0  0  0
  250.5240  199.7180  107.0760 O   0  0  0  0  0
  248.7900  201.3180  106.5770 C   0  0  0  0  0
  248.2380  202.6770  109.4150 N   0  0  0  0  0
  247.2760  203.1450  110.4040 C   0  0  0  0  0
  245.8400  202.8680  109.9790 C   0  0  0  0  0
  245.5650  202.6130  108.8060 O   0  0  0  0  0
  247.4560  204.6440  110.6520 C   0  0  0  0  0
  247.9830  205.0660  112.0230 C   0  0  0  0  0
  248.1170  206.5790  112.0960 C   0  0  0  0  0
  247.0780  204.5500  113.1300 C   0  0  0  0  0
  244.9300  202.9190  110.9460 N   0  0  0  0  0
  243.5030  202.8220  110.6710 C   0  0  0  0  0
  242.6940  203.3620  111.8440 C   0  0  0  0  0
  242.7050  202.7830  112.9300 O   0  0  0  0  0
  243.0970  201.3780  110.3670 C   0  0  0  0  0
  242.5700  201.1880  108.9620 C   0  0  0  0  0
  242.3790  202.2770  108.1190 C   0  0  0  0  0
  242.2590  199.9240  108.4780 C   0  0  0  0  0
  241.8990  202.1120  106.8340 C   0  0  0  0  0
  241.7770  199.7490  107.1930 C   0  0  0  0  0
  241.5990  200.8470  106.3770 C   0  0  0  0  0
  241.1190  200.6800  105.0980 O   0  0  0  0  0
  241.9940  204.4840  111.6210 N   0  0  0  0  0
  241.1290  205.1330  112.6140 C   0  0  0  0  0
  240.0700  204.1910  113.1790 C   0  0  0  0  0
  239.0300  204.6710  113.6290 O   0  0  0  0  0
  240.4720  206.2710  111.8200 C   0  0  0  0  0
  240.6890  205.9260  110.3740 C   0  0  0  0  0
  241.9950  205.2100  110.3410 C   0  0  0  0  0
  240.2568  202.9449  113.1847 O   0  0  0  0  0
  250.8162  196.0636  101.4803 H   0  0  0  0  0
  251.7137  195.5597  100.1699 H   0  0  0  0  0
  250.9207  194.4408  101.1165 H   0  0  0  0  0
  252.2502  194.9524  102.9692 H   0  0  0  0  0
  253.6879  194.2923  100.3896 H   0  0  0  0  0
  253.0632  193.1570  101.6746 H   0  0  0  0  0
  254.2213  193.0565  103.8536 H   0  0  0  0  0
  255.8521  195.1679  100.5095 H   0  0  0  0  0
  256.4380  193.0554  104.9367 H   0  0  0  0  0
  258.0689  195.1747  101.5934 H   0  0  0  0  0
  258.3682  194.1098  103.8058 H   0  0  0  0  0
  253.5382  196.2754  104.0741 H   0  0  0  0  0
  255.2305  198.2014  102.6139 H   0  0  0  0  0
  253.1359  199.1078  104.6153 H   0  0  0  0  0
  253.1449  199.4431  102.8506 H   0  0  0  0  0
  253.9954  201.1846  104.1000 H   0  0  0  0  0
  257.0910  198.6442  103.6579 H   0  0  0  0  0
  257.6035  197.1460  106.1259 H   0  0  0  0  0
  259.2285  197.4899  104.1344 H   0  0  0  0  0
  260.0298  197.7973  107.0172 H   0  0  0  0  0
  261.1738  197.4316  105.6449 H   0  0  0  0  0
  259.0535  199.9020  103.9770 H   0  0  0  0  0
  259.6899  200.0761  105.6310 H   0  0  0  0  0
  260.7260  199.4127  104.3436 H   0  0  0  0  0
  258.8469  195.7364  106.5519 H   0  0  0  0  0
  259.9640  195.3793  105.2118 H   0  0  0  0  0
  260.5675  195.4225  106.8866 H   0  0  0  0  0
  256.3172  200.1368  105.3332 H   0  0  0  0  0
  257.1922  201.3887  107.8866 H   0  0  0  0  0
  255.5977  202.5254  105.5643 H   0  0  0  0  0
  254.8939  203.5346  107.6688 H   0  0  0  0  0
  256.5902  203.8738  108.0913 H   0  0  0  0  0
  255.8385  204.6918  106.6996 H   0  0  0  0  0
  258.4349  203.0378  106.5147 H   0  0  0  0  0
  257.9586  202.1570  105.0422 H   0  0  0  0  0
  257.6114  203.8973  105.1903 H   0  0  0  0  0
  255.8256  201.6482  109.5904 H   0  0  0  0  0
  253.9682  201.4209  110.8921 H   0  0  0  0  0
  253.5833  199.9738  109.8476 H   0  0  0  0  0
  251.5177  200.0289  109.4080 H   0  0  0  0  0
  250.5123  202.4662  108.0559 H   0  0  0  0  0
  248.8370  199.9930  108.2553 H   0  0  0  0  0
  250.0854  199.1009  106.4857 H   0  0  0  0  0
  248.0361  201.9628  107.0287 H   0  0  0  0  0
  249.4882  201.9231  105.9987 H   0  0  0  0  0
  248.3055  200.5941  105.9218 H   0  0  0  0  0
  248.0925  202.9114  108.4330 H   0  0  0  0  0
  247.4668  202.5936  111.3247 H   0  0  0  0  0
  246.4600  205.0794  110.5707 H   0  0  0  0  0
  248.2043  204.9756  109.9321 H   0  0  0  0  0
  248.9705  204.6263  112.1631 H   0  0  0  0  0
  248.8118  206.9184  111.3278 H   0  0  0  0  0
  247.1414  207.0371  111.9334 H   0  0  0  0  0
  248.4935  206.8621  113.0790 H   0  0  0  0  0
  246.0755  204.9568  112.9973 H   0  0  0  0  0
  247.0384  203.4616  113.0874 H   0  0  0  0  0
  247.4735  204.8629  114.0963 H   0  0  0  0  0
  245.2406  203.0296  111.9112 H   0  0  0  0  0
  243.2902  203.4277  109.7901 H   0  0  0  0  0
  242.2983  201.1079  111.0578 H   0  0  0  0  0
  243.9863  200.7566  110.4722 H   0  0  0  0  0
  242.6122  203.2792  108.4785 H   0  0  0  0  0
  242.3970  199.0550  109.1214 H   0  0  0  0  0
  241.7585  202.9770  106.1858 H   0  0  0  0  0
  241.5394  198.7499  106.8277 H   0  0  0  0  0
  240.9610  199.7471  104.9360 H   0  0  0  0  0
  241.6923  205.4694  113.4844 H   0  0  0  0  0
  240.9086  207.2378  112.0706 H   0  0  0  0  0
  239.4115  206.3625  112.0548 H   0  0  0  0  0
  240.6994  206.8151  109.7435 H   0  0  0  0  0
  239.8805  205.3105  109.9796 H   0  0  0  0  0
  242.0994  204.5527  109.4778 H   0  0  0  0  0
  242.8469  205.8812  110.2319 H   0  0  0  0  0
  241.1138  202.7492  112.7990 H   0  0  0  0  0
  1  2  1  0  0  0
  2  3  1  0  0  0
  2  5  1  0  0  0
  3  4  2  0  0  0
  3 12  1  0  0  0
  5  6  1  0  0  0
  6  7  4  0  0  0
  6  8  4  0  0  0
  7  9  4  0  0  0
  8 10  4  0  0  0
  9 11  4  0  0  0
 10 11  4  0  0  0
 12 13  1  0  0  0
 13 14  1  0  0  0
 13 16  1  0  0  0
 14 15  2  0  0  0
 14 18  1  0  0  0
 16 17  1  0  0  0
 18 19  1  0  0  0
 19 20  1  0  0  0
 19 22  1  0  0  0
 20 21  2  0  0  0
 20 26  1  0  0  0
 22 23  1  0  0  0
 22 24  1  0  0  0
 23 25  1  0  0  0
 26 27  1  0  0  0
 27 28  1  0  0  0
 27 30  1  0  0  0
 28 29  2  0  0  0
 28 33  1  0  0  0
 30 31  1  0  0  0
 30 32  1  0  0  0
 33 34  1  0  0  0
 34 35  1  0  0  0
 35 36  2  0  0  0
 35 37  1  0  0  0
 37 38  1  0  0  0
 38 39  1  0  0  0
 38 41  1  0  0  0
 39 40  2  0  0  0
 39 44  1  0  0  0
 41 42  1  0  0  0
 41 43  1  0  0  0
 44 45  1  0  0  0
 45 46  1  0  0  0
 45 48  1  0  0  0
 46 47  2  0  0  0
 46 52  1  0  0  0
 48 49  1  0  0  0
 49 50  1  0  0  0
 49 51  1  0  0  0
 52 53  1  0  0  0
 53 54  1  0  0  0
 53 56  1  0  0  0
 54 55  2  0  0  0
 54 64  1  0  0  0
 56 57  1  0  0  0
 57 58  4  0  0  0
 57 59  4  0  0  0
 58 60  4  0  0  0
 59 61  4  0  0  0
 60 62  4  0  0  0
 61 62  4  0  0  0
 62 63  1  0  0  0
 64 65  1  0  0  0
 64 70  1  0  0  0
 65 66  1  0  0  0
 65 68  1  0  0  0
 66 67  2  0  0  0
 68 69  1  0  0  0
 69 70  1  0  0  0
 66 71  1  0  0  0
  1 72  1  0  0  0
  1 73  1  0  0  0
  1 74  1  0  0  0
  2 75  1  0  0  0
  5 76  1  0  0  0
  5 77  1  0  0  0
  7 78  1  0  0  0
  8 79  1  0  0  0
  9 80  1  0  0  0
 10 81  1  0  0  0
 11 82  1  0  0  0
 12 83  1  0  0  0
 13 84  1  0  0  0
 16 85  1  0  0  0
 16 86  1  0  0  0
 17 87  1  0  0  0
 18 88  1  0  0  0
 19 89  1  0  0  0
 22 90  1  0  0  0
 23 91  1  0  0  0
 23 92  1  0  0  0
 24 93  1  0  0  0
 24 94  1  0  0  0
 24 95  1  0  0  0
 25 96  1  0  0  0
 25 97  1  0  0  0
 25 98  1  0  0  0
 26 99  1  0  0  0
 27100  1  0  0  0
 30101  1  0  0  0
 31102  1  0  0  0
 31103  1  0  0  0
 31104  1  0  0  0
 32105  1  0  0  0
 32106  1  0  0  0
 32107  1  0  0  0
 33108  1  0  0  0
 34109  1  0  0  0
 34110  1  0  0  0
 37111  1  0  0  0
 38112  1  0  0  0
 41113  1  0  0  0
 42114  1  0  0  0
 43115  1  0  0  0
 43116  1  0  0  0
 43117  1  0  0  0
 44118  1  0  0  0
 45119  1  0  0  0
 48120  1  0  0  0
 48121  1  0  0  0
 49122  1  0  0  0
 50123  1  0  0  0
 50124  1  0  0  0
 50125  1  0  0  0
 51126  1  0  0  0
 51127  1  0  0  0
 51128  1  0  0  0
 52129  1  0  0  0
 53130  1  0  0  0
 56131  1  0  0  0
 56132  1  0  0  0
 58133  1  0  0  0
 59134  1  0  0  0
 60135  1  0  0  0
 61136  1  0  0  0
 63137  1  0  0  0
 65138  1  0  0  0
 68139  1  0  0  0
 68140  1  0  0  0
 69141  1  0  0  0
 69142  1  0  0  0
 70143  1  0  0  0
 70144  1  0  0  0
 71145  1  0  0  0
M  END
$$$$
