### 
### Created by X-TOOL on Mon Sep 10 21:13:20 2018
### 

@<TRIPOS>MOLECULE
4tk3_ligand
  144   146     1     0     0
SMALL
GAST_HUCK


@<TRIPOS>ATOM
      1 N         251.4240  195.3280  101.1200 N.4       1 PHE         0.2394
      2 CA        252.6020  195.2130  101.9710 C.3       1 PHE         0.0744
      3 C         253.3660  196.5270  102.0670 C.2       1 PHE         0.2288
      4 O         253.5690  197.2170  101.0680 O.2       1 PHE        -0.3905
      5 CB        253.5340  194.1150  101.4540 C.3       1 PHE         0.0416
      6 CG        254.8870  194.1130  102.1100 C.ar      1 PHE        -0.0353
      7 CD1       255.0680  193.5240  103.3510 C.ar      1 PHE        -0.0600
      8 CD2       255.9770  194.7020  101.4870 C.ar      1 PHE        -0.0600
      9 CE1       256.3100  193.5220  103.9600 C.ar      1 PHE        -0.0686
     10 CE2       257.2210  194.7050  102.0920 C.ar      1 PHE        -0.0686
     11 CZ        257.3880  194.1120  103.3290 C.ar      1 PHE        -0.0687
     12 N         253.7960  196.8600  103.2790 N.am      1 SER        -0.2587
     13 CA        254.6250  198.0360  103.5050 C.3       1 SER         0.1540
     14 C         255.5530  197.8130  104.6920 C.2       1 SER         0.2062
     15 O         255.1430  197.2760  105.7200 O.2       1 SER        -0.3943
     16 CB        253.7580  199.2750  103.7360 C.3       1 SER         0.0843
     17 OG        254.5610  200.4220  103.9580 O.3       1 SER        -0.3903
     18 N         256.8060  198.2250  104.5430 N.am      1 ILE        -0.2634
     19 CA        257.7830  198.0920  105.6150 C.3       1 ILE         0.1335
     20 C         257.6200  199.2440  106.6050 C.2       1 ILE         0.2042
     21 O         258.2570  199.2750  107.6590 O.2       1 ILE        -0.3944
     22 CB        259.2240  198.0590  105.0640 C.3       1 ILE        -0.0037
     23 CG1       260.1610  197.3390  106.0370 C.3       1 ILE        -0.0491
     24 CG2       259.7080  199.4630  104.7300 C.3       1 ILE        -0.0582
     25 CD1       259.8640  195.8660  106.1820 C.3       1 ILE        -0.0648
     26 N         256.7550  200.1890  106.2530 N.am      1 VAL        -0.2635
     27 CA        256.4090  201.2980  107.1340 C.3       1 VAL         0.1332
     28 C         255.0720  201.0190  107.8130 C.2       1 VAL         0.2039
     29 O         254.1250  200.5680  107.1660 O.2       1 VAL        -0.3944
     30 CB        256.3350  202.6320  106.3600 C.3       1 VAL        -0.0063
     31 CG1       255.8820  203.7640  107.2700 C.3       1 VAL        -0.0584
     32 CG2       257.6810  202.9540  105.7320 C.3       1 VAL        -0.0584
     33 N         255.0030  201.2760  109.1160 N.am      1 GLY        -0.2664
     34 CA        253.7920  201.0430  109.8850 C.3       1 GLY         0.1201
     35 C         252.5730  201.7620  109.3380 C.2       1 GLY         0.2008
     36 O         252.6150  202.9640  109.0780 O.2       1 GLY        -0.3947
     37 N         251.4860  201.0180  109.1610 N.am      1 THR        -0.2616
     38 CA        250.2490  201.5740  108.6240 C.3       1 THR         0.1565
     39 C         249.2990  201.9540  109.7550 C.2       1 THR         0.2065
     40 O         249.5260  201.6000  110.9120 O.2       1 THR        -0.3943
     41 CB        249.5480  200.5800  107.6740 C.3       1 THR         0.0924
     42 OG1       250.5240  199.7180  107.0760 O.3       1 THR        -0.3874
     43 CG2       248.7900  201.3180  106.5770 C.3       1 THR        -0.0346
     44 N         248.2380  202.6770  109.4150 N.am      1 LEU        -0.2636
     45 CA        247.2760  203.1450  110.4040 C.3       1 LEU         0.1312
     46 C         245.8400  202.8680  109.9790 C.2       1 LEU         0.2040
     47 O         245.5650  202.6130  108.8060 O.2       1 LEU        -0.3944
     48 CB        247.4560  204.6440  110.6520 C.3       1 LEU        -0.0101
     49 CG        247.9830  205.0660  112.0230 C.3       1 LEU        -0.0425
     50 CD1       248.1170  206.5790  112.0960 C.3       1 LEU        -0.0625
     51 CD2       247.0780  204.5500  113.1300 C.3       1 LEU        -0.0625
     52 N         244.9300  202.9190  110.9460 N.am      1 TYR        -0.2621
     53 CA        243.5030  202.8220  110.6710 C.3       1 TYR         0.1392
     54 C         242.6940  203.3620  111.8440 C.2       1 TYR         0.2078
     55 O         242.7050  202.7830  112.9300 O.2       1 TYR        -0.3940
     56 CB        243.0970  201.3780  110.3670 C.3       1 TYR         0.0164
     57 CG        242.5700  201.1880  108.9620 C.ar      1 TYR        -0.0493
     58 CD1       242.3790  202.2770  108.1190 C.ar      1 TYR        -0.0685
     59 CD2       242.2590  199.9240  108.4780 C.ar      1 TYR        -0.0685
     60 CE1       241.8990  202.1120  106.8340 C.ar      1 TYR        -0.0398
     61 CE2       241.7770  199.7490  107.1930 C.ar      1 TYR        -0.0398
     62 CZ        241.5990  200.8470  106.3770 C.ar      1 TYR         0.0805
     63 OH        241.1190  200.6800  105.0980 O.3       1 TYR        -0.3376
     64 N         241.9940  204.4840  111.6210 N.am      1 PRO        -0.2530
     65 CA        241.1290  205.1330  112.6140 C.3       1 PRO         0.1254
     66 C         240.0700  204.1910  113.1790 C.2       1 PRO         0.2151
     67 O         239.0300  204.6710  113.6290 O.co2     1 PRO        -0.4120
     68 CB        240.4720  206.2710  111.8200 C.3       1 PRO        -0.0135
     69 CG        240.6890  205.9260  110.3740 C.3       1 PRO        -0.0287
     70 CD        241.9950  205.2100  110.3410 C.3       1 PRO         0.0363
     71 H         250.9482  194.4401  101.0831 H         1 PHE         0.2017
     72 H         251.7060  195.5970  100.1904 H         1 PHE         0.2017
     73 H         250.8032  196.0263  101.4981 H         1 PHE         0.2017
     74 H         252.2655  194.9370  102.9812 H         1 PHE         0.1122
     75 H         253.6727  194.2580  100.3722 H         1 PHE         0.0507
     76 H         253.0578  193.1405  101.6370 H         1 PHE         0.0507
     77 H         254.2259  193.0590  103.8508 H         1 PHE         0.0557
     78 H         255.8528  195.1653  100.5149 H         1 PHE         0.0557
     79 H         256.4373  193.0580  104.9314 H         1 PHE         0.0599
     80 H         258.0642  195.1722  101.5961 H         1 PHE         0.0599
     81 H         258.3628  194.1098  103.8032 H         1 PHE         0.0559
     82 H         253.5433  196.2868  104.0585 H         1 SER         0.1885
     83 H         255.2398  198.2044  102.6085 H         1 SER         0.0823
     84 H         253.1185  199.1079  104.6152 H         1 SER         0.0606
     85 H         253.1274  199.4432  102.8505 H         1 SER         0.0606
     86 H         254.0013  201.1767  104.0985 H         1 SER         0.2097
     87 H         257.0855  198.6359  103.6752 H         1 ILE         0.1883
     88 H         257.5935  197.1456  106.1425 H         1 ILE         0.0803
     89 H         259.2125  197.4819  104.1276 H         1 ILE         0.0345
     90 H         260.0664  197.8120  107.0256 H         1 ILE         0.0267
     91 H         261.1932  197.4517  105.6739 H         1 ILE         0.0267
     92 H         259.0037  199.9368  104.0304 H         1 ILE         0.0235
     93 H         260.7038  199.4069  104.2660 H         1 ILE         0.0235
     94 H         259.7662  200.0599  105.6521 H         1 ILE         0.0235
     95 H         260.5733  195.4172  106.8929 H         1 ILE         0.0230
     96 H         259.9646  195.3736  105.2035 H         1 ILE         0.0230
     97 H         258.8378  195.7339  106.5553 H         1 ILE         0.0230
     98 H         256.3258  200.1378  105.3513 H         1 VAL         0.1883
     99 H         257.1874  201.3859  107.9062 H         1 VAL         0.0802
    100 H         255.5948  202.5222  105.5537 H         1 VAL         0.0343
    101 H         255.8377  204.7010  106.6954 H         1 VAL         0.0234
    102 H         256.5959  203.8759  108.0993 H         1 VAL         0.0234
    103 H         254.8848  203.5337  107.6732 H         1 VAL         0.0234
    104 H         257.9890  202.1239  105.0792 H         1 VAL         0.0234
    105 H         258.4309  203.0951  106.5243 H         1 VAL         0.0234
    106 H         257.5973  203.8760  105.1379 H         1 VAL         0.0234
    107 H         255.8095  201.6409  109.5811 H         1 GLY         0.1881
    108 H         253.9639  201.3864  110.9158 H         1 GLY         0.0763
    109 H         253.5853  199.9626  109.8881 H         1 GLY         0.0763
    110 H         251.5171  200.0483  109.4032 H         1 THR         0.1884
    111 H         250.4983  202.4817  108.0549 H         1 THR         0.0826
    112 H         248.8366  199.9741  108.2543 H         1 THR         0.0639
    113 H         250.9798  199.2372  107.7569 H         1 THR         0.2101
    114 H         248.3005  200.5884  105.9151 H         1 THR         0.0257
    115 H         249.4935  201.9291  105.9925 H         1 THR         0.0257
    116 H         248.0288  201.9691  107.0316 H         1 THR         0.0257
    117 H         248.0953  202.9068  108.4523 H         1 LEU         0.1883
    118 H         247.4659  202.6088  111.3455 H         1 LEU         0.0800
    119 H         246.4755  205.1227  110.5126 H         1 LEU         0.0315
    120 H         248.1597  205.0225  109.8960 H         1 LEU         0.0315
    121 H         248.9808  204.6240  112.1606 H         1 LEU         0.0298
    122 H         248.4969  206.8660  113.0876 H         1 LEU         0.0232
    123 H         247.1330  207.0426  111.9321 H         1 LEU         0.0232
    124 H         248.8180  206.9229  111.3212 H         1 LEU         0.0232
    125 H         246.9966  203.4555  113.0567 H         1 LEU         0.0232
    126 H         246.0794  204.9996  113.0268 H         1 LEU         0.0232
    127 H         247.5031  204.8214  114.1076 H         1 LEU         0.0232
    128 H         245.2345  203.0274  111.8923 H         1 TYR         0.1885
    129 H         243.2814  203.4358  109.7855 H         1 TYR         0.0821
    130 H         242.3124  201.0789  111.0776 H         1 TYR         0.0453
    131 H         243.9776  200.7323  110.4999 H         1 TYR         0.0453
    132 H         242.6109  203.2737  108.4765 H         1 TYR         0.0530
    133 H         242.3962  199.0598  109.1179 H         1 TYR         0.0530
    134 H         241.7593  202.9722  106.1893 H         1 TYR         0.0525
    135 H         241.5407  198.7554  106.8297 H         1 TYR         0.0525
    136 H         241.0551  201.5266  104.6719 H         1 TYR         0.2458
    137 H         241.7310  205.5322  113.4436 H         1 PRO         0.0753
    138 O1        240.2568  202.9449  113.1847 O.co2     1 PRO        -0.4120
    139 H         240.9473  207.2331  112.0615 H         1 PRO         0.0307
    140 H         239.3967  206.3265  112.0451 H         1 PRO         0.0307
    141 H         240.7326  206.8383  109.7610 H         1 PRO         0.0286
    142 H         239.8819  205.2754  110.0063 H         1 PRO         0.0286
    143 H         242.0456  204.5149  109.4900 H         1 PRO         0.0524
    144 H         242.8350  205.9181  110.2865 H         1 PRO         0.0524
@<TRIPOS>BOND
     1    1    2 1  
     2    2    3 1  
     3    2    5 1  
     4    3    4 2  
     5    3   12 am 
     6    5    6 1  
     7    6    7 ar 
     8    6    8 ar 
     9    7    9 ar 
    10    8   10 ar 
    11    9   11 ar 
    12   10   11 ar 
    13   12   13 1  
    14   13   14 1  
    15   13   16 1  
    16   14   15 2  
    17   14   18 am 
    18   16   17 1  
    19   18   19 1  
    20   19   20 1  
    21   19   22 1  
    22   20   21 2  
    23   20   26 am 
    24   22   23 1  
    25   22   24 1  
    26   23   25 1  
    27   26   27 1  
    28   27   28 1  
    29   27   30 1  
    30   28   29 2  
    31   28   33 am 
    32   30   31 1  
    33   30   32 1  
    34   33   34 1  
    35   34   35 1  
    36   35   36 2  
    37   35   37 am 
    38   37   38 1  
    39   38   39 1  
    40   38   41 1  
    41   39   40 2  
    42   39   44 am 
    43   41   42 1  
    44   41   43 1  
    45   44   45 1  
    46   45   46 1  
    47   45   48 1  
    48   46   47 2  
    49   46   52 am 
    50   48   49 1  
    51   49   50 1  
    52   49   51 1  
    53   52   53 1  
    54   53   54 1  
    55   53   56 1  
    56   54   55 2  
    57   54   64 am 
    58   56   57 1  
    59   57   58 ar 
    60   57   59 ar 
    61   58   60 ar 
    62   59   61 ar 
    63   60   62 ar 
    64   61   62 ar 
    65   62   63 1  
    66   64   65 1  
    67   64   70 1  
    68   65   66 1  
    69   65   68 1  
    70   66   67 ar 
    71   68   69 1  
    72   69   70 1  
    73    1   71 1  
    74    1   72 1  
    75    1   73 1  
    76    2   74 1  
    77    5   75 1  
    78    5   76 1  
    79    7   77 1  
    80    8   78 1  
    81    9   79 1  
    82   10   80 1  
    83   11   81 1  
    84   12   82 1  
    85   13   83 1  
    86   16   84 1  
    87   16   85 1  
    88   17   86 1  
    89   18   87 1  
    90   19   88 1  
    91   22   89 1  
    92   23   90 1  
    93   23   91 1  
    94   24   92 1  
    95   24   93 1  
    96   24   94 1  
    97   25   95 1  
    98   25   96 1  
    99   25   97 1  
   100   26   98 1  
   101   27   99 1  
   102   30  100 1  
   103   31  101 1  
   104   31  102 1  
   105   31  103 1  
   106   32  104 1  
   107   32  105 1  
   108   32  106 1  
   109   33  107 1  
   110   34  108 1  
   111   34  109 1  
   112   37  110 1  
   113   38  111 1  
   114   41  112 1  
   115   42  113 1  
   116   43  114 1  
   117   43  115 1  
   118   43  116 1  
   119   44  117 1  
   120   45  118 1  
   121   48  119 1  
   122   48  120 1  
   123   49  121 1  
   124   50  122 1  
   125   50  123 1  
   126   50  124 1  
   127   51  125 1  
   128   51  126 1  
   129   51  127 1  
   130   52  128 1  
   131   53  129 1  
   132   56  130 1  
   133   56  131 1  
   134   58  132 1  
   135   59  133 1  
   136   60  134 1  
   137   61  135 1  
   138   63  136 1  
   139   65  137 1  
   140   66  138 ar 
   141   68  139 1  
   142   68  140 1  
   143   69  141 1  
   144   69  142 1  
   145   70  143 1  
   146   70  144 1  
@<TRIPOS>SUBSTRUCTURE
     1 PHE         1

