4ayv_ligand
  -I-interpret- 

 79 82  0  0  0  0  0  0  0  0999 V2000
   29.5220   17.6380   23.6890 C   0  0  0  0  0
   30.8390   18.3690   24.0410 C   0  0  0  0  0
   31.3550   18.0230   25.4550 C   0  0  0  0  0
   31.9390   18.0500   22.9780 C   0  0  0  0  0
   32.5790   18.8780   25.6450 N   0  0  0  0  0
   33.1470   18.9460   23.2170 C   0  0  0  0  0
   33.7130   18.6960   24.6470 C   0  0  0  0  0
   32.4270   20.0940   26.3010 C   0  0  0  0  0
   33.5130   20.8500   26.3420 N   0  0  0  0  0
   31.2690   20.4210   26.8120 N   0  0  0  0  0
   29.7500   13.4180   26.6610 N   0  0  0  0  0
   29.8930   13.1300   25.2750 C   0  0  0  0  0
   31.3070   13.5900   24.8610 C   0  0  0  0  0
   31.9250   14.4320   25.5460 O   0  0  0  0  0
   28.8640   13.9020   24.4000 C   0  0  0  0  0
   28.8340   15.4080   24.5570 C   0  0  0  0  0
   28.2160   15.9780   25.4840 O   0  0  0  0  0
   29.5500   16.1520   23.5980 N   0  0  0  0  0
   29.3100   12.2750   27.7580 S   0  0  0  0  0
   28.3600   11.4260   27.1480 O   0  0  0  0  0
   29.0630   13.0620   28.9540 O   0  0  0  0  0
   30.7640   10.0600   27.3130 C   0  0  0  0  0
   30.6550   11.3050   27.9310 C   0  0  0  0  0
   31.7320   11.7770   28.7590 C   0  0  0  0  0
   32.8630   11.0470   28.9660 C   0  0  0  0  0
   34.1770    9.0060   28.5940 C   0  0  0  0  0
   34.2830    7.7690   28.0090 C   0  0  0  0  0
   33.2400    7.2410   27.1760 C   0  0  0  0  0
   32.0880    7.9720   26.9330 C   0  0  0  0  0
   31.9400    9.2660   27.5250 C   0  0  0  0  0
   33.0030    9.7730   28.3620 C   0  0  0  0  0
   31.8680   13.0410   23.7070 N   0  0  0  0  0
   31.1810   11.9550   22.9330 C   0  0  0  0  0
   33.0980   13.5900   23.1120 C   0  0  0  0  0
   32.1270   10.8190   22.7310 C   0  0  0  0  0
   32.6770   14.5420   21.9980 C   0  0  0  0  0
   32.7400   10.1950   23.8550 C   0  0  0  0  0
   32.4150   10.4040   21.4390 C   0  0  0  0  0
   33.6120   14.6840   21.0680 O   0  0  0  0  0
   31.6230   15.1370   21.8670 O   0  0  0  0  0
   33.6560    9.1490   23.6740 C   0  0  0  0  0
   33.3350    9.3500   21.2520 C   0  0  0  0  0
   33.9590    8.7220   22.3530 C   0  0  0  0  0
   29.2575   17.9839   22.6898 H   0  0  0  0  0
   28.8380   17.8647   24.5068 H   0  0  0  0  0
   30.6178   19.4363   24.0319 H   0  0  0  0  0
   31.5852   16.9620   25.5519 H   0  0  0  0  0
   30.6025   18.2206   26.2184 H   0  0  0  0  0
   31.5432   18.2309   21.9786 H   0  0  0  0  0
   32.2374   17.0053   23.0648 H   0  0  0  0  0
   32.8461   19.9896   23.1253 H   0  0  0  0  0
   33.9166   18.7186   22.4794 H   0  0  0  0  0
   34.1174   17.6863   24.7190 H   0  0  0  0  0
   34.5170   19.4004   24.8605 H   0  0  0  0  0
   33.4826   21.7620   26.7977 H   0  0  0  0  0
   34.3801   20.5204   25.9179 H   0  0  0  0  0
   31.1552   21.3174   27.2853 H   0  0  0  0  0
   29.9269   14.3685   26.9860 H   0  0  0  0  0
   29.7280   12.0636   25.1215 H   0  0  0  0  0
   27.8806   13.5478   24.7092 H   0  0  0  0  0
   29.1480   13.7132   23.3647 H   0  0  0  0  0
   30.0748   15.6838   22.8592 H   0  0  0  0  0
   29.9615    9.6925   26.6734 H   0  0  0  0  0
   31.6400   12.7522   29.2372 H   0  0  0  0  0
   33.6598   11.4426   29.5958 H   0  0  0  0  0
   34.9777    9.3928   29.2244 H   0  0  0  0  0
   35.1798    7.1738   28.1809 H   0  0  0  0  0
   33.3555    6.2535   26.7293 H   0  0  0  0  0
   31.3021    7.5649   26.2968 H   0  0  0  0  0
   30.8636   12.3420   21.9647 H   0  0  0  0  0
   30.3081   11.6088   23.4865 H   0  0  0  0  0
   33.7222   12.7891   22.7157 H   0  0  0  0  0
   33.6852   14.1167   23.8642 H   0  0  0  0  0
   32.4955   10.5327   24.8621 H   0  0  0  0  0
   31.9393   10.8834   20.5834 H   0  0  0  0  0
   34.3802   14.1595   21.3054 H   0  0  0  0  0
   34.1279    8.6712   24.5325 H   0  0  0  0  0
   33.5679    9.0150   20.2413 H   0  0  0  0  0
   34.6705    7.9126   22.1897 H   0  0  0  0  0
  1  2  1  0  0  0
 18  1  1  0  0  0
  2  3  1  0  0  0
  2  4  1  0  0  0
  3  5  1  0  0  0
  4  6  1  0  0  0
  5  7  1  0  0  0
  5  8  1  0  0  0
  6  7  1  0  0  0
  8  9  1  0  0  0
  8 10  2  0  0  0
 11 12  1  0  0  0
 19 11  1  0  0  0
 12 13  1  0  0  0
 12 15  1  0  0  0
 13 14  2  0  0  0
 13 32  1  0  0  0
 15 16  1  0  0  0
 16 17  2  0  0  0
 16 18  1  0  0  0
 19 20  2  0  0  0
 19 21  2  0  0  0
 23 19  1  0  0  0
 23 22  4  0  0  0
 22 30  4  0  0  0
 24 23  4  0  0  0
 25 24  4  0  0  0
 31 25  4  0  0  0
 26 27  4  0  0  0
 26 31  4  0  0  0
 27 28  4  0  0  0
 28 29  4  0  0  0
 29 30  4  0  0  0
 30 31  4  0  0  0
 32 33  1  0  0  0
 32 34  1  0  0  0
 33 35  1  0  0  0
 34 36  1  0  0  0
 35 37  4  0  0  0
 35 38  4  0  0  0
 36 39  1  0  0  0
 36 40  2  0  0  0
 37 41  4  0  0  0
 38 42  4  0  0  0
 41 43  4  0  0  0
 42 43  4  0  0  0
  1 44  1  0  0  0
  1 45  1  0  0  0
  2 46  1  0  0  0
  3 47  1  0  0  0
  3 48  1  0  0  0
  4 49  1  0  0  0
  4 50  1  0  0  0
  6 51  1  0  0  0
  6 52  1  0  0  0
  7 53  1  0  0  0
  7 54  1  0  0  0
  9 55  1  0  0  0
  9 56  1  0  0  0
 10 57  1  0  0  0
 11 58  1  0  0  0
 12 59  1  0  0  0
 15 60  1  0  0  0
 15 61  1  0  0  0
 18 62  1  0  0  0
 22 63  1  0  0  0
 24 64  1  0  0  0
 25 65  1  0  0  0
 26 66  1  0  0  0
 27 67  1  0  0  0
 28 68  1  0  0  0
 29 69  1  0  0  0
 33 70  1  0  0  0
 33 71  1  0  0  0
 34 72  1  0  0  0
 34 73  1  0  0  0
 37 74  1  0  0  0
 38 75  1  0  0  0
 39 76  1  0  0  0
 41 77  1  0  0  0
 42 78  1  0  0  0
 43 79  1  0  0  0
M  END
$$$$
