5ghv_ligand
  -I-interpret- 

 73 77  0  0  0  0  0  0  0  0999 V2000
  -12.9810  -12.3870    1.1370 C   0  0  0  0  0
  -11.8330  -13.0920    0.9630 C   0  0  0  0  0
  -11.7910  -14.0510    0.0030 C   0  0  0  0  0
  -12.8420  -14.2710   -0.6920 N   0  0  0  0  0
  -14.0300  -12.6530    0.4070 N   0  0  0  0  0
  -21.9610  -10.2970   -0.8250 C   0  0  0  0  0
  -23.4120   -9.8970   -0.6990 C   0  0  0  0  0
  -24.1140  -10.9240   -1.5610 C   0  0  0  0  0
  -23.1410  -12.0860   -1.6760 C   0  0  0  0  0
  -22.0020  -11.7440   -0.8350 N   0  3  0  0  0
  -20.8480  -12.0310   -1.6050 C   0  0  0  0  0
  -19.8630  -11.2300   -0.9130 C   0  0  0  0  0
  -19.8770  -12.3020   -0.1390 O   0  0  0  0  0
  -18.6640  -12.7150   -0.4080 C   0  0  0  0  0
  -17.6280  -12.2240    0.3230 C   0  0  0  0  0
  -17.8720  -11.2470    1.4410 C   0  0  0  0  0
  -16.3490  -12.6100    0.0490 C   0  0  0  0  0
  -18.4420  -13.5810   -1.4340 C   0  0  0  0  0
  -19.5680  -14.1210   -2.2560 C   0  0  0  0  0
  -17.1640  -13.9780   -1.7040 C   0  0  0  0  0
  -16.1380  -13.4870   -0.9540 C   0  0  0  0  0
  -14.9420  -13.8630   -1.2170 N   0  0  0  0  0
  -13.9280  -13.5860   -0.4870 C   0  0  0  0  0
  -12.9970  -11.5160    2.0950 N   0  0  0  0  0
  -14.0560  -11.0890    2.7320 C   0  0  0  0  0
  -11.9150  -11.0440    2.6480 C   0  0  0  0  0
  -12.2970  -10.2580    3.6020 C   0  0  0  0  0
  -11.4080   -9.4460    4.5000 C   0  0  0  0  0
  -13.6650  -10.2730    3.6500 C   0  0  0  0  0
  -14.6010   -9.5500    4.5600 C   0  0  0  0  0
  -15.0570  -10.4690    5.5770 N   0  3  0  0  0
  -15.8120  -11.5750    5.0400 C   0  0  0  0  0
  -16.2930  -10.0110    6.1550 C   0  0  0  0  0
  -16.5500  -11.4600    6.3280 C   0  0  0  0  0
  -17.8900  -11.6810    6.1210 O   0  0  0  0  0
  -10.9600  -12.8911    1.5839 H   0  0  0  0  0
  -10.8794  -14.6224   -0.1721 H   0  0  0  0  0
  -21.3500   -9.9045   -0.0122 H   0  0  0  0  0
  -21.4940   -9.8886   -1.7212 H   0  0  0  0  0
  -23.6006   -8.8721   -1.0185 H   0  0  0  0  0
  -23.7649   -9.8936    0.3323 H   0  0  0  0  0
  -24.3704  -10.5178   -2.5395 H   0  0  0  0  0
  -25.0610  -11.2365   -1.1209 H   0  0  0  0  0
  -22.8342  -12.2418   -2.7102 H   0  0  0  0  0
  -23.6024  -13.0194   -1.3536 H   0  0  0  0  0
  -22.0517  -12.2030    0.0745 H   0  0  0  0  0
  -20.9493  -11.7953   -2.6644 H   0  0  0  0  0
  -20.6013  -13.0913   -1.6597 H   0  0  0  0  0
  -19.9922  -10.1993   -0.5829 H   0  0  0  0  0
  -18.9798  -10.7732   -1.3595 H   0  0  0  0  0
  -18.3520  -10.3532    1.0425 H   0  0  0  0  0
  -18.5193  -11.7061    2.1882 H   0  0  0  0  0
  -16.9208  -10.9764    1.8994 H   0  0  0  0  0
  -15.5137  -12.2176    0.6290 H   0  0  0  0  0
  -20.2566  -14.6680   -1.6120 H   0  0  0  0  0
  -20.0947  -13.2957   -2.7352 H   0  0  0  0  0
  -19.1708  -14.7916   -3.0180 H   0  0  0  0  0
  -16.9662  -14.6817   -2.5126 H   0  0  0  0  0
  -14.7885  -14.4169   -2.0596 H   0  0  0  0  0
  -15.0875  -11.3730    2.5235 H   0  0  0  0  0
  -10.8874  -11.2682    2.3620 H   0  0  0  0  0
  -10.7408  -10.1119    5.0472 H   0  0  0  0  0
  -10.8192   -8.7545    3.8974 H   0  0  0  0  0
  -12.0212   -8.8844    5.2048 H   0  0  0  0  0
  -15.4517   -9.1719    3.9931 H   0  0  0  0  0
  -14.0899   -8.7066    5.0242 H   0  0  0  0  0
  -14.2044  -10.6192    6.1164 H   0  0  0  0  0
  -15.3654  -12.4985    4.6716 H   0  0  0  0  0
  -16.2887  -11.5712    4.0598 H   0  0  0  0  0
  -16.9802   -9.3270    5.6571 H   0  0  0  0  0
  -16.3528   -9.2823    6.9634 H   0  0  0  0  0
  -16.3093  -12.0414    7.2180 H   0  0  0  0  0
  -18.3584  -11.6051    6.9556 H   0  0  0  0  0
  1  2  4  0  0  0
  5  1  4  0  0  0
  1 24  1  0  0  0
  3  2  4  0  0  0
  4  3  4  0  0  0
 23  4  4  0  0  0
 23  5  4  0  0  0
  6  7  1  0  0  0
 10  6  1  0  0  0
  8  7  1  0  0  0
  9  8  1  0  0  0
 10  9  1  0  0  0
 11 10  1  0  0  0
 12 11  1  0  0  0
 13 12  1  0  0  0
 14 13  1  0  0  0
 15 14  4  0  0  0
 18 14  4  0  0  0
 15 16  1  0  0  0
 17 15  4  0  0  0
 21 17  4  0  0  0
 18 19  1  0  0  0
 20 18  4  0  0  0
 21 20  4  0  0  0
 22 21  1  0  0  0
 22 23  1  0  0  0
 24 25  4  0  0  0
 24 26  4  0  0  0
 25 29  4  0  0  0
 26 27  4  0  0  0
 27 28  1  0  0  0
 27 29  4  0  0  0
 29 30  1  0  0  0
 30 31  1  0  0  0
 31 32  1  0  0  0
 31 33  1  0  0  0
 32 34  1  0  0  0
 33 34  1  0  0  0
 34 35  1  0  0  0
  2 36  1  0  0  0
  3 37  1  0  0  0
  6 38  1  0  0  0
  6 39  1  0  0  0
  7 40  1  0  0  0
  7 41  1  0  0  0
  8 42  1  0  0  0
  8 43  1  0  0  0
  9 44  1  0  0  0
  9 45  1  0  0  0
 10 46  1  0  0  0
 11 47  1  0  0  0
 11 48  1  0  0  0
 12 49  1  0  0  0
 12 50  1  0  0  0
 16 51  1  0  0  0
 16 52  1  0  0  0
 16 53  1  0  0  0
 17 54  1  0  0  0
 19 55  1  0  0  0
 19 56  1  0  0  0
 19 57  1  0  0  0
 20 58  1  0  0  0
 22 59  1  0  0  0
 25 60  1  0  0  0
 26 61  1  0  0  0
 28 62  1  0  0  0
 28 63  1  0  0  0
 28 64  1  0  0  0
 30 65  1  0  0  0
 30 66  1  0  0  0
 31 67  1  0  0  0
 32 68  1  0  0  0
 32 69  1  0  0  0
 33 70  1  0  0  0
 33 71  1  0  0  0
 34 72  1  0  0  0
 35 73  1  0  0  0
M  END
$$$$
