3k4d_ligand
  -I-interpret- 

 22 22  0  0  0  0  0  0  0  0999 V2000
  -21.5210  -27.9660   -1.1480 C   0  0  0  0  0
  -23.4170  -26.4870   -0.8390 N   0  0  0  0  0
  -22.0500  -28.7430   -1.9020 O   0  0  0  0  0
  -22.4040  -27.2600   -0.1290 C   0  0  0  0  0
  -23.0800  -28.2150    0.8280 C   0  0  0  0  0
  -24.0610  -27.4450    1.7120 C   0  0  0  0  0
  -22.0970  -28.8040    1.6680 O   0  0  0  0  0
  -24.6680  -26.2480   -0.3950 C   0  0  0  0  0
  -25.8800  -25.9180    1.6650 O   0  0  0  0  0
  -25.3680  -25.4940   -1.0420 O   0  0  0  0  0
  -25.1990  -26.8900    0.8840 C   0  0  0  0  0
  -24.6420  -28.3880    2.5970 O   0  0  0  0  0
  -20.3220  -27.7470   -1.1610 O   0  0  0  0  0
  -23.1583  -26.0955   -1.7447 H   0  0  0  0  0
  -21.7621  -26.6132    0.4691 H   0  0  0  0  0
  -23.6078  -28.9802    0.2587 H   0  0  0  0  0
  -23.5356  -26.6352    2.2183 H   0  0  0  0  0
  -21.4699  -29.2933    1.1304 H   0  0  0  0  0
  -26.2110  -26.3284    2.4672 H   0  0  0  0  0
  -25.8767  -27.6955    0.6011 H   0  0  0  0  0
  -23.9566  -28.7720    3.1487 H   0  0  0  0  0
  -20.1086  -27.1001   -0.4845 H   0  0  0  0  0
  1  3  2  0  0  0
  1  4  1  0  0  0
  1 13  1  0  0  0
  4  2  1  0  0  0
  2  8  1  0  0  0
  4  5  1  0  0  0
  5  6  1  0  0  0
  5  7  1  0  0  0
  6 11  1  0  0  0
  6 12  1  0  0  0
  8 10  2  0  0  0
  8 11  1  0  0  0
 11  9  1  0  0  0
  2 14  1  0  0  0
  4 15  1  0  0  0
  5 16  1  0  0  0
  6 17  1  0  0  0
  7 18  1  0  0  0
  9 19  1  0  0  0
 11 20  1  0  0  0
 12 21  1  0  0  0
 13 22  1  0  0  0
M  END
$$$$
