2w3l_ligand
  -I-interpret- 

 73 78  0  0  0  0  0  0  0  0999 V2000
   42.8420   26.9780  -10.6500 C   0  0  0  0  0
   43.0780   28.2310  -10.0890 C   0  0  0  0  0
   42.0500   28.9350   -9.4790 C   0  0  0  0  0
   40.7550   28.4320   -9.4170 C   0  0  0  0  0
   40.5210   27.1650   -9.9990 C   0  0  0  0  0
   41.5430   26.4520  -10.6360 C   0  0  0  0  0
   41.3130   25.2090  -11.1710 N   0  0  0  0  0
   40.9890   24.1940  -10.2930 C   0  0  0  0  0
   39.6850   23.6500  -10.3650 C   0  0  0  0  0
   39.2650   22.6330   -9.4860 C   0  0  0  0  0
   40.1340   22.1660   -8.4870 C   0  0  0  0  0
   41.4090   22.7280   -8.3720 C   0  0  0  0  0
   41.8250   23.7360   -9.2690 C   0  0  0  0  0
   41.3370   24.9230  -12.4800 C   0  0  0  0  0
   41.1000   23.7790  -12.8800 O   0  0  0  0  0
   41.5730   26.0330  -13.5520 C   0  0  0  0  0
   40.9820   27.2380  -13.5530 N   0  0  0  0  0
   42.2620   25.9350  -14.7490 C   0  0  0  0  0
   43.1970   24.5660  -15.2720 Cl  0  0  0  0  0
   42.0910   27.1720  -15.3660 C   0  0  0  0  0
   42.6950   27.6000  -16.7180 C   0  0  0  0  0
   41.2840   27.8960  -14.5640 N   0  0  0  0  0
   40.8250   29.1540  -14.7700 C   0  0  0  0  0
   41.6730   30.2590  -14.7760 C   0  0  0  0  0
   41.1590   31.5400  -14.9990 C   0  0  0  0  0
   39.7990   31.7310  -15.1880 C   0  0  0  0  0
   38.9370   30.6560  -15.1610 C   0  0  0  0  0
   39.4440   29.3720  -14.9410 C   0  0  0  0  0
   38.4770   28.1720  -14.9150 C   0  0  0  0  0
   38.5170   27.3230  -15.8220 O   0  0  0  0  0
   37.5940   27.9950  -13.9150 N   0  0  0  0  0
   37.4770   28.9140  -12.7100 C   0  0  0  0  0
   37.2660   28.0320  -11.4440 C   0  0  0  0  0
   37.2270   28.6510  -10.1810 C   0  0  0  0  0
   37.0210   27.9080   -9.0080 C   0  0  0  0  0
   36.8410   26.5420   -9.0850 C   0  0  0  0  0
   36.8830   25.9080  -10.3210 C   0  0  0  0  0
   37.0810   26.6460  -11.5010 C   0  0  0  0  0
   37.1010   25.8520  -12.8090 C   0  0  0  0  0
   36.7270   26.7900  -13.9710 C   0  0  0  0  0
   35.2460   27.1830  -13.8690 C   0  0  0  0  0
   34.6130   27.0100  -15.1750 N   0  3  0  0  0
   43.6599   26.4119  -11.0957 H   0  0  0  0  0
   44.0784   28.6618  -10.1296 H   0  0  0  0  0
   42.2630   29.9082   -9.0366 H   0  0  0  0  0
   39.9519   28.9926   -8.9385 H   0  0  0  0  0
   39.5213   26.7334   -9.9505 H   0  0  0  0  0
   38.9908   24.0259  -11.1166 H   0  0  0  0  0
   38.2656   22.2085   -9.5812 H   0  0  0  0  0
   39.8180   21.3738   -7.8083 H   0  0  0  0  0
   42.0842   22.3869   -7.5872 H   0  0  0  0  0
   42.8203   24.1672   -9.1612 H   0  0  0  0  0
   43.7823   27.5495  -16.6610 H   0  0  0  0  0
   42.3394   26.9308  -17.5015 H   0  0  0  0  0
   42.3888   28.6214  -16.9442 H   0  0  0  0  0
   42.7413   30.1246  -14.6062 H   0  0  0  0  0
   41.8335   32.3959  -15.0245 H   0  0  0  0  0
   39.4101   32.7349  -15.3586 H   0  0  0  0  0
   37.8677   30.8059  -15.3101 H   0  0  0  0  0
   36.6346   29.5939  -12.8377 H   0  0  0  0  0
   38.3832   29.5105  -12.6043 H   0  0  0  0  0
   37.3596   29.7307  -10.1120 H   0  0  0  0  0
   37.0033   28.4083   -8.0397 H   0  0  0  0  0
   36.6664   25.9619   -8.1789 H   0  0  0  0  0
   36.7610   24.8262  -10.3761 H   0  0  0  0  0
   36.3840   25.0330  -12.7526 H   0  0  0  0  0
   38.0971   25.4413  -12.9743 H   0  0  0  0  0
   36.8799   26.2824  -14.9234 H   0  0  0  0  0
   35.1640   28.2243  -13.5574 H   0  0  0  0  0
   34.7488   26.5497  -13.1343 H   0  0  0  0  0
   33.6288   27.2701  -15.1116 H   0  0  0  0  0
   35.0798   27.6052  -15.8593 H   0  0  0  0  0
   34.6903   26.0344  -15.4624 H   0  0  0  0  0
  1  2  4  0  0  0
  1  6  4  0  0  0
  2  3  4  0  0  0
  3  4  4  0  0  0
  4  5  4  0  0  0
  5  6  4  0  0  0
  6  7  1  0  0  0
  7  8  1  0  0  0
  7 14  1  0  0  0
  8  9  4  0  0  0
  8 13  4  0  0  0
  9 10  4  0  0  0
 10 11  4  0  0  0
 11 12  4  0  0  0
 12 13  4  0  0  0
 14 15  2  0  0  0
 14 16  1  0  0  0
 16 17  4  0  0  0
 16 18  4  0  0  0
 17 22  4  0  0  0
 18 19  1  0  0  0
 18 20  4  0  0  0
 20 21  1  0  0  0
 20 22  4  0  0  0
 22 23  1  0  0  0
 23 24  4  0  0  0
 23 28  4  0  0  0
 24 25  4  0  0  0
 25 26  4  0  0  0
 26 27  4  0  0  0
 27 28  4  0  0  0
 28 29  1  0  0  0
 29 30  2  0  0  0
 29 31  1  0  0  0
 31 32  1  0  0  0
 31 40  1  0  0  0
 32 33  1  0  0  0
 33 34  4  0  0  0
 33 38  4  0  0  0
 34 35  4  0  0  0
 35 36  4  0  0  0
 36 37  4  0  0  0
 37 38  4  0  0  0
 38 39  1  0  0  0
 39 40  1  0  0  0
 40 41  1  0  0  0
 41 42  1  0  0  0
  1 43  1  0  0  0
  2 44  1  0  0  0
  3 45  1  0  0  0
  4 46  1  0  0  0
  5 47  1  0  0  0
  9 48  1  0  0  0
 10 49  1  0  0  0
 11 50  1  0  0  0
 12 51  1  0  0  0
 13 52  1  0  0  0
 21 53  1  0  0  0
 21 54  1  0  0  0
 21 55  1  0  0  0
 24 56  1  0  0  0
 25 57  1  0  0  0
 26 58  1  0  0  0
 27 59  1  0  0  0
 32 60  1  0  0  0
 32 61  1  0  0  0
 34 62  1  0  0  0
 35 63  1  0  0  0
 36 64  1  0  0  0
 37 65  1  0  0  0
 39 66  1  0  0  0
 39 67  1  0  0  0
 40 68  1  0  0  0
 41 69  1  0  0  0
 41 70  1  0  0  0
 42 71  1  0  0  0
 42 72  1  0  0  0
 42 73  1  0  0  0
M  END
$$$$
