3lox_ligand
  -I-interpret- 

 91 94  0  0  0  0  0  0  0  0999 V2000
  191.9840  -10.5550   48.6290 C   0  0  0  0  0
  192.5240  -11.6020   49.0190 O   0  0  0  0  0
  190.6720  -10.3400   48.7070 N   0  0  0  0  0
  189.7200  -11.3360   49.2460 C   0  0  0  0  0
  189.6260  -12.4860   48.2590 C   0  0  0  0  0
  188.3070  -10.7100   49.3590 C   0  0  0  0  0
  188.2710   -9.6810   50.4650 C   0  0  0  0  0
  188.6440  -10.3270   51.7930 C   0  0  0  0  0
  190.0380  -10.9510   51.7250 C   0  0  0  0  0
  190.1240  -11.9670   50.6020 C   0  0  0  0  0
  192.6760   -9.5580   48.0900 N   0  0  0  0  0
  194.1320   -9.5360   48.1240 C   0  0  0  0  0
  194.7250   -8.9530   46.8050 C   0  0  0  0  0
  196.2520   -8.8660   46.9590 C   0  0  0  0  0
  194.3760   -9.9340   45.6680 C   0  0  0  0  0
  194.2150   -7.5510   46.3770 C   0  0  0  0  0
  194.5750   -8.7350   49.3400 C   0  0  0  0  0
  194.2300   -7.5600   49.4730 O   0  0  0  0  0
  195.2460   -9.3920   50.2980 N   0  0  0  0  0
  195.5670  -10.8260   50.3820 C   0  0  0  0  0
  195.6990   -8.6650   51.4840 C   0  0  0  0  0
  196.2280   -9.6530   52.4360 C   0  0  0  0  0
  196.3550  -10.9060   51.6490 C   0  0  0  0  0
  195.4980  -10.8660   52.9250 C   0  0  0  0  0
  196.0510  -11.5240   54.1300 C   0  0  0  0  0
  193.9830  -10.8780   52.8280 C   0  0  0  0  0
  196.7210   -7.6350   51.0420 C   0  0  0  0  0
  197.7060   -7.9780   50.3890 O   0  0  0  0  0
  196.4660   -6.3720   51.3730 N   0  0  0  0  0
  197.3450   -5.2790   50.9840 C   0  0  0  0  0
  196.5500   -4.2430   50.1850 C   0  0  0  0  0
  195.9650   -4.7170   48.8280 C   0  0  0  0  0
  196.9240   -4.9110   47.6170 C   0  0  0  0  0
  195.2030   -3.6510   48.0150 C   0  0  0  0  0
  195.9710   -4.0650   46.7490 C   0  0  0  0  0
  198.6090   -5.6530   53.0430 O   0  0  0  0  0
  198.0920   -4.6080   52.1680 C   0  0  0  0  0
  199.0230   -2.5960   51.3360 O   0  0  0  0  0
  200.4210   -4.3390   51.2580 N   0  0  0  0  0
  199.2510   -3.7820   51.5480 C   0  0  0  0  0
  190.3060   -9.4460   48.3795 H   0  0  0  0  0
  190.5934  -12.9833   48.1893 H   0  0  0  0  0
  188.8744  -13.1970   48.6020 H   0  0  0  0  0
  189.3429  -12.1003   47.2796 H   0  0  0  0  0
  187.5878  -11.4974   49.5844 H   0  0  0  0  0
  188.0583  -10.2245   48.4153 H   0  0  0  0  0
  187.2645   -9.2690   50.5377 H   0  0  0  0  0
  188.9846   -8.8885   50.2397 H   0  0  0  0  0
  187.9202  -11.1107   52.0166 H   0  0  0  0  0
  188.6409   -9.5607   52.5682 H   0  0  0  0  0
  190.2420  -11.4554   52.6695 H   0  0  0  0  0
  190.7661  -10.1614   51.5390 H   0  0  0  0  0
  191.1527  -12.3201   50.5294 H   0  0  0  0  0
  189.4414  -12.7879   50.8216 H   0  0  0  0  0
  192.1764   -8.7899   47.6419 H   0  0  0  0  0
  194.5100  -10.5552   48.2050 H   0  0  0  0  0
  196.4947   -8.2145   47.7985 H   0  0  0  0  0
  196.6548   -9.8622   47.1422 H   0  0  0  0  0
  196.6855   -8.4599   46.0451 H   0  0  0  0  0
  194.8123  -10.9091   45.8845 H   0  0  0  0  0
  193.2928  -10.0282   45.5908 H   0  0  0  0  0
  194.7771   -9.5558   44.7277 H   0  0  0  0  0
  193.1358   -7.5881   46.2284 H   0  0  0  0  0
  194.4510   -6.8264   47.1564 H   0  0  0  0  0
  194.7013   -7.2573   45.4467 H   0  0  0  0  0
  196.1147  -11.1931   49.5140 H   0  0  0  0  0
  194.6822  -11.4625   50.3879 H   0  0  0  0  0
  194.8981   -8.1231   51.9870 H   0  0  0  0  0
  196.7793   -8.9424   53.0519 H   0  0  0  0  0
  197.1644  -11.5445   51.2950 H   0  0  0  0  0
  197.0718  -11.8490   53.9288 H   0  0  0  0  0
  196.0501  -10.8181   54.9606 H   0  0  0  0  0
  195.4369  -12.3877   54.3849 H   0  0  0  0  0
  193.5764  -10.0504   53.4092 H   0  0  0  0  0
  193.6861  -10.7713   51.7846 H   0  0  0  0  0
  193.6025  -11.8209   53.2207 H   0  0  0  0  0
  195.6284   -6.1630   51.9163 H   0  0  0  0  0
  198.1282   -5.7157   50.3643 H   0  0  0  0  0
  197.2498   -3.4414   49.9489 H   0  0  0  0  0
  195.6950   -3.9741   50.8053 H   0  0  0  0  0
  195.4676   -5.5867   49.2574 H   0  0  0  0  0
  197.2157   -5.9122   47.2999 H   0  0  0  0  0
  197.9775   -4.6437   47.6999 H   0  0  0  0  0
  195.2099   -2.6106   48.3401 H   0  0  0  0  0
  194.1130   -3.6444   48.0127 H   0  0  0  0  0
  195.4430   -4.5196   45.9108 H   0  0  0  0  0
  196.3698   -3.3059   46.0761 H   0  0  0  0  0
  199.0738   -5.2505   53.7803 H   0  0  0  0  0
  197.4419   -3.9611   52.7570 H   0  0  0  0  0
  201.1652   -3.7767   50.8451 H   0  0  0  0  0
  200.5756   -5.3291   51.4481 H   0  0  0  0  0
  1  2  2  0  0  0
  1  3  1  0  0  0
  1 11  1  0  0  0
  3  4  1  0  0  0
  4  5  1  0  0  0
  4  6  1  0  0  0
  4 10  1  0  0  0
  6  7  1  0  0  0
  7  8  1  0  0  0
  8  9  1  0  0  0
  9 10  1  0  0  0
 11 12  1  0  0  0
 12 13  1  0  0  0
 12 17  1  0  0  0
 13 14  1  0  0  0
 13 15  1  0  0  0
 13 16  1  0  0  0
 17 18  2  0  0  0
 17 19  1  0  0  0
 19 20  1  0  0  0
 19 21  1  0  0  0
 20 23  1  0  0  0
 21 22  1  0  0  0
 21 27  1  0  0  0
 22 23  1  0  0  0
 22 24  1  0  0  0
 23 24  1  0  0  0
 24 25  1  0  0  0
 24 26  1  0  0  0
 27 28  2  0  0  0
 27 29  1  0  0  0
 29 30  1  0  0  0
 30 31  1  0  0  0
 30 37  1  0  0  0
 31 32  1  0  0  0
 32 33  1  0  0  0
 32 34  1  0  0  0
 33 35  1  0  0  0
 34 35  1  0  0  0
 37 36  1  0  0  0
 37 40  1  0  0  0
 40 38  2  0  0  0
 40 39  1  0  0  0
  3 41  1  0  0  0
  5 42  1  0  0  0
  5 43  1  0  0  0
  5 44  1  0  0  0
  6 45  1  0  0  0
  6 46  1  0  0  0
  7 47  1  0  0  0
  7 48  1  0  0  0
  8 49  1  0  0  0
  8 50  1  0  0  0
  9 51  1  0  0  0
  9 52  1  0  0  0
 10 53  1  0  0  0
 10 54  1  0  0  0
 11 55  1  0  0  0
 12 56  1  0  0  0
 14 57  1  0  0  0
 14 58  1  0  0  0
 14 59  1  0  0  0
 15 60  1  0  0  0
 15 61  1  0  0  0
 15 62  1  0  0  0
 16 63  1  0  0  0
 16 64  1  0  0  0
 16 65  1  0  0  0
 20 66  1  0  0  0
 20 67  1  0  0  0
 21 68  1  0  0  0
 22 69  1  0  0  0
 23 70  1  0  0  0
 25 71  1  0  0  0
 25 72  1  0  0  0
 25 73  1  0  0  0
 26 74  1  0  0  0
 26 75  1  0  0  0
 26 76  1  0  0  0
 29 77  1  0  0  0
 30 78  1  0  0  0
 31 79  1  0  0  0
 31 80  1  0  0  0
 32 81  1  0  0  0
 33 82  1  0  0  0
 33 83  1  0  0  0
 34 84  1  0  0  0
 34 85  1  0  0  0
 35 86  1  0  0  0
 35 87  1  0  0  0
 36 88  1  0  0  0
 37 89  1  0  0  0
 39 90  1  0  0  0
 39 91  1  0  0  0
M  END
$$$$
