6prf_ligand
  -I-interpret- 

 88 94  0  0  0  0  0  0  0  0999 V2000
  -18.2390   -4.4870    3.4220 C   0  0  0  0  0
  -17.9010   -3.7450    2.2930 C   0  0  0  0  0
  -16.6070   -3.8440    1.7890 C   0  0  0  0  0
  -17.4220    2.2360   -6.9150 C   0  0  0  0  0
  -15.8430   -1.1720    8.7340 C   0  0  0  0  0
  -17.9420   -3.6600    7.2700 C   0  0  0  0  0
  -17.9640    2.1930   -0.2210 C   0  0  0  0  0
  -18.2140    2.9720    1.0660 C   0  0  0  0  0
  -17.1190    2.7280    2.1110 C   0  0  0  0  0
  -18.2610    4.4470    0.7260 C   0  0  0  0  0
  -19.2540    0.0690    0.1200 C   0  0  0  0  0
  -19.4330   -0.2480    1.5930 C   0  0  0  0  0
  -18.5120   -1.3470    2.1510 C   0  0  0  0  0
  -17.8880    0.8060   -5.2960 C   0  0  0  0  0
  -17.4330   -1.1910    4.3430 C   0  0  0  0  0
  -16.4850    4.3400   -9.8030 C   0  0  0  0  0
  -18.4740   -0.2870   -4.6500 C   0  0  0  0  0
  -18.8990   -2.7640    1.6990 C   0  0  0  0  0
  -17.2920   -5.2970    3.9940 C   0  0  0  0  0
  -15.7140   -4.6940    2.3930 C   0  0  0  0  0
  -15.9970   -5.3840    3.5390 C   0  0  0  0  0
  -15.5190    4.2860   -8.6640 C   0  0  0  0  0
  -16.9260    1.5750   -4.6320 C   0  0  0  0  0
  -18.1130   -0.5670   -3.3430 C   0  0  0  0  0
  -16.5970   -1.5390    6.5470 C   0  0  0  0  0
  -17.1700    0.2120   -2.6920 C   0  0  0  0  0
  -16.6310   -2.9020    7.3000 C   0  0  0  0  0
  -16.6130    1.3180   -3.3010 C   0  0  0  0  0
  -16.4910   -2.5590    8.7990 C   0  0  0  0  0
  -17.9550   -2.4090    9.2520 C   0  0  0  0  0
  -16.3680    3.1130   -8.9730 C   0  0  0  0  0
  -18.0870   -0.2390    8.2260 C   0  0  0  0  0
  -16.6940   -0.4820    7.6590 C   0  0  0  0  0
  -17.6200   -6.0330    5.0910 F   0  0  0  0  0
  -14.4620   -4.7740    1.8810 F   0  0  0  0  0
  -18.1340    1.1850   -6.6090 N   0  0  0  0  0
  -17.9600    0.7160   -0.1240 N   0  0  0  0  0
  -17.5030    2.8070   -8.1330 N   0  0  0  0  0
  -18.5460   -1.3390    3.6170 N   0  0  0  0  0
  -18.3620   -1.0570    9.3730 O   0  0  0  0  0
  -15.5770    0.5050   -0.6710 O   0  0  0  0  0
  -20.8140   -0.6060    1.8800 O   0  0  0  0  0
  -18.7590   -3.0290    8.2650 O   0  0  0  0  0
  -16.3200   -0.9120    3.9310 O   0  0  0  0  0
  -17.7240   -1.4450    5.6380 O   0  0  0  0  0
  -17.0580   -1.4720   -0.7030 O   0  0  0  0  0
  -16.3950    2.8910   -5.6260 S   0  0  0  0  0
  -16.8470   -0.0800   -0.9800 S   0  0  0  0  0
  -19.2417   -4.4248    3.8448 H   0  0  0  0  0
  -16.3061   -3.2529    0.9240 H   0  0  0  0  0
  -14.7798   -1.1995    8.4955 H   0  0  0  0  0
  -15.8409   -0.6478    9.6897 H   0  0  0  0  0
  -17.8000   -4.7206    7.4775 H   0  0  0  0  0
  -18.4064   -3.6246    6.2845 H   0  0  0  0  0
  -16.9621    2.4720   -0.5473 H   0  0  0  0  0
  -18.7901    2.4448   -0.8860 H   0  0  0  0  0
  -19.1566    2.6337    1.4964 H   0  0  0  0  0
  -17.0838    1.6668    2.3576 H   0  0  0  0  0
  -16.1563    3.0404    1.7064 H   0  0  0  0  0
  -17.3411    3.3039    3.0094 H   0  0  0  0  0
  -17.3106    4.7473    0.2847 H   0  0  0  0  0
  -19.0669    4.6292    0.0150 H   0  0  0  0  0
  -18.4392    5.0224    1.6344 H   0  0  0  0  0
  -20.0487    0.7470   -0.1913 H   0  0  0  0  0
  -19.2921   -0.8620   -0.4456 H   0  0  0  0  0
  -19.1475    0.6749    2.0977 H   0  0  0  0  0
  -17.5202   -1.1173    1.7616 H   0  0  0  0  0
  -16.4977    4.6207  -10.8562 H   0  0  0  0  0
  -17.2627    4.9988  -10.1894 H   0  0  0  0  0
  -19.2040   -0.9092   -5.1676 H   0  0  0  0  0
  -19.9061   -3.0030    2.0406 H   0  0  0  0  0
  -18.8819   -2.8267    0.6109 H   0  0  0  0  0
  -15.2402   -5.9690    4.0616 H   0  0  0  0  0
  -15.2388    4.8881   -7.7997 H   0  0  0  0  0
  -14.4696    4.5080   -8.4701 H   0  0  0  0  0
  -18.5740   -1.4064   -2.8224 H   0  0  0  0  0
  -15.6992   -1.4111    5.9423 H   0  0  0  0  0
  -15.8628   -3.5108    6.8231 H   0  0  0  0  0
  -15.9415    1.9768   -2.7504 H   0  0  0  0  0
  -15.9421   -3.2516    9.4371 H   0  0  0  0  0
  -18.0591   -2.8643   10.2369 H   0  0  0  0  0
  -16.1500    2.0592   -9.1465 H   0  0  0  0  0
  -18.8137   -0.4878    7.4526 H   0  0  0  0  0
  -18.1481    0.8048    8.5340 H   0  0  0  0  0
  -16.3943    0.5049    7.3065 H   0  0  0  0  0
  -18.4310    3.0395   -8.4868 H   0  0  0  0  0
  -19.4406   -1.4490    4.0945 H   0  0  0  0  0
  -20.9048   -0.8023    2.8153 H   0  0  0  0  0
  2  1  4  0  0  0
  1 19  4  0  0  0
  2  3  4  0  0  0
 18  2  1  0  0  0
  3 20  4  0  0  0
  4 36  4  0  0  0
  4 38  1  0  0  0
 47  4  4  0  0  0
  5 29  1  0  0  0
 33  5  1  0  0  0
 27  6  1  0  0  0
  6 43  1  0  0  0
  7  8  1  0  0  0
 37  7  1  0  0  0
  8  9  1  0  0  0
  8 10  1  0  0  0
 11 12  1  0  0  0
 37 11  1  0  0  0
 12 13  1  0  0  0
 12 42  1  0  0  0
 13 18  1  0  0  0
 13 39  1  0  0  0
 17 14  4  0  0  0
 23 14  4  0  0  0
 14 36  4  0  0  0
 39 15  1  0  0  0
 15 44  2  0  0  0
 15 45  1  0  0  0
 22 16  1  0  0  0
 31 16  1  0  0  0
 24 17  4  0  0  0
 19 21  4  0  0  0
 19 34  1  0  0  0
 20 21  4  0  0  0
 20 35  1  0  0  0
 31 22  1  0  0  0
 28 23  4  0  0  0
 23 47  4  0  0  0
 26 24  4  0  0  0
 25 27  1  0  0  0
 25 33  1  0  0  0
 45 25  1  0  0  0
 26 28  4  0  0  0
 48 26  1  0  0  0
 27 29  1  0  0  0
 29 30  1  0  0  0
 40 30  1  0  0  0
 30 43  1  0  0  0
 38 31  1  0  0  0
 33 32  1  0  0  0
 32 40  1  0  0  0
 37 48  1  0  0  0
 48 41  2  0  0  0
 48 46  2  0  0  0
  1 49  1  0  0  0
  3 50  1  0  0  0
  5 51  1  0  0  0
  5 52  1  0  0  0
  6 53  1  0  0  0
  6 54  1  0  0  0
  7 55  1  0  0  0
  7 56  1  0  0  0
  8 57  1  0  0  0
  9 58  1  0  0  0
  9 59  1  0  0  0
  9 60  1  0  0  0
 10 61  1  0  0  0
 10 62  1  0  0  0
 10 63  1  0  0  0
 11 64  1  0  0  0
 11 65  1  0  0  0
 12 66  1  0  0  0
 13 67  1  0  0  0
 16 68  1  0  0  0
 16 69  1  0  0  0
 17 70  1  0  0  0
 18 71  1  0  0  0
 18 72  1  0  0  0
 21 73  1  0  0  0
 22 74  1  0  0  0
 22 75  1  0  0  0
 24 76  1  0  0  0
 25 77  1  0  0  0
 27 78  1  0  0  0
 28 79  1  0  0  0
 29 80  1  0  0  0
 30 81  1  0  0  0
 31 82  1  0  0  0
 32 83  1  0  0  0
 32 84  1  0  0  0
 33 85  1  0  0  0
 38 86  1  0  0  0
 39 87  1  0  0  0
 42 88  1  0  0  0
M  END
$$$$
