5uxm_ligand
  -I-interpret- 

 27 28  0  0  0  0  0  0  0  0999 V2000
   -2.9880   -7.6190  -47.3250 N   0  3  0  0  0
   -3.6540   -8.7600  -48.0200 C   0  0  0  0  0
   -4.8600   -9.2650  -47.2600 C   0  0  0  0  0
   -5.6040  -10.0820  -47.7930 O   0  0  0  0  0
   -2.6700   -9.8960  -48.2300 C   0  0  0  0  0
   -2.0400  -10.4300  -46.9810 C   0  0  0  0  0
   -0.9140   -9.9800  -46.3890 C   0  0  0  0  0
   -2.4910  -11.5490  -46.2160 C   0  0  0  0  0
   -0.6220  -10.7560  -45.2910 N   0  0  0  0  0
   -1.5850  -11.7120  -45.1400 C   0  0  0  0  0
   -3.5650  -12.4330  -46.3360 C   0  0  0  0  0
   -1.7180  -12.7270  -44.2020 C   0  0  0  0  0
   -3.7100  -13.4470  -45.3820 C   0  0  0  0  0
   -2.7790  -13.5910  -44.3370 C   0  0  0  0  0
   -5.0760   -8.9050  -46.0940 O   0  0  0  0  0
   -3.6611   -6.8644  -47.1912 H   0  0  0  0  0
   -2.6404   -7.9310  -46.4182 H   0  0  0  0  0
   -2.2090   -7.2848  -47.8924 H   0  0  0  0  0
   -3.9996   -8.3899  -48.9852 H   0  0  0  0  0
   -1.8614   -9.5010  -48.8451 H   0  0  0  0  0
   -3.2304  -10.7182  -48.6750 H   0  0  0  0  0
   -0.3241   -9.1291  -46.7297 H   0  0  0  0  0
   -4.2763  -12.3355  -47.1561 H   0  0  0  0  0
   -1.0045  -12.8354  -43.3851 H   0  0  0  0  0
   -4.5542  -14.1332  -45.4495 H   0  0  0  0  0
   -2.9012  -14.4033  -43.6205 H   0  0  0  0  0
   -4.4087   -8.2681  -45.8281 H   0  0  0  0  0
  1  2  1  0  0  0
  2  3  1  0  0  0
  2  5  1  0  0  0
  3  4  2  0  0  0
  3 15  1  0  0  0
  5  6  1  0  0  0
  6  7  4  0  0  0
  6  8  4  0  0  0
  7  9  4  0  0  0
  8 10  4  0  0  0
  8 11  4  0  0  0
  9 10  4  0  0  0
 10 12  4  0  0  0
 11 13  4  0  0  0
 12 14  4  0  0  0
 13 14  4  0  0  0
  1 16  1  0  0  0
  1 17  1  0  0  0
  1 18  1  0  0  0
  2 19  1  0  0  0
  5 20  1  0  0  0
  5 21  1  0  0  0
  7 22  1  0  0  0
 11 23  1  0  0  0
 12 24  1  0  0  0
 13 25  1  0  0  0
 14 26  1  0  0  0
 15 27  1  0  0  0
M  END
$$$$
