5n2z_ligand
  -I-interpret- 

 63 63  0  0  0  0  0  0  0  0999 V2000
    8.2210  -44.6750    1.7610 C   0  0  0  0  0
   12.2310  -40.1250    6.9930 C   0  0  0  0  0
   13.0160  -40.4340    9.3750 C   0  0  0  0  0
   13.9900  -40.3150   11.5550 C   0  0  0  0  0
   15.4850  -40.5130   11.6490 C   0  0  0  0  0
   16.2850  -39.9060   12.6550 C   0  0  0  0  0
   17.6630  -40.1260   12.6950 C   0  0  0  0  0
   16.1230  -41.3170   10.7000 C   0  0  0  0  0
   11.5850  -38.7170    6.0560 P   0  0  0  0  0
   10.2020  -38.7810    3.7300 C   0  0  0  0  0
   11.3270  -39.2750    4.5400 N   0  0  0  0  0
   12.5560  -37.5690    6.1660 O   0  0  0  0  0
   10.5600  -38.8410    2.2400 C   0  0  0  0  0
    9.1630  -40.9780    4.1740 N   0  0  0  0  0
    7.8240  -39.1630    3.9210 O   0  0  0  0  0
    9.4900  -38.3100    1.2840 C   0  0  0  0  0
    9.2420  -45.7210    1.7460 N   0  3  0  0  0
   10.1920  -38.3280    6.6510 O   0  0  0  0  0
    9.8130  -38.7180   -0.1650 C   0  0  0  0  0
   12.9200  -39.7350    8.2290 N   0  0  0  0  0
   13.6410  -39.6760   10.3130 O   0  0  0  0  0
    9.3460  -36.7870    1.3980 C   0  0  0  0  0
   12.5820  -41.5500    9.4490 O   0  0  0  0  0
    8.9520  -39.6450    3.9590 C   0  0  0  0  0
    8.0590  -41.8910    4.3800 C   0  0  0  0  0
    7.6350  -42.5630    3.0890 C   0  0  0  0  0
    8.7170  -43.5030    2.6070 C   0  0  0  0  0
   18.2700  -40.9570   11.7470 C   0  0  0  0  0
   17.4900  -41.5280   10.7330 C   0  0  0  0  0
    7.2984  -45.0696    2.1868 H   0  0  0  0  0
    8.0284  -44.3364    0.7430 H   0  0  0  0  0
   12.9559  -40.6366    6.3598 H   0  0  0  0  0
   11.3834  -40.7507    7.2724 H   0  0  0  0  0
   13.6647  -39.6829   12.3812 H   0  0  0  0  0
   13.5011  -41.2881   11.6013 H   0  0  0  0  0
   15.8185  -39.2633   13.4016 H   0  0  0  0  0
   18.2675  -39.6493   13.4666 H   0  0  0  0  0
   15.5301  -41.7884    9.9162 H   0  0  0  0  0
    9.9995  -37.7525    4.0287 H   0  0  0  0  0
   11.9561  -39.9767    4.1498 H   0  0  0  0  0
   10.6991  -39.8942    1.9962 H   0  0  0  0  0
   11.4377  -38.2087    2.1058 H   0  0  0  0  0
   10.1177  -41.3367    4.1896 H   0  0  0  0  0
    8.5363  -38.7554    1.5671 H   0  0  0  0  0
    8.9150  -46.5056    1.1822 H   0  0  0  0  0
   10.1029  -45.3484    1.3454 H   0  0  0  0  0
    9.4181  -46.0363    2.6999 H   0  0  0  0  0
    9.5915  -39.0726    6.5701 H   0  0  0  0  0
   10.7806  -38.3051   -0.4503 H   0  0  0  0  0
    9.8451  -39.8052   -0.2364 H   0  0  0  0  0
    9.0411  -38.3315   -0.8306 H   0  0  0  0  0
   13.3812  -38.8253    8.2180 H   0  0  0  0  0
    9.0615  -36.5255    2.4172 H   0  0  0  0  0
   10.2968  -36.3140    1.1521 H   0  0  0  0  0
    8.5778  -36.4431    0.7054 H   0  0  0  0  0
    7.2120  -41.3228    4.7645 H   0  0  0  0  0
    8.3795  -42.6636    5.0789 H   0  0  0  0  0
    7.4627  -41.7996    2.3303 H   0  0  0  0  0
    6.7225  -43.1320    3.2669 H   0  0  0  0  0
    9.3848  -42.9178    1.9748 H   0  0  0  0  0
    9.1829  -43.9298    3.4952 H   0  0  0  0  0
   19.3401  -41.1583   11.7970 H   0  0  0  0  0
   17.9625  -42.1417    9.9661 H   0  0  0  0  0
  1 17  1  0  0  0
 27  1  1  0  0  0
  9  2  1  0  0  0
  2 20  1  0  0  0
 20  3  1  0  0  0
  3 21  1  0  0  0
  3 23  2  0  0  0
  4  5  1  0  0  0
 21  4  1  0  0  0
  5  6  4  0  0  0
  5  8  4  0  0  0
  6  7  4  0  0  0
  7 28  4  0  0  0
  8 29  4  0  0  0
 11  9  1  0  0  0
  9 12  2  0  0  0
  9 18  1  0  0  0
 10 11  1  0  0  0
 10 13  1  0  0  0
 24 10  1  0  0  0
 13 16  1  0  0  0
 14 24  1  0  0  0
 25 14  1  0  0  0
 24 15  2  0  0  0
 16 19  1  0  0  0
 16 22  1  0  0  0
 26 25  1  0  0  0
 26 27  1  0  0  0
 28 29  4  0  0  0
  1 30  1  0  0  0
  1 31  1  0  0  0
  2 32  1  0  0  0
  2 33  1  0  0  0
  4 34  1  0  0  0
  4 35  1  0  0  0
  6 36  1  0  0  0
  7 37  1  0  0  0
  8 38  1  0  0  0
 10 39  1  0  0  0
 11 40  1  0  0  0
 13 41  1  0  0  0
 13 42  1  0  0  0
 14 43  1  0  0  0
 16 44  1  0  0  0
 17 45  1  0  0  0
 17 46  1  0  0  0
 17 47  1  0  0  0
 18 48  1  0  0  0
 19 49  1  0  0  0
 19 50  1  0  0  0
 19 51  1  0  0  0
 20 52  1  0  0  0
 22 53  1  0  0  0
 22 54  1  0  0  0
 22 55  1  0  0  0
 25 56  1  0  0  0
 25 57  1  0  0  0
 26 58  1  0  0  0
 26 59  1  0  0  0
 27 60  1  0  0  0
 27 61  1  0  0  0
 28 62  1  0  0  0
 29 63  1  0  0  0
M  END
$$$$
