### 
### Created by X-TOOL on Mon Sep 10 21:13:30 2018
### 

@<TRIPOS>MOLECULE
5n2z_ligand
   62    62     1     0     0
SMALL
GAST_HUCK


@<TRIPOS>ATOM
      1 C10         8.2210  -44.6750    1.7610 C.3       1 8JH        -0.0353
      2 C11        12.2310  -40.1250    6.9930 C.3       1 8JH         0.1132
      3 C12        13.0160  -40.4340    9.3750 C.2       1 8JH         0.3229
      4 C13        13.9900  -40.3150   11.5550 C.3       1 8JH         0.1113
      5 C14        15.4850  -40.5130   11.6490 C.ar      1 8JH        -0.0130
      6 C15        16.2850  -39.9060   12.6550 C.ar      1 8JH        -0.0578
      7 C16        17.6630  -40.1260   12.6950 C.ar      1 8JH        -0.0685
      8 C19        16.1230  -41.3170   10.7000 C.ar      1 8JH        -0.0578
      9 P01        11.5850  -38.7170    6.0560 P.3       1 8JH         0.0870
     10 C01        10.2020  -38.7810    3.7300 C.3       1 8JH         0.1228
     11 N01        11.3270  -39.2750    4.5400 N.am      1 8JH        -0.2736
     12 O01        12.5560  -37.5690    6.1660 O.co2     1 8JH        -0.6057
     13 C02        10.5600  -38.8410    2.2400 C.3       1 8JH        -0.0137
     14 N02         9.1630  -40.9780    4.1740 N.am      1 8JH        -0.2854
     15 O02         7.8240  -39.1630    3.9210 O.2       1 8JH        -0.3950
     16 C03         9.4900  -38.3100    1.2840 C.3       1 8JH        -0.0429
     17 N03         9.2420  -45.7210    1.7460 N.4       1 8JH         0.2185
     18 O03        10.1920  -38.3280    6.6510 O.co2     1 8JH        -0.6057
     19 C04         9.8130  -38.7180   -0.1650 C.3       1 8JH        -0.0625
     20 N04        12.9200  -39.7350    8.2290 N.am      1 8JH        -0.2448
     21 O04        13.6410  -39.6760   10.3130 O.3       1 8JH        -0.2506
     22 C05         9.3460  -36.7870    1.3980 C.3       1 8JH        -0.0625
     23 O05        12.5820  -41.5500    9.4490 O.2       1 8JH        -0.3774
     24 C06         8.9520  -39.6450    3.9590 C.2       1 8JH         0.1977
     25 C07         8.0590  -41.8910    4.3800 C.3       1 8JH         0.0311
     26 C08         7.6350  -42.5630    3.0890 C.3       1 8JH        -0.0279
     27 C09         8.7170  -43.5030    2.6070 C.3       1 8JH        -0.0108
     28 C17        18.2700  -40.9570   11.7470 C.ar      1 8JH        -0.0687
     29 C18        17.4900  -41.5280   10.7330 C.ar      1 8JH        -0.0685
     30 H1          7.2916  -45.0739    2.1935 H         1 8JH         0.0813
     31 H2          8.0298  -44.3323    0.7334 H         1 8JH         0.0813
     32 H3         12.9412  -40.6719    6.3555 H         1 8JH         0.0743
     33 H4         11.3907  -40.7845    7.2554 H         1 8JH         0.0743
     34 H5         13.6553  -39.6850   12.3923 H         1 8JH         0.0776
     35 H6         13.4914  -41.2939   11.6105 H         1 8JH         0.0776
     36 H7         15.8211  -39.2668   13.3975 H         1 8JH         0.0557
     37 H8         18.2642  -39.6519   13.4624 H         1 8JH         0.0599
     38 H9         15.5333  -41.7858    9.9205 H         1 8JH         0.0557
     39 H10         9.9845  -37.7408    4.0141 H         1 8JH         0.0753
     40 H11        11.9438  -39.9630    4.1575 H         1 8JH         0.1669
     41 H12        10.7551  -39.8919    1.9803 H         1 8JH         0.0311
     42 H13        11.4748  -38.2496    2.0871 H         1 8JH         0.0311
     43 H14        10.0990  -41.3297    4.1893 H         1 8JH         0.1851
     44 H15         8.5278  -38.7646    1.5625 H         1 8JH         0.0298
     45 H16         8.9199  -46.4970    1.1890 H         1 8JH         0.1994
     46 H17         9.4168  -46.0335    2.6883 H         1 8JH         0.1994
     47 H18        10.0933  -45.3540    1.3503 H         1 8JH         0.1994
     48 H19         9.0347  -38.3285   -0.8377 H         1 8JH         0.0232
     49 H20         9.8457  -39.8150   -0.2384 H         1 8JH         0.0232
     50 H21        10.7893  -38.3019   -0.4542 H         1 8JH         0.0232
     51 H22        13.3722  -38.8431    8.2182 H         1 8JH         0.1884
     52 H23         9.1158  -36.5174    2.4393 H         1 8JH         0.0232
     53 H24         8.5315  -36.4456    0.7422 H         1 8JH         0.0232
     54 H25        10.2874  -36.3059    1.0943 H         1 8JH         0.0232
     55 H26         7.2045  -41.3303    4.7867 H         1 8JH         0.0520
     56 H27         8.3661  -42.6643    5.0995 H         1 8JH         0.0520
     57 H28         7.4537  -41.7950    2.3226 H         1 8JH         0.0286
     58 H29         6.7104  -43.1328    3.2631 H         1 8JH         0.0286
     59 H30         9.4295  -42.9226    2.0025 H         1 8JH         0.0317
     60 H31         9.2321  -43.9119    3.4888 H         1 8JH         0.0317
     61 H32        19.3342  -41.1572   11.7967 H         1 8JH         0.0559
     62 H33        17.9599  -42.1383    9.9703 H         1 8JH         0.0599
@<TRIPOS>BOND
     1    1   17 1  
     2   27    1 1  
     3    9    2 1  
     4    2   20 1  
     5   20    3 am 
     6    3   21 1  
     7    3   23 2  
     8    4    5 1  
     9   21    4 1  
    10    5    6 ar 
    11    5    8 ar 
    12    6    7 ar 
    13    7   28 ar 
    14    8   29 ar 
    15   11    9 am 
    16    9   12 ar 
    17    9   18 ar 
    18   10   11 1  
    19   10   13 1  
    20   24   10 1  
    21   13   16 1  
    22   14   24 am 
    23   25   14 1  
    24   24   15 2  
    25   16   19 1  
    26   16   22 1  
    27   26   25 1  
    28   26   27 1  
    29   28   29 ar 
    30    1   30 1  
    31    1   31 1  
    32    2   32 1  
    33    2   33 1  
    34    4   34 1  
    35    4   35 1  
    36    6   36 1  
    37    7   37 1  
    38    8   38 1  
    39   10   39 1  
    40   11   40 1  
    41   13   41 1  
    42   13   42 1  
    43   14   43 1  
    44   16   44 1  
    45   17   45 1  
    46   17   46 1  
    47   17   47 1  
    48   19   48 1  
    49   19   49 1  
    50   19   50 1  
    51   20   51 1  
    52   22   52 1  
    53   22   53 1  
    54   22   54 1  
    55   25   55 1  
    56   25   56 1  
    57   26   57 1  
    58   26   58 1  
    59   27   59 1  
    60   27   60 1  
    61   28   61 1  
    62   29   62 1  
@<TRIPOS>SUBSTRUCTURE
     1 8JH         1

