1b5i_ligand
  -I-interpret- 

 62 61  0  0  0  0  0  0  0  0999 V2000
    6.8880   16.5850   15.2370 N   0  3  0  0  0
    6.4120   17.8710   14.6290 C   0  0  0  0  0
    5.2240   18.4200   15.4180 C   0  0  0  0  0
    4.4480   17.6480   15.9690 O   0  0  0  0  0
    6.0570   17.8000   13.1500 C   0  0  0  0  0
    5.1710   16.6660   12.6790 C   0  0  0  0  0
    5.1470   16.5360   11.1470 C   0  0  0  0  0
    6.4820   16.0900   10.5660 C   0  0  0  0  0
    6.8160   14.6790   10.9490 N   0  3  0  0  0
    5.1150   19.7310   15.5020 N   0  0  0  0  0
    3.9960   20.3660   16.2000 C   0  0  0  0  0
    2.7140   20.3480   15.3810 C   0  0  0  0  0
    2.6990   20.6480   14.1900 O   0  0  0  0  0
    4.3040   21.8440   16.5010 C   0  0  0  0  0
    4.9860   21.8890   17.8790 C   0  0  0  0  0
    4.4780   21.2970   18.8270 O   0  0  0  0  0
    6.1080   22.5410   18.0450 N   0  0  0  0  0
    1.5940   19.9770   16.0020 N   0  0  0  0  0
    0.3310   19.9140   15.3150 C   0  0  0  0  0
   -0.7100   20.7810   16.0510 C   0  0  0  0  0
   -1.7460   21.1160   15.4950 O   0  0  0  0  0
   -0.2470   18.4830   15.2680 C   0  0  0  0  0
   -1.3900   18.4580   14.2440 C   0  0  0  0  0
   -1.6500   17.0610   13.7100 C   0  0  0  0  0
   -2.5540   17.1150   12.4690 C   0  0  0  0  0
   -3.9330   17.4300   12.9680 N   0  3  0  0  0
   -0.5210   21.1280   17.2120 O   0  0  0  0  0
    7.6801   16.2298   14.7015 H   0  0  0  0  0
    7.1755   16.7521   16.2013 H   0  0  0  0  0
    6.1309   15.9017   15.2202 H   0  0  0  0  0
    7.2677   18.5434   14.6903 H   0  0  0  0  0
    7.0061   17.6561   12.6337 H   0  0  0  0  0
    5.4916   18.7094   12.9466 H   0  0  0  0  0
    4.1547   16.8709   13.0154 H   0  0  0  0  0
    5.5666   15.7370   13.0895 H   0  0  0  0  0
    4.9171   17.5183   10.7342 H   0  0  0  0  0
    4.4043   15.7808   10.8897 H   0  0  0  0  0
    7.2608   16.7439   10.9585 H   0  0  0  0  0
    6.4161   16.1424    9.4793 H   0  0  0  0  0
    7.7144   14.4208   10.5409 H   0  0  0  0  0
    6.8696   14.6074   11.9651 H   0  0  0  0  0
    6.0904   14.0525   10.6006 H   0  0  0  0  0
    5.8285   20.3178   15.0696 H   0  0  0  0  0
    3.8598   19.7911   17.1160 H   0  0  0  0  0
    3.3888   22.4361   16.5039 H   0  0  0  0  0
    4.9540   22.2665   15.7348 H   0  0  0  0  0
    6.5583   22.5565   18.9601 H   0  0  0  0  0
    6.5325   23.0338   17.2593 H   0  0  0  0  0
    1.6334   19.7311   16.9911 H   0  0  0  0  0
    0.5197   20.2659   14.3008 H   0  0  0  0  0
   -0.6202   18.1981   16.2517 H   0  0  0  0  0
    0.5299   17.7754   14.9783 H   0  0  0  0  0
   -1.1084   19.0949   13.4055 H   0  0  0  0  0
   -2.2966   18.8064   14.7387 H   0  0  0  0  0
   -2.1466   16.4745   14.4830 H   0  0  0  0  0
   -0.6987   16.6060   13.4340 H   0  0  0  0  0
   -2.5383   16.1675   11.9303 H   0  0  0  0  0
   -2.2090   17.8719   11.7646 H   0  0  0  0  0
   -4.5765   17.4775   12.1780 H   0  0  0  0  0
   -4.2358   16.6986   13.6112 H   0  0  0  0  0
   -3.9211   18.3273   13.4529 H   0  0  0  0  0
    0.3277   20.7932   17.5107 H   0  0  0  0  0
  2  1  1  0  0  0
  2  5  1  0  0  0
  3  2  1  0  0  0
  3  4  2  0  0  0
  5  6  1  0  0  0
  6  7  1  0  0  0
  7  8  1  0  0  0
  8  9  1  0  0  0
 11 10  1  0  0  0
 11 14  1  0  0  0
 12 11  1  0  0  0
 12 13  2  0  0  0
 14 15  1  0  0  0
 15 17  1  0  0  0
 15 16  2  0  0  0
 10  3  1  0  0  0
 18 19  1  0  0  0
 19 22  1  0  0  0
 19 20  1  0  0  0
 20 21  2  0  0  0
 20 27  1  0  0  0
 22 23  1  0  0  0
 23 24  1  0  0  0
 24 25  1  0  0  0
 25 26  1  0  0  0
 12 18  1  0  0  0
  1 28  1  0  0  0
  1 29  1  0  0  0
  1 30  1  0  0  0
  2 31  1  0  0  0
  5 32  1  0  0  0
  5 33  1  0  0  0
  6 34  1  0  0  0
  6 35  1  0  0  0
  7 36  1  0  0  0
  7 37  1  0  0  0
  8 38  1  0  0  0
  8 39  1  0  0  0
  9 40  1  0  0  0
  9 41  1  0  0  0
  9 42  1  0  0  0
 10 43  1  0  0  0
 11 44  1  0  0  0
 14 45  1  0  0  0
 14 46  1  0  0  0
 17 47  1  0  0  0
 17 48  1  0  0  0
 18 49  1  0  0  0
 19 50  1  0  0  0
 22 51  1  0  0  0
 22 52  1  0  0  0
 23 53  1  0  0  0
 23 54  1  0  0  0
 24 55  1  0  0  0
 24 56  1  0  0  0
 25 57  1  0  0  0
 25 58  1  0  0  0
 26 59  1  0  0  0
 26 60  1  0  0  0
 26 61  1  0  0  0
 27 62  1  0  0  0
M  END
$$$$
