5nhv_ligand
  -I-interpret- 

 42 45  0  0  0  0  0  0  0  0999 V2000
  -18.1500   10.5650   40.4840 C   0  0  0  0  0
  -18.6030   12.4470   41.6830 C   0  0  0  0  0
  -16.4450   12.1130   40.9910 C   0  0  0  0  0
  -14.5840   13.7180   41.6250 C   0  0  0  0  0
  -12.3840   14.9390   41.9210 C   0  0  0  0  0
  -10.9410   14.4840   41.9350 C   0  0  0  0  0
  -11.3920   12.7080   40.2680 C   0  0  0  0  0
  -19.2140   14.4780   43.0380 C   0  0  0  0  0
  -18.3890   14.2930   44.3120 C   0  0  0  0  0
  -18.1830   15.6420   44.9700 C   0  0  0  0  0
  -20.1900   16.5160   44.0650 C   0  0  0  0  0
  -20.5090   15.2250   43.3410 C   0  0  0  0  0
  -10.9500   11.7590   39.6250 O   0  0  0  0  0
  -12.8060   12.8160   40.6380 C   0  0  0  0  0
  -13.8720   11.9800   40.3910 C   0  0  0  0  0
  -10.5990   13.6710   40.7540 N   0  0  0  0  0
  -13.2520   13.8610   41.4270 N   0  0  0  0  0
  -15.0460   12.5820   41.0010 C   0  0  0  0  0
  -16.8250   10.9370   40.3520 C   0  0  0  0  0
  -17.3220   12.8760   41.6550 N   0  0  0  0  0
  -19.0650   11.3080   41.1340 N   0  0  0  0  0
  -19.4830   13.2030   42.3630 N   0  0  0  0  0
  -19.4360   16.2790   45.2630 O   0  0  0  0  0
  -18.4698    9.6226   40.0393 H   0  0  0  0  0
  -15.2039   14.4069   42.1988 H   0  0  0  0  0
  -12.4790   15.8030   41.2633 H   0  0  0  0  0
  -12.6846   15.2024   42.9351 H   0  0  0  0  0
  -10.7885   13.8708   42.8232 H   0  0  0  0  0
  -10.3069   15.3706   41.9302 H   0  0  0  0  0
  -18.6209   15.0800   42.3496 H   0  0  0  0  0
  -17.4223   13.8555   44.0624 H   0  0  0  0  0
  -18.9157   13.6280   44.9964 H   0  0  0  0  0
  -17.6227   16.2789   44.2856 H   0  0  0  0  0
  -17.6439   15.4921   45.9054 H   0  0  0  0  0
  -21.1287   16.9976   44.3391 H   0  0  0  0  0
  -19.5943   17.1438   43.4023 H   0  0  0  0  0
  -21.1477   14.6044   43.9695 H   0  0  0  0  0
  -21.0253   15.4500   42.4078 H   0  0  0  0  0
  -13.8411   11.0402   39.8397 H   0  0  0  0  0
   -9.7125   13.8514   40.2828 H   0  0  0  0  0
  -16.1158   10.3407   39.7779 H   0  0  0  0  0
  -20.4396   12.8529   42.4152 H   0  0  0  0  0
  1 19  4  0  0  0
 21  1  4  0  0  0
  2 20  4  0  0  0
  2 21  4  0  0  0
 22  2  1  0  0  0
  3 18  1  0  0  0
  3 19  4  0  0  0
 20  3  4  0  0  0
  4 17  4  0  0  0
 18  4  4  0  0  0
  5  6  1  0  0  0
 17  5  1  0  0  0
  6 16  1  0  0  0
  7 13  2  0  0  0
  7 14  1  0  0  0
 16  7  1  0  0  0
  8  9  1  0  0  0
  8 12  1  0  0  0
  8 22  1  0  0  0
  9 10  1  0  0  0
 10 23  1  0  0  0
 12 11  1  0  0  0
 11 23  1  0  0  0
 14 15  4  0  0  0
 14 17  4  0  0  0
 15 18  4  0  0  0
  1 24  1  0  0  0
  4 25  1  0  0  0
  5 26  1  0  0  0
  5 27  1  0  0  0
  6 28  1  0  0  0
  6 29  1  0  0  0
  8 30  1  0  0  0
  9 31  1  0  0  0
  9 32  1  0  0  0
 10 33  1  0  0  0
 10 34  1  0  0  0
 11 35  1  0  0  0
 11 36  1  0  0  0
 12 37  1  0  0  0
 12 38  1  0  0  0
 15 39  1  0  0  0
 16 40  1  0  0  0
 19 41  1  0  0  0
 22 42  1  0  0  0
M  END
$$$$
