### 
### Created by X-TOOL on Mon Sep 10 21:12:45 2018
### 

@<TRIPOS>MOLECULE
1rst_ligand
  143   147     1     0     0
SMALL
GAST_HUCK


@<TRIPOS>ATOM
      1 N           3.8210   -0.7100   69.2420 N.4       1 ALA         0.2377
      2 CA          4.1630   -1.7340   68.2120 C.3       1 ALA         0.0621
      3 C           5.6700   -1.6580   68.0440 C.2       1 ALA         0.2265
      4 O           6.4020   -2.5000   68.5800 O.2       1 ALA        -0.3907
      5 CB          3.4520   -1.4350   66.8680 C.3       1 ALA        -0.0040
      6 H1          2.8254   -0.7114   69.3995 H         1 ALA         0.2015
      7 H2          4.1088    0.2005   68.9192 H         1 ALA         0.2015
      8 H3          4.2977   -0.9274   70.1032 H         1 ALA         0.2015
      9 N           6.1150   -0.5940   67.3650 N.am      1 TRP        -0.2600
     10 CA          7.5350   -0.3390   67.1090 C.3       1 TRP         0.1353
     11 C           8.3320   -0.3600   68.4380 C.2       1 TRP         0.2052
     12 O           7.8090    0.0100   69.5060 O.2       1 TRP        -0.3942
     13 CB          7.6910    0.9850   66.3090 C.3       1 TRP         0.0042
     14 CG          8.2660    2.1570   67.0510 C.2       1 TRP        -0.0418
     15 CD1         9.3970    2.8540   66.7230 C.2       1 TRP         0.0167
     16 CD2         7.7750    2.7430   68.2720 C.ar      1 TRP        -0.0214
     17 NE1         9.6480    3.8250   67.6680 N.pl3     1 TRP        -0.2890
     18 CE2         8.6700    3.7780   68.6280 C.ar      1 TRP         0.0603
     19 CE3         6.6670    2.4860   69.1050 C.ar      1 TRP        -0.0747
     20 CZ2         8.4950    4.5590   69.7780 C.ar      1 TRP        -0.0443
     21 CZ3         6.4950    3.2600   70.2460 C.ar      1 TRP        -0.0792
     22 CH2         7.4050    4.2840   70.5700 C.ar      1 TRP        -0.0768
     23 H4          3.8687   -2.7347   68.5612 H         1 ALA         0.1095
     24 H5          3.7230   -2.2050   66.1306 H         1 ALA         0.0310
     25 N           9.5650   -0.8510   68.3780 N.am      1 ARG        -0.2636
     26 CA         10.3940   -0.9480   69.5650 C.3       1 ARG         0.1311
     27 C          10.6370    0.3890   70.2310 C.2       1 ARG         0.2040
     28 O          11.2800    1.2740   69.6760 O.2       1 ARG        -0.3944
     29 CB         11.7240   -1.6050   69.2340 C.3       1 ARG        -0.0092
     30 CG         11.8840   -2.9820   69.8010 C.3       1 ARG        -0.0156
     31 CD         11.6240   -2.9940   71.2830 C.3       1 ARG         0.0627
     32 NE         12.0260   -4.2760   71.8590 N.pl3     1 ARG        -0.2723
     33 CZ         11.3530   -5.4220   71.7250 C.cat     1 ARG         0.2882
     34 NH1        10.2140   -5.4700   71.0290 N.pl3     1 ARG        -0.2849
     35 NH2        11.8360   -6.5360   72.2770 N.pl3     1 ARG        -0.2849
     36 H6          3.7657   -0.4474   66.4989 H         1 ALA         0.0310
     37 H7          2.3626   -1.4404   67.0203 H         1 ALA         0.0310
     38 H8          5.4445    0.0600   67.0147 H         1 TRP         0.1886
     39 H9          7.9227   -1.1538   66.4799 H         1 TRP         0.0815
     40 H10         6.6935    1.2759   65.9479 H         1 TRP         0.0397
     41 H11         8.3467    0.7802   65.4499 H         1 TRP         0.0397
     42 N          10.0760    0.5460   71.4160 N.am      1 HIS        -0.2625
     43 CA         10.2640    1.7660   72.1670 C.3       1 HIS         0.1371
     44 C          11.7290    1.7600   72.6250 C.2       1 HIS         0.2079
     45 O          12.2650    0.7030   72.9630 O.2       1 HIS        -0.3940
     46 CB          9.3170    1.7670   73.3750 C.3       1 HIS         0.0145
     47 CG          9.3660    3.0270   74.1800 C.2       1 HIS        -0.0027
     48 ND1        10.3400    3.2690   75.1230 N.2       1 HIS        -0.3252
     49 CD2         8.6010    4.1450   74.1310 C.2       1 HIS         0.0291
     50 CE1        10.1800    4.4860   75.6100 C.2       1 HIS         0.0907
     51 NE2         9.1310    5.0380   75.0270 N.pl3     1 HIS        -0.2752
     52 H12        10.0101    2.6682   65.8424 H         1 TRP         0.0795
     53 H13        10.4424    4.4806   67.6553 H         1 TRP         0.2216
     54 H14         5.9626    1.6994   68.8599 H         1 TRP         0.0540
     55 N          12.3790    2.9440   72.6880 N.am      1 PRO        -0.2497
     56 CA         13.7790    3.0050   73.1170 C.3       1 PRO         0.1338
     57 C          14.0860    2.4610   74.5040 C.2       1 PRO         0.2041
     58 O          15.2300    2.1190   74.7910 O.2       1 PRO        -0.3944
     59 CB         14.1380    4.4840   72.9880 C.3       1 PRO        -0.0104
     60 CG         12.8170    5.1920   72.9190 C.3       1 PRO        -0.0281
     61 CD         11.9310    4.2510   72.1830 C.3       1 PRO         0.0369
     62 N          13.0850    2.4070   75.3820 N.am      1 GLN        -0.2636
     63 CA         13.3120    1.8810   76.7270 C.3       1 GLN         0.1330
     64 C          13.7320    0.4260   76.6710 C.2       1 GLN         0.2042
     65 O          14.4930   -0.0400   77.5120 O.2       1 GLN        -0.3944
     66 CB         12.0470    1.9840   77.5930 C.3       1 GLN         0.0045
     67 CG         12.2130    1.3930   79.0000 C.3       1 GLN         0.0412
     68 CD         11.0160    1.6200   79.9200 C.2       1 GLN         0.1737
     69 OE1        10.7990    0.8710   80.8820 O.2       1 GLN        -0.3973
     70 NE2        10.2190    2.6260   79.6120 N.am      1 GLN        -0.3009
     71 H15         9.1917    5.3492   70.0334 H         1 TRP         0.0541
     72 H16         5.6480    3.0726   70.8960 H         1 TRP         0.0510
     73 H17         7.2423    4.8708   71.4668 H         1 TRP         0.0530
     74 N          13.2400   -0.2780   75.6560 N.am      1 PHE        -0.2619
     75 CA         13.4910   -1.6950   75.5020 C.3       1 PHE         0.1404
     76 C          14.4740   -2.0830   74.4000 C.2       1 PHE         0.2058
     77 O          14.3910   -3.1710   73.8360 O.2       1 PHE        -0.3942
     78 CB         12.1470   -2.4050   75.3460 C.3       1 PHE         0.0214
     79 CG         11.1340   -1.9810   76.3810 C.ar      1 PHE        -0.0386
     80 CD1        11.1880   -2.4860   77.6770 C.ar      1 PHE        -0.0601
     81 CD2        10.1770   -1.0200   76.0780 C.ar      1 PHE        -0.0601
     82 CE1        10.3070   -2.0300   78.6560 C.ar      1 PHE        -0.0686
     83 CE2         9.3000   -0.5620   77.0410 C.ar      1 PHE        -0.0686
     84 CZ          9.3660   -1.0700   78.3370 C.ar      1 PHE        -0.0687
     85 H18         9.9284   -1.1593   67.4989 H         1 ARG         0.1883
     86 N          15.4600   -1.2230   74.1720 N.am      1 GLY        -0.2663
     87 CA         16.4660   -1.4910   73.1650 C.3       1 GLY         0.1201
     88 C          15.9860   -1.1240   71.7800 C.2       1 GLY         0.2000
     89 O          16.6010   -1.5180   70.7880 O.2       1 GLY        -0.3947
     90 H19         9.8652   -1.5886   70.2861 H         1 ARG         0.0800
     91 N          14.8610   -0.4120   71.7190 N.am      1 GLY        -0.2724
     92 CA         14.3060    0.0190   70.4540 C.3       1 GLY         0.0833
     93 C          14.9950    1.2550   69.8880 C.2       1 GLY         0.0570
     94 O          14.6660    1.6190   68.7420 O.co2     1 GLY        -0.5669
     95 OXT        15.8650    1.8600   70.5700 O.co2     1 GLY        -0.5669
     96 H20        12.5306   -0.9718   69.6320 H         1 ARG         0.0313
     97 H21        11.8145   -1.6695   68.1396 H         1 ARG         0.0313
     98 H22        12.9106   -3.3299   69.6141 H         1 ARG         0.0301
     99 H23        11.1717   -3.6587   69.3063 H         1 ARG         0.0301
    100 H24        10.5507   -2.8356   71.4643 H         1 ARG         0.0689
    101 H25        12.1994   -2.1862   71.7588 H         1 ARG         0.0689
    102 H26        12.8954   -4.2973   72.4109 H         1 ARG         0.2642
    103 H27         9.7057   -6.3608   70.9340 H         1 ARG         0.2615
    104 H28         9.8440   -4.6162   70.5873 H         1 ARG         0.2615
    105 H29        12.7139   -6.5055   72.8149 H         1 ARG         0.2615
    106 H30        11.3311   -7.4268   72.1654 H         1 ARG         0.2615
    107 H31         9.5145   -0.1880   71.7981 H         1 HIS         0.1885
    108 H32        10.0633    2.6450   71.5369 H         1 HIS         0.0817
    109 H33         9.5895    0.9263   74.0300 H         1 HIS         0.0420
    110 H34         8.2887    1.6288   73.0096 H         1 HIS         0.0420
    111 H35         7.7289    4.3043   73.4986 H         1 HIS         0.0729
    112 H36        10.8077    4.9559   76.3657 H         1 HIS         0.1199
    113 H37         8.7701    5.9843   75.2146 H         1 HIS         0.2361
    114 H38        14.3839    2.4223   72.4067 H         1 PRO         0.0802
    115 H39        14.7222    4.6630   72.0733 H         1 PRO         0.0313
    116 H40        14.7136    4.8212   73.8626 H         1 PRO         0.0313
    117 H41        12.9129    6.1428   72.3743 H         1 PRO         0.0287
    118 H42        12.4259    5.3856   73.9287 H         1 PRO         0.0287
    119 H43        10.8724    4.4298   72.4227 H         1 PRO         0.0524
    120 H44        12.0795    4.3309   71.0960 H         1 PRO         0.0524
    121 H45        12.1748    2.7276   75.1198 H         1 GLN         0.1883
    122 H46        14.1143    2.4678   77.1981 H         1 GLN         0.0801
    123 H47        11.2331    1.4465   77.0844 H         1 GLN         0.0337
    124 H48        11.7793    3.0463   77.6919 H         1 GLN         0.0337
    125 H49        13.0974    1.8529   79.4651 H         1 GLN         0.0504
    126 H50        12.3720    0.3090   78.9022 H         1 GLN         0.0504
    127 H51         9.4191    2.8219   80.1792 H         1 GLN         0.1814
    128 H52        10.4151    3.1923   78.8114 H         1 GLN         0.1814
    129 H53        12.6762    0.1885   74.9744 H         1 PHE         0.1885
    130 H54        13.9403   -2.0409   76.4446 H         1 PHE         0.0823
    131 H55        12.3101   -3.4889   75.4383 H         1 PHE         0.0474
    132 H56        11.7444   -2.1784   74.3477 H         1 PHE         0.0474
    133 H57        11.9232   -3.2421   77.9276 H         1 PHE         0.0557
    134 H58        10.1182   -0.6241   75.0706 H         1 PHE         0.0557
    135 H59        10.3599   -2.4268   79.6634 H         1 PHE         0.0599
    136 H60         8.5618    0.1910   76.7896 H         1 PHE         0.0599
    137 H61         8.6788   -0.7118   79.0950 H         1 PHE         0.0559
    138 H62        15.5086   -0.3775   74.7037 H         1 GLY         0.1881
    139 H63        16.7120   -2.5630   73.1840 H         1 GLY         0.0763
    140 H64        17.3669   -0.9039   73.3967 H         1 GLY         0.0763
    141 H65        14.3895   -0.1700   72.5670 H         1 GLY         0.1873
    142 H66        13.2401    0.2484   70.5995 H         1 GLY         0.0689
    143 H67        14.4088   -0.8018   69.7289 H         1 GLY         0.0689
@<TRIPOS>BOND
     1    1    2 1  
     2    1    6 1  
     3    1    7 1  
     4    1    8 1  
     5    2    3 1  
     6    2    5 1  
     7    3    4 2  
     8    3    9 am 
     9    9   10 1  
    10    2   23 1  
    11   10   11 1  
    12   10   13 1  
    13   11   12 2  
    14   11   25 am 
    15   13   14 1  
    16   14   15 2  
    17   14   16 1  
    18   15   17 1  
    19   16   18 ar 
    20   16   19 ar 
    21   17   18 1  
    22    5   24 1  
    23   18   20 ar 
    24   19   21 ar 
    25   20   22 ar 
    26   21   22 ar 
    27   25   26 1  
    28    5   36 1  
    29   26   27 1  
    30   26   29 1  
    31   27   28 2  
    32   27   42 am 
    33   29   30 1  
    34   30   31 1  
    35   31   32 1  
    36   32   33 ar 
    37    5   37 1  
    38   33   34 ar 
    39   33   35 ar 
    40    9   38 1  
    41   10   39 1  
    42   13   40 1  
    43   13   41 1  
    44   42   43 1  
    45   15   52 1  
    46   43   44 1  
    47   43   46 1  
    48   44   45 2  
    49   44   55 am 
    50   46   47 1  
    51   47   48 1  
    52   47   49 2  
    53   48   50 2  
    54   17   53 1  
    55   49   51 1  
    56   50   51 1  
    57   19   54 1  
    58   55   56 1  
    59   55   61 1  
    60   56   57 1  
    61   56   59 1  
    62   57   58 2  
    63   57   62 am 
    64   59   60 1  
    65   60   61 1  
    66   62   63 1  
    67   20   71 1  
    68   63   64 1  
    69   63   66 1  
    70   64   65 2  
    71   64   74 am 
    72   66   67 1  
    73   67   68 1  
    74   68   69 2  
    75   68   70 am 
    76   21   72 1  
    77   22   73 1  
    78   74   75 1  
    79   25   85 1  
    80   75   76 1  
    81   75   78 1  
    82   76   77 2  
    83   76   86 am 
    84   78   79 1  
    85   79   80 ar 
    86   79   81 ar 
    87   80   82 ar 
    88   81   83 ar 
    89   82   84 ar 
    90   83   84 ar 
    91   86   87 1  
    92   26   90 1  
    93   87   88 1  
    94   88   89 2  
    95   88   91 am 
    96   91   92 1  
    97   29   96 1  
    98   92   93 1  
    99   93   94 ar 
   100   93   95 ar 
   101   29   97 1  
   102   30   98 1  
   103   30   99 1  
   104   31  100 1  
   105   31  101 1  
   106   32  102 1  
   107   34  103 1  
   108   34  104 1  
   109   35  105 1  
   110   35  106 1  
   111   42  107 1  
   112   43  108 1  
   113   46  109 1  
   114   46  110 1  
   115   49  111 1  
   116   50  112 1  
   117   51  113 1  
   118   56  114 1  
   119   59  115 1  
   120   59  116 1  
   121   60  117 1  
   122   60  118 1  
   123   61  119 1  
   124   61  120 1  
   125   62  121 1  
   126   63  122 1  
   127   66  123 1  
   128   66  124 1  
   129   67  125 1  
   130   67  126 1  
   131   70  127 1  
   132   70  128 1  
   133   74  129 1  
   134   75  130 1  
   135   78  131 1  
   136   78  132 1  
   137   80  133 1  
   138   81  134 1  
   139   82  135 1  
   140   83  136 1  
   141   84  137 1  
   142   86  138 1  
   143   87  139 1  
   144   87  140 1  
   145   91  141 1  
   146   92  142 1  
   147   92  143 1  
@<TRIPOS>SUBSTRUCTURE
     1 ALA         1

