1rst_ligand
  -I-interpret- 

141145  0  0  0  0  0  0  0  0999 V2000
    3.8210   -0.7100   69.2420 N   0  3  0  0  0
    4.1630   -1.7340   68.2120 C   0  0  0  0  0
    5.6700   -1.6580   68.0440 C   0  0  0  0  0
    6.4020   -2.5000   68.5800 O   0  0  0  0  0
    3.4520   -1.4350   66.8680 C   0  0  0  0  0
    6.1150   -0.5940   67.3650 N   0  0  0  0  0
    7.5350   -0.3390   67.1090 C   0  0  0  0  0
    8.3320   -0.3600   68.4380 C   0  0  0  0  0
    7.8090    0.0100   69.5060 O   0  0  0  0  0
    7.6910    0.9850   66.3090 C   0  0  0  0  0
    8.2660    2.1570   67.0510 C   0  0  0  0  0
    9.3970    2.8540   66.7230 C   0  0  0  0  0
    7.7750    2.7430   68.2720 C   0  0  0  0  0
    9.6480    3.8250   67.6680 N   0  0  0  0  0
    8.6700    3.7780   68.6280 C   0  0  0  0  0
    6.6670    2.4860   69.1050 C   0  0  0  0  0
    8.4950    4.5590   69.7780 C   0  0  0  0  0
    6.4950    3.2600   70.2460 C   0  0  0  0  0
    7.4050    4.2840   70.5700 C   0  0  0  0  0
    9.5650   -0.8510   68.3780 N   0  0  0  0  0
   10.3940   -0.9480   69.5650 C   0  0  0  0  0
   10.6370    0.3890   70.2310 C   0  0  0  0  0
   11.2800    1.2740   69.6760 O   0  0  0  0  0
   11.7240   -1.6050   69.2340 C   0  0  0  0  0
   11.8840   -2.9820   69.8010 C   0  0  0  0  0
   11.6240   -2.9940   71.2830 C   0  0  0  0  0
   12.0260   -4.2760   71.8590 N   0  0  0  0  0
   11.3530   -5.4220   71.7250 C   0  0  0  0  0
   10.2140   -5.4700   71.0290 N   0  0  0  0  0
   11.8360   -6.5360   72.2770 N   0  0  0  0  0
   10.0760    0.5460   71.4160 N   0  0  0  0  0
   10.2640    1.7660   72.1670 C   0  0  0  0  0
   11.7290    1.7600   72.6250 C   0  0  0  0  0
   12.2650    0.7030   72.9630 O   0  0  0  0  0
    9.3170    1.7670   73.3750 C   0  0  0  0  0
    9.3660    3.0270   74.1800 C   0  0  0  0  0
   10.3400    3.2690   75.1230 N   0  0  0  0  0
    8.6010    4.1450   74.1310 C   0  0  0  0  0
   10.1800    4.4860   75.6100 C   0  0  0  0  0
    9.1310    5.0380   75.0270 N   0  0  0  0  0
   12.3790    2.9440   72.6880 N   0  0  0  0  0
   13.7790    3.0050   73.1170 C   0  0  0  0  0
   14.0860    2.4610   74.5040 C   0  0  0  0  0
   15.2300    2.1190   74.7910 O   0  0  0  0  0
   14.1380    4.4840   72.9880 C   0  0  0  0  0
   12.8170    5.1920   72.9190 C   0  0  0  0  0
   11.9310    4.2510   72.1830 C   0  0  0  0  0
   13.0850    2.4070   75.3820 N   0  0  0  0  0
   13.3120    1.8810   76.7270 C   0  0  0  0  0
   13.7320    0.4260   76.6710 C   0  0  0  0  0
   14.4930   -0.0400   77.5120 O   0  0  0  0  0
   12.0470    1.9840   77.5930 C   0  0  0  0  0
   12.2130    1.3930   79.0000 C   0  0  0  0  0
   11.0160    1.6200   79.9200 C   0  0  0  0  0
   10.7990    0.8710   80.8820 O   0  0  0  0  0
   10.2190    2.6260   79.6120 N   0  0  0  0  0
   13.2400   -0.2780   75.6560 N   0  0  0  0  0
   13.4910   -1.6950   75.5020 C   0  0  0  0  0
   14.4740   -2.0830   74.4000 C   0  0  0  0  0
   14.3910   -3.1710   73.8360 O   0  0  0  0  0
   12.1470   -2.4050   75.3460 C   0  0  0  0  0
   11.1340   -1.9810   76.3810 C   0  0  0  0  0
   11.1880   -2.4860   77.6770 C   0  0  0  0  0
   10.1770   -1.0200   76.0780 C   0  0  0  0  0
   10.3070   -2.0300   78.6560 C   0  0  0  0  0
    9.3000   -0.5620   77.0410 C   0  0  0  0  0
    9.3660   -1.0700   78.3370 C   0  0  0  0  0
   15.4600   -1.2230   74.1720 N   0  0  0  0  0
   16.4660   -1.4910   73.1650 C   0  0  0  0  0
   15.9860   -1.1240   71.7800 C   0  0  0  0  0
   16.6010   -1.5180   70.7880 O   0  0  0  0  0
   14.8610   -0.4120   71.7190 N   0  0  0  0  0
   14.3060    0.0190   70.4540 C   0  0  0  0  0
   14.9950    1.2550   69.8880 C   0  0  0  0  0
   14.6660    1.6190   68.7420 O   0  0  0  0  0
   15.8650    1.8600   70.5700 O   0  0  0  0  0
    4.3021   -0.9322   70.1135 H   0  0  0  0  0
    4.1148    0.2105   68.9152 H   0  0  0  0  0
    2.8131   -0.7107   69.3989 H   0  0  0  0  0
    3.8373   -2.7277   68.5196 H   0  0  0  0  0
    3.7215   -0.4342   66.5306 H   0  0  0  0  0
    3.7634   -2.1671   66.1229 H   0  0  0  0  0
    2.3727   -1.4941   67.0084 H   0  0  0  0  0
    5.4311    0.0731   67.0077 H   0  0  0  0  0
    7.9580   -1.1312   66.4913 H   0  0  0  0  0
    6.6832    1.2798   66.0165 H   0  0  0  0  0
    8.3908    0.7677   65.5020 H   0  0  0  0  0
   10.0107    2.6680   65.8416 H   0  0  0  0  0
    5.9587    1.6950   68.8586 H   0  0  0  0  0
    9.1955    5.3536   70.0349 H   0  0  0  0  0
    5.6433    3.0716   70.8996 H   0  0  0  0  0
    7.2414    4.8740   71.4718 H   0  0  0  0  0
    9.9357   -1.1655   67.4813 H   0  0  0  0  0
    9.8414   -1.5645   70.2739 H   0  0  0  0  0
   12.5073   -0.9842   69.6689 H   0  0  0  0  0
   11.7781   -1.6948   68.1491 H   0  0  0  0  0
   12.9071   -3.3141   69.6246 H   0  0  0  0  0
   11.1657   -3.6433   69.3165 H   0  0  0  0  0
   10.5587   -2.8438   71.4583 H   0  0  0  0  0
   12.2012   -2.1970   71.7517 H   0  0  0  0  0
   12.8870   -4.2970   72.4055 H   0  0  0  0  0
    9.7186   -6.3552   70.9220 H   0  0  0  0  0
    9.8396   -4.6215   70.6045 H   0  0  0  0  0
   12.7132   -6.5087   72.7968 H   0  0  0  0  0
    9.5033   -0.2027   71.8057 H   0  0  0  0  0
   10.0466    2.6545   71.5741 H   0  0  0  0  0
    9.6242    0.9512   74.0294 H   0  0  0  0  0
    8.3016    1.6655   72.9919 H   0  0  0  0  0
    7.7281    4.3044   73.4980 H   0  0  0  0  0
   10.8083    4.9563   76.3664 H   0  0  0  0  0
   14.3819    2.3432   72.4953 H   0  0  0  0  0
   14.7501    4.6786   72.1073 H   0  0  0  0  0
   14.7418    4.8305   73.8267 H   0  0  0  0  0
   12.8953    6.1570   72.4183 H   0  0  0  0  0
   12.4283    5.4309   73.9089 H   0  0  0  0  0
   10.8705    4.4371   72.3526 H   0  0  0  0  0
   12.0103    4.3437   71.0998 H   0  0  0  0  0
   12.1566    2.7340   75.1145 H   0  0  0  0  0
   14.1043    2.4834   77.1713 H   0  0  0  0  0
   11.2619    1.4177   77.0920 H   0  0  0  0  0
   11.8168    3.0431   77.7093 H   0  0  0  0  0
   13.0689    1.8888   79.4579 H   0  0  0  0  0
   12.3296    0.3155   78.8843 H   0  0  0  0  0
    9.3886    2.8096   80.1751 H   0  0  0  0  0
   10.4335    3.2198   78.8109 H   0  0  0  0  0
   12.6649    0.1978   74.9608 H   0  0  0  0  0
   14.0061   -2.0226   76.4050 H   0  0  0  0  0
   12.3196   -3.4743   75.4682 H   0  0  0  0  0
   11.7473   -2.1485   74.3649 H   0  0  0  0  0
   11.9273   -3.2463   77.9289 H   0  0  0  0  0
   10.1179   -0.6219   75.0650 H   0  0  0  0  0
   10.3602   -2.4290   79.6689 H   0  0  0  0  0
    8.5578    0.1951   76.7882 H   0  0  0  0  0
    8.6750   -0.7099   79.0992 H   0  0  0  0  0
   15.5096   -0.3606   74.7143 H   0  0  0  0  0
   16.6886   -2.5579   73.1788 H   0  0  0  0  0
   17.3467   -0.8905   73.3925 H   0  0  0  0  0
   14.3801   -0.1652   72.5840 H   0  0  0  0  0
   13.2588    0.2711   70.6208 H   0  0  0  0  0
   14.4424   -0.7924   69.7391 H   0  0  0  0  0
   15.9684    1.4205   71.4172 H   0  0  0  0  0
  1  2  1  0  0  0
  2  3  1  0  0  0
  2  5  1  0  0  0
  3  4  2  0  0  0
  3  6  1  0  0  0
  6  7  1  0  0  0
  7  8  1  0  0  0
  7 10  1  0  0  0
  8  9  2  0  0  0
  8 20  1  0  0  0
 10 11  1  0  0  0
 11 12  4  0  0  0
 11 13  4  0  0  0
 12 14  4  0  0  0
 13 15  4  0  0  0
 13 16  4  0  0  0
 14 15  4  0  0  0
 15 17  4  0  0  0
 16 18  4  0  0  0
 17 19  4  0  0  0
 18 19  4  0  0  0
 20 21  1  0  0  0
 21 22  1  0  0  0
 21 24  1  0  0  0
 22 23  2  0  0  0
 22 31  1  0  0  0
 24 25  1  0  0  0
 25 26  1  0  0  0
 26 27  1  0  0  0
 27 28  1  0  0  0
 28 29  1  0  0  0
 28 30  2  0  0  0
 31 32  1  0  0  0
 32 33  1  0  0  0
 32 35  1  0  0  0
 33 34  2  0  0  0
 33 41  1  0  0  0
 35 36  1  0  0  0
 36 37  4  0  0  0
 36 38  4  0  0  0
 37 39  4  0  0  0
 38 40  4  0  0  0
 39 40  4  0  0  0
 41 42  1  0  0  0
 41 47  1  0  0  0
 42 43  1  0  0  0
 42 45  1  0  0  0
 43 44  2  0  0  0
 43 48  1  0  0  0
 45 46  1  0  0  0
 46 47  1  0  0  0
 48 49  1  0  0  0
 49 50  1  0  0  0
 49 52  1  0  0  0
 50 51  2  0  0  0
 50 57  1  0  0  0
 52 53  1  0  0  0
 53 54  1  0  0  0
 54 55  2  0  0  0
 54 56  1  0  0  0
 57 58  1  0  0  0
 58 59  1  0  0  0
 58 61  1  0  0  0
 59 60  2  0  0  0
 59 68  1  0  0  0
 61 62  1  0  0  0
 62 63  4  0  0  0
 62 64  4  0  0  0
 63 65  4  0  0  0
 64 66  4  0  0  0
 65 67  4  0  0  0
 66 67  4  0  0  0
 68 69  1  0  0  0
 69 70  1  0  0  0
 70 71  2  0  0  0
 70 72  1  0  0  0
 72 73  1  0  0  0
 73 74  1  0  0  0
 74 75  2  0  0  0
 74 76  1  0  0  0
  1 77  1  0  0  0
  1 78  1  0  0  0
  1 79  1  0  0  0
  2 80  1  0  0  0
  5 81  1  0  0  0
  5 82  1  0  0  0
  5 83  1  0  0  0
  6 84  1  0  0  0
  7 85  1  0  0  0
 10 86  1  0  0  0
 10 87  1  0  0  0
 12 88  1  0  0  0
 16 89  1  0  0  0
 17 90  1  0  0  0
 18 91  1  0  0  0
 19 92  1  0  0  0
 20 93  1  0  0  0
 21 94  1  0  0  0
 24 95  1  0  0  0
 24 96  1  0  0  0
 25 97  1  0  0  0
 25 98  1  0  0  0
 26 99  1  0  0  0
 26100  1  0  0  0
 27101  1  0  0  0
 29102  1  0  0  0
 29103  1  0  0  0
 30104  1  0  0  0
 31105  1  0  0  0
 32106  1  0  0  0
 35107  1  0  0  0
 35108  1  0  0  0
 38109  1  0  0  0
 39110  1  0  0  0
 42111  1  0  0  0
 45112  1  0  0  0
 45113  1  0  0  0
 46114  1  0  0  0
 46115  1  0  0  0
 47116  1  0  0  0
 47117  1  0  0  0
 48118  1  0  0  0
 49119  1  0  0  0
 52120  1  0  0  0
 52121  1  0  0  0
 53122  1  0  0  0
 53123  1  0  0  0
 56124  1  0  0  0
 56125  1  0  0  0
 57126  1  0  0  0
 58127  1  0  0  0
 61128  1  0  0  0
 61129  1  0  0  0
 63130  1  0  0  0
 64131  1  0  0  0
 65132  1  0  0  0
 66133  1  0  0  0
 67134  1  0  0  0
 68135  1  0  0  0
 69136  1  0  0  0
 69137  1  0  0  0
 72138  1  0  0  0
 73139  1  0  0  0
 73140  1  0  0  0
 76141  1  0  0  0
M  END
$$$$
