### 
### Created by X-TOOL on Mon Sep 10 21:12:48 2018
### 

@<TRIPOS>MOLECULE
1gag_ligand
  176   178     1     0     0
SMALL
GAST_HUCK


@<TRIPOS>ATOM
      1 N         -20.0510   23.1870   11.5930 N.4       1 PRO         0.2461
      2 CA        -21.1770   23.6860   12.3960 C.3       1 PRO         0.0669
      3 C         -20.7600   23.8930   13.8550 C.2       1 PRO         0.2268
      4 O         -20.7800   22.9510   14.6490 O.2       1 PRO        -0.3907
      5 CB        -22.2270   22.5810   12.2490 C.3       1 PRO         0.0127
      6 CG        -21.9060   21.9800   10.9260 C.3       1 PRO        -0.0053
      7 CD        -20.3980   21.9190   10.9360 C.3       1 PRO        -0.0313
      8 N         -20.3880   25.1260   14.1950 N.am      1 ALA        -0.2613
      9 CA        -19.9330   25.4760   15.5450 C.3       1 ALA         0.1283
     10 C         -20.9230   25.1790   16.6770 C.2       1 ALA         0.2037
     11 O         -21.4120   26.0880   17.3490 O.2       1 ALA        -0.3944
     12 CB        -19.5200   26.9490   15.5850 C.3       1 ALA        -0.0244
     13 N         -21.2050   23.8970   16.8820 N.am      1 THR        -0.2613
     14 CA        -22.1210   23.4520   17.9230 C.3       1 THR         0.1565
     15 C         -21.6460   23.8890   19.3050 C.2       1 THR         0.2063
     16 O         -22.4540   24.3170   20.1350 O.2       1 THR        -0.3943
     17 CB        -22.2630   21.9090   17.9030 C.3       1 THR         0.0924
     18 OG1       -23.0600   21.5220   16.7800 O.3       1 THR        -0.3874
     19 CG2       -22.9130   21.3990   19.1780 C.3       1 THR        -0.0346
     20 N         -20.3380   23.7790   19.5390 N.am      1 GLY        -0.2663
     21 CA        -19.7640   24.1450   20.8250 C.3       1 GLY         0.1201
     22 C         -19.9950   25.5850   21.2320 C.2       1 GLY         0.2008
     23 O         -19.8320   25.9450   22.4040 O.2       1 GLY        -0.3947
     24 N         -20.3830   26.4140   20.2660 N.am      1 ASP        -0.2624
     25 CA        -20.6400   27.8250   20.5230 C.3       1 ASP         0.1423
     26 C         -21.9430   28.0460   21.3030 C.2       1 ASP         0.2057
     27 O         -22.2290   29.1600   21.7460 O.2       1 ASP        -0.3943
     28 CB        -20.6850   28.5910   19.1970 C.3       1 ASP         0.0406
     29 CG        -19.3330   28.6300   18.4900 C.2       1 ASP         0.0393
     30 OD1       -18.4090   27.8910   18.9050 O.co2     1 ASP        -0.5688
     31 OD2       -19.1960   29.3980   17.5080 O.co2     1 ASP        -0.5688
     32 N         -22.7340   26.9880   21.4730 N.am      1 PHE        -0.2618
     33 CA        -23.9990   27.1170   22.1930 C.3       1 PHE         0.1404
     34 C         -24.1120   26.2180   23.4100 C.2       1 PHE         0.2060
     35 O         -23.5980   25.1020   23.4340 O.2       1 PHE        -0.3942
     36 CB        -25.1880   26.8350   21.2740 C.3       1 PHE         0.0214
     37 CG        -25.1680   27.6380   20.0040 C.ar      1 PHE        -0.0386
     38 CD1       -24.2110   27.3870   19.0240 C.ar      1 PHE        -0.0601
     39 CD2       -26.1070   28.6450   19.7720 C.ar      1 PHE        -0.0601
     40 CE1       -24.1850   28.1080   17.8440 C.ar      1 PHE        -0.0686
     41 CE2       -26.0920   29.3780   18.5830 C.ar      1 PHE        -0.0686
     42 CZ        -25.1250   29.0890   17.6340 C.ar      1 PHE        -0.0687
     43 N         -24.7910   26.7290   24.4270 N.am      1 MET        -0.2636
     44 CA        -25.0080   25.9870   25.6560 C.3       1 MET         0.1317
     45 C         -26.4980   26.0330   25.9470 C.2       1 MET         0.2040
     46 O         -27.1430   27.0800   25.7850 O.2       1 MET        -0.3944
     47 CB        -24.2490   26.6220   26.8180 C.3       1 MET        -0.0034
     48 CG        -24.4050   25.8610   28.1140 C.3       1 MET        -0.0024
     49 SD        -23.5210   26.6250   29.4580 S.3       1 MET        -0.1639
     50 CE        -24.8650   27.4590   30.3180 C.3       1 MET        -0.0181
     51 N         -27.0520   24.9020   26.3680 N.am      1 ASN        -0.2616
     52 CA        -28.4670   24.8680   26.6800 C.3       1 ASN         0.1476
     53 C         -28.5710   25.5910   28.0090 C.2       1 ASN         0.2063
     54 O         -27.8120   25.3010   28.9330 O.2       1 ASN        -0.3942
     55 CB        -28.9600   23.4280   26.8140 C.3       1 ASN         0.0773
     56 CG        -30.4540   23.3130   26.6210 C.2       1 ASN         0.1780
     57 OD1       -31.0560   22.2800   26.9200 O.2       1 ASN        -0.3970
     58 ND2       -31.0660   24.3770   26.1080 N.am      1 ASN        -0.3007
     59 N         -29.4950   26.5370   28.1210 N.am      1 MET        -0.2636
     60 CA        -29.6050   27.2540   29.3790 C.3       1 MET         0.1317
     61 C         -30.8510   28.0960   29.5830 C.2       1 MET         0.2040
     62 O         -31.6460   28.3270   28.6650 O.2       1 MET        -0.3944
     63 CB        -28.3770   28.1460   29.5740 C.3       1 MET        -0.0034
     64 CG        -28.3320   29.3410   28.6500 C.3       1 MET        -0.0024
     65 SD        -26.8950   30.3580   28.9750 S.3       1 MET        -0.1639
     66 CE        -27.3010   31.0340   30.5800 C.3       1 MET        -0.0181
     67 N         -30.9900   28.5470   30.8240 N.am      1 SER        -0.2616
     68 CA        -32.0910   29.3880   31.2630 C.3       1 SER         0.1541
     69 C         -31.4150   30.5160   32.0620 C.2       1 SER         0.2087
     70 O         -30.3820   30.2930   32.7040 O.2       1 SER        -0.3941
     71 CB        -33.0340   28.5680   32.1520 C.3       1 SER         0.0843
     72 OG        -34.3640   29.0430   32.0750 O.3       1 SER        -0.3903
     73 N         -31.9680   31.7430   32.0180 N.am      1 PRO        -0.2498
     74 CA        -31.3500   32.8500   32.7650 C.3       1 PRO         0.1338
     75 C         -31.0340   32.5480   34.2410 C.2       1 PRO         0.2041
     76 O         -31.9200   32.2110   35.0310 O.2       1 PRO        -0.3944
     77 CB        -32.3510   34.0000   32.5840 C.3       1 PRO        -0.0104
     78 CG        -33.6490   33.3040   32.2500 C.3       1 PRO        -0.0281
     79 CD        -33.2080   32.1790   31.3550 C.3       1 PRO         0.0369
     80 N         -29.7540   32.6760   34.5900 N.am      1 VAL        -0.2635
     81 CA        -29.2630   32.4150   35.9440 C.3       1 VAL         0.1333
     82 C         -29.8970   33.3220   37.0040 C.2       1 VAL         0.2040
     83 O         -30.4180   32.8370   38.0100 O.2       1 VAL        -0.3944
     84 CB        -27.7190   32.5680   36.0020 C.3       1 VAL        -0.0063
     85 CG1       -27.1990   32.1610   37.3760 C.3       1 VAL        -0.0584
     86 CG2       -27.0730   31.7160   34.9130 C.3       1 VAL        -0.0584
     87 N         -29.8420   34.6330   36.7730 N.am      1 GLY        -0.2677
     88 CA        -30.4200   35.5970   37.6950 C.3       1 GLY         0.1018
     89 C         -30.4530   35.1710   39.1490 C.2       1 GLY         0.1214
     90 O         -29.5210   35.4440   39.9070 O.2       1 GLY        -0.3728
     91 H1        -19.2557   23.0403   12.1947 H         1 PRO         0.2035
     92 H2        -19.8186   23.8705   10.8896 H         1 PRO         0.2035
     93 H3        -21.5555   24.6364   11.9916 H         1 PRO         0.1099
     94 H4        -23.2440   23.0000   12.2554 H         1 PRO         0.0347
     95 H5        -22.1318   21.8370   13.0536 H         1 PRO         0.0347
     96 H6        -22.3415   20.9742   10.8329 H         1 PRO         0.0320
     97 H7        -22.2703   22.6148   10.1049 H         1 PRO         0.0320
     98 H8        -20.0358   21.0560   11.5140 H         1 PRO         0.0814
     99 H9        -19.9922   21.8727    9.9147 H         1 PRO         0.0814
    100 H10       -20.4203   25.8442   13.4999 H         1 ALA         0.1884
    101 H11       -19.0369   24.8697   15.7433 H         1 ALA         0.0797
    102 H12       -19.1797   27.2070   16.5987 H         1 ALA         0.0277
    103 H13       -20.3809   27.5787   15.3160 H         1 ALA         0.0277
    104 H14       -18.7025   27.1202   14.8692 H         1 ALA         0.0277
    105 H15       -20.7711   23.2105   16.2984 H         1 THR         0.1884
    106 H16       -23.1067   23.9011   17.7315 H         1 THR         0.0826
    107 H17       -21.2627   21.4610   17.8097 H         1 THR         0.0639
    108 H18       -22.6555   21.8399   15.9814 H         1 THR         0.2101
    109 H19       -22.9992   20.3033   19.1327 H         1 THR         0.0257
    110 H20       -23.9147   21.8416   19.2813 H         1 THR         0.0257
    111 H21       -22.2957   21.6827   20.0431 H         1 THR         0.0257
    112 H22       -19.7385   23.4376   18.8151 H         1 GLY         0.1881
    113 H23       -18.6788   23.9718   20.7780 H         1 GLY         0.0763
    114 H24       -20.2060   23.4958   21.5952 H         1 GLY         0.0763
    115 H25       -20.5014   26.0590   19.3387 H         1 ASP         0.1884
    116 H26       -19.8099   28.2195   21.1274 H         1 ASP         0.0819
    117 H27       -21.0061   29.6236   19.3984 H         1 ASP         0.0478
    118 H28       -21.4143   28.1029   18.5338 H         1 ASP         0.0478
    119 H29       -22.4603   26.0992   21.1054 H         1 PHE         0.1885
    120 H30       -24.0703   28.1586   22.5393 H         1 PHE         0.0823
    121 H31       -26.1135   27.0702   21.8200 H         1 PHE         0.0474
    122 H32       -25.1789   25.7670   21.0107 H         1 PHE         0.0474
    123 H33       -23.4720   26.6114   19.1892 H         1 PHE         0.0557
    124 H34       -26.8572   28.8607   20.5242 H         1 PHE         0.0557
    125 H35       -23.4314   27.9018   17.0926 H         1 PHE         0.0599
    126 H36       -26.8233   30.1584   18.4062 H         1 PHE         0.0599
    127 H37       -25.1092   29.6485   16.7057 H         1 PHE         0.0559
    128 H38       -25.1649   27.6529   24.3455 H         1 MET         0.1883
    129 H39       -24.6774   24.9457   25.5278 H         1 MET         0.0800
    130 H40       -24.6259   27.6449   26.9651 H         1 MET         0.0320
    131 H41       -23.1803   26.6585   26.5599 H         1 MET         0.0320
    132 H42       -24.0206   24.8400   27.9731 H         1 MET         0.0378
    133 H43       -25.4733   25.8182   28.3725 H         1 MET         0.0378
    134 H44       -24.4657   27.9896   31.1950 H         1 MET         0.0340
    135 H45       -25.6075   26.7164   30.6455 H         1 MET         0.0340
    136 H46       -25.3429   28.1806   29.6391 H         1 MET         0.0340
    137 H47       -26.4954   24.0774   26.4693 H         1 ASN         0.1885
    138 H48       -29.0507   25.3863   25.9050 H         1 ASN         0.0826
    139 H49       -28.7036   23.0583   27.8178 H         1 ASN         0.0551
    140 H50       -28.4568   22.8099   26.0559 H         1 ASN         0.0551
    141 H51       -32.0544   24.3608   25.9569 H         1 ASN         0.1814
    142 H52       -30.5376   25.1930   25.8735 H         1 ASN         0.1814
    143 H53       -30.1022   26.7514   27.3559 H         1 MET         0.1883
    144 H54       -29.6048   26.4927   30.1730 H         1 MET         0.0800
    145 H55       -27.4769   27.5387   29.3980 H         1 MET         0.0320
    146 H56       -28.3759   28.5110   30.6117 H         1 MET         0.0320
    147 H57       -29.2395   29.9443   28.7994 H         1 MET         0.0378
    148 H58       -28.2936   28.9881   27.6089 H         1 MET         0.0378
    149 H59       -26.4885   31.6952   30.9155 H         1 MET         0.0340
    150 H60       -27.4280   30.2138   31.3019 H         1 MET         0.0340
    151 H61       -28.2362   31.6089   30.5099 H         1 MET         0.0340
    152 H62       -30.2954   28.2928   31.4970 H         1 SER         0.1884
    153 H63       -32.6467   29.7953   30.4055 H         1 SER         0.0823
    154 H64       -32.6905   28.6353   33.1948 H         1 SER         0.0606
    155 H65       -33.0102   27.5180   31.8251 H         1 SER         0.0606
    156 H66       -34.9205   28.5152   32.6355 H         1 SER         0.2097
    157 H67       -30.3988   33.1174   32.2816 H         1 PRO         0.0802
    158 H68       -32.0405   34.6634   31.7634 H         1 PRO         0.0313
    159 H69       -32.4477   34.5841   33.5111 H         1 PRO         0.0313
    160 H70       -34.1364   32.9193   33.1579 H         1 PRO         0.0287
    161 H71       -34.3371   33.9818   31.7235 H         1 PRO         0.0287
    162 H72       -33.9543   31.3713   31.3280 H         1 PRO         0.0524
    163 H73       -33.0133   32.5327   30.3318 H         1 PRO         0.0524
    164 H74       -29.0973   32.9643   33.8931 H         1 VAL         0.1883
    165 H75       -29.5182   31.3748   36.1947 H         1 VAL         0.0802
    166 H76       -27.4605   33.6226   35.8260 H         1 VAL         0.0343
    167 H77       -26.1052   32.2744   37.4024 H         1 VAL         0.0234
    168 H78       -27.4637   31.1115   37.5721 H         1 VAL         0.0234
    169 H79       -27.6528   32.8035   38.1449 H         1 VAL         0.0234
    170 H80       -27.4593   32.0230   33.9299 H         1 VAL         0.0234
    171 H81       -27.3121   30.6564   35.0863 H         1 VAL         0.0234
    172 H82       -25.9821   31.8546   34.9378 H         1 VAL         0.0234
    173 H83       -29.3912   34.9626   35.9435 H         1 GLY         0.1882
    174 H84       -31.4543   35.7931   37.3759 H         1 GLY         0.0754
    175 H85       -29.8331   36.5249   37.6271 H         1 GLY         0.0754
    176 H86       -31.3105   34.6171   39.5282 H         1 GLY         0.1370
@<TRIPOS>BOND
     1    3    2 1  
     2    2    5 1  
     3    2    1 1  
     4    1    7 1  
     5    7    6 1  
     6    5    6 1  
     7    3    4 2  
     8    9    8 1  
     9    9   12 1  
    10   10    9 1  
    11   10   11 2  
    12    8    3 am 
    13   14   13 1  
    14   14   17 1  
    15   15   14 1  
    16   15   16 2  
    17   17   19 1  
    18   17   18 1  
    19   13   10 am 
    20   21   20 1  
    21   22   21 1  
    22   22   23 2  
    23   20   15 am 
    24   25   24 1  
    25   25   28 1  
    26   26   25 1  
    27   26   27 2  
    28   28   29 1  
    29   29   30 ar 
    30   29   31 ar 
    31   24   22 am 
    32   33   32 1  
    33   33   36 1  
    34   34   33 1  
    35   34   35 2  
    36   36   37 1  
    37   37   38 ar 
    38   37   39 ar 
    39   39   41 ar 
    40   41   42 ar 
    41   40   42 ar 
    42   38   40 ar 
    43   32   26 am 
    44   44   43 1  
    45   44   47 1  
    46   45   44 1  
    47   45   46 2  
    48   47   48 1  
    49   48   49 1  
    50   49   50 1  
    51   43   34 am 
    52   52   51 1  
    53   52   55 1  
    54   53   52 1  
    55   53   54 2  
    56   55   56 1  
    57   56   58 am 
    58   56   57 2  
    59   51   45 am 
    60   60   59 1  
    61   60   63 1  
    62   61   60 1  
    63   61   62 2  
    64   63   64 1  
    65   64   65 1  
    66   65   66 1  
    67   59   53 am 
    68   68   67 1  
    69   68   71 1  
    70   69   68 1  
    71   69   70 2  
    72   71   72 1  
    73   67   61 am 
    74   75   74 1  
    75   74   77 1  
    76   74   73 1  
    77   73   79 1  
    78   79   78 1  
    79   77   78 1  
    80   75   76 2  
    81   73   69 am 
    82   81   80 1  
    83   81   84 1  
    84   82   81 1  
    85   82   83 2  
    86   84   86 1  
    87   84   85 1  
    88   80   75 am 
    89   87   88 1  
    90   88   89 1  
    91   89   90 2  
    92   82   87 am 
    93    1   91 1  
    94    1   92 1  
    95    2   93 1  
    96    5   94 1  
    97    5   95 1  
    98    6   96 1  
    99    6   97 1  
   100    7   98 1  
   101    7   99 1  
   102    8  100 1  
   103    9  101 1  
   104   12  102 1  
   105   12  103 1  
   106   12  104 1  
   107   13  105 1  
   108   14  106 1  
   109   17  107 1  
   110   18  108 1  
   111   19  109 1  
   112   19  110 1  
   113   19  111 1  
   114   20  112 1  
   115   21  113 1  
   116   21  114 1  
   117   24  115 1  
   118   25  116 1  
   119   28  117 1  
   120   28  118 1  
   121   32  119 1  
   122   33  120 1  
   123   36  121 1  
   124   36  122 1  
   125   38  123 1  
   126   39  124 1  
   127   40  125 1  
   128   41  126 1  
   129   42  127 1  
   130   43  128 1  
   131   44  129 1  
   132   47  130 1  
   133   47  131 1  
   134   48  132 1  
   135   48  133 1  
   136   50  134 1  
   137   50  135 1  
   138   50  136 1  
   139   51  137 1  
   140   52  138 1  
   141   55  139 1  
   142   55  140 1  
   143   58  141 1  
   144   58  142 1  
   145   59  143 1  
   146   60  144 1  
   147   63  145 1  
   148   63  146 1  
   149   64  147 1  
   150   64  148 1  
   151   66  149 1  
   152   66  150 1  
   153   66  151 1  
   154   67  152 1  
   155   68  153 1  
   156   71  154 1  
   157   71  155 1  
   158   72  156 1  
   159   74  157 1  
   160   77  158 1  
   161   77  159 1  
   162   78  160 1  
   163   78  161 1  
   164   79  162 1  
   165   79  163 1  
   166   80  164 1  
   167   81  165 1  
   168   84  166 1  
   169   85  167 1  
   170   85  168 1  
   171   85  169 1  
   172   86  170 1  
   173   86  171 1  
   174   86  172 1  
   175   87  173 1  
   176   88  174 1  
   177   88  175 1  
   178   89  176 1  
@<TRIPOS>SUBSTRUCTURE
     1 PRO         1

