1gag_ligand
  -I-interpret- 

177179  0  0  0  0  0  0  0  0999 V2000
  -20.0510   23.1870   11.5930 N   0  3  0  0  0
  -21.1770   23.6860   12.3960 C   0  0  0  0  0
  -20.7600   23.8930   13.8550 C   0  0  0  0  0
  -20.7800   22.9510   14.6490 O   0  0  0  0  0
  -22.2270   22.5810   12.2490 C   0  0  0  0  0
  -21.9060   21.9800   10.9260 C   0  0  0  0  0
  -20.3980   21.9190   10.9360 C   0  0  0  0  0
  -20.3880   25.1260   14.1950 N   0  0  0  0  0
  -19.9330   25.4760   15.5450 C   0  0  0  0  0
  -20.9230   25.1790   16.6770 C   0  0  0  0  0
  -21.4120   26.0880   17.3490 O   0  0  0  0  0
  -19.5200   26.9490   15.5850 C   0  0  0  0  0
  -21.2050   23.8970   16.8820 N   0  0  0  0  0
  -22.1210   23.4520   17.9230 C   0  0  0  0  0
  -21.6460   23.8890   19.3050 C   0  0  0  0  0
  -22.4540   24.3170   20.1350 O   0  0  0  0  0
  -22.2630   21.9090   17.9030 C   0  0  0  0  0
  -23.0600   21.5220   16.7800 O   0  0  0  0  0
  -22.9130   21.3990   19.1780 C   0  0  0  0  0
  -20.3380   23.7790   19.5390 N   0  0  0  0  0
  -19.7640   24.1450   20.8250 C   0  0  0  0  0
  -19.9950   25.5850   21.2320 C   0  0  0  0  0
  -19.8320   25.9450   22.4040 O   0  0  0  0  0
  -20.3830   26.4140   20.2660 N   0  0  0  0  0
  -20.6400   27.8250   20.5230 C   0  0  0  0  0
  -21.9430   28.0460   21.3030 C   0  0  0  0  0
  -22.2290   29.1600   21.7460 O   0  0  0  0  0
  -20.6850   28.5910   19.1970 C   0  0  0  0  0
  -19.3330   28.6300   18.4900 C   0  0  0  0  0
  -18.4090   27.8910   18.9050 O   0  0  0  0  0
  -19.1960   29.3980   17.5080 O   0  0  0  0  0
  -22.7340   26.9880   21.4730 N   0  0  0  0  0
  -23.9990   27.1170   22.1930 C   0  0  0  0  0
  -24.1120   26.2180   23.4100 C   0  0  0  0  0
  -23.5980   25.1020   23.4340 O   0  0  0  0  0
  -25.1880   26.8350   21.2740 C   0  0  0  0  0
  -25.1680   27.6380   20.0040 C   0  0  0  0  0
  -24.2110   27.3870   19.0240 C   0  0  0  0  0
  -26.1070   28.6450   19.7720 C   0  0  0  0  0
  -24.1850   28.1080   17.8440 C   0  0  0  0  0
  -26.0920   29.3780   18.5830 C   0  0  0  0  0
  -25.1250   29.0890   17.6340 C   0  0  0  0  0
  -24.7910   26.7290   24.4270 N   0  0  0  0  0
  -25.0080   25.9870   25.6560 C   0  0  0  0  0
  -26.4980   26.0330   25.9470 C   0  0  0  0  0
  -27.1430   27.0800   25.7850 O   0  0  0  0  0
  -24.2490   26.6220   26.8180 C   0  0  0  0  0
  -24.4050   25.8610   28.1140 C   0  0  0  0  0
  -23.5210   26.6250   29.4580 S   0  0  0  0  0
  -24.8650   27.4590   30.3180 C   0  0  0  0  0
  -27.0520   24.9020   26.3680 N   0  0  0  0  0
  -28.4670   24.8680   26.6800 C   0  0  0  0  0
  -28.5710   25.5910   28.0090 C   0  0  0  0  0
  -27.8120   25.3010   28.9330 O   0  0  0  0  0
  -28.9600   23.4280   26.8140 C   0  0  0  0  0
  -30.4540   23.3130   26.6210 C   0  0  0  0  0
  -31.0560   22.2800   26.9200 O   0  0  0  0  0
  -31.0660   24.3770   26.1080 N   0  0  0  0  0
  -29.4950   26.5370   28.1210 N   0  0  0  0  0
  -29.6050   27.2540   29.3790 C   0  0  0  0  0
  -30.8510   28.0960   29.5830 C   0  0  0  0  0
  -31.6460   28.3270   28.6650 O   0  0  0  0  0
  -28.3770   28.1460   29.5740 C   0  0  0  0  0
  -28.3320   29.3410   28.6500 C   0  0  0  0  0
  -26.8950   30.3580   28.9750 S   0  0  0  0  0
  -27.3010   31.0340   30.5800 C   0  0  0  0  0
  -30.9900   28.5470   30.8240 N   0  0  0  0  0
  -32.0910   29.3880   31.2630 C   0  0  0  0  0
  -31.4150   30.5160   32.0620 C   0  0  0  0  0
  -30.3820   30.2930   32.7040 O   0  0  0  0  0
  -33.0340   28.5680   32.1520 C   0  0  0  0  0
  -34.3640   29.0430   32.0750 O   0  0  0  0  0
  -31.9680   31.7430   32.0180 N   0  0  0  0  0
  -31.3500   32.8500   32.7650 C   0  0  0  0  0
  -31.0340   32.5480   34.2410 C   0  0  0  0  0
  -31.9200   32.2110   35.0310 O   0  0  0  0  0
  -32.3510   34.0000   32.5840 C   0  0  0  0  0
  -33.6490   33.3040   32.2500 C   0  0  0  0  0
  -33.2080   32.1790   31.3550 C   0  0  0  0  0
  -29.7540   32.6760   34.5900 N   0  0  0  0  0
  -29.2630   32.4150   35.9440 C   0  0  0  0  0
  -29.8970   33.3220   37.0040 C   0  0  0  0  0
  -30.4180   32.8370   38.0100 O   0  0  0  0  0
  -27.7190   32.5680   36.0020 C   0  0  0  0  0
  -27.1990   32.1610   37.3760 C   0  0  0  0  0
  -27.0730   31.7160   34.9130 C   0  0  0  0  0
  -29.8420   34.6330   36.7730 N   0  0  0  0  0
  -30.4200   35.5970   37.6950 C   0  0  0  0  0
  -30.4530   35.1710   39.1490 C   0  0  0  0  0
  -29.5210   35.4440   39.9070 O   0  0  0  0  0
  -19.2528   23.0303   12.2084 H   0  0  0  0  0
  -19.8272   23.8776   10.8765 H   0  0  0  0  0
  -21.5471   24.6580   12.0700 H   0  0  0  0  0
  -23.2473   22.9610   12.3016 H   0  0  0  0  0
  -22.1892   21.8547   13.0609 H   0  0  0  0  0
  -22.3668   21.0025   10.7837 H   0  0  0  0  0
  -22.2992   22.5614   10.0920 H   0  0  0  0  0
  -20.0027   21.0422   11.4489 H   0  0  0  0  0
  -19.9616   21.8113    9.9430 H   0  0  0  0  0
  -20.4209   25.8585   13.4860 H   0  0  0  0  0
  -19.0841   24.8200   15.7376 H   0  0  0  0  0
  -18.7100   27.1173   14.8753 H   0  0  0  0  0
  -20.3738   27.5718   15.3182 H   0  0  0  0  0
  -19.1830   27.2034   16.5899 H   0  0  0  0  0
  -20.7625   23.1968   16.2868 H   0  0  0  0  0
  -23.0881   23.9119   17.7198 H   0  0  0  0  0
  -21.2662   21.4744   17.8282 H   0  0  0  0  0
  -23.1489   20.5662   16.7663 H   0  0  0  0  0
  -22.3005   21.6808   20.0344 H   0  0  0  0  0
  -23.9054   21.8383   19.2792 H   0  0  0  0  0
  -22.9978   20.3133   19.1319 H   0  0  0  0  0
  -19.7265   23.4308   18.8006 H   0  0  0  0  0
  -18.6859   24.0068   20.7429 H   0  0  0  0  0
  -20.2458   23.5207   21.5775 H   0  0  0  0  0
  -20.5037   26.0519   19.3201 H   0  0  0  0  0
  -19.8256   28.2013   21.1420 H   0  0  0  0  0
  -20.9774   29.6182   19.4148 H   0  0  0  0  0
  -21.3902   28.0809   18.5407 H   0  0  0  0  0
  -20.0171   29.8718   17.3567 H   0  0  0  0  0
  -22.4548   26.0814   21.0980 H   0  0  0  0  0
  -24.0152   28.1498   22.5412 H   0  0  0  0  0
  -26.0934   27.1046   21.8178 H   0  0  0  0  0
  -25.1447   25.7819   20.9963 H   0  0  0  0  0
  -23.4679   26.6071   19.1901 H   0  0  0  0  0
  -26.8613   28.8619   20.5283 H   0  0  0  0  0
  -23.4272   27.9006   17.0885 H   0  0  0  0  0
  -26.8274   30.1627   18.4052 H   0  0  0  0  0
  -25.1091   29.6516   16.7006 H   0  0  0  0  0
  -25.1724   27.6714   24.3439 H   0  0  0  0  0
  -24.6507   24.9635   25.5422 H   0  0  0  0  0
  -24.6535   27.6226   26.9706 H   0  0  0  0  0
  -23.1899   26.6239   26.5603 H   0  0  0  0  0
  -23.9996   24.8597   27.9688 H   0  0  0  0  0
  -25.4640   25.8457   28.3715 H   0  0  0  0  0
  -25.3377   28.1737   29.6442 H   0  0  0  0  0
  -25.6000   26.7221   30.6419 H   0  0  0  0  0
  -24.4682   27.9843   31.1867 H   0  0  0  0  0
  -26.4843   24.0609   26.4714 H   0  0  0  0  0
  -29.0754   25.3279   25.9013 H   0  0  0  0  0
  -28.7212   23.0810   27.8193 H   0  0  0  0  0
  -28.4726   22.8307   26.0435 H   0  0  0  0  0
  -32.0731   24.3581   25.9477 H   0  0  0  0  0
  -30.5281   25.2117   25.8750 H   0  0  0  0  0
  -30.1143   26.7557   27.3406 H   0  0  0  0  0
  -29.6754   26.4609   30.1234 H   0  0  0  0  0
  -27.4983   27.5379   29.3590 H   0  0  0  0  0
  -28.4134   28.5276   30.5944 H   0  0  0  0  0
  -29.2270   29.9412   28.8140 H   0  0  0  0  0
  -28.2795   28.9835   27.6216 H   0  0  0  0  0
  -28.2278   31.6033   30.5092 H   0  0  0  0  0
  -27.4266   30.2203   31.2943 H   0  0  0  0  0
  -26.4952   31.6890   30.9114 H   0  0  0  0  0
  -30.2816   28.2877   31.5105 H   0  0  0  0  0
  -32.6909   29.7800   30.4417 H   0  0  0  0  0
  -32.6962   28.6541   33.1848 H   0  0  0  0  0
  -33.0170   27.5330   31.8104 H   0  0  0  0  0
  -34.9264   28.5096   32.6414 H   0  0  0  0  0
  -30.3553   33.0789   32.3825 H   0  0  0  0  0
  -32.0433   34.6973   31.8048 H   0  0  0  0  0
  -32.4326   34.6215   33.4758 H   0  0  0  0  0
  -34.1820   32.9561   33.1349 H   0  0  0  0  0
  -34.3725   33.9650   31.7728 H   0  0  0  0  0
  -33.9496   31.3867   31.2535 H   0  0  0  0  0
  -33.0648   32.4787   30.3168 H   0  0  0  0  0
  -29.0842   32.9701   33.8791 H   0  0  0  0  0
  -29.5524   31.3899   36.1752 H   0  0  0  0  0
  -27.4588   33.6127   35.8319 H   0  0  0  0  0
  -27.6495   32.7983   38.1370 H   0  0  0  0  0
  -27.4619   31.1210   37.5691 H   0  0  0  0  0
  -26.1151   32.2738   37.4009 H   0  0  0  0  0
  -27.3379   30.6699   35.0669 H   0  0  0  0  0
  -27.4315   32.0431   33.9370 H   0  0  0  0  0
  -25.9899   31.8286   34.9601 H   0  0  0  0  0
  -29.3822   34.9692   35.9269 H   0  0  0  0  0
  -31.4568   35.7360   37.3888 H   0  0  0  0  0
  -29.7928   36.4872   37.6467 H   0  0  0  0  0
  -31.3113   34.6166   39.5285 H   0  0  0  0  0
  3  2  1  0  0  0
  2  5  1  0  0  0
  2  1  1  0  0  0
  1  7  1  0  0  0
  7  6  1  0  0  0
  5  6  1  0  0  0
  3  4  2  0  0  0
  9  8  1  0  0  0
  9 12  1  0  0  0
 10  9  1  0  0  0
 10 11  2  0  0  0
  8  3  1  0  0  0
 14 13  1  0  0  0
 14 17  1  0  0  0
 15 14  1  0  0  0
 15 16  2  0  0  0
 17 19  1  0  0  0
 17 18  1  0  0  0
 13 10  1  0  0  0
 21 20  1  0  0  0
 22 21  1  0  0  0
 22 23  2  0  0  0
 20 15  1  0  0  0
 25 24  1  0  0  0
 25 28  1  0  0  0
 26 25  1  0  0  0
 26 27  2  0  0  0
 28 29  1  0  0  0
 29 30  2  0  0  0
 29 31  1  0  0  0
 24 22  1  0  0  0
 33 32  1  0  0  0
 33 36  1  0  0  0
 34 33  1  0  0  0
 34 35  2  0  0  0
 36 37  1  0  0  0
 37 38  4  0  0  0
 37 39  4  0  0  0
 39 41  4  0  0  0
 41 42  4  0  0  0
 40 42  4  0  0  0
 38 40  4  0  0  0
 32 26  1  0  0  0
 44 43  1  0  0  0
 44 47  1  0  0  0
 45 44  1  0  0  0
 45 46  2  0  0  0
 47 48  1  0  0  0
 48 49  1  0  0  0
 49 50  1  0  0  0
 43 34  1  0  0  0
 52 51  1  0  0  0
 52 55  1  0  0  0
 53 52  1  0  0  0
 53 54  2  0  0  0
 55 56  1  0  0  0
 56 58  1  0  0  0
 56 57  2  0  0  0
 51 45  1  0  0  0
 60 59  1  0  0  0
 60 63  1  0  0  0
 61 60  1  0  0  0
 61 62  2  0  0  0
 63 64  1  0  0  0
 64 65  1  0  0  0
 65 66  1  0  0  0
 59 53  1  0  0  0
 68 67  1  0  0  0
 68 71  1  0  0  0
 69 68  1  0  0  0
 69 70  2  0  0  0
 71 72  1  0  0  0
 67 61  1  0  0  0
 75 74  1  0  0  0
 74 77  1  0  0  0
 74 73  1  0  0  0
 73 79  1  0  0  0
 79 78  1  0  0  0
 77 78  1  0  0  0
 75 76  2  0  0  0
 73 69  1  0  0  0
 81 80  1  0  0  0
 81 84  1  0  0  0
 82 81  1  0  0  0
 82 83  2  0  0  0
 84 86  1  0  0  0
 84 85  1  0  0  0
 80 75  1  0  0  0
 87 88  1  0  0  0
 88 89  1  0  0  0
 89 90  2  0  0  0
 82 87  1  0  0  0
  1 91  1  0  0  0
  1 92  1  0  0  0
  2 93  1  0  0  0
  5 94  1  0  0  0
  5 95  1  0  0  0
  6 96  1  0  0  0
  6 97  1  0  0  0
  7 98  1  0  0  0
  7 99  1  0  0  0
  8100  1  0  0  0
  9101  1  0  0  0
 12102  1  0  0  0
 12103  1  0  0  0
 12104  1  0  0  0
 13105  1  0  0  0
 14106  1  0  0  0
 17107  1  0  0  0
 18108  1  0  0  0
 19109  1  0  0  0
 19110  1  0  0  0
 19111  1  0  0  0
 20112  1  0  0  0
 21113  1  0  0  0
 21114  1  0  0  0
 24115  1  0  0  0
 25116  1  0  0  0
 28117  1  0  0  0
 28118  1  0  0  0
 31119  1  0  0  0
 32120  1  0  0  0
 33121  1  0  0  0
 36122  1  0  0  0
 36123  1  0  0  0
 38124  1  0  0  0
 39125  1  0  0  0
 40126  1  0  0  0
 41127  1  0  0  0
 42128  1  0  0  0
 43129  1  0  0  0
 44130  1  0  0  0
 47131  1  0  0  0
 47132  1  0  0  0
 48133  1  0  0  0
 48134  1  0  0  0
 50135  1  0  0  0
 50136  1  0  0  0
 50137  1  0  0  0
 51138  1  0  0  0
 52139  1  0  0  0
 55140  1  0  0  0
 55141  1  0  0  0
 58142  1  0  0  0
 58143  1  0  0  0
 59144  1  0  0  0
 60145  1  0  0  0
 63146  1  0  0  0
 63147  1  0  0  0
 64148  1  0  0  0
 64149  1  0  0  0
 66150  1  0  0  0
 66151  1  0  0  0
 66152  1  0  0  0
 67153  1  0  0  0
 68154  1  0  0  0
 71155  1  0  0  0
 71156  1  0  0  0
 72157  1  0  0  0
 74158  1  0  0  0
 77159  1  0  0  0
 77160  1  0  0  0
 78161  1  0  0  0
 78162  1  0  0  0
 79163  1  0  0  0
 79164  1  0  0  0
 80165  1  0  0  0
 81166  1  0  0  0
 84167  1  0  0  0
 85168  1  0  0  0
 85169  1  0  0  0
 85170  1  0  0  0
 86171  1  0  0  0
 86172  1  0  0  0
 86173  1  0  0  0
 87174  1  0  0  0
 88175  1  0  0  0
 88176  1  0  0  0
 89177  1  0  0  0
M  END
$$$$
