5vex_ligand
  -I-interpret- 

 71 75  0  0  0  0  0  0  0  0999 V2000
   23.5040  -20.2240  -27.2760 C   0  0  0  0  0
   22.1090  -22.0640  -29.1600 C   0  0  0  0  0
   21.6600  -21.0710  -30.0290 C   0  0  0  0  0
   21.4450  -21.3620  -31.3730 C   0  0  0  0  0
   21.6760  -22.6520  -31.8530 C   0  0  0  0  0
   22.1020  -23.6680  -30.9970 C   0  0  0  0  0
   22.5940  -26.2310  -30.8190 C   0  0  0  0  0
   23.1230  -28.7210  -30.7370 C   0  0  0  0  0
   21.9090  -29.1350  -29.9120 C   0  0  0  0  0
   20.6500  -29.2330  -30.5020 C   0  0  0  0  0
   19.5610  -29.6030  -29.7240 C   0  0  0  0  0
   19.7400  -29.8680  -28.3650 C   0  0  0  0  0
   18.5380  -30.2640  -27.5120 C   0  0  0  0  0
   16.0100  -30.1290  -27.2030 C   0  0  0  0  0
   22.3650  -24.9970  -31.5750 N   0  0  0  0  0
   22.8660  -27.5100  -31.5120 N   0  0  0  0  0
   17.2200  -29.8110  -27.9310 N   0  0  0  0  0
   15.9040  -30.8020  -26.0220 N   0  0  0  0  0
   14.5980  -30.8720  -25.7130 N   0  0  0  0  0
   13.8980  -30.2740  -26.6500 N   0  0  0  0  0
   14.7450  -29.8050  -27.5840 N   0  0  0  0  0
   23.1200  -22.9590  -26.6560 O   0  0  0  0  0
   20.9720  -21.3250  -26.6400 O   0  0  0  0  0
   22.5500  -26.2060  -29.6310 O   0  0  0  0  0
   18.6910  -30.9200  -26.5310 O   0  0  0  0  0
   22.4010  -21.6660  -27.4000 S   0  0  0  0  0
   21.0000  -29.7640  -27.7810 C   0  0  0  0  0
   22.0880  -29.3890  -28.5560 C   0  0  0  0  0
   22.9730  -27.6420  -32.9680 C   0  0  0  0  0
   22.1700  -28.5710  -33.6460 C   0  0  0  0  0
   22.3210  -28.7670  -35.0210 C   0  0  0  0  0
   23.3030  -28.0660  -35.7360 C   0  0  0  0  0
   23.4620  -28.2630  -37.2760 C   0  0  0  0  0
   24.9500  -28.2350  -37.6950 C   0  0  0  0  0
   25.1700  -28.5140  -39.1910 C   0  0  0  0  0
   24.4360  -29.7700  -39.6980 C   0  0  0  0  0
   22.9570  -29.8290  -39.2650 C   0  0  0  0  0
   22.7460  -29.5410  -37.7680 C   0  0  0  0  0
   24.1170  -27.1520  -35.0470 C   0  0  0  0  0
   23.9820  -26.9720  -33.6670 C   0  0  0  0  0
   22.3490  -23.3560  -29.6510 C   0  0  0  0  0
   23.6812  -19.9930  -26.2256 H   0  0  0  0  0
   24.4518  -20.4501  -27.7646 H   0  0  0  0  0
   23.0373  -19.3682  -27.7638 H   0  0  0  0  0
   21.4767  -20.0637  -29.6550 H   0  0  0  0  0
   21.0963  -20.5826  -32.0505 H   0  0  0  0  0
   21.5216  -22.8685  -32.9101 H   0  0  0  0  0
   23.3566  -29.5284  -31.4311 H   0  0  0  0  0
   23.9489  -28.5215  -30.0542 H   0  0  0  0  0
   20.5216  -29.0213  -31.5635 H   0  0  0  0  0
   18.5709  -29.6862  -30.1723 H   0  0  0  0  0
   22.3899  -25.0643  -32.5925 H   0  0  0  0  0
   17.1455  -29.2440  -28.7756 H   0  0  0  0  0
   21.1308  -29.9762  -26.7199 H   0  0  0  0  0
   23.0760  -29.2941  -28.1056 H   0  0  0  0  0
   21.4231  -29.1439  -33.0964 H   0  0  0  0  0
   21.6708  -29.4699  -35.5419 H   0  0  0  0  0
   22.9723  -27.4214  -37.7659 H   0  0  0  0  0
   25.4629  -29.0179  -37.1364 H   0  0  0  0  0
   25.3302  -27.2345  -37.4885 H   0  0  0  0  0
   26.2375  -28.6766  -39.3398 H   0  0  0  0  0
   24.7778  -27.6605  -39.7440 H   0  0  0  0  0
   24.9384  -30.6390  -39.2732 H   0  0  0  0  0
   24.4596  -29.7479  -40.7875 H   0  0  0  0  0
   22.5982  -30.8399  -39.4587 H   0  0  0  0  0
   22.4199  -29.0638  -39.8255 H   0  0  0  0  0
   21.6770  -29.3975  -37.6106 H   0  0  0  0  0
   23.1605  -30.3820  -37.2121 H   0  0  0  0  0
   24.8629  -26.5761  -35.5947 H   0  0  0  0  0
   24.6641  -26.3086  -33.1353 H   0  0  0  0  0
   22.7312  -24.1255  -28.9803 H   0  0  0  0  0
 26  1  1  0  0  0
  2  3  4  0  0  0
  2 26  1  0  0  0
 41  2  4  0  0  0
  4  3  4  0  0  0
  5  4  4  0  0  0
  6  5  4  0  0  0
 15  6  1  0  0  0
  6 41  4  0  0  0
  7 15  1  0  0  0
 16  7  1  0  0  0
  7 24  2  0  0  0
  8  9  1  0  0  0
  8 16  1  0  0  0
  9 10  4  0  0  0
  9 28  4  0  0  0
 10 11  4  0  0  0
 11 12  4  0  0  0
 12 13  1  0  0  0
 12 27  4  0  0  0
 13 17  1  0  0  0
 13 25  2  0  0  0
 17 14  1  0  0  0
 14 18  4  0  0  0
 14 21  4  0  0  0
 16 29  1  0  0  0
 18 19  4  0  0  0
 19 20  4  0  0  0
 20 21  4  0  0  0
 26 22  2  0  0  0
 26 23  2  0  0  0
 27 28  4  0  0  0
 29 30  4  0  0  0
 29 40  4  0  0  0
 30 31  4  0  0  0
 31 32  4  0  0  0
 32 33  1  0  0  0
 32 39  4  0  0  0
 33 34  1  0  0  0
 33 38  1  0  0  0
 34 35  1  0  0  0
 35 36  1  0  0  0
 36 37  1  0  0  0
 37 38  1  0  0  0
 39 40  4  0  0  0
  1 42  1  0  0  0
  1 43  1  0  0  0
  1 44  1  0  0  0
  3 45  1  0  0  0
  4 46  1  0  0  0
  5 47  1  0  0  0
  8 48  1  0  0  0
  8 49  1  0  0  0
 10 50  1  0  0  0
 11 51  1  0  0  0
 15 52  1  0  0  0
 17 53  1  0  0  0
 27 54  1  0  0  0
 28 55  1  0  0  0
 30 56  1  0  0  0
 31 57  1  0  0  0
 33 58  1  0  0  0
 34 59  1  0  0  0
 34 60  1  0  0  0
 35 61  1  0  0  0
 35 62  1  0  0  0
 36 63  1  0  0  0
 36 64  1  0  0  0
 37 65  1  0  0  0
 37 66  1  0  0  0
 38 67  1  0  0  0
 38 68  1  0  0  0
 39 69  1  0  0  0
 40 70  1  0  0  0
 41 71  1  0  0  0
M  END
$$$$
