4ps1_ligand
  -I-interpret- 

 80 80  0  0  0  0  0  0  0  0999 V2000
  -42.6660   14.8920   26.3030 N   0  3  0  0  0
  -42.3210   16.2270   26.6800 C   0  0  0  0  0
  -43.4710   17.1710   26.3890 C   0  0  0  0  0
  -43.7140   17.2320   24.8830 C   0  0  0  0  0
  -42.7490   17.4880   24.0940 O   0  0  0  0  0
  -44.8980   16.8810   24.3930 N   0  0  0  0  0
  -45.3410   17.1060   23.0260 C   0  0  0  0  0
  -45.0810   18.5200   22.5680 C   0  0  0  0  0
  -45.2200   19.4680   23.3500 O   0  0  0  0  0
  -46.8340   16.8370   22.8970 C   0  0  0  0  0
  -47.3160   15.4080   23.0840 C   0  0  0  0  0
  -48.8280   15.3850   22.9450 C   0  0  0  0  0
  -46.6590   14.5340   22.0260 C   0  0  0  0  0
  -44.7440   18.6550   21.2840 N   0  0  0  0  0
  -44.5550   19.9340   20.6440 C   0  0  0  0  0
  -45.3220   19.9240   19.3540 C   0  0  0  0  0
  -45.3230   18.9280   18.6360 O   0  0  0  0  0
  -43.0800   20.1990   20.3570 C   0  0  0  0  0
  -42.2500   20.2290   21.6370 C   0  0  0  0  0
  -40.8060   20.5810   21.4040 C   0  0  0  0  0
  -40.4050   20.9750   20.2980 O   0  0  0  0  0
  -39.9970   20.4550   22.4670 N   0  0  0  0  0
  -45.9470   21.0450   19.0250 N   0  0  0  0  0
  -46.6130   21.1740   17.6190 C   0  0  0  0  0
  -45.6850   21.4480   16.6150 C   0  0  0  0  0
  -44.6350   22.1070   16.8680 O   0  0  0  0  0
  -47.6200   22.3820   17.8410 C   0  0  0  0  0
  -47.5600   22.6940   19.0950 C   0  0  0  0  0
  -46.2230   22.1200   19.7050 C   0  0  0  0  0
  -48.6700   21.9770   19.8130 O   0  0  0  0  0
  -45.9750   20.9850   15.3800 N   0  0  0  0  0
  -45.2310   21.3720   14.1650 C   0  0  0  0  0
  -45.9930   22.4360   13.3950 C   0  0  0  0  0
  -45.8260   22.6440   12.2000 O   0  0  0  0  0
  -45.0560   20.1170   13.3100 C   0  0  0  0  0
  -43.8030   19.3580   13.7070 C   0  0  0  0  0
  -43.7150   18.1610   13.3540 O   0  0  0  0  0
  -42.8760   19.9810   14.3180 O   0  0  0  0  0
  -46.9830   23.2900   14.1390 C   0  0  0  0  0
  -41.8832   14.2700   26.5048 H   0  0  0  0  0
  -43.4853   14.5918   26.8312 H   0  0  0  0  0
  -42.8748   14.8650   25.3050 H   0  0  0  0  0
  -41.4482   16.5433   26.1088 H   0  0  0  0  0
  -42.1039   16.2499   27.7479 H   0  0  0  0  0
  -43.2244   18.1669   26.7570 H   0  0  0  0  0
  -44.3710   16.8102   26.8870 H   0  0  0  0  0
  -45.5487   16.4164   25.0264 H   0  0  0  0  0
  -44.7701   16.4195   22.4008 H   0  0  0  0  0
  -47.0885   17.0975   21.8696 H   0  0  0  0  0
  -47.3026   17.4089   23.6979 H   0  0  0  0  0
  -47.0487   15.0279   24.0700 H   0  0  0  0  0
  -49.2712   16.0293   23.7043 H   0  0  0  0  0
  -49.1060   15.7445   21.9543 H   0  0  0  0  0
  -49.1882   14.3648   23.0770 H   0  0  0  0  0
  -46.9367   14.8941   21.0354 H   0  0  0  0  0
  -45.5760   14.5797   22.1402 H   0  0  0  0  0
  -46.9953   13.5043   22.1472 H   0  0  0  0  0
  -44.6134   17.8108   20.7266 H   0  0  0  0  0
  -44.9110   20.7231   21.3063 H   0  0  0  0  0
  -42.9949   21.1708   19.8707 H   0  0  0  0  0
  -42.7044   19.3951   19.7239 H   0  0  0  0  0
  -42.2788   19.2296   22.0710 H   0  0  0  0  0
  -42.6744   20.9948   22.2862 H   0  0  0  0  0
  -39.0072   20.6873   22.3850 H   0  0  0  0  0
  -40.3718   20.1269   23.3571 H   0  0  0  0  0
  -47.0941   20.2556   17.2825 H   0  0  0  0  0
  -48.6342   22.0971   17.5610 H   0  0  0  0  0
  -47.3475   23.2330   17.2168 H   0  0  0  0  0
  -47.6230   23.7771   19.2004 H   0  0  0  0  0
  -45.4146   22.8478   19.6355 H   0  0  0  0  0
  -46.3388   21.8958   20.7654 H   0  0  0  0  0
  -48.6404   22.1975   20.7469 H   0  0  0  0  0
  -46.7517   20.3312   15.2811 H   0  0  0  0  0
  -44.2594   21.7889   14.4304 H   0  0  0  0  0
  -44.9676   20.4153   12.2654 H   0  0  0  0  0
  -45.9194   19.4688   13.4599 H   0  0  0  0  0
  -43.1572   20.8827   14.4895 H   0  0  0  0  0
  -46.6786   24.3348   14.0768 H   0  0  0  0  0
  -47.9707   23.1708   13.6936 H   0  0  0  0  0
  -47.0145   22.9810   15.1838 H   0  0  0  0  0
  1  2  1  0  0  0
  2  3  1  0  0  0
  3  4  1  0  0  0
  4  5  2  0  0  0
  4  6  1  0  0  0
  6  7  1  0  0  0
  7  8  1  0  0  0
  7 10  1  0  0  0
  8  9  2  0  0  0
  8 14  1  0  0  0
 10 11  1  0  0  0
 11 12  1  0  0  0
 11 13  1  0  0  0
 14 15  1  0  0  0
 15 16  1  0  0  0
 15 18  1  0  0  0
 16 17  2  0  0  0
 16 23  1  0  0  0
 18 19  1  0  0  0
 19 20  1  0  0  0
 20 21  2  0  0  0
 20 22  1  0  0  0
 23 24  1  0  0  0
 23 29  1  0  0  0
 24 25  1  0  0  0
 24 27  1  0  0  0
 25 26  2  0  0  0
 25 31  1  0  0  0
 27 28  1  0  0  0
 28 29  1  0  0  0
 28 30  1  0  0  0
 31 32  1  0  0  0
 32 33  1  0  0  0
 32 35  1  0  0  0
 33 34  2  0  0  0
 33 39  1  0  0  0
 35 36  1  0  0  0
 36 37  2  0  0  0
 36 38  1  0  0  0
  1 40  1  0  0  0
  1 41  1  0  0  0
  1 42  1  0  0  0
  2 43  1  0  0  0
  2 44  1  0  0  0
  3 45  1  0  0  0
  3 46  1  0  0  0
  6 47  1  0  0  0
  7 48  1  0  0  0
 10 49  1  0  0  0
 10 50  1  0  0  0
 11 51  1  0  0  0
 12 52  1  0  0  0
 12 53  1  0  0  0
 12 54  1  0  0  0
 13 55  1  0  0  0
 13 56  1  0  0  0
 13 57  1  0  0  0
 14 58  1  0  0  0
 15 59  1  0  0  0
 18 60  1  0  0  0
 18 61  1  0  0  0
 19 62  1  0  0  0
 19 63  1  0  0  0
 22 64  1  0  0  0
 22 65  1  0  0  0
 24 66  1  0  0  0
 27 67  1  0  0  0
 27 68  1  0  0  0
 28 69  1  0  0  0
 29 70  1  0  0  0
 29 71  1  0  0  0
 30 72  1  0  0  0
 31 73  1  0  0  0
 32 74  1  0  0  0
 35 75  1  0  0  0
 35 76  1  0  0  0
 38 77  1  0  0  0
 39 78  1  0  0  0
 39 79  1  0  0  0
 39 80  1  0  0  0
M  END
$$$$
