2ko7_ligand
  -I-interpret- 

 55 56  0  0  0  0  0  0  0  0999 V2000
  -20.4790   -5.5900    0.5820 N   0  0  0  0  0
  -19.6720   -3.0570   -4.7800 O   0  0  0  0  0
  -20.9490   -4.9820   -0.5520 C   0  0  0  0  0
  -22.1330   -4.9760   -0.8240 O   0  0  0  0  0
  -19.9800   -4.3080   -1.5080 C   0  0  0  0  0
  -18.7760   -6.1170    1.9680 O   0  0  0  0  0
  -18.7500   -3.7590   -0.7720 C   0  0  0  0  0
  -23.2840   -7.7310    0.8910 O   0  0  0  0  0
  -18.1330   -4.8860    0.0720 C   0  0  0  0  0
  -21.1990   -8.2570    0.1680 O   0  0  0  0  0
  -19.1600   -5.5690    0.9530 C   0  0  0  0  0
  -17.7540   -2.9930   -1.7000 C   0  0  0  0  0
  -18.2390   -1.8700   -2.6700 C   0  0  0  0  0
  -17.6610   -1.8810   -4.1300 C   0  0  0  0  0
  -18.1370   -0.5800   -2.0560 O   0  0  0  0  0
  -18.5620   -2.6640   -5.0890 C   0  0  0  0  0
  -18.0390   -2.7760   -6.5170 C   0  0  0  0  0
  -17.7770   -1.3640   -7.0970 C   0  0  0  0  0
  -16.8730   -0.5040   -6.1820 C   0  0  0  0  0
  -17.4480   -0.4640   -4.7450 C   0  0  0  0  0
  -21.4520   -6.2780    1.4710 C   0  0  0  0  0
  -20.9270   -8.0020   -1.2290 C   0  0  0  0  0
  -21.1170   -9.3180   -1.9990 C   0  0  0  0  0
  -19.0100   -3.5490   -7.4390 C   0  0  0  0  0
  -15.3980   -0.9720   -6.2140 C   0  0  0  0  0
  -22.0950   -7.4860    0.8220 C   0  0  0  0  0
  -20.4936   -3.4755   -1.9888 H   0  0  0  0  0
  -19.6445   -5.0467   -2.2359 H   0  0  0  0  0
  -19.0614   -2.9724   -0.0847 H   0  0  0  0  0
  -17.3704   -4.4487    0.7164 H   0  0  0  0  0
  -17.7196   -5.6313   -0.6075 H   0  0  0  0  0
  -17.3742   -3.7664   -2.3676 H   0  0  0  0  0
  -17.1002   -2.4691   -1.0027 H   0  0  0  0  0
  -19.2880   -2.1138   -2.8382 H   0  0  0  0  0
  -16.6882   -2.3608   -4.0221 H   0  0  0  0  0
  -18.4406    0.0911   -2.6717 H   0  0  0  0  0
  -17.1070   -3.3399   -6.4771 H   0  0  0  0  0
  -18.7371   -0.8569   -7.1926 H   0  0  0  0  0
  -17.2693   -1.4832   -8.0542 H   0  0  0  0  0
  -16.8697    0.5150   -6.5690 H   0  0  0  0  0
  -16.7313    0.0648   -4.1167 H   0  0  0  0  0
  -18.4206    0.0259   -4.7916 H   0  0  0  0  0
  -22.2440   -5.5679    1.7090 H   0  0  0  0  0
  -20.9106   -6.6231    2.3518 H   0  0  0  0  0
  -19.9073   -7.6374   -1.3532 H   0  0  0  0  0
  -21.6068   -7.2408   -1.6117 H   0  0  0  0  0
  -20.4265  -10.0671   -1.6116 H   0  0  0  0  0
  -22.1419   -9.6668   -1.8725 H   0  0  0  0  0
  -20.9169   -9.1504   -3.0573 H   0  0  0  0  0
  -19.1520   -4.5576   -7.0509 H   0  0  0  0  0
  -19.9690   -3.0318   -7.4698 H   0  0  0  0  0
  -18.5911   -3.6006   -8.4440 H   0  0  0  0  0
  -15.3389   -2.0063   -5.8751 H   0  0  0  0  0
  -15.0173   -0.8998   -7.2328 H   0  0  0  0  0
  -14.8028   -0.3383   -5.5566 H   0  0  0  0  0
  1  3  1  0  0  0
  1 11  1  0  0  0
 21  1  1  0  0  0
 16  2  2  0  0  0
  3  4  2  0  0  0
  3  5  1  0  0  0
  5  7  1  0  0  0
 11  6  2  0  0  0
  9  7  1  0  0  0
  7 12  1  0  0  0
 26  8  2  0  0  0
 11  9  1  0  0  0
 10 22  1  0  0  0
 26 10  1  0  0  0
 12 13  1  0  0  0
 13 14  1  0  0  0
 13 15  1  0  0  0
 14 16  1  0  0  0
 14 20  1  0  0  0
 16 17  1  0  0  0
 17 18  1  0  0  0
 17 24  1  0  0  0
 19 18  1  0  0  0
 20 19  1  0  0  0
 19 25  1  0  0  0
 21 26  1  0  0  0
 22 23  1  0  0  0
  5 27  1  0  0  0
  5 28  1  0  0  0
  7 29  1  0  0  0
  9 30  1  0  0  0
  9 31  1  0  0  0
 12 32  1  0  0  0
 12 33  1  0  0  0
 13 34  1  0  0  0
 14 35  1  0  0  0
 15 36  1  0  0  0
 17 37  1  0  0  0
 18 38  1  0  0  0
 18 39  1  0  0  0
 19 40  1  0  0  0
 20 41  1  0  0  0
 20 42  1  0  0  0
 21 43  1  0  0  0
 21 44  1  0  0  0
 22 45  1  0  0  0
 22 46  1  0  0  0
 23 47  1  0  0  0
 23 48  1  0  0  0
 23 49  1  0  0  0
 24 50  1  0  0  0
 24 51  1  0  0  0
 24 52  1  0  0  0
 25 53  1  0  0  0
 25 54  1  0  0  0
 25 55  1  0  0  0
M  END
$$$$
