4aa1_ligand
  -I-interpret- 

 75 77  0  0  0  0  0  0  0  0999 V2000
   -9.0950   23.2670   21.3540 N   0  3  0  0  0
  -10.4390   23.1330   20.7090 C   0  0  0  0  0
  -11.5130   22.6190   21.6800 C   0  0  0  0  0
  -11.5660   21.4330   22.0120 O   0  0  0  0  0
  -10.3450   22.2750   19.4430 C   0  0  0  0  0
   -9.7940   23.0400   18.2590 C   0  0  0  0  0
   -8.4220   23.1050   18.0200 C   0  0  0  0  0
  -10.6450   23.7190   17.3880 C   0  0  0  0  0
   -7.9150   23.8190   16.9310 C   0  0  0  0  0
  -10.1460   24.4360   16.3010 C   0  0  0  0  0
   -8.7820   24.4790   16.0750 C   0  0  0  0  0
   -8.2910   25.1830   14.9950 O   0  0  0  0  0
  -12.3830   23.5340   22.1010 N   0  0  0  0  0
  -13.2750   23.3190   23.2460 C   0  0  0  0  0
  -14.7490   23.0380   22.8980 C   0  0  0  0  0
  -15.2170   23.3500   21.7970 O   0  0  0  0  0
  -13.1790   24.5010   24.2680 C   0  0  0  0  0
  -12.8550   25.8360   23.5710 C   0  0  0  0  0
  -12.1450   24.2050   25.3390 C   0  0  0  0  0
  -11.3490   26.0990   23.2810 C   0  0  0  0  0
  -15.4520   22.4220   23.8540 N   0  0  0  0  0
  -16.8950   22.1630   23.7960 C   0  0  0  0  0
  -17.6620   23.4880   23.9480 C   0  0  0  0  0
  -17.1560   24.4040   24.5910 O   0  0  0  0  0
  -17.2560   21.1920   24.9300 C   0  0  0  0  0
  -18.6980   20.7940   24.9690 C   0  0  0  0  0
  -19.2320   19.8390   24.1290 N   0  0  0  0  0
  -19.7160   21.2090   25.7610 C   0  0  0  0  0
  -20.5180   19.6930   24.3930 C   0  0  0  0  0
  -20.8380   20.5140   25.3780 N   0  0  0  0  0
  -18.8690   23.6080   23.3430 N   0  0  0  0  0
  -19.6740   24.8300   23.5320 C   0  0  0  0  0
  -20.0240   25.1220   24.9940 C   0  0  0  0  0
  -20.3300   26.2540   25.3600 O   0  0  0  0  0
  -20.9580   24.5530   22.7310 C   0  0  0  0  0
  -20.9000   23.1180   22.3320 C   0  0  0  0  0
  -19.4540   22.7360   22.3100 C   0  0  0  0  0
  -20.0100   24.2380   25.8450 N   0  0  0  0  0
   -9.1777   23.8404   22.1935 H   0  0  0  0  0
   -8.7462   22.3421   21.6056 H   0  0  0  0  0
   -8.4484   23.7095   20.7009 H   0  0  0  0  0
  -10.7619   24.1318   20.4153 H   0  0  0  0  0
  -11.3514   21.9429   19.1881 H   0  0  0  0  0
   -9.6685   21.4458   19.6500 H   0  0  0  0  0
   -7.7348   22.5914   18.6924 H   0  0  0  0  0
  -11.7209   23.6888   17.5600 H   0  0  0  0  0
   -6.8399   23.8567   16.7553 H   0  0  0  0  0
  -10.8282   24.9606   15.6320 H   0  0  0  0  0
   -9.0215   25.5754   14.5114 H   0  0  0  0  0
  -12.4318   24.4243   21.6057 H   0  0  0  0  0
  -12.9067   22.3983   23.6985 H   0  0  0  0  0
  -14.1571   24.5993   24.7389 H   0  0  0  0  0
  -13.1807   26.6248   24.2491 H   0  0  0  0  0
  -13.3550   25.8076   22.6029 H   0  0  0  0  0
  -12.4277   23.2987   25.8746 H   0  0  0  0  0
  -11.1703   24.0635   24.8720 H   0  0  0  0  0
  -12.0970   25.0410   26.0368 H   0  0  0  0  0
  -10.7946   26.1016   24.2195 H   0  0  0  0  0
  -10.9628   25.3134   22.6316 H   0  0  0  0  0
  -11.2384   27.0656   22.7895 H   0  0  0  0  0
  -14.9485   22.1093   24.6841 H   0  0  0  0  0
  -17.1681   21.7199   22.8383 H   0  0  0  0  0
  -17.0400   21.7025   25.8685 H   0  0  0  0  0
  -16.6778   20.2823   24.7678 H   0  0  0  0  0
  -19.6562   21.9547   26.5537 H   0  0  0  0  0
  -21.1997   19.0111   23.8847 H   0  0  0  0  0
  -19.1181   25.7081   23.2034 H   0  0  0  0  0
  -21.0225   25.2009   21.8568 H   0  0  0  0  0
  -21.8456   24.7582   23.3294 H   0  0  0  0  0
  -21.3562   22.9683   21.3534 H   0  0  0  0  0
  -21.4551   22.4967   23.0348 H   0  0  0  0  0
  -19.2925   21.6765   22.5087 H   0  0  0  0  0
  -18.9946   22.8719   21.3309 H   0  0  0  0  0
  -20.2468   24.4577   26.8125 H   0  0  0  0  0
  -19.7616   23.2835   25.5848 H   0  0  0  0  0
  1  2  1  0  0  0
  2  3  1  0  0  0
  2  5  1  0  0  0
  3  4  2  0  0  0
  3 13  1  0  0  0
  5  6  1  0  0  0
  6  7  4  0  0  0
  6  8  4  0  0  0
  7  9  4  0  0  0
  8 10  4  0  0  0
  9 11  4  0  0  0
 10 11  4  0  0  0
 11 12  1  0  0  0
 13 14  1  0  0  0
 14 15  1  0  0  0
 14 17  1  0  0  0
 15 16  2  0  0  0
 15 21  1  0  0  0
 17 18  1  0  0  0
 17 19  1  0  0  0
 18 20  1  0  0  0
 21 22  1  0  0  0
 22 23  1  0  0  0
 22 25  1  0  0  0
 23 24  2  0  0  0
 23 31  1  0  0  0
 25 26  1  0  0  0
 26 27  4  0  0  0
 26 28  4  0  0  0
 27 29  4  0  0  0
 28 30  4  0  0  0
 29 30  4  0  0  0
 31 32  1  0  0  0
 31 37  1  0  0  0
 32 33  1  0  0  0
 32 35  1  0  0  0
 33 34  2  0  0  0
 33 38  1  0  0  0
 35 36  1  0  0  0
 36 37  1  0  0  0
  1 39  1  0  0  0
  1 40  1  0  0  0
  1 41  1  0  0  0
  2 42  1  0  0  0
  5 43  1  0  0  0
  5 44  1  0  0  0
  7 45  1  0  0  0
  8 46  1  0  0  0
  9 47  1  0  0  0
 10 48  1  0  0  0
 12 49  1  0  0  0
 13 50  1  0  0  0
 14 51  1  0  0  0
 17 52  1  0  0  0
 18 53  1  0  0  0
 18 54  1  0  0  0
 19 55  1  0  0  0
 19 56  1  0  0  0
 19 57  1  0  0  0
 20 58  1  0  0  0
 20 59  1  0  0  0
 20 60  1  0  0  0
 21 61  1  0  0  0
 22 62  1  0  0  0
 25 63  1  0  0  0
 25 64  1  0  0  0
 28 65  1  0  0  0
 29 66  1  0  0  0
 32 67  1  0  0  0
 35 68  1  0  0  0
 35 69  1  0  0  0
 36 70  1  0  0  0
 36 71  1  0  0  0
 37 72  1  0  0  0
 37 73  1  0  0  0
 38 74  1  0  0  0
 38 75  1  0  0  0
M  END
$$$$
