5os1_ligand
  -I-interpret- 

 24 25  0  0  0  0  0  0  0  0999 V2000
  -11.2190   10.0500  -13.1900 C   0  0  0  0  0
  -11.3320   11.1150  -14.2150 C   0  0  0  0  0
  -12.4660   14.2030  -16.2890 C   0  0  0  0  0
  -11.9750   13.0870  -15.6330 C   0  0  0  0  0
  -10.7080   13.9280  -17.9270 C   0  0  0  0  0
  -10.2160   12.8170  -17.2750 C   0  0  0  0  0
  -10.8550   12.3840  -16.1070 C   0  0  0  0  0
  -11.8260   14.6260  -17.4420 C   0  0  0  0  0
  -11.6190   16.1040  -19.3220 C   0  0  0  0  0
  -12.2220   17.4090  -19.7810 C   0  0  0  0  0
  -12.2850   15.7220  -18.1140 O   0  0  0  0  0
  -12.5430   12.3350  -14.1970 S   0  0  0  0  0
  -10.5450   11.2990  -15.2800 N   0  0  0  0  0
  -11.0671   10.5044  -12.2110 H   0  0  0  0  0
  -12.1348    9.4589  -13.1795 H   0  0  0  0  0
  -10.3723    9.4063  -13.4285 H   0  0  0  0  0
  -13.3363   14.7364  -15.9067 H   0  0  0  0  0
  -10.2187   14.2718  -18.8383 H   0  0  0  0  0
   -9.3461   12.2860  -17.6616 H   0  0  0  0  0
  -10.5494   16.2197  -19.1468 H   0  0  0  0  0
  -11.7459   15.3366  -20.0856 H   0  0  0  0  0
  -13.2883   17.2717  -19.9609 H   0  0  0  0  0
  -12.0768   18.1659  -19.0102 H   0  0  0  0  0
  -11.7350   17.7287  -20.7023 H   0  0  0  0  0
  2  1  1  0  0  0
 12  2  4  0  0  0
 13  2  4  0  0  0
  3  4  4  0  0  0
  8  3  4  0  0  0
  4  7  4  0  0  0
  4 12  4  0  0  0
  5  6  4  0  0  0
  8  5  4  0  0  0
  6  7  4  0  0  0
  7 13  4  0  0  0
 11  8  1  0  0  0
  9 10  1  0  0  0
  9 11  1  0  0  0
  1 14  1  0  0  0
  1 15  1  0  0  0
  1 16  1  0  0  0
  3 17  1  0  0  0
  5 18  1  0  0  0
  6 19  1  0  0  0
  9 20  1  0  0  0
  9 21  1  0  0  0
 10 22  1  0  0  0
 10 23  1  0  0  0
 10 24  1  0  0  0
M  END
$$$$
