5j9z_ligand
  -I-interpret- 

 55 59  0  0  0  0  0  0  0  0999 V2000
    0.3610   52.4060  -21.8680 C   0  0  0  0  0
    0.8130   53.0520  -22.9830 C   0  0  0  0  0
    1.7890   53.9950  -22.7610 C   0  0  0  0  0
    2.2750   54.2680  -21.5300 N   0  0  0  0  0
    0.8130   52.6280  -20.6170 N   0  0  0  0  0
   -6.3730   51.3340  -19.6610 C   0  0  0  0  0
   -5.4800   51.0000  -20.8480 C   0  0  0  0  0
   -4.6360   49.7990  -20.3740 C   0  0  0  0  0
   -5.1250   49.0330  -19.5470 O   0  0  0  0  0
   -3.4220   49.5560  -20.9180 N   0  0  0  0  0
   -2.7200   50.3480  -21.9340 C   0  0  0  0  0
   -2.7330   48.3530  -20.4860 C   0  0  0  0  0
   -1.4850   48.7870  -19.8190 C   0  0  0  0  0
   -0.5960   49.4320  -20.8710 C   0  0  0  0  0
   -1.3220   50.6760  -21.3270 C   0  0  0  0  0
   -0.5500   51.5280  -22.2330 N   0  0  0  0  0
   -0.7240   51.6060  -23.5950 N   0  0  0  0  0
    1.7790   53.5660  -20.4270 C   0  0  0  0  0
    2.2770   54.7330  -23.7600 N   0  0  0  0  0
    0.1350   52.4920  -24.0610 C   0  0  0  0  0
    0.1490   52.7000  -25.4140 C   0  0  0  0  0
    1.1960   52.5550  -26.2550 C   0  0  0  0  0
    2.4890   52.2310  -26.0570 C   0  0  0  0  0
    3.3990   52.2030  -27.1590 C   0  0  0  0  0
    2.9250   52.5120  -28.4650 C   0  0  0  0  0
    1.5670   52.8280  -28.6070 C   0  0  0  0  0
    0.7580   52.8330  -27.5020 C   0  0  0  0  0
   -0.5550   53.0780  -27.4030 N   0  0  0  0  0
   -1.4230   53.4410  -28.5070 C   0  0  0  0  0
   -0.9360   52.9770  -26.1410 C   0  0  0  0  0
   -6.9938   50.4709  -19.4208 H   0  0  0  0  0
   -5.7527   51.5875  -18.8013 H   0  0  0  0  0
   -7.0095   52.1819  -19.9141 H   0  0  0  0  0
   -4.8574   51.8456  -21.1403 H   0  0  0  0  0
   -6.0596   50.7639  -21.7404 H   0  0  0  0  0
   -3.2697   51.2573  -22.1770 H   0  0  0  0  0
   -2.6262   49.7978  -22.8702 H   0  0  0  0  0
   -2.5123   47.7078  -21.3363 H   0  0  0  0  0
   -3.3556   47.7756  -19.8026 H   0  0  0  0  0
   -0.9797   47.9326  -19.3686 H   0  0  0  0  0
   -1.7084   49.4987  -19.0242 H   0  0  0  0  0
   -0.4158   48.7531  -21.7045 H   0  0  0  0  0
    0.3847   49.6756  -20.4624 H   0  0  0  0  0
   -1.4653   51.2581  -20.4167 H   0  0  0  0  0
    2.1622   53.7683  -19.4268 H   0  0  0  0  0
    1.9262   54.6027  -24.7089 H   0  0  0  0  0
    3.0008   55.4274  -23.5747 H   0  0  0  0  0
    2.8417   51.9897  -25.0543 H   0  0  0  0  0
    4.4467   51.9473  -27.0006 H   0  0  0  0  0
    3.5949   52.5032  -29.3248 H   0  0  0  0  0
    1.1582   53.0677  -29.5886 H   0  0  0  0  0
   -1.0681   54.3682  -28.9568 H   0  0  0  0  0
   -1.4117   52.6462  -29.2529 H   0  0  0  0  0
   -2.4391   53.5803  -28.1380 H   0  0  0  0  0
   -1.9512   53.0979  -25.7629 H   0  0  0  0  0
  1  2  4  0  0  0
  1  5  4  0  0  0
 16  1  4  0  0  0
  2  3  4  0  0  0
  2 20  4  0  0  0
  3  4  4  0  0  0
  3 19  1  0  0  0
 18  4  4  0  0  0
  5 18  4  0  0  0
  7  6  1  0  0  0
  8  7  1  0  0  0
  8  9  2  0  0  0
 10  8  1  0  0  0
 11 10  1  0  0  0
 10 12  1  0  0  0
 15 11  1  0  0  0
 13 12  1  0  0  0
 14 13  1  0  0  0
 15 14  1  0  0  0
 15 16  1  0  0  0
 16 17  4  0  0  0
 17 20  4  0  0  0
 20 21  1  0  0  0
 21 22  4  0  0  0
 21 30  4  0  0  0
 22 23  4  0  0  0
 22 27  4  0  0  0
 23 24  4  0  0  0
 24 25  4  0  0  0
 25 26  4  0  0  0
 26 27  4  0  0  0
 27 28  4  0  0  0
 28 29  1  0  0  0
 28 30  4  0  0  0
  6 31  1  0  0  0
  6 32  1  0  0  0
  6 33  1  0  0  0
  7 34  1  0  0  0
  7 35  1  0  0  0
 11 36  1  0  0  0
 11 37  1  0  0  0
 12 38  1  0  0  0
 12 39  1  0  0  0
 13 40  1  0  0  0
 13 41  1  0  0  0
 14 42  1  0  0  0
 14 43  1  0  0  0
 15 44  1  0  0  0
 18 45  1  0  0  0
 19 46  1  0  0  0
 19 47  1  0  0  0
 23 48  1  0  0  0
 24 49  1  0  0  0
 25 50  1  0  0  0
 26 51  1  0  0  0
 29 52  1  0  0  0
 29 53  1  0  0  0
 29 54  1  0  0  0
 30 55  1  0  0  0
M  END
$$$$
