2yc5_ligand
  -I-interpret- 

 29 31  0  0  0  0  0  0  0  0999 V2000
   13.8850   58.7160  -17.3980 Cl  0  0  0  0  0
   15.3740   58.3100  -18.2180 C   0  0  0  0  0
   16.1300   59.3620  -18.5030 N   0  0  0  0  0
   17.2570   59.0470  -19.1630 C   0  0  0  0  0
   15.6300   56.9630  -18.5150 C   0  0  0  0  0
   16.8080   56.7010  -19.2240 C   0  0  0  0  0
   17.1600   55.4890  -19.5650 O   0  0  0  0  0
   17.6170   57.7940  -19.4710 N   0  0  0  0  0
   18.8160   57.7300  -20.1790 N   0  0  0  0  0
   19.2400   59.0070  -20.2700 C   0  0  0  0  0
   18.2690   59.8020  -19.6510 C   0  0  0  0  0
   18.3560   61.1320  -19.5470 C   0  0  0  0  0
   18.4310   62.2770  -19.4460 N   0  0  0  0  0
   14.6740   55.9010  -18.1090 C   0  0  0  0  0
   13.6890   55.3660  -19.1140 C   0  0  0  0  0
   14.0180   55.1840  -20.4390 C   0  0  0  0  0
   13.0420   54.6520  -21.3120 C   0  0  0  0  0
   11.7740   54.3370  -20.8630 C   0  0  0  0  0
   11.4560   54.6000  -19.5340 C   0  0  0  0  0
   12.4320   55.0740  -18.6820 C   0  0  0  0  0
   15.3637   55.9721  -18.1472 H   0  0  0  0  0
   20.1623   59.3534  -20.7363 H   0  0  0  0  0
   14.0583   56.3634  -17.3375 H   0  0  0  0  0
   15.3014   55.0466  -17.8549 H   0  0  0  0  0
   15.0104   55.4448  -20.8067 H   0  0  0  0  0
   13.2946   54.4871  -22.3594 H   0  0  0  0  0
   11.0393   53.8926  -21.5345 H   0  0  0  0  0
   10.4428   54.4326  -19.1687 H   0  0  0  0  0
   12.1886   55.2192  -17.6295 H   0  0  0  0  0
  1  2  1  0  0  0
  2  3  2  0  0  0
  2  5  1  0  0  0
  3  4  1  0  0  0
  4  8  4  0  0  0
  4 11  4  0  0  0
  5  6  1  0  0  0
  5 14  1  0  0  0
  6  7  2  0  0  0
  6  8  1  0  0  0
  8  9  4  0  0  0
  9 10  4  0  0  0
 10 11  4  0  0  0
 11 12  1  0  0  0
 12 13  3  0  0  0
 14 15  1  0  0  0
 15 16  4  0  0  0
 15 20  4  0  0  0
 16 17  4  0  0  0
 17 18  4  0  0  0
 18 19  4  0  0  0
 19 20  4  0  0  0
  5 21  1  0  0  0
 10 22  1  0  0  0
 14 23  1  0  0  0
 14 24  1  0  0  0
 16 25  1  0  0  0
 17 26  1  0  0  0
 18 27  1  0  0  0
 19 28  1  0  0  0
 20 29  1  0  0  0
M  END
$$$$
