3ow6_ligand
  -I-interpret- 

 28 30  0  0  0  0  0  0  0  0999 V2000
   -0.3290  -11.5360   -2.8250 C   0  0  0  0  0
   -1.4990  -11.5330   -3.5630 C   0  0  0  0  0
   -2.6500  -12.0770   -3.0340 C   0  0  0  0  0
   -2.7180  -12.5710   -1.7450 C   0  0  0  0  0
   -1.5360  -12.5530   -1.0130 C   0  0  0  0  0
   -0.3580  -12.0570   -1.5440 C   0  0  0  0  0
   -1.5290  -13.0030    0.3090 O   0  0  0  0  0
   -3.7810  -12.0460   -3.8280 O   0  0  0  0  0
   -1.5740  -10.9670   -4.8700 N   0  0  0  0  0
   -1.4130   -9.6010   -5.1410 C   0  0  0  0  0
   -1.4550   -9.4510   -6.5020 C   0  0  0  0  0
   -1.6380  -10.7030   -7.0820 N   0  0  0  0  0
   -1.7350  -11.6480   -6.0540 C   0  0  0  0  0
   -1.2730   -8.5320   -4.2970 C   0  0  0  0  0
   -1.1680   -7.2950   -4.8940 C   0  0  0  0  0
   -1.1970   -7.1430   -6.2690 C   0  0  0  0  0
   -1.3430   -8.2230   -7.1140 C   0  0  0  0  0
   -1.8860  -12.8530   -6.1640 O   0  0  0  0  0
    0.5949  -11.1368   -3.2435 H   0  0  0  0  0
   -3.6480  -12.9540   -1.3249 H   0  0  0  0  0
    0.5543  -12.0771   -0.9478 H   0  0  0  0  0
   -0.6421  -12.9245    0.6679 H   0  0  0  0  0
   -4.5129  -12.4502   -3.3563 H   0  0  0  0  0
   -1.6920  -10.8979   -8.0818 H   0  0  0  0  0
   -1.2462   -8.6529   -3.2141 H   0  0  0  0  0
   -1.0590   -6.4111   -4.2656 H   0  0  0  0  0
   -1.1020   -6.1442   -6.6951 H   0  0  0  0  0
   -1.3681   -8.1114   -8.1980 H   0  0  0  0  0
  1  2  4  0  0  0
  1  6  4  0  0  0
  2  3  4  0  0  0
  2  9  1  0  0  0
  3  4  4  0  0  0
  3  8  1  0  0  0
  4  5  4  0  0  0
  5  6  4  0  0  0
  5  7  1  0  0  0
  9 10  1  0  0  0
  9 13  1  0  0  0
 10 11  4  0  0  0
 10 14  4  0  0  0
 11 12  1  0  0  0
 11 17  4  0  0  0
 12 13  1  0  0  0
 13 18  2  0  0  0
 14 15  4  0  0  0
 15 16  4  0  0  0
 16 17  4  0  0  0
  1 19  1  0  0  0
  4 20  1  0  0  0
  6 21  1  0  0  0
  7 22  1  0  0  0
  8 23  1  0  0  0
 12 24  1  0  0  0
 14 25  1  0  0  0
 15 26  1  0  0  0
 16 27  1  0  0  0
 17 28  1  0  0  0
M  END
$$$$
