5w0q_ligand
  -I-interpret- 

 32 33  0  0  0  0  0  0  0  0999 V2000
   11.5350   24.9120   -5.4370 C   0  0  0  0  0
   12.9160   25.0000   -5.5420 C   0  0  0  0  0
   13.7000   25.1500   -4.4020 C   0  0  0  0  0
   13.0960   25.1900   -3.1560 C   0  0  0  0  0
   15.7040   25.4550   -5.7630 C   0  0  0  0  0
   14.7080   25.9460   -6.8290 C   0  0  0  0  0
   13.3830   24.1240   -7.7900 C   0  0  0  0  0
   10.9400   24.9510   -4.1880 C   0  0  0  0  0
   11.0760   25.1370   -1.6940 C   0  0  0  0  0
   12.1860   22.2980   -8.8690 C   0  0  0  0  0
   16.8470   26.4620   -5.6170 C   0  0  0  0  0
   11.7230   25.0900   -3.0550 C   0  0  0  0  0
   13.6110   24.9760   -6.7640 N   0  0  0  0  0
   12.3990   23.2050   -7.7390 N   0  0  0  0  0
   14.0860   24.1980   -8.7840 O   0  0  0  0  0
   15.0580   25.2520   -4.4910 O   0  0  0  0  0
   10.9224   24.8127   -6.3331 H   0  0  0  0  0
   13.7034   25.3002   -2.2576 H   0  0  0  0  0
   16.1039   24.4954   -6.0908 H   0  0  0  0  0
   15.1565   25.9961   -7.8212 H   0  0  0  0  0
   14.3699   26.9649   -6.6400 H   0  0  0  0  0
    9.8567   24.8724   -4.0967 H   0  0  0  0  0
   11.4524   24.3146   -1.0856 H   0  0  0  0  0
   11.3141   26.0855   -1.2125 H   0  0  0  0  0
    9.9954   25.0448   -1.8034 H   0  0  0  0  0
   11.9586   22.8797   -9.7623 H   0  0  0  0  0
   13.0885   21.7102   -9.0366 H   0  0  0  0  0
   11.3529   21.6314   -8.6462 H   0  0  0  0  0
   16.4490   27.4124   -5.2613 H   0  0  0  0  0
   17.5758   26.0812   -4.9015 H   0  0  0  0  0
   17.3274   26.6072   -6.5846 H   0  0  0  0  0
   11.8028   23.1410   -6.9139 H   0  0  0  0  0
  2  1  4  0  0  0
  1  8  4  0  0  0
  3  2  4  0  0  0
  2 13  1  0  0  0
  3  4  4  0  0  0
 16  3  1  0  0  0
  4 12  4  0  0  0
  5  6  1  0  0  0
  5 11  1  0  0  0
  5 16  1  0  0  0
  6 13  1  0  0  0
 13  7  1  0  0  0
  7 14  1  0  0  0
  7 15  2  0  0  0
  8 12  4  0  0  0
 12  9  1  0  0  0
 14 10  1  0  0  0
  1 17  1  0  0  0
  4 18  1  0  0  0
  5 19  1  0  0  0
  6 20  1  0  0  0
  6 21  1  0  0  0
  8 22  1  0  0  0
  9 23  1  0  0  0
  9 24  1  0  0  0
  9 25  1  0  0  0
 10 26  1  0  0  0
 10 27  1  0  0  0
 10 28  1  0  0  0
 11 29  1  0  0  0
 11 30  1  0  0  0
 11 31  1  0  0  0
 14 32  1  0  0  0
M  END
$$$$
