3nsh_ligand
  -I-interpret- 

 64 66  0  0  0  0  0  0  0  0999 V2000
    0.3830   33.6660   32.5710 C   0  0  0  0  0
   -0.7050   33.6730   33.6010 C   0  0  0  0  0
   -1.9480   33.5270   33.1460 N   0  0  0  0  0
   -3.1010   33.6380   34.0050 C   0  0  0  0  0
   -3.6050   32.2450   34.2490 C   0  0  0  0  0
   -2.5650   31.2950   34.8130 C   0  0  0  0  0
   -3.2580   30.1540   35.3910 N   0  3  0  0  0
   -2.5150   29.4740   36.4780 C   0  0  0  0  0
   -2.4600   30.2150   37.7800 C   0  0  0  0  0
   -3.5500   30.8160   38.3510 C   0  0  0  0  0
   -3.2090   31.4760   39.5480 C   0  0  0  0  0
   -1.8550   31.4210   39.8520 C   0  0  0  0  0
   -1.0070   30.5300   38.6330 S   0  0  0  0  0
   -4.2190   32.2090   40.3830 C   0  0  0  0  0
   -4.9860   31.3940   41.3920 C   0  0  0  0  0
   -4.0310   30.8410   42.4380 C   0  0  0  0  0
   -5.7900   30.3280   40.6490 C   0  0  0  0  0
   -5.9290   32.2990   42.1920 C   0  0  0  0  0
   -0.4630   33.7920   34.8000 O   0  0  0  0  0
   -4.1240   34.4870   33.2960 C   0  0  0  0  0
   -3.4270   35.8270   33.0100 C   0  0  0  0  0
   -3.3210   36.2840   31.6910 C   0  0  0  0  0
   -2.6700   37.4900   31.4380 C   0  0  0  0  0
   -2.1040   38.2270   32.4760 C   0  0  0  0  0
   -2.2010   37.7700   33.7900 C   0  0  0  0  0
   -2.8760   36.5650   34.0570 C   0  0  0  0  0
   -2.5440   38.0560   30.1100 F   0  0  0  0  0
   -1.5710   38.6430   34.8310 F   0  0  0  0  0
   -4.6770   32.3020   35.1800 O   0  0  0  0  0
   -1.2310   28.7090   36.1210 C   0  0  0  0  0
   -2.4770   27.9450   36.5960 C   0  0  0  0  0
    0.9323   34.6063   32.6182 H   0  0  0  0  0
    1.0624   32.8366   32.7676 H   0  0  0  0  0
   -0.0569   33.5501   31.5805 H   0  0  0  0  0
   -2.0895   33.3298   32.1553 H   0  0  0  0  0
   -2.8730   34.1057   34.9628 H   0  0  0  0  0
   -3.9056   31.8597   33.2747 H   0  0  0  0  0
   -1.9716   31.7989   35.5759 H   0  0  0  0  0
   -1.8921   30.9636   34.0222 H   0  0  0  0  0
   -3.3868   29.4717   34.6438 H   0  0  0  0  0
   -4.1265   30.5043   35.7953 H   0  0  0  0  0
   -4.5557   30.7873   37.9317 H   0  0  0  0  0
   -1.3933   31.8728   40.7300 H   0  0  0  0  0
   -4.9609   32.5958   39.6844 H   0  0  0  0  0
   -3.6555   32.9439   40.9579 H   0  0  0  0  0
   -3.2882   30.2086   41.9518 H   0  0  0  0  0
   -3.5314   31.6667   42.9447 H   0  0  0  0  0
   -4.5912   30.2527   43.1647 H   0  0  0  0  0
   -6.4817   30.8115   39.9591 H   0  0  0  0  0
   -5.1095   29.6843   40.0916 H   0  0  0  0  0
   -6.3503   29.7305   41.3681 H   0  0  0  0  0
   -5.3463   33.0586   42.7131 H   0  0  0  0  0
   -6.6314   32.7811   41.5121 H   0  0  0  0  0
   -6.4777   31.6988   42.9178 H   0  0  0  0  0
   -5.0168   34.6257   33.9058 H   0  0  0  0  0
   -4.4655   34.0124   32.3761 H   0  0  0  0  0
   -3.7430   35.7030   30.8710 H   0  0  0  0  0
   -1.5852   39.1612   32.2610 H   0  0  0  0  0
   -2.9684   36.2080   35.0827 H   0  0  0  0  0
   -5.3541   32.8975   34.8506 H   0  0  0  0  0
   -0.1643   28.7526   36.3410 H   0  0  0  0  0
   -0.5032   28.6647   35.3108 H   0  0  0  0  0
   -3.0752   27.0868   36.2899 H   0  0  0  0  0
   -2.7355   27.1749   37.3228 H   0  0  0  0  0
  1  2  1  0  0  0
  2  3  1  0  0  0
  2 19  2  0  0  0
  3  4  1  0  0  0
  4  5  1  0  0  0
  4 20  1  0  0  0
  5  6  1  0  0  0
  5 29  1  0  0  0
  6  7  1  0  0  0
  7  8  1  0  0  0
  8  9  1  0  0  0
  8 30  1  0  0  0
  8 31  1  0  0  0
  9 10  4  0  0  0
  9 13  4  0  0  0
 10 11  4  0  0  0
 11 12  4  0  0  0
 11 14  1  0  0  0
 12 13  4  0  0  0
 14 15  1  0  0  0
 15 16  1  0  0  0
 15 17  1  0  0  0
 15 18  1  0  0  0
 20 21  1  0  0  0
 21 22  4  0  0  0
 21 26  4  0  0  0
 22 23  4  0  0  0
 23 24  4  0  0  0
 23 27  1  0  0  0
 24 25  4  0  0  0
 25 26  4  0  0  0
 25 28  1  0  0  0
 30 31  1  0  0  0
  1 32  1  0  0  0
  1 33  1  0  0  0
  1 34  1  0  0  0
  3 35  1  0  0  0
  4 36  1  0  0  0
  5 37  1  0  0  0
  6 38  1  0  0  0
  6 39  1  0  0  0
  7 40  1  0  0  0
  7 41  1  0  0  0
 10 42  1  0  0  0
 12 43  1  0  0  0
 14 44  1  0  0  0
 14 45  1  0  0  0
 16 46  1  0  0  0
 16 47  1  0  0  0
 16 48  1  0  0  0
 17 49  1  0  0  0
 17 50  1  0  0  0
 17 51  1  0  0  0
 18 52  1  0  0  0
 18 53  1  0  0  0
 18 54  1  0  0  0
 20 55  1  0  0  0
 20 56  1  0  0  0
 22 57  1  0  0  0
 24 58  1  0  0  0
 26 59  1  0  0  0
 29 60  1  0  0  0
 30 61  1  0  0  0
 30 62  1  0  0  0
 31 63  1  0  0  0
 31 64  1  0  0  0
M  END
$$$$
