4bck_ligand
  -I-interpret- 

 42 44  0  0  0  0  0  0  0  0999 V2000
    3.5300   18.8590   21.3710 C   0  0  0  0  0
    3.7440   20.1870   21.9020 N   0  0  0  0  0
    5.0090   20.5260   22.5060 C   0  0  0  0  0
    6.0760   19.6490   22.7100 N   0  0  0  0  0
    7.2260   20.3260   23.3580 C   0  0  0  0  0
    8.4940   19.6310   23.6920 C   0  0  0  0  0
    6.9200   21.7070   23.5890 C   0  0  0  0  0
    7.7740   22.7830   24.2370 C   0  0  0  0  0
    7.1820   23.5280   25.2100 N   0  0  0  0  0
    7.8510   24.5430   25.8450 C   0  0  0  0  0
    7.1760   25.3050   26.8850 N   0  0  0  0  0
    5.9730   26.0640   26.5690 C   0  0  0  0  0
    4.9750   25.5080   25.7630 C   0  0  0  0  0
    3.8120   26.2380   25.4680 C   0  0  0  0  0
    2.5510   25.5310   24.4340 S   0  0  0  0  0
    2.6310   24.0890   24.4590 O   0  0  0  0  0
    2.8390   26.0810   22.9140 N   0  0  0  0  0
    1.2500   25.9460   24.8840 O   0  0  0  0  0
    3.6440   27.5110   25.9880 C   0  0  0  0  0
    4.6320   28.0650   26.8020 C   0  0  0  0  0
    5.7950   27.3390   27.0910 C   0  0  0  0  0
    9.1470   24.8010   25.5150 N   0  0  0  0  0
    9.7550   24.0660   24.5480 C   0  0  0  0  0
    9.0800   23.0580   23.8960 C   0  0  0  0  0
    9.8070   22.2870   22.8370 C   0  0  0  0  0
   10.3780   21.7080   22.0310 N   0  0  0  0  0
    5.4280   21.9970   23.0680 S   0  0  0  0  0
    4.2596   18.6612   20.5857 H   0  0  0  0  0
    3.6465   18.1266   22.1698 H   0  0  0  0  0
    2.5232   18.7918   20.9587 H   0  0  0  0  0
    3.0007   20.8835   21.8494 H   0  0  0  0  0
    8.2875   18.8126   24.3817 H   0  0  0  0  0
    8.9411   19.2353   22.7800 H   0  0  0  0  0
    9.1815   20.3364   24.1588 H   0  0  0  0  0
    7.5453   25.3078   27.8358 H   0  0  0  0  0
    5.1002   24.5025   25.3614 H   0  0  0  0  0
    3.0366   25.4211   22.1618 H   0  0  0  0  0
    2.8203   27.0826   22.7220 H   0  0  0  0  0
    2.7415   28.0786   25.7615 H   0  0  0  0  0
    4.4990   29.0652   27.2143 H   0  0  0  0  0
    6.5635   27.7766   27.7282 H   0  0  0  0  0
   10.7914   24.2769   24.2844 H   0  0  0  0  0
  1  2  1  0  0  0
  2  3  1  0  0  0
  3  4  4  0  0  0
  3 27  4  0  0  0
  4  5  4  0  0  0
  5  6  1  0  0  0
  5  7  4  0  0  0
  7  8  1  0  0  0
  7 27  4  0  0  0
  8  9  4  0  0  0
  8 24  4  0  0  0
  9 10  4  0  0  0
 10 11  1  0  0  0
 10 22  4  0  0  0
 11 12  1  0  0  0
 12 13  4  0  0  0
 12 21  4  0  0  0
 13 14  4  0  0  0
 14 15  1  0  0  0
 14 19  4  0  0  0
 15 16  2  0  0  0
 15 17  1  0  0  0
 15 18  2  0  0  0
 19 20  4  0  0  0
 20 21  4  0  0  0
 22 23  4  0  0  0
 23 24  4  0  0  0
 24 25  1  0  0  0
 25 26  3  0  0  0
  1 28  1  0  0  0
  1 29  1  0  0  0
  1 30  1  0  0  0
  2 31  1  0  0  0
  6 32  1  0  0  0
  6 33  1  0  0  0
  6 34  1  0  0  0
 11 35  1  0  0  0
 13 36  1  0  0  0
 17 37  1  0  0  0
 17 38  1  0  0  0
 19 39  1  0  0  0
 20 40  1  0  0  0
 21 41  1  0  0  0
 23 42  1  0  0  0
M  END
$$$$
