5fbi_ligand
  -I-interpret- 

 36 38  0  0  0  0  0  0  0  0999 V2000
    3.4140   10.0400    1.7940 C   0  0  0  0  0
    2.1230    9.5940    2.2050 C   0  0  0  0  0
    1.7980    8.2120    2.2850 C   0  0  0  0  0
    5.1820   11.7900    1.9600 C   0  0  0  0  0
    5.5100   13.2240    1.5280 C   0  0  0  0  0
    5.9150   13.4860    0.2060 C   0  0  0  0  0
    6.2480   14.7970   -0.1750 C   0  0  0  0  0
    6.2380   15.8410    0.7680 C   0  0  0  0  0
    5.8840   15.5810    2.1040 C   0  0  0  0  0
    5.5430   14.2640    2.4790 C   0  0  0  0  0
    5.8800   16.7040    3.1200 C   0  0  0  0  0
    4.3880    9.0770    1.4650 C   0  0  0  0  0
    4.0550    7.7280    1.5510 C   0  0  0  0  0
    2.8050    7.2810    1.9450 C   0  0  0  0  0
    2.8040    5.9180    1.9230 N   0  0  0  0  0
    3.9860    5.4530    1.5510 C   0  0  0  0  0
    4.8220    6.4680    1.3100 C   0  0  0  0  0
    4.4390    4.0560    1.4020 C   0  0  0  0  0
    5.7180    3.7350    1.1150 N   0  0  0  0  0
    3.6100    3.1830    1.5700 O   0  0  0  0  0
    3.8140   11.3990    1.6930 O   0  0  0  0  0
    6.7620   16.6850    4.1240 O   0  0  0  0  0
    5.0760   17.6160    3.0120 O   0  0  0  0  0
    1.3648   10.3328    2.4649 H   0  0  0  0  0
    0.8071    7.8825    2.5975 H   0  0  0  0  0
    5.3325   11.7324    3.0380 H   0  0  0  0  0
    5.8284   11.1225    1.3901 H   0  0  0  0  0
    5.9702   12.6748   -0.5200 H   0  0  0  0  0
    6.5164   15.0069   -1.2104 H   0  0  0  0  0
    6.5050   16.8527    0.4627 H   0  0  0  0  0
    5.3015   14.0477    3.5197 H   0  0  0  0  0
    5.3852    9.3828    1.1485 H   0  0  0  0  0
    5.8635    6.3914    0.9976 H   0  0  0  0  0
    5.9931    2.7558    1.0381 H   0  0  0  0  0
    6.4096    4.4716    0.9750 H   0  0  0  0  0
    7.3107   15.9006    4.0516 H   0  0  0  0  0
  1  2  4  0  0  0
  1 12  4  0  0  0
 21  1  1  0  0  0
  2  3  4  0  0  0
  3 14  4  0  0  0
  4  5  1  0  0  0
  4 21  1  0  0  0
  5  6  4  0  0  0
  5 10  4  0  0  0
  6  7  4  0  0  0
  7  8  4  0  0  0
  8  9  4  0  0  0
  9 10  4  0  0  0
  9 11  1  0  0  0
 11 22  1  0  0  0
 11 23  2  0  0  0
 12 13  4  0  0  0
 13 14  4  0  0  0
 13 17  4  0  0  0
 14 15  4  0  0  0
 15 16  4  0  0  0
 16 17  4  0  0  0
 16 18  1  0  0  0
 18 19  1  0  0  0
 18 20  2  0  0  0
  2 24  1  0  0  0
  3 25  1  0  0  0
  4 26  1  0  0  0
  4 27  1  0  0  0
  6 28  1  0  0  0
  7 29  1  0  0  0
  8 30  1  0  0  0
 10 31  1  0  0  0
 12 32  1  0  0  0
 17 33  1  0  0  0
 19 34  1  0  0  0
 19 35  1  0  0  0
 22 36  1  0  0  0
M  END
$$$$
