5q0m_ligand
  -I-interpret- 

 84 88  0  0  0  0  0  0  0  0999 V2000
   -3.3950   43.3920    3.4190 C   0  0  0  0  0
   -2.2290   43.5350    4.1690 C   0  0  0  0  0
   -1.9860   44.7270    4.8450 C   0  0  0  0  0
   -1.2410   42.4200    4.2500 C   0  0  0  0  0
  -11.2670   41.0610   -4.6510 C   0  0  0  0  0
   -9.5470   40.3110   -2.8360 C   0  0  0  0  0
   -9.1870   42.5480   -1.9370 C   0  0  0  0  0
  -11.0600   43.6990   -3.3930 C   0  0  0  0  0
  -11.5390   41.9030   -1.7720 C   0  0  0  0  0
  -12.6220   42.0210   -6.6060 C   0  0  0  0  0
  -11.8620   39.6080   -6.6550 C   0  0  0  0  0
  -12.1120   40.8450   -7.4800 C   0  0  0  0  0
   -2.9060   45.7700    4.7740 C   0  0  0  0  0
   -2.6520   47.0530    5.4840 C   0  0  0  0  0
  -10.1480   41.4170   -3.7010 C   0  0  0  0  0
  -10.4720   42.4880   -2.7310 C   0  0  0  0  0
  -11.6000   42.3000   -5.4680 C   0  0  0  0  0
  -10.8490   39.8990   -5.5560 C   0  0  0  0  0
   -4.0650   45.6180    4.0220 C   0  0  0  0  0
   -8.7880   41.0730   -1.7530 C   0  0  0  0  0
  -12.0180   43.4290   -4.5620 C   0  0  0  0  0
   -9.0920   43.3300   -0.6050 C   0  0  0  0  0
  -12.7860   43.2520   -7.5130 C   0  0  0  0  0
   -4.3160   44.4360    3.3450 C   0  0  0  0  0
  -13.9960   41.6700   -6.0190 C   0  0  0  0  0
   -7.6280   43.2870   -0.1220 C   0  0  0  0  0
   -9.5590   44.7630   -0.6990 C   0  0  0  0  0
  -10.8910   41.2090   -8.3170 C   0  0  0  0  0
  -11.5350   43.5960   -8.3200 C   0  0  0  0  0
   -7.4190   43.8480    1.2760 C   0  0  0  0  0
  -11.1210   42.4270   -9.1750 C   0  0  0  0  0
   -6.0950   43.4560    1.8820 C   0  0  0  0  0
   -5.5350   44.4300    2.6250 N   0  0  0  0  0
   -1.5360   41.3640    3.5400 O   0  0  0  0  0
   -3.3740   48.0300    5.3120 O   0  0  0  0  0
   -1.6310   47.0390    6.3060 O   0  0  0  0  0
   -9.9330   42.7290   -9.9150 O   0  0  0  0  0
   -5.5960   42.3450    1.6970 O   0  0  0  0  0
   -0.2320   42.5030    4.9400 O   0  0  0  0  0
   -3.5877   42.4598    2.8880 H   0  0  0  0  0
   -1.0743   44.8444    5.4308 H   0  0  0  0  0
  -12.1486   40.7380   -4.0973 H   0  0  0  0  0
   -8.9011   39.6421   -3.4048 H   0  0  0  0  0
  -10.3060   39.6464   -2.4233 H   0  0  0  0  0
   -8.5117   43.1766   -2.5175 H   0  0  0  0  0
  -10.2215   44.2585   -3.8076 H   0  0  0  0  0
  -11.6456   44.2110   -2.6295 H   0  0  0  0  0
  -11.2288   40.9096   -1.4479 H   0  0  0  0  0
  -11.6416   42.5542   -0.9040 H   0  0  0  0  0
  -12.4946   41.8350   -2.2918 H   0  0  0  0  0
  -11.4690   38.8234   -7.3015 H   0  0  0  0  0
  -12.7994   39.2900   -6.1987 H   0  0  0  0  0
  -12.9132   40.6235   -8.1851 H   0  0  0  0  0
   -9.4245   41.7194   -4.4581 H   0  0  0  0  0
  -10.6915   42.6106   -5.9840 H   0  0  0  0  0
  -10.7667   39.0070   -4.9350 H   0  0  0  0  0
   -9.9085   40.1721   -6.0346 H   0  0  0  0  0
   -4.7828   46.4363    3.9645 H   0  0  0  0  0
   -7.7108   40.9347   -1.8458 H   0  0  0  0  0
   -9.0406   40.7109   -0.7564 H   0  0  0  0  0
  -12.0403   44.3332   -5.1702 H   0  0  0  0  0
  -12.9782   43.1498   -4.1283 H   0  0  0  0  0
   -9.7645   42.8468    0.1037 H   0  0  0  0  0
  -13.0007   44.1041   -6.8681 H   0  0  0  0  0
  -13.5800   43.0270   -8.2251 H   0  0  0  0  0
  -14.7010   41.4894   -6.8305 H   0  0  0  0  0
  -13.9092   40.7735   -5.4052 H   0  0  0  0  0
  -14.3502   42.4987   -5.4060 H   0  0  0  0  0
   -7.0441   43.9018   -0.8070 H   0  0  0  0  0
   -7.3270   42.2397   -0.0977 H   0  0  0  0  0
   -8.9495   45.2953   -1.4293 H   0  0  0  0  0
  -10.6032   44.7838   -1.0111 H   0  0  0  0  0
   -9.4602   45.2407    0.2758 H   0  0  0  0  0
  -10.6733   40.3692   -8.9769 H   0  0  0  0  0
  -10.0693   41.4284   -7.6352 H   0  0  0  0  0
  -10.7245   43.8361   -7.6319 H   0  0  0  0  0
  -11.7526   44.4472   -8.9651 H   0  0  0  0  0
   -8.2061   43.4462    1.9141 H   0  0  0  0  0
   -7.4392   44.9353    1.2019 H   0  0  0  0  0
  -11.9263   42.2232   -9.8807 H   0  0  0  0  0
   -6.0714   45.2960    2.6769 H   0  0  0  0  0
   -2.3652   41.5111    3.0791 H   0  0  0  0  0
   -1.2125   46.1754    6.2799 H   0  0  0  0  0
  -10.0850   43.5050  -10.4593 H   0  0  0  0  0
  1  2  4  0  0  0
 24  1  4  0  0  0
  2  3  4  0  0  0
  2  4  1  0  0  0
 13  3  4  0  0  0
  4 34  1  0  0  0
  4 39  2  0  0  0
 15  5  1  0  0  0
  5 17  1  0  0  0
  5 18  1  0  0  0
  6 15  1  0  0  0
 20  6  1  0  0  0
  7 16  1  0  0  0
  7 20  1  0  0  0
 22  7  1  0  0  0
 16  8  1  0  0  0
  8 21  1  0  0  0
 16  9  1  0  0  0
 10 12  1  0  0  0
 17 10  1  0  0  0
 10 23  1  0  0  0
 10 25  1  0  0  0
 11 12  1  0  0  0
 18 11  1  0  0  0
 12 28  1  0  0  0
 13 14  1  0  0  0
 19 13  4  0  0  0
 14 35  2  0  0  0
 14 36  1  0  0  0
 16 15  1  0  0  0
 21 17  1  0  0  0
 24 19  4  0  0  0
 26 22  1  0  0  0
 22 27  1  0  0  0
 23 29  1  0  0  0
 33 24  1  0  0  0
 30 26  1  0  0  0
 28 31  1  0  0  0
 29 31  1  0  0  0
 32 30  1  0  0  0
 31 37  1  0  0  0
 32 33  1  0  0  0
 32 38  2  0  0  0
  1 40  1  0  0  0
  3 41  1  0  0  0
  5 42  1  0  0  0
  6 43  1  0  0  0
  6 44  1  0  0  0
  7 45  1  0  0  0
  8 46  1  0  0  0
  8 47  1  0  0  0
  9 48  1  0  0  0
  9 49  1  0  0  0
  9 50  1  0  0  0
 11 51  1  0  0  0
 11 52  1  0  0  0
 12 53  1  0  0  0
 15 54  1  0  0  0
 17 55  1  0  0  0
 18 56  1  0  0  0
 18 57  1  0  0  0
 19 58  1  0  0  0
 20 59  1  0  0  0
 20 60  1  0  0  0
 21 61  1  0  0  0
 21 62  1  0  0  0
 22 63  1  0  0  0
 23 64  1  0  0  0
 23 65  1  0  0  0
 25 66  1  0  0  0
 25 67  1  0  0  0
 25 68  1  0  0  0
 26 69  1  0  0  0
 26 70  1  0  0  0
 27 71  1  0  0  0
 27 72  1  0  0  0
 27 73  1  0  0  0
 28 74  1  0  0  0
 28 75  1  0  0  0
 29 76  1  0  0  0
 29 77  1  0  0  0
 30 78  1  0  0  0
 30 79  1  0  0  0
 31 80  1  0  0  0
 33 81  1  0  0  0
 34 82  1  0  0  0
 36 83  1  0  0  0
 37 84  1  0  0  0
M  END
$$$$
