5i12_ligand
  -I-interpret- 

 96 98  0  0  0  0  0  0  0  0999 V2000
   17.6140  -16.5540   18.2250 C   0  0  0  0  0
   17.6290  -15.4580   19.0770 C   0  0  0  0  0
   17.6420  -16.8920   20.9120 C   0  0  0  0  0
   17.6430  -14.4370   21.3660 C   0  0  0  0  0
   16.9820  -12.1830   21.8710 C   0  0  0  0  0
   17.6000  -12.2310   23.0830 C   0  0  0  0  0
   18.2190  -13.3980   23.4420 C   0  0  0  0  0
   18.2400  -14.4880   22.6000 C   0  0  0  0  0
   19.7520  -20.3060   18.3490 C   0  0  0  0  0
   19.7680  -22.9590   26.5820 O   0  0  0  0  0
   20.7600  -23.1540   25.9750 C   0  0  0  0  0
   22.1140  -23.0750   26.6140 C   0  0  0  0  0
   20.5390  -23.4180   24.5870 O   0  0  0  0  0
   21.5240  -24.2470   24.0190 C   0  0  0  0  0
   22.1380  -23.5430   22.8040 C   0  0  0  0  0
   23.6080  -23.4800   22.8910 N   0  0  0  0  0
   24.3960  -23.5330   21.8180 C   0  0  0  0  0
   25.0850  -22.6090   21.4090 O   0  0  0  0  0
   24.3140  -24.8470   21.1300 C   0  0  0  0  0
   20.7530  -25.5170   23.7480 C   0  0  0  0  0
   21.5970  -26.5620   24.1840 O   0  0  0  0  0
   20.8360  -27.3470   25.1480 C   0  0  0  0  0
   20.8000  -26.9470   26.3000 O   0  0  0  0  0
   20.1240  -28.5870   24.6900 C   0  0  0  0  0
   20.2360  -25.6950   22.3280 C   0  0  0  0  0
   18.7850  -26.2010   22.4030 C   0  0  0  0  0
   18.2690  -26.4770   21.1050 O   0  0  0  0  0
   17.2280  -25.6550   20.4870 C   0  0  0  0  0
   16.4250  -25.1270   21.2170 O   0  0  0  0  0
   17.1420  -25.4780   18.9910 C   0  0  0  0  0
   20.2870  -24.4640   21.6070 O   0  0  0  0  0
   21.6140  -23.9970   21.4350 C   0  0  0  0  0
   21.6790  -22.8200   20.6060 N   0  0  0  0  0
   21.5420  -22.6620   19.3020 C   0  0  0  0  0
   22.7980  -22.3050   18.4750 S   0  0  0  0  0
   20.3280  -22.7060   18.7770 N   0  0  0  0  0
   19.8070  -21.7330   17.8350 C   0  0  0  0  0
   19.0750  -19.3680   17.4820 N   0  0  0  0  0
   19.9080  -18.5640   16.5900 C   0  0  0  0  0
   20.8390  -19.4440   15.7450 C   0  0  0  0  0
   20.1360  -20.2370   14.6750 C   0  0  0  0  0
   21.9220  -18.6820   15.0390 C   0  0  0  0  0
   20.6870  -17.5140   17.3150 C   0  0  0  0  0
   20.7640  -16.4030   16.8050 O   0  0  0  0  0
   21.2450  -17.8370   18.3780 O   0  0  0  0  0
   17.6450  -19.1160   17.6980 S   0  0  0  0  0
   17.0450  -20.1690   18.2160 O   0  0  0  0  0
   17.1080  -18.7640   16.5330 O   0  0  0  0  0
   17.6350  -17.8520   18.6930 C   0  0  0  0  0
   17.6380  -15.6110   20.4390 C   0  0  0  0  0
   17.6520  -17.9820   20.0690 C   0  0  0  0  0
   17.0210  -13.2710   21.0390 C   0  0  0  0  0
   17.5846  -16.3833   17.1489 H   0  0  0  0  0
   17.6337  -14.4537   18.6534 H   0  0  0  0  0
   17.6371  -17.0574   21.9894 H   0  0  0  0  0
   16.4563  -11.2794   21.5625 H   0  0  0  0  0
   17.6019  -11.3667   23.7472 H   0  0  0  0  0
   18.7057  -13.4662   24.4149 H   0  0  0  0  0
   18.7379  -15.4038   22.9187 H   0  0  0  0  0
   20.7832  -19.9641   18.4372 H   0  0  0  0  0
   19.1917  -20.3303   19.2837 H   0  0  0  0  0
   22.2674  -22.0730   27.0147 H   0  0  0  0  0
   22.1762  -23.8041   27.4218 H   0  0  0  0  0
   22.8793  -23.2907   25.8684 H   0  0  0  0  0
   22.3971  -24.4708   24.6320 H   0  0  0  0  0
   21.7709  -22.5183   22.8620 H   0  0  0  0  0
   24.0399  -23.3922   23.8108 H   0  0  0  0  0
   23.9354  -24.7028   20.1181 H   0  0  0  0  0
   25.3063  -25.2960   21.0875 H   0  0  0  0  0
   23.6403  -25.5029   21.6813 H   0  0  0  0  0
   19.8099  -25.4974   24.2942 H   0  0  0  0  0
   20.4977  -29.4459   25.2475 H   0  0  0  0  0
   19.0540  -28.4758   24.8656 H   0  0  0  0  0
   20.3053  -28.7363   23.6256 H   0  0  0  0  0
   20.8633  -26.4139   21.8009 H   0  0  0  0  0
   18.1703  -25.4285   22.8651 H   0  0  0  0  0
   18.7667  -27.1207   22.9878 H   0  0  0  0  0
   16.1836  -25.8569   18.6361 H   0  0  0  0  0
   17.2288  -24.4194   18.7461 H   0  0  0  0  0
   17.9517  -26.0302   18.5139 H   0  0  0  0  0
   22.1834  -24.8081   20.9811 H   0  0  0  0  0
   21.8634  -21.9564   21.1166 H   0  0  0  0  0
   19.7177  -23.4753   19.0530 H   0  0  0  0  0
   20.4813  -21.7326   16.9786 H   0  0  0  0  0
   18.7809  -22.0273   17.6147 H   0  0  0  0  0
   19.2219  -18.0459   15.9200 H   0  0  0  0  0
   21.2602  -20.1081   16.4998 H   0  0  0  0  0
   19.4025  -20.8978   15.1370 H   0  0  0  0  0
   19.6319  -19.5545   13.9908 H   0  0  0  0  0
   20.8665  -20.8307   14.1254 H   0  0  0  0  0
   21.4716  -17.9507   14.3678 H   0  0  0  0  0
   22.5419  -18.1689   15.7742 H   0  0  0  0  0
   22.5363  -19.3749   14.4640 H   0  0  0  0  0
   21.0421  -18.7535   18.5790 H   0  0  0  0  0
   17.6741  -18.9818   20.5025 H   0  0  0  0  0
   16.5303  -13.1995   20.0684 H   0  0  0  0  0
  1  2  4  0  0  0
 49  1  4  0  0  0
  2 50  4  0  0  0
 50  3  4  0  0  0
  3 51  4  0  0  0
  4  8  4  0  0  0
 50  4  1  0  0  0
  4 52  4  0  0  0
  5  6  4  0  0  0
 52  5  4  0  0  0
  7  6  4  0  0  0
  8  7  4  0  0  0
  9 37  1  0  0  0
 38  9  1  0  0  0
 11 10  2  0  0  0
 11 12  1  0  0  0
 13 11  1  0  0  0
 14 13  1  0  0  0
 15 14  1  0  0  0
 14 20  1  0  0  0
 15 16  1  0  0  0
 32 15  1  0  0  0
 16 17  1  0  0  0
 17 18  2  0  0  0
 17 19  1  0  0  0
 20 21  1  0  0  0
 25 20  1  0  0  0
 21 22  1  0  0  0
 22 23  2  0  0  0
 22 24  1  0  0  0
 25 26  1  0  0  0
 31 25  1  0  0  0
 26 27  1  0  0  0
 27 28  1  0  0  0
 28 29  2  0  0  0
 28 30  1  0  0  0
 32 31  1  0  0  0
 33 32  1  0  0  0
 34 33  1  0  0  0
 34 35  2  0  0  0
 36 34  1  0  0  0
 37 36  1  0  0  0
 38 39  1  0  0  0
 46 38  1  0  0  0
 39 40  1  0  0  0
 39 43  1  0  0  0
 40 41  1  0  0  0
 40 42  1  0  0  0
 43 44  2  0  0  0
 43 45  1  0  0  0
 46 47  2  0  0  0
 46 48  2  0  0  0
 46 49  1  0  0  0
 49 51  4  0  0  0
  1 53  1  0  0  0
  2 54  1  0  0  0
  3 55  1  0  0  0
  5 56  1  0  0  0
  6 57  1  0  0  0
  7 58  1  0  0  0
  8 59  1  0  0  0
  9 60  1  0  0  0
  9 61  1  0  0  0
 12 62  1  0  0  0
 12 63  1  0  0  0
 12 64  1  0  0  0
 14 65  1  0  0  0
 15 66  1  0  0  0
 16 67  1  0  0  0
 19 68  1  0  0  0
 19 69  1  0  0  0
 19 70  1  0  0  0
 20 71  1  0  0  0
 24 72  1  0  0  0
 24 73  1  0  0  0
 24 74  1  0  0  0
 25 75  1  0  0  0
 26 76  1  0  0  0
 26 77  1  0  0  0
 30 78  1  0  0  0
 30 79  1  0  0  0
 30 80  1  0  0  0
 32 81  1  0  0  0
 33 82  1  0  0  0
 36 83  1  0  0  0
 37 84  1  0  0  0
 37 85  1  0  0  0
 39 86  1  0  0  0
 40 87  1  0  0  0
 41 88  1  0  0  0
 41 89  1  0  0  0
 41 90  1  0  0  0
 42 91  1  0  0  0
 42 92  1  0  0  0
 42 93  1  0  0  0
 45 94  1  0  0  0
 51 95  1  0  0  0
 52 96  1  0  0  0
M  END
$$$$
