### 
### Created by X-TOOL on Mon Sep 10 21:13:24 2018
### 

@<TRIPOS>MOLECULE
4z88_ligand
  212   213     1     0     0
SMALL
GAST_HUCK


@<TRIPOS>ATOM
      1 N         -17.7890   -2.8080  -57.1170 N.4       1 ARG         0.2379
      2 CA        -17.8030   -3.6960  -55.9070 C.3       1 ARG         0.0651
      3 C         -19.0480   -3.4240  -55.0420 C.2       1 ARG         0.2267
      4 O         -19.4020   -2.2820  -54.7460 O.2       1 ARG        -0.3907
      5 CB        -16.4850   -3.5490  -55.1020 C.3       1 ARG         0.0110
      6 CG        -16.6370   -3.0370  -53.6830 C.3       1 ARG        -0.0125
      7 CD        -15.3670   -3.1720  -52.8530 C.3       1 ARG         0.0629
      8 NE        -14.8350   -4.5360  -52.8440 N.pl3     1 ARG        -0.2723
      9 CZ        -13.6010   -4.9020  -53.1930 C.cat     1 ARG         0.2882
     10 NH1       -12.6950   -4.0200  -53.6040 N.pl3     1 ARG        -0.2849
     11 NH2       -13.2720   -6.1850  -53.1270 N.pl3     1 ARG        -0.2849
     12 N         -19.6900   -4.5080  -54.6290 N.am      1 LYS        -0.2610
     13 CA        -21.0590   -4.4650  -54.1180 C.3       1 LYS         0.1311
     14 C         -21.1350   -4.4040  -52.5970 C.2       1 LYS         0.2039
     15 O         -20.3510   -5.0550  -51.9050 O.2       1 LYS        -0.3944
     16 CB        -21.8230   -5.6520  -54.7060 C.3       1 LYS        -0.0122
     17 CG        -21.9750   -5.4280  -56.1940 C.3       1 LYS        -0.0440
     18 CD        -22.4030   -6.6470  -56.9540 C.3       1 LYS        -0.0124
     19 CE        -22.9420   -6.2530  -58.3000 C.3       1 LYS        -0.0354
     20 NZ        -23.1710   -7.3940  -59.2220 N.4       1 LYS         0.2185
     21 N         -22.0740   -3.6000  -52.0870 N.am      1 LEU        -0.2637
     22 CA        -22.3010   -3.4910  -50.6450 C.3       1 LEU         0.1314
     23 C         -23.0200   -4.7240  -50.1010 C.2       1 LEU         0.2064
     24 O         -23.8720   -5.2990  -50.7850 O.2       1 LEU        -0.3942
     25 CB        -23.1270   -2.2390  -50.3140 C.3       1 LEU        -0.0101
     26 CG        -22.3880   -0.9020  -50.4080 C.3       1 LEU        -0.0425
     27 CD1       -23.3760    0.2520  -50.4160 C.3       1 LEU        -0.0625
     28 CD2       -21.3860   -0.7440  -49.2720 C.3       1 LEU        -0.0625
     29 N         -22.6940   -5.1310  -48.8620 N.am      1 PRO        -0.2498
     30 CA        -23.3850   -6.2720  -48.2590 C.3       1 PRO         0.1338
     31 C         -24.7770   -5.9030  -47.7580 C.2       1 PRO         0.2041
     32 O         -25.0680   -4.7230  -47.5570 O.2       1 PRO        -0.3944
     33 CB        -22.4770   -6.6560  -47.0850 C.3       1 PRO        -0.0104
     34 CG        -21.7730   -5.3940  -46.7260 C.3       1 PRO        -0.0281
     35 CD        -21.6280   -4.6040  -47.9910 C.3       1 PRO         0.0369
     36 N         -25.6240   -6.9160  -47.5830 N.am      1 GLU        -0.2636
     37 CA        -26.9380   -6.7490  -46.9510 C.3       1 GLU         0.1325
     38 C         -26.7930   -6.6760  -45.4340 C.2       1 GLU         0.2040
     39 O         -26.0420   -7.4540  -44.8310 O.2       1 GLU        -0.3944
     40 CB        -27.8960   -7.9010  -47.3080 C.3       1 GLU        -0.0008
     41 CG        -28.4010   -7.8600  -48.7720 C.3       1 GLU         0.0044
     42 CD        -29.7820   -7.2260  -48.8830 C.2       1 GLU         0.0350
     43 OE1       -29.8590   -6.1790  -49.5440 O.co2     1 GLU        -0.5690
     44 OE2       -30.7830   -7.7470  -48.3070 O.co2     1 GLU        -0.5690
     45 N         -27.4940   -5.7300  -44.8160 N.am      1 ILE        -0.2635
     46 CA        -27.5880   -5.6910  -43.3610 C.3       1 ILE         0.1337
     47 C         -28.4940   -6.8500  -42.9620 C.2       1 ILE         0.2067
     48 O         -29.6270   -6.9160  -43.4330 O.2       1 ILE        -0.3942
     49 CB        -28.1770   -4.3650  -42.8470 C.3       1 ILE        -0.0037
     50 CG1       -27.2050   -3.2100  -43.1130 C.3       1 ILE        -0.0491
     51 CG2       -28.4520   -4.4520  -41.3530 C.3       1 ILE        -0.0582
     52 CD1       -27.8710   -1.8520  -43.1710 C.3       1 ILE        -0.0648
     53 N         -28.0000   -7.7660  -42.1060 N.am      1 PRO        -0.2498
     54 CA        -28.8270   -8.9060  -41.7000 C.3       1 PRO         0.1338
     55 C         -30.1520   -8.4520  -41.0890 C.2       1 PRO         0.2041
     56 O         -30.1640   -7.6270  -40.1750 O.2       1 PRO        -0.3944
     57 CB        -27.9560   -9.6240  -40.6590 C.3       1 PRO        -0.0104
     58 CG        -26.5600   -9.2040  -40.9740 C.3       1 PRO        -0.0281
     59 CD        -26.6670   -7.8000  -41.4760 C.3       1 PRO         0.0369
     60 N         -31.2510   -8.9830  -41.6170 N.am      1 LYS        -0.2637
     61 CA        -32.5990   -8.5420  -41.2420 C.3       1 LYS         0.1310
     62 C         -32.9530   -8.9260  -39.8110 C.2       1 LYS         0.2040
     63 O         -33.5890   -8.1540  -39.1010 O.2       1 LYS        -0.3944
     64 CB        -33.6170   -9.0940  -42.2390 C.3       1 LYS        -0.0122
     65 CG        -33.3750   -8.5550  -43.6580 C.3       1 LYS        -0.0440
     66 CD        -32.8400   -9.6390  -44.5880 C.3       1 LYS        -0.0124
     67 CE        -32.2590   -9.0660  -45.8810 C.3       1 LYS        -0.0354
     68 NZ        -33.1550   -9.2410  -47.0600 N.4       1 LYS         0.2185
     69 N         -32.4920  -10.0940  -39.3750 N.am      1 ASN        -0.2616
     70 CA        -32.7080  -10.5420  -37.9990 C.3       1 ASN         0.1476
     71 C         -31.8730   -9.7890  -36.9540 C.2       1 ASN         0.2063
     72 O         -32.0710   -9.9770  -35.7560 O.2       1 ASN        -0.3942
     73 CB        -32.4540  -12.0470  -37.8890 C.3       1 ASN         0.0773
     74 CG        -33.3910  -12.8610  -38.7730 C.2       1 ASN         0.1780
     75 OD1       -34.4340  -12.3730  -39.2080 O.2       1 ASN        -0.3970
     76 ND2       -33.0160  -14.1020  -39.0480 N.am      1 ASN        -0.3007
     77 N         -30.9400   -8.9500  -37.4040 N.am      1 LYS        -0.2636
     78 CA        -30.1350   -8.1140  -36.5090 C.3       1 LYS         0.1310
     79 C         -30.5660   -6.6390  -36.5300 C.2       1 LYS         0.2039
     80 O         -30.2370   -5.8850  -35.6150 O.2       1 LYS        -0.3944
     81 CB        -28.6530   -8.2270  -36.8770 C.3       1 LYS        -0.0122
     82 CG        -28.1200   -9.6560  -36.8190 C.3       1 LYS        -0.0440
     83 CD        -27.8890  -10.1390  -35.4070 C.3       1 LYS        -0.0124
     84 CE        -27.3050  -11.5400  -35.4330 C.3       1 LYS        -0.0354
     85 NZ        -26.6930  -11.9110  -34.1330 N.4       1 LYS         0.2185
     86 N         -31.3370   -6.2610  -37.5550 N.am      1 LYS        -0.2637
     87 CA        -31.7110   -4.8840  -37.8440 C.3       1 LYS         0.1306
     88 C         -33.0180   -4.5100  -37.1050 C.2       1 LYS         0.1992
     89 O         -33.3260   -4.9940  -35.9910 O.2       1 LYS        -0.3947
     90 CB        -31.9090   -4.7920  -39.3810 C.3       1 LYS        -0.0122
     91 CG        -32.1760   -3.4600  -40.0870 C.3       1 LYS        -0.0440
     92 CD        -32.1990   -3.6120  -41.6110 C.3       1 LYS        -0.0124
     93 CE        -33.3980   -4.3920  -42.1390 C.3       1 LYS        -0.0354
     94 NZ        -33.5960   -4.1630  -43.5980 N.4       1 LYS         0.2185
     95 N         -33.7980   -3.6480  -37.7420 N.am      1 NH2        -0.2990
     96 H1        -16.9672   -3.0029  -57.6673 H         1 ARG         0.2015
     97 H2        -17.7771   -1.8431  -56.8256 H         1 ARG         0.2015
     98 H3        -18.6131   -2.9817  -57.6708 H         1 ARG         0.2015
     99 H4        -17.8636   -4.7376  -56.2553 H         1 ARG         0.1098
    100 H5        -15.8326   -2.8500  -55.6458 H         1 ARG         0.0347
    101 H6        -16.0050   -4.5376  -55.0553 H         1 ARG         0.0347
    102 H7        -17.4381   -3.6074  -53.1902 H         1 ARG         0.0302
    103 H8        -16.9157   -1.9737  -53.7237 H         1 ARG         0.0302
    104 H9        -15.5911   -2.8758  -51.8176 H         1 ARG         0.0689
    105 H10       -14.6024   -2.4997  -53.2694 H         1 ARG         0.0689
    106 H11       -15.4744   -5.2838  -52.5392 H         1 ARG         0.2642
    107 H12       -11.7505   -4.3361  -53.8663 H         1 ARG         0.2615
    108 H13       -12.9377   -3.0206  -53.6601 H         1 ARG         0.2615
    109 H14       -13.9645   -6.8786  -52.8103 H         1 ARG         0.2615
    110 H15       -12.3240   -6.4879  -53.3925 H         1 ARG         0.2615
    111 H16       -19.2194   -5.3895  -54.6686 H         1 LYS         0.1884
    112 H17       -21.5276   -3.5442  -54.4956 H         1 LYS         0.0800
    113 H18       -22.8155   -5.7246  -54.2374 H         1 LYS         0.0312
    114 H19       -21.2631   -6.5814  -54.5250 H         1 LYS         0.0312
    115 H20       -21.0065   -5.0935  -56.5941 H         1 LYS         0.0269
    116 H21       -22.7277   -4.6412  -56.3502 H         1 LYS         0.0269
    117 H22       -23.1863   -7.1723  -56.3880 H         1 LYS         0.0317
    118 H23       -21.5386   -7.3137  -57.0892 H         1 LYS         0.0317
    119 H24       -22.2232   -5.5671  -58.7721 H         1 LYS         0.0813
    120 H25       -23.8999   -5.7337  -58.1494 H         1 LYS         0.0813
    121 H26       -23.5307   -7.0505  -60.0987 H         1 LYS         0.1994
    122 H27       -23.8371   -8.0294  -58.8114 H         1 LYS         0.1994
    123 H28       -22.3007   -7.8767  -59.3819 H         1 LYS         0.1994
    124 H29       -22.6379   -3.0570  -52.7093 H         1 LEU         0.1883
    125 H30       -21.3230   -3.4085  -50.1482 H         1 LEU         0.0800
    126 H31       -23.5007   -2.3450  -49.2849 H         1 LEU         0.0315
    127 H32       -23.9772   -2.2030  -51.0110 H         1 LEU         0.0315
    128 H33       -21.8323   -0.8850  -51.3572 H         1 LEU         0.0298
    129 H34       -22.8280    1.2034  -50.4839 H         1 LEU         0.0232
    130 H35       -23.9673    0.2349  -49.4886 H         1 LEU         0.0232
    131 H36       -24.0480    0.1534  -51.2813 H         1 LEU         0.0232
    132 H37       -20.6813   -1.5886  -49.2846 H         1 LEU         0.0232
    133 H38       -21.9209   -0.7271  -48.3110 H         1 LEU         0.0232
    134 H39       -20.8320    0.1976  -49.4000 H         1 LEU         0.0232
    135 H40       -23.4673   -7.0992  -48.9794 H         1 PRO         0.0802
    136 H41       -21.7564   -7.4298  -47.3883 H         1 PRO         0.0313
    137 H42       -23.0734   -7.0227  -46.2366 H         1 PRO         0.0313
    138 H43       -20.7822   -5.6197  -46.3049 H         1 PRO         0.0287
    139 H44       -22.3633   -4.8270  -45.9911 H         1 PRO         0.0287
    140 H45       -21.7730   -3.5304  -47.8007 H         1 PRO         0.0524
    141 H46       -20.6380   -4.7660  -48.4422 H         1 PRO         0.0524
    142 H47       -25.3537   -7.8269  -47.8948 H         1 GLU         0.1883
    143 H48       -27.3759   -5.8064  -47.3111 H         1 GLU         0.0801
    144 H49       -28.7672   -7.8483  -46.6386 H         1 GLU         0.0330
    145 H50       -27.3686   -8.8531  -47.1492 H         1 GLU         0.0330
    146 H51       -28.4504   -8.8883  -49.1594 H         1 GLU         0.0433
    147 H52       -27.6921   -7.2744  -49.3757 H         1 GLU         0.0433
    148 H53       -27.9646   -5.0337  -45.3579 H         1 ILE         0.1883
    149 H54       -26.5876   -5.8272  -42.9243 H         1 ILE         0.0803
    150 H55       -29.1216   -4.1681  -43.3751 H         1 ILE         0.0345
    151 H56       -26.7049   -3.3923  -44.0756 H         1 ILE         0.0267
    152 H57       -26.4559   -3.1947  -42.3077 H         1 ILE         0.0267
    153 H58       -29.1493   -5.2796  -41.1562 H         1 ILE         0.0235
    154 H59       -28.8968   -3.5075  -41.0064 H         1 ILE         0.0235
    155 H60       -27.5088   -4.6318  -40.8164 H         1 ILE         0.0235
    156 H61       -27.1122   -1.0794  -43.3642 H         1 ILE         0.0230
    157 H62       -28.3679   -1.6460  -42.2115 H         1 ILE         0.0230
    158 H63       -28.6169   -1.8436  -43.9794 H         1 ILE         0.0230
    159 H64       -29.0313   -9.5630  -42.5583 H         1 PRO         0.0802
    160 H65       -28.0623  -10.7150  -40.7511 H         1 PRO         0.0313
    161 H66       -28.2336   -9.3132  -39.6410 H         1 PRO         0.0313
    162 H67       -26.1278   -9.8564  -41.7470 H         1 PRO         0.0287
    163 H68       -25.9342   -9.2421  -40.0702 H         1 PRO         0.0287
    164 H69       -26.6042   -7.0794  -40.6473 H         1 PRO         0.0524
    165 H70       -25.8780   -7.5831  -42.2111 H         1 PRO         0.0524
    166 H71       -31.1548   -9.7110  -42.2958 H         1 LYS         0.1883
    167 H72       -32.6238   -7.4441  -41.3049 H         1 LYS         0.0800
    168 H73       -34.6270   -8.8029  -41.9149 H         1 LYS         0.0312
    169 H74       -33.5395  -10.1911  -42.2567 H         1 LYS         0.0312
    170 H75       -32.6436   -7.7349  -43.6082 H         1 LYS         0.0269
    171 H76       -34.3249   -8.1752  -44.0622 H         1 LYS         0.0269
    172 H77       -33.6631  -10.3225  -44.8436 H         1 LYS         0.0317
    173 H78       -32.0502  -10.1962  -44.0629 H         1 LYS         0.0317
    174 H79       -31.3051   -9.5726  -46.0895 H         1 LYS         0.0813
    175 H80       -32.0791   -7.9905  -45.7362 H         1 LYS         0.0813
    176 H81       -32.7170   -8.8444  -47.8766 H         1 LYS         0.1994
    177 H82       -34.0314   -8.7736  -46.8883 H         1 LYS         0.1994
    178 H83       -33.3222  -10.2233  -47.2121 H         1 LYS         0.1994
    179 H84       -31.9840  -10.6822  -40.0042 H         1 ASN         0.1885
    180 H85       -33.7663  -10.3589  -37.7612 H         1 ASN         0.0826
    181 H86       -32.5998  -12.3542  -36.8429 H         1 ASN         0.0551
    182 H87       -31.4164  -12.2530  -38.1905 H         1 ASN         0.0551
    183 H88       -33.5920  -14.6825  -39.6236 H         1 ASN         0.1814
    184 H89       -32.1570  -14.4580  -38.6799 H         1 ASN         0.1814
    185 H90       -30.7834   -8.8887  -38.3898 H         1 LYS         0.1883
    186 H91       -30.2685   -8.4909  -35.4843 H         1 LYS         0.0800
    187 H92       -28.0719   -7.6097  -36.1761 H         1 LYS         0.0312
    188 H93       -28.5180   -7.8461  -37.9000 H         1 LYS         0.0312
    189 H94       -27.1659   -9.6974  -37.3648 H         1 LYS         0.0269
    190 H95       -28.8487  -10.3226  -37.3033 H         1 LYS         0.0269
    191 H96       -28.8456  -10.1520  -34.8642 H         1 LYS         0.0317
    192 H97       -27.1881   -9.4604  -34.8988 H         1 LYS         0.0317
    193 H98       -26.5335  -11.5888  -36.2155 H         1 LYS         0.0813
    194 H99       -28.1079  -12.2553  -35.6646 H         1 LYS         0.0813
    195 H100      -26.3184  -12.8449  -34.1924 H         1 LYS         0.1994
    196 H101      -27.3938  -11.8755  -33.4094 H         1 LYS         0.1994
    197 H102      -25.9510  -11.2647  -33.9143 H         1 LYS         0.1994
    198 H103      -31.6808   -6.9742  -38.1659 H         1 LYS         0.1883
    199 H104      -30.9083   -4.2020  -37.5269 H         1 LYS         0.0800
    200 H105      -32.7619   -5.4439  -39.6210 H         1 LYS         0.0312
    201 H106      -30.9947   -5.2026  -39.8342 H         1 LYS         0.0312
    202 H107      -31.3835   -2.7480  -39.8132 H         1 LYS         0.0269
    203 H108      -33.1496   -3.0708  -39.7544 H         1 LYS         0.0269
    204 H109      -31.2825   -4.1358  -41.9202 H         1 LYS         0.0317
    205 H110      -32.2159   -2.6073  -42.0585 H         1 LYS         0.0317
    206 H111      -34.3008   -4.0685  -41.6003 H         1 LYS         0.0813
    207 H112      -33.2317   -5.4653  -41.9646 H         1 LYS         0.0813
    208 H113      -34.3938   -4.6908  -43.9157 H         1 LYS         0.1994
    209 H114      -32.7743   -4.4616  -44.0996 H         1 LYS         0.1994
    210 H115      -33.7539   -3.1817  -43.7657 H         1 LYS         0.1994
    211 H116      -34.6612   -3.3558  -37.3302 H         1 NH2         0.1815
    212 H117      -33.5233   -3.2899  -38.6343 H         1 NH2         0.1815
@<TRIPOS>BOND
     1    1    2 1  
     2    2    3 1  
     3    2    5 1  
     4    3    4 2  
     5    3   12 am 
     6    5    6 1  
     7    6    7 1  
     8    7    8 1  
     9    8    9 ar 
    10    9   10 ar 
    11    9   11 ar 
    12   12   13 1  
    13   13   14 1  
    14   13   16 1  
    15   14   15 2  
    16   14   21 am 
    17   16   17 1  
    18   17   18 1  
    19   18   19 1  
    20   19   20 1  
    21   21   22 1  
    22   22   23 1  
    23   22   25 1  
    24   23   24 2  
    25   23   29 am 
    26   25   26 1  
    27   26   27 1  
    28   26   28 1  
    29   29   30 1  
    30   29   35 1  
    31   30   31 1  
    32   30   33 1  
    33   31   32 2  
    34   31   36 am 
    35   33   34 1  
    36   34   35 1  
    37   36   37 1  
    38   37   38 1  
    39   37   40 1  
    40   38   39 2  
    41   38   45 am 
    42   40   41 1  
    43   41   42 1  
    44   42   43 ar 
    45   42   44 ar 
    46   45   46 1  
    47   46   47 1  
    48   46   49 1  
    49   47   48 2  
    50   47   53 am 
    51   49   50 1  
    52   49   51 1  
    53   50   52 1  
    54   53   54 1  
    55   53   59 1  
    56   54   55 1  
    57   54   57 1  
    58   55   56 2  
    59   55   60 am 
    60   57   58 1  
    61   58   59 1  
    62   60   61 1  
    63   61   62 1  
    64   61   64 1  
    65   62   63 2  
    66   62   69 am 
    67   64   65 1  
    68   65   66 1  
    69   66   67 1  
    70   67   68 1  
    71   69   70 1  
    72   70   71 1  
    73   70   73 1  
    74   71   72 2  
    75   71   77 am 
    76   73   74 1  
    77   74   75 2  
    78   74   76 am 
    79   77   78 1  
    80   78   79 1  
    81   78   81 1  
    82   79   80 2  
    83   79   86 am 
    84   81   82 1  
    85   82   83 1  
    86   83   84 1  
    87   84   85 1  
    88   86   87 1  
    89   87   88 1  
    90   87   90 1  
    91   88   89 2  
    92   88   95 am 
    93   90   91 1  
    94   91   92 1  
    95   92   93 1  
    96   93   94 1  
    97    1   96 1  
    98    1   97 1  
    99    1   98 1  
   100    2   99 1  
   101    5  100 1  
   102    5  101 1  
   103    6  102 1  
   104    6  103 1  
   105    7  104 1  
   106    7  105 1  
   107    8  106 1  
   108   10  107 1  
   109   10  108 1  
   110   11  109 1  
   111   11  110 1  
   112   12  111 1  
   113   13  112 1  
   114   16  113 1  
   115   16  114 1  
   116   17  115 1  
   117   17  116 1  
   118   18  117 1  
   119   18  118 1  
   120   19  119 1  
   121   19  120 1  
   122   20  121 1  
   123   20  122 1  
   124   20  123 1  
   125   21  124 1  
   126   22  125 1  
   127   25  126 1  
   128   25  127 1  
   129   26  128 1  
   130   27  129 1  
   131   27  130 1  
   132   27  131 1  
   133   28  132 1  
   134   28  133 1  
   135   28  134 1  
   136   30  135 1  
   137   33  136 1  
   138   33  137 1  
   139   34  138 1  
   140   34  139 1  
   141   35  140 1  
   142   35  141 1  
   143   36  142 1  
   144   37  143 1  
   145   40  144 1  
   146   40  145 1  
   147   41  146 1  
   148   41  147 1  
   149   45  148 1  
   150   46  149 1  
   151   49  150 1  
   152   50  151 1  
   153   50  152 1  
   154   51  153 1  
   155   51  154 1  
   156   51  155 1  
   157   52  156 1  
   158   52  157 1  
   159   52  158 1  
   160   54  159 1  
   161   57  160 1  
   162   57  161 1  
   163   58  162 1  
   164   58  163 1  
   165   59  164 1  
   166   59  165 1  
   167   60  166 1  
   168   61  167 1  
   169   64  168 1  
   170   64  169 1  
   171   65  170 1  
   172   65  171 1  
   173   66  172 1  
   174   66  173 1  
   175   67  174 1  
   176   67  175 1  
   177   68  176 1  
   178   68  177 1  
   179   68  178 1  
   180   69  179 1  
   181   70  180 1  
   182   73  181 1  
   183   73  182 1  
   184   76  183 1  
   185   76  184 1  
   186   77  185 1  
   187   78  186 1  
   188   81  187 1  
   189   81  188 1  
   190   82  189 1  
   191   82  190 1  
   192   83  191 1  
   193   83  192 1  
   194   84  193 1  
   195   84  194 1  
   196   85  195 1  
   197   85  196 1  
   198   85  197 1  
   199   86  198 1  
   200   87  199 1  
   201   90  200 1  
   202   90  201 1  
   203   91  202 1  
   204   91  203 1  
   205   92  204 1  
   206   92  205 1  
   207   93  206 1  
   208   93  207 1  
   209   94  208 1  
   210   94  209 1  
   211   94  210 1  
   212   95  211 1  
   213   95  212 1  
@<TRIPOS>SUBSTRUCTURE
     1 ARG         1

