4z88_ligand
  -I-interpret- 

212213  0  0  0  0  0  0  0  0999 V2000
  -17.7890   -2.8080  -57.1170 N   0  3  0  0  0
  -17.8030   -3.6960  -55.9070 C   0  0  0  0  0
  -19.0480   -3.4240  -55.0420 C   0  0  0  0  0
  -19.4020   -2.2820  -54.7460 O   0  0  0  0  0
  -16.4850   -3.5490  -55.1020 C   0  0  0  0  0
  -16.6370   -3.0370  -53.6830 C   0  0  0  0  0
  -15.3670   -3.1720  -52.8530 C   0  0  0  0  0
  -14.8350   -4.5360  -52.8440 N   0  0  0  0  0
  -13.6010   -4.9020  -53.1930 C   0  0  0  0  0
  -12.6950   -4.0200  -53.6040 N   0  0  0  0  0
  -13.2720   -6.1850  -53.1270 N   0  0  0  0  0
  -19.6900   -4.5080  -54.6290 N   0  0  0  0  0
  -21.0590   -4.4650  -54.1180 C   0  0  0  0  0
  -21.1350   -4.4040  -52.5970 C   0  0  0  0  0
  -20.3510   -5.0550  -51.9050 O   0  0  0  0  0
  -21.8230   -5.6520  -54.7060 C   0  0  0  0  0
  -21.9750   -5.4280  -56.1940 C   0  0  0  0  0
  -22.4030   -6.6470  -56.9540 C   0  0  0  0  0
  -22.9420   -6.2530  -58.3000 C   0  0  0  0  0
  -23.1710   -7.3940  -59.2220 N   0  3  0  0  0
  -22.0740   -3.6000  -52.0870 N   0  0  0  0  0
  -22.3010   -3.4910  -50.6450 C   0  0  0  0  0
  -23.0200   -4.7240  -50.1010 C   0  0  0  0  0
  -23.8720   -5.2990  -50.7850 O   0  0  0  0  0
  -23.1270   -2.2390  -50.3140 C   0  0  0  0  0
  -22.3880   -0.9020  -50.4080 C   0  0  0  0  0
  -23.3760    0.2520  -50.4160 C   0  0  0  0  0
  -21.3860   -0.7440  -49.2720 C   0  0  0  0  0
  -22.6940   -5.1310  -48.8620 N   0  0  0  0  0
  -23.3850   -6.2720  -48.2590 C   0  0  0  0  0
  -24.7770   -5.9030  -47.7580 C   0  0  0  0  0
  -25.0680   -4.7230  -47.5570 O   0  0  0  0  0
  -22.4770   -6.6560  -47.0850 C   0  0  0  0  0
  -21.7730   -5.3940  -46.7260 C   0  0  0  0  0
  -21.6280   -4.6040  -47.9910 C   0  0  0  0  0
  -25.6240   -6.9160  -47.5830 N   0  0  0  0  0
  -26.9380   -6.7490  -46.9510 C   0  0  0  0  0
  -26.7930   -6.6760  -45.4340 C   0  0  0  0  0
  -26.0420   -7.4540  -44.8310 O   0  0  0  0  0
  -27.8960   -7.9010  -47.3080 C   0  0  0  0  0
  -28.4010   -7.8600  -48.7720 C   0  0  0  0  0
  -29.7820   -7.2260  -48.8830 C   0  0  0  0  0
  -29.8590   -6.1790  -49.5440 O   0  0  0  0  0
  -30.7830   -7.7470  -48.3070 O   0  0  0  0  0
  -27.4940   -5.7300  -44.8160 N   0  0  0  0  0
  -27.5880   -5.6910  -43.3610 C   0  0  0  0  0
  -28.4940   -6.8500  -42.9620 C   0  0  0  0  0
  -29.6270   -6.9160  -43.4330 O   0  0  0  0  0
  -28.1770   -4.3650  -42.8470 C   0  0  0  0  0
  -27.2050   -3.2100  -43.1130 C   0  0  0  0  0
  -28.4520   -4.4520  -41.3530 C   0  0  0  0  0
  -27.8710   -1.8520  -43.1710 C   0  0  0  0  0
  -28.0000   -7.7660  -42.1060 N   0  0  0  0  0
  -28.8270   -8.9060  -41.7000 C   0  0  0  0  0
  -30.1520   -8.4520  -41.0890 C   0  0  0  0  0
  -30.1640   -7.6270  -40.1750 O   0  0  0  0  0
  -27.9560   -9.6240  -40.6590 C   0  0  0  0  0
  -26.5600   -9.2040  -40.9740 C   0  0  0  0  0
  -26.6670   -7.8000  -41.4760 C   0  0  0  0  0
  -31.2510   -8.9830  -41.6170 N   0  0  0  0  0
  -32.5990   -8.5420  -41.2420 C   0  0  0  0  0
  -32.9530   -8.9260  -39.8110 C   0  0  0  0  0
  -33.5890   -8.1540  -39.1010 O   0  0  0  0  0
  -33.6170   -9.0940  -42.2390 C   0  0  0  0  0
  -33.3750   -8.5550  -43.6580 C   0  0  0  0  0
  -32.8400   -9.6390  -44.5880 C   0  0  0  0  0
  -32.2590   -9.0660  -45.8810 C   0  0  0  0  0
  -33.1550   -9.2410  -47.0600 N   0  3  0  0  0
  -32.4920  -10.0940  -39.3750 N   0  0  0  0  0
  -32.7080  -10.5420  -37.9990 C   0  0  0  0  0
  -31.8730   -9.7890  -36.9540 C   0  0  0  0  0
  -32.0710   -9.9770  -35.7560 O   0  0  0  0  0
  -32.4540  -12.0470  -37.8890 C   0  0  0  0  0
  -33.3910  -12.8610  -38.7730 C   0  0  0  0  0
  -34.4340  -12.3730  -39.2080 O   0  0  0  0  0
  -33.0160  -14.1020  -39.0480 N   0  0  0  0  0
  -30.9400   -8.9500  -37.4040 N   0  0  0  0  0
  -30.1350   -8.1140  -36.5090 C   0  0  0  0  0
  -30.5660   -6.6390  -36.5300 C   0  0  0  0  0
  -30.2370   -5.8850  -35.6150 O   0  0  0  0  0
  -28.6530   -8.2270  -36.8770 C   0  0  0  0  0
  -28.1200   -9.6560  -36.8190 C   0  0  0  0  0
  -27.8890  -10.1390  -35.4070 C   0  0  0  0  0
  -27.3050  -11.5400  -35.4330 C   0  0  0  0  0
  -26.6930  -11.9110  -34.1330 N   0  3  0  0  0
  -31.3370   -6.2610  -37.5550 N   0  0  0  0  0
  -31.7110   -4.8840  -37.8440 C   0  0  0  0  0
  -33.0180   -4.5100  -37.1050 C   0  0  0  0  0
  -33.3260   -4.9940  -35.9910 O   0  0  0  0  0
  -31.9090   -4.7920  -39.3810 C   0  0  0  0  0
  -32.1760   -3.4600  -40.0870 C   0  0  0  0  0
  -32.1990   -3.6120  -41.6110 C   0  0  0  0  0
  -33.3980   -4.3920  -42.1390 C   0  0  0  0  0
  -33.5960   -4.1630  -43.5980 N   0  3  0  0  0
  -33.7980   -3.6480  -37.7420 N   0  0  0  0  0
  -18.6633   -2.9207  -57.6301 H   0  0  0  0  0
  -17.6887   -1.8364  -56.8231 H   0  0  0  0  0
  -17.0055   -3.0655  -57.7172 H   0  0  0  0  0
  -17.8638   -4.7332  -56.2367 H   0  0  0  0  0
  -15.8788   -2.8147  -55.6325 H   0  0  0  0  0
  -16.0559   -4.5481  -55.0260 H   0  0  0  0  0
  -17.4109   -3.6330  -53.1994 H   0  0  0  0  0
  -16.8812   -1.9763  -53.7404 H   0  0  0  0  0
  -15.6106   -2.9027  -51.8253 H   0  0  0  0  0
  -14.6106   -2.5224  -53.2935 H   0  0  0  0  0
  -15.4682   -5.2765  -52.5422 H   0  0  0  0  0
  -11.7597   -4.3331  -53.8640 H   0  0  0  0  0
  -12.9352   -3.0302  -53.6593 H   0  0  0  0  0
  -13.9578   -6.8719  -52.8136 H   0  0  0  0  0
  -19.2100   -5.4071  -54.6694 H   0  0  0  0  0
  -21.5290   -3.5352  -54.4385 H   0  0  0  0  0
  -22.8039   -5.7344  -54.2380 H   0  0  0  0  0
  -21.2771   -6.5771  -54.5208 H   0  0  0  0  0
  -20.9981   -5.1343  -56.5780 H   0  0  0  0  0
  -22.7502   -4.6739  -56.3297 H   0  0  0  0  0
  -23.1826   -7.1628  -56.3934 H   0  0  0  0  0
  -21.5437   -7.3034  -57.0908 H   0  0  0  0  0
  -22.1992   -5.6064  -58.7670 H   0  0  0  0  0
  -23.9078   -5.7762  -58.1325 H   0  0  0  0  0
  -23.5350   -7.0453  -60.1087 H   0  0  0  0  0
  -22.2897   -7.8816  -59.3830 H   0  0  0  0  0
  -23.8451   -8.0362  -58.8054 H   0  0  0  0  0
  -22.6492   -3.0462  -52.7217 H   0  0  0  0  0
  -21.3225   -3.4147  -50.1709 H   0  0  0  0  0
  -23.4380   -2.3440  -49.2746 H   0  0  0  0  0
  -23.9285   -2.1978  -51.0516 H   0  0  0  0  0
  -21.8324   -0.8901  -51.3457 H   0  0  0  0  0
  -24.0412    0.1531  -51.2738 H   0  0  0  0  0
  -23.9613    0.2339  -49.4967 H   0  0  0  0  0
  -22.8318    1.1940  -50.4833 H   0  0  0  0  0
  -21.9112   -0.7848  -48.3177 H   0  0  0  0  0
  -20.6540   -1.5502  -49.3201 H   0  0  0  0  0
  -20.8782    0.2157  -49.3680 H   0  0  0  0  0
  -23.5435   -7.0795  -48.9738 H   0  0  0  0  0
  -21.7795   -7.4499  -47.3521 H   0  0  0  0  0
  -23.0443   -7.0590  -46.2460 H   0  0  0  0  0
  -20.7978   -5.6056  -46.2874 H   0  0  0  0  0
  -22.3383   -4.8332  -45.9816 H   0  0  0  0  0
  -21.7235   -3.5314  -47.8225 H   0  0  0  0  0
  -20.6387   -4.7123  -48.4356 H   0  0  0  0  0
  -25.3483   -7.8451  -47.9010 H   0  0  0  0  0
  -27.3593   -5.8182  -47.3306 H   0  0  0  0  0
  -28.7679   -7.8125  -46.6599 H   0  0  0  0  0
  -27.3467   -8.8336  -47.1787 H   0  0  0  0  0
  -28.4663   -8.8845  -49.1384 H   0  0  0  0  0
  -27.7031   -7.2602  -49.3562 H   0  0  0  0  0
  -30.5089   -8.5472  -47.8530 H   0  0  0  0  0
  -27.9740   -5.0197  -45.3687 H   0  0  0  0  0
  -26.5932   -5.7720  -42.9229 H   0  0  0  0  0
  -29.1113   -4.1805  -43.3772 H   0  0  0  0  0
  -26.7462   -3.3888  -44.0854 H   0  0  0  0  0
  -26.4930   -3.1878  -42.2880 H   0  0  0  0  0
  -29.1635   -5.2554  -41.1620 H   0  0  0  0  0
  -27.5207   -4.6564  -40.8247 H   0  0  0  0  0
  -28.8681   -3.5063  -41.0058 H   0  0  0  0  0
  -28.6098   -1.8450  -43.9724 H   0  0  0  0  0
  -28.3630   -1.6491  -42.2197 H   0  0  0  0  0
  -27.1181   -1.0874  -43.3625 H   0  0  0  0  0
  -29.1043   -9.5430  -42.5399 H   0  0  0  0  0
  -28.0746  -10.7064  -40.7083 H   0  0  0  0  0
  -28.2393   -9.3582  -39.6406 H   0  0  0  0  0
  -26.1044   -9.8593  -41.7164 H   0  0  0  0  0
  -25.9173   -9.2655  -40.0958 H   0  0  0  0  0
  -26.5590   -7.0610  -40.6821 H   0  0  0  0  0
  -25.8678   -7.5404  -42.1703 H   0  0  0  0  0
  -31.1529   -9.7255  -42.3094 H   0  0  0  0  0
  -32.6232   -7.4529  -41.2793 H   0  0  0  0  0
  -34.6122   -8.7846  -41.9197 H   0  0  0  0  0
  -33.5196  -10.1794  -42.2632 H   0  0  0  0  0
  -32.6363   -7.7555  -43.6009 H   0  0  0  0  0
  -34.3244   -8.1976  -44.0567 H   0  0  0  0  0
  -33.6696  -10.2943  -44.8533 H   0  0  0  0  0
  -32.0422  -10.1669  -44.0656 H   0  0  0  0  0
  -31.3320   -9.5999  -46.0901 H   0  0  0  0  0
  -32.1168   -7.9957  -45.7318 H   0  0  0  0  0
  -32.7108   -8.8393  -47.8857 H   0  0  0  0  0
  -33.3235  -10.2353  -47.2129 H   0  0  0  0  0
  -34.0414   -8.7677  -46.8851 H   0  0  0  0  0
  -31.9738  -10.6940  -40.0168 H   0  0  0  0  0
  -33.7495  -10.3152  -37.7709 H   0  0  0  0  0
  -32.6253  -12.3429  -36.8540 H   0  0  0  0  0
  -31.4316  -12.2408  -38.2133 H   0  0  0  0  0
  -33.6000  -14.6917  -39.6409 H   0  0  0  0  0
  -32.1434  -14.4674  -38.6667 H   0  0  0  0  0
  -30.7803   -8.8875  -38.4095 H   0  0  0  0  0
  -30.2968   -8.4835  -35.4964 H   0  0  0  0  0
  -28.0895   -7.6370  -36.1541 H   0  0  0  0  0
  -28.5421   -7.8769  -37.9033 H   0  0  0  0  0
  -27.1622   -9.6759  -37.3390 H   0  0  0  0  0
  -28.8639  -10.3080  -37.2768 H   0  0  0  0  0
  -28.8379  -10.1536  -34.8709 H   0  0  0  0  0
  -27.1926   -9.4671  -34.9052 H   0  0  0  0  0
  -26.5281  -11.5714  -36.1969 H   0  0  0  0  0
  -28.1121  -12.2420  -35.6426 H   0  0  0  0  0
  -26.3143  -12.8561  -34.1942 H   0  0  0  0  0
  -25.9425  -11.2563  -33.9127 H   0  0  0  0  0
  -27.4030  -11.8747  -33.4016 H   0  0  0  0  0
  -31.6877   -6.9884  -38.1781 H   0  0  0  0  0
  -30.9413   -4.1901  -37.5062 H   0  0  0  0  0
  -32.8215   -5.3619  -39.5561 H   0  0  0  0  0
  -30.9454   -5.1058  -39.7824 H   0  0  0  0  0
  -31.3743   -2.7693  -39.8257 H   0  0  0  0  0
  -33.1515   -3.0942  -39.7665 H   0  0  0  0  0
  -31.3035   -4.1652  -41.8941 H   0  0  0  0  0
  -32.2537   -2.6093  -42.0349 H   0  0  0  0  0
  -34.2901   -4.0544  -41.6115 H   0  0  0  0  0
  -33.2182   -5.4548  -41.9767 H   0  0  0  0  0
  -34.4035   -4.6975  -43.9183 H   0  0  0  0  0
  -33.7557   -3.1698  -43.7665 H   0  0  0  0  0
  -32.7639   -4.4655  -44.1044 H   0  0  0  0  0
  -34.6829   -3.3573  -37.3263 H   0  0  0  0  0
  -33.5133   -3.2754  -38.6478 H   0  0  0  0  0
  1  2  1  0  0  0
  2  3  1  0  0  0
  2  5  1  0  0  0
  3  4  2  0  0  0
  3 12  1  0  0  0
  5  6  1  0  0  0
  6  7  1  0  0  0
  7  8  1  0  0  0
  8  9  1  0  0  0
  9 10  1  0  0  0
  9 11  2  0  0  0
 12 13  1  0  0  0
 13 14  1  0  0  0
 13 16  1  0  0  0
 14 15  2  0  0  0
 14 21  1  0  0  0
 16 17  1  0  0  0
 17 18  1  0  0  0
 18 19  1  0  0  0
 19 20  1  0  0  0
 21 22  1  0  0  0
 22 23  1  0  0  0
 22 25  1  0  0  0
 23 24  2  0  0  0
 23 29  1  0  0  0
 25 26  1  0  0  0
 26 27  1  0  0  0
 26 28  1  0  0  0
 29 30  1  0  0  0
 29 35  1  0  0  0
 30 31  1  0  0  0
 30 33  1  0  0  0
 31 32  2  0  0  0
 31 36  1  0  0  0
 33 34  1  0  0  0
 34 35  1  0  0  0
 36 37  1  0  0  0
 37 38  1  0  0  0
 37 40  1  0  0  0
 38 39  2  0  0  0
 38 45  1  0  0  0
 40 41  1  0  0  0
 41 42  1  0  0  0
 42 43  2  0  0  0
 42 44  1  0  0  0
 45 46  1  0  0  0
 46 47  1  0  0  0
 46 49  1  0  0  0
 47 48  2  0  0  0
 47 53  1  0  0  0
 49 50  1  0  0  0
 49 51  1  0  0  0
 50 52  1  0  0  0
 53 54  1  0  0  0
 53 59  1  0  0  0
 54 55  1  0  0  0
 54 57  1  0  0  0
 55 56  2  0  0  0
 55 60  1  0  0  0
 57 58  1  0  0  0
 58 59  1  0  0  0
 60 61  1  0  0  0
 61 62  1  0  0  0
 61 64  1  0  0  0
 62 63  2  0  0  0
 62 69  1  0  0  0
 64 65  1  0  0  0
 65 66  1  0  0  0
 66 67  1  0  0  0
 67 68  1  0  0  0
 69 70  1  0  0  0
 70 71  1  0  0  0
 70 73  1  0  0  0
 71 72  2  0  0  0
 71 77  1  0  0  0
 73 74  1  0  0  0
 74 75  2  0  0  0
 74 76  1  0  0  0
 77 78  1  0  0  0
 78 79  1  0  0  0
 78 81  1  0  0  0
 79 80  2  0  0  0
 79 86  1  0  0  0
 81 82  1  0  0  0
 82 83  1  0  0  0
 83 84  1  0  0  0
 84 85  1  0  0  0
 86 87  1  0  0  0
 87 88  1  0  0  0
 87 90  1  0  0  0
 88 89  2  0  0  0
 88 95  1  0  0  0
 90 91  1  0  0  0
 91 92  1  0  0  0
 92 93  1  0  0  0
 93 94  1  0  0  0
  1 96  1  0  0  0
  1 97  1  0  0  0
  1 98  1  0  0  0
  2 99  1  0  0  0
  5100  1  0  0  0
  5101  1  0  0  0
  6102  1  0  0  0
  6103  1  0  0  0
  7104  1  0  0  0
  7105  1  0  0  0
  8106  1  0  0  0
 10107  1  0  0  0
 10108  1  0  0  0
 11109  1  0  0  0
 12110  1  0  0  0
 13111  1  0  0  0
 16112  1  0  0  0
 16113  1  0  0  0
 17114  1  0  0  0
 17115  1  0  0  0
 18116  1  0  0  0
 18117  1  0  0  0
 19118  1  0  0  0
 19119  1  0  0  0
 20120  1  0  0  0
 20121  1  0  0  0
 20122  1  0  0  0
 21123  1  0  0  0
 22124  1  0  0  0
 25125  1  0  0  0
 25126  1  0  0  0
 26127  1  0  0  0
 27128  1  0  0  0
 27129  1  0  0  0
 27130  1  0  0  0
 28131  1  0  0  0
 28132  1  0  0  0
 28133  1  0  0  0
 30134  1  0  0  0
 33135  1  0  0  0
 33136  1  0  0  0
 34137  1  0  0  0
 34138  1  0  0  0
 35139  1  0  0  0
 35140  1  0  0  0
 36141  1  0  0  0
 37142  1  0  0  0
 40143  1  0  0  0
 40144  1  0  0  0
 41145  1  0  0  0
 41146  1  0  0  0
 44147  1  0  0  0
 45148  1  0  0  0
 46149  1  0  0  0
 49150  1  0  0  0
 50151  1  0  0  0
 50152  1  0  0  0
 51153  1  0  0  0
 51154  1  0  0  0
 51155  1  0  0  0
 52156  1  0  0  0
 52157  1  0  0  0
 52158  1  0  0  0
 54159  1  0  0  0
 57160  1  0  0  0
 57161  1  0  0  0
 58162  1  0  0  0
 58163  1  0  0  0
 59164  1  0  0  0
 59165  1  0  0  0
 60166  1  0  0  0
 61167  1  0  0  0
 64168  1  0  0  0
 64169  1  0  0  0
 65170  1  0  0  0
 65171  1  0  0  0
 66172  1  0  0  0
 66173  1  0  0  0
 67174  1  0  0  0
 67175  1  0  0  0
 68176  1  0  0  0
 68177  1  0  0  0
 68178  1  0  0  0
 69179  1  0  0  0
 70180  1  0  0  0
 73181  1  0  0  0
 73182  1  0  0  0
 76183  1  0  0  0
 76184  1  0  0  0
 77185  1  0  0  0
 78186  1  0  0  0
 81187  1  0  0  0
 81188  1  0  0  0
 82189  1  0  0  0
 82190  1  0  0  0
 83191  1  0  0  0
 83192  1  0  0  0
 84193  1  0  0  0
 84194  1  0  0  0
 85195  1  0  0  0
 85196  1  0  0  0
 85197  1  0  0  0
 86198  1  0  0  0
 87199  1  0  0  0
 90200  1  0  0  0
 90201  1  0  0  0
 91202  1  0  0  0
 91203  1  0  0  0
 92204  1  0  0  0
 92205  1  0  0  0
 93206  1  0  0  0
 93207  1  0  0  0
 94208  1  0  0  0
 94209  1  0  0  0
 94210  1  0  0  0
 95211  1  0  0  0
 95212  1  0  0  0
M  END
$$$$
