### 
### Created by X-TOOL on Wed Jan  1 15:39:36 2020
### 

@<TRIPOS>MOLECULE
5vnb_ligand
  158   158     1     0     0
SMALL
GAST_HUCK


@<TRIPOS>ATOM
      1 N          -0.4290   10.2950  -29.4150 N.4       1 ALA         0.2377
      2 CA          0.7400   11.0880  -29.9650 C.3       1 ALA         0.0621
      3 C           1.2190   12.1360  -28.9420 C.2       1 ALA         0.2265
      4 O           0.6590   13.2140  -28.8570 O.2       1 ALA        -0.3907
      5 CB          0.3600   11.7400  -31.2950 C.3       1 ALA        -0.0040
      6 N           2.2210   11.7820  -28.1460 N.am      1 THR        -0.2586
      7 CA          2.6480   12.5710  -26.9960 C.3       1 THR         0.1566
      8 C           4.1540   12.9540  -26.9870 C.2       1 THR         0.2065
      9 O           4.9290   12.6450  -27.9130 O.2       1 THR        -0.3943
     10 CB          2.3270   11.8090  -25.6820 C.3       1 THR         0.0924
     11 OG1         2.8550   10.4910  -25.7680 O.3       1 THR        -0.3874
     12 CG2         0.8180   11.7090  -25.4360 C.3       1 THR        -0.0346
     13 OH          3.4680   19.4820  -30.6160 O.2       1 ALY        -0.3974
     14 CH          4.6380   19.7240  -30.3340 C.2       1 ALY         0.1729
     15 CH3         5.3990   20.8470  -31.0210 C.3       1 ALY         0.0256
     16 NZ          5.3520   19.0170  -29.4450 N.am      1 ALY        -0.2872
     17 CE          4.8470   17.8960  -28.7200 C.3       1 ALY         0.0309
     18 CD          5.8760   17.2700  -27.8040 C.3       1 ALY        -0.0325
     19 CG          5.4610   15.8550  -27.4140 C.3       1 ALY        -0.0470
     20 CB          6.2120   15.3990  -26.1570 C.3       1 ALY        -0.0123
     21 CA          5.8960   13.9880  -25.6700 C.3       1 ALY         0.1310
     22 N           4.5320   13.6910  -25.9490 N.am      1 ALY        -0.2637
     23 C           6.0090   13.8270  -24.1840 C.2       1 ALY         0.2039
     24 O           5.2330   14.4020  -23.4330 O.2       1 ALY        -0.3944
     25 N           6.9580   13.0190  -23.7370 N.am      1 ALA        -0.2640
     26 CA          6.9920   12.5790  -22.3370 C.3       1 ALA         0.1282
     27 C           7.4700   13.6870  -21.4080 C.2       1 ALA         0.2036
     28 O           7.2780   13.5900  -20.1950 O.2       1 ALA        -0.3944
     29 CB          7.8420   11.3210  -22.1770 C.3       1 ALA        -0.0244
     30 N           8.1130   14.7120  -21.9730 N.am      1 ALA        -0.2640
     31 CA          8.2750   16.0260  -21.3230 C.3       1 ALA         0.1282
     32 C           9.3150   16.1340  -20.1950 C.2       1 ALA         0.2036
     33 O          10.1600   17.0300  -20.2280 O.2       1 ALA        -0.3944
     34 CB          6.9200   16.5890  -20.8780 C.3       1 ALA        -0.0244
     35 N           9.2420   15.2650  -19.1910 N.am      1 ARG        -0.2637
     36 CA         10.2580   15.2180  -18.1240 C.3       1 ARG         0.1311
     37 C          10.6060   13.7500  -17.8290 C.2       1 ARG         0.2039
     38 O          10.2330   12.8640  -18.6060 O.2       1 ARG        -0.3944
     39 CB          9.7710   16.0020  -16.8800 C.3       1 ARG        -0.0092
     40 CG          8.2850   15.8550  -16.5340 C.3       1 ARG        -0.0156
     41 CD          7.9600   16.4490  -15.1590 C.3       1 ARG         0.0627
     42 NE          6.6590   16.0160  -14.6290 N.pl3     1 ARG        -0.2723
     43 CZ          6.3770   14.8000  -14.1410 C.cat     1 ARG         0.2882
     44 NH1         7.3060   13.8380  -14.1010 N.pl3     1 ARG        -0.2849
     45 NH2         5.1430   14.5420  -13.6910 N.pl3     1 ARG        -0.2849
     46 OH         17.2150    6.9410  -14.5590 O.2       1 ALY        -0.3974
     47 CH         17.6920    8.0780  -14.7670 C.2       1 ALY         0.1729
     48 CH3        19.1640    8.3720  -14.6350 C.3       1 ALY         0.0256
     49 NZ         16.9860    9.1600  -15.1160 N.am      1 ALY        -0.2872
     50 CE         15.5340    9.1320  -15.2680 C.3       1 ALY         0.0309
     51 CD         14.9320   10.4710  -15.7230 C.3       1 ALY        -0.0325
     52 CG         13.5110   10.7030  -15.2220 C.3       1 ALY        -0.0470
     53 CB         13.0440   12.1100  -15.6250 C.3       1 ALY        -0.0123
     54 CA         11.6630   12.1410  -16.2860 C.3       1 ALY         0.1310
     55 N          11.3510   13.4990  -16.7530 N.am      1 ALY        -0.2637
     56 C          10.6490   11.6180  -15.3040 C.2       1 ALY         0.2040
     57 O          10.3750   12.2350  -14.2710 O.2       1 ALY        -0.3944
     58 N          10.1260   10.4360  -15.6180 N.am      1 SER        -0.2616
     59 CA          9.0690    9.7790  -14.8560 C.3       1 SER         0.1539
     60 C           9.6990    8.8230  -13.8350 C.2       1 SER         0.2062
     61 O          10.9060    8.8860  -13.6010 O.2       1 SER        -0.3943
     62 CB          8.1160    9.0560  -15.8310 C.3       1 SER         0.0843
     63 OG          7.6990    9.9360  -16.8610 O.3       1 SER        -0.3903
     64 N           8.8760    7.9750  -13.2170 N.am      1 ALA        -0.2639
     65 CA          9.3030    7.0800  -12.1450 C.3       1 ALA         0.1283
     66 C           8.6380    5.7120  -12.3310 C.2       1 ALA         0.2056
     67 O           7.8800    5.5330  -13.2910 O.2       1 ALA        -0.3942
     68 CB          8.9170    7.6880  -10.7970 C.3       1 ALA        -0.0244
     69 N           8.9320    4.7380  -11.4360 N.am      1 PRO        -0.2556
     70 CA          8.1930    3.4490  -11.4160 C.3       1 PRO         0.0972
     71 C           6.7740    3.4860  -10.8140 C.2       1 PRO         0.0603
     72 O           6.4010    4.4360  -10.1300 O.co2     1 PRO        -0.5666
     73 CB          9.0990    2.5230  -10.5810 C.3       1 PRO        -0.0159
     74 CG         10.4380    3.1850  -10.5450 C.3       1 PRO        -0.0288
     75 CD         10.1810    4.6580  -10.6510 C.3       1 PRO         0.0362
     76 OXT         5.9820    2.5660  -11.0040 O.co2     1 PRO        -0.5666
     77 H1         -0.7261    9.6165  -30.0987 H         1 ALA         0.2015
     78 H2         -1.1921   10.9205  -29.2089 H         1 ALA         0.2015
     79 H3         -0.1462    9.8206  -28.5718 H         1 ALA         0.2015
     80 H4          1.5704   10.3912  -30.1515 H         1 ALA         0.1095
     81 H5          1.2170   12.3112  -31.6814 H         1 ALA         0.0310
     82 H6         -0.4927   12.4176  -31.1408 H         1 ALA         0.0310
     83 H7          0.0824   10.9603  -32.0196 H         1 ALA         0.0310
     84 H8          2.7076   10.9313  -28.3450 H         1 THR         0.1885
     85 H9          2.0684   13.5058  -27.0086 H         1 THR         0.0826
     86 H10         2.7939   12.3394  -24.8390 H         1 THR         0.0639
     87 H11         2.6611   10.0204  -24.9659 H         1 THR         0.2101
     88 H12         0.6347   11.1639  -24.4983 H         1 THR         0.0257
     89 H13         0.3452   11.1714  -26.2711 H         1 THR         0.0257
     90 H14         0.3908   12.7199  -25.3619 H         1 THR         0.0257
     91 H15         6.4237   20.8921  -30.6236 H         1 ALY         0.0467
     92 H16         4.8901   21.8038  -30.8323 H         1 ALY         0.0467
     93 H17         5.4337   20.6575  -32.1040 H         1 ALY         0.0467
     94 H18         6.2988   19.2931  -29.2797 H         1 ALY         0.1850
     95 H19         4.5107   17.1357  -29.4403 H         1 ALY         0.0520
     96 H20         3.9928   18.2282  -28.1118 H         1 ALY         0.0520
     97 H21         5.9701   17.8821  -26.8949 H         1 ALY         0.0285
     98 H22         6.8454   17.2320  -28.3225 H         1 ALY         0.0285
     99 H23         5.6927   15.1691  -28.2422 H         1 ALY         0.0268
    100 H24         4.3793   15.8374  -27.2150 H         1 ALY         0.0268
    101 H25         5.9669   16.0991  -25.3448 H         1 ALY         0.0312
    102 H26         7.2898   15.4486  -26.3711 H         1 ALY         0.0312
    103 H27         6.5641   13.2762  -26.1770 H         1 ALY         0.0800
    104 H28         3.8285   14.0528  -25.3373 H         1 ALY         0.1883
    105 H29         7.6669   12.7016  -24.3668 H         1 ALA         0.1883
    106 H30         5.9624   12.3244  -22.0453 H         1 ALA         0.0797
    107 H31         7.8492   11.0153  -21.1204 H         1 ALA         0.0277
    108 H32         8.8709   11.5295  -22.5053 H         1 ALA         0.0277
    109 H33         7.4183   10.5118  -22.7899 H         1 ALA         0.0277
    110 H34         8.5049   14.5819  -22.8838 H         1 ALA         0.1883
    111 H35         8.6424   16.6942  -22.1158 H         1 ALA         0.0797
    112 H36         7.0694   17.5672  -20.3975 H         1 ALA         0.0277
    113 H37         6.4524   15.8966  -20.1625 H         1 ALA         0.0277
    114 H38         6.2662   16.7072  -21.7547 H         1 ALA         0.0277
    115 H39         8.4749   14.6243  -19.1589 H         1 ARG         0.1883
    116 H40        11.1699   15.7122  -18.4903 H         1 ARG         0.0800
    117 H41         9.9721   17.0693  -17.0545 H         1 ARG         0.0313
    118 H42        10.3542   15.6557  -16.0140 H         1 ARG         0.0313
    119 H43         8.0240   14.7864  -16.5310 H         1 ARG         0.0301
    120 H44         7.6883   16.3761  -17.2971 H         1 ARG         0.0301
    121 H45         7.9538   17.5456  -15.2454 H         1 ARG         0.0689
    122 H46         8.7444   16.1413  -14.4519 H         1 ARG         0.0689
    123 H47         5.8966   16.7085  -14.6330 H         1 ARG         0.2642
    124 H48         7.0701   12.9097  -13.7223 H         1 ARG         0.2615
    125 H49         8.2571   14.0257  -14.4490 H         1 ARG         0.2615
    126 H50         4.4211   15.2762  -13.7177 H         1 ARG         0.2615
    127 H51         4.9154   13.6093  -13.3180 H         1 ARG         0.2615
    128 H52        19.3482    9.4318  -14.8648 H         1 ALY         0.0467
    129 H53        19.7284    7.7411  -15.3374 H         1 ALY         0.0467
    130 H54        19.4899    8.1578  -13.6065 H         1 ALY         0.0467
    131 H55        17.4707   10.0194  -15.2787 H         1 ALY         0.1850
    132 H56        15.0889    8.8633  -14.2986 H         1 ALY         0.0520
    133 H57        15.2781    8.3654  -16.0142 H         1 ALY         0.0520
    134 H58        14.9206   10.4914  -16.8227 H         1 ALY         0.0285
    135 H59        15.5701   11.2846  -15.3478 H         1 ALY         0.0285
    136 H60        13.4898   10.6105  -14.1261 H         1 ALY         0.0268
    137 H61        12.8395    9.9535  -15.6663 H         1 ALY         0.0268
    138 H62        13.7756   12.5283  -16.3320 H         1 ALY         0.0312
    139 H63        13.0090   12.7353  -14.7207 H         1 ALY         0.0312
    140 H64        11.6734   11.4745  -17.1610 H         1 ALY         0.0800
    141 H65        11.7162   14.2740  -16.2372 H         1 ALY         0.1883
    142 H66        10.4796    9.9678  -16.4278 H         1 SER         0.1884
    143 H67         8.4941   10.5408  -14.3092 H         1 SER         0.0823
    144 H68         7.2334    8.7013  -15.2785 H         1 SER         0.0606
    145 H69         8.6383    8.1973  -16.2779 H         1 SER         0.0606
    146 H70         7.1139    9.4760  -17.4515 H         1 SER         0.2097
    147 H71         7.9178    7.9508  -13.5021 H         1 ALA         0.1883
    148 H72        10.3954    6.9576  -12.1852 H         1 ALA         0.0797
    149 H73         9.2371    7.0164   -9.9867 H         1 ALA         0.0277
    150 H74         7.8259    7.8208  -10.7536 H         1 ALA         0.0277
    151 H75         9.4102    8.6643  -10.6804 H         1 ALA         0.0277
    152 H76         8.1093    3.0703  -12.4453 H         1 PRO         0.0728
    153 H77         9.1742    1.5328  -11.0542 H         1 PRO         0.0306
    154 H78         8.6989    2.4131   -9.5623 H         1 PRO         0.0306
    155 H79        11.0545    2.8441  -11.3898 H         1 PRO         0.0286
    156 H80        10.9516    2.9549   -9.5999 H         1 PRO         0.0286
    157 H81        10.0482    5.1060   -9.6552 H         1 PRO         0.0524
    158 H82        11.0062    5.1638  -11.1736 H         1 PRO         0.0524
@<TRIPOS>BOND
     1    2    1 1  
     2    3    2 1  
     3    2    5 1  
     4    3    4 2  
     5    6    3 am 
     6    7    6 1  
     7    8    7 1  
     8    7   10 1  
     9    8    9 2  
    10   22    8 am 
    11   10   11 1  
    12   10   12 1  
    13   14   13 2  
    14   14   15 1  
    15   16   14 am 
    16   17   16 1  
    17   18   17 1  
    18   19   18 1  
    19   20   19 1  
    20   21   20 1  
    21   21   22 1  
    22   23   21 1  
    23   23   24 2  
    24   25   23 am 
    25   26   25 1  
    26   27   26 1  
    27   26   29 1  
    28   27   28 2  
    29   30   27 am 
    30   31   30 1  
    31   32   31 1  
    32   31   34 1  
    33   32   33 2  
    34   35   32 am 
    35   36   35 1  
    36   37   36 1  
    37   36   39 1  
    38   37   38 2  
    39   55   37 am 
    40   39   40 1  
    41   40   41 1  
    42   41   42 1  
    43   42   43 ar 
    44   43   44 ar 
    45   43   45 ar 
    46   47   46 2  
    47   47   48 1  
    48   49   47 am 
    49   50   49 1  
    50   51   50 1  
    51   52   51 1  
    52   53   52 1  
    53   54   53 1  
    54   54   55 1  
    55   54   56 1  
    56   56   57 2  
    57   56   58 am 
    58   58   59 1  
    59   59   60 1  
    60   59   62 1  
    61   60   61 2  
    62   60   64 am 
    63   62   63 1  
    64   64   65 1  
    65   65   66 1  
    66   65   68 1  
    67   66   67 2  
    68   66   69 am 
    69   69   70 1  
    70   69   75 1  
    71   70   71 1  
    72   70   73 1  
    73   71   72 ar 
    74   71   76 ar 
    75   73   74 1  
    76   74   75 1  
    77    1   77 1  
    78    1   78 1  
    79    1   79 1  
    80    2   80 1  
    81    5   81 1  
    82    5   82 1  
    83    5   83 1  
    84    6   84 1  
    85    7   85 1  
    86   10   86 1  
    87   11   87 1  
    88   12   88 1  
    89   12   89 1  
    90   12   90 1  
    91   15   91 1  
    92   15   92 1  
    93   15   93 1  
    94   16   94 1  
    95   17   95 1  
    96   17   96 1  
    97   18   97 1  
    98   18   98 1  
    99   19   99 1  
   100   19  100 1  
   101   20  101 1  
   102   20  102 1  
   103   21  103 1  
   104   22  104 1  
   105   25  105 1  
   106   26  106 1  
   107   29  107 1  
   108   29  108 1  
   109   29  109 1  
   110   30  110 1  
   111   31  111 1  
   112   34  112 1  
   113   34  113 1  
   114   34  114 1  
   115   35  115 1  
   116   36  116 1  
   117   39  117 1  
   118   39  118 1  
   119   40  119 1  
   120   40  120 1  
   121   41  121 1  
   122   41  122 1  
   123   42  123 1  
   124   44  124 1  
   125   44  125 1  
   126   45  126 1  
   127   45  127 1  
   128   48  128 1  
   129   48  129 1  
   130   48  130 1  
   131   49  131 1  
   132   50  132 1  
   133   50  133 1  
   134   51  134 1  
   135   51  135 1  
   136   52  136 1  
   137   52  137 1  
   138   53  138 1  
   139   53  139 1  
   140   54  140 1  
   141   55  141 1  
   142   58  142 1  
   143   59  143 1  
   144   62  144 1  
   145   62  145 1  
   146   63  146 1  
   147   64  147 1  
   148   65  148 1  
   149   68  149 1  
   150   68  150 1  
   151   68  151 1  
   152   70  152 1  
   153   73  153 1  
   154   73  154 1  
   155   74  155 1  
   156   74  156 1  
   157   75  157 1  
   158   75  158 1  
@<TRIPOS>SUBSTRUCTURE
     1 ALA         1

