5vnb_ligand
  -I-interpret- 

158158  0  0  0  0  0  0  0  0999 V2000
   -0.4290   10.2950  -29.4150 N   0  3  0  0  0
    0.7400   11.0880  -29.9650 C   0  0  0  0  0
    1.2190   12.1360  -28.9420 C   0  0  0  0  0
    0.6590   13.2140  -28.8570 O   0  0  0  0  0
    0.3600   11.7400  -31.2950 C   0  0  0  0  0
    2.2210   11.7820  -28.1460 N   0  0  0  0  0
    2.6480   12.5710  -26.9960 C   0  0  0  0  0
    4.1540   12.9540  -26.9870 C   0  0  0  0  0
    4.9290   12.6450  -27.9130 O   0  0  0  0  0
    2.3270   11.8090  -25.6820 C   0  0  0  0  0
    2.8550   10.4910  -25.7680 O   0  0  0  0  0
    0.8180   11.7090  -25.4360 C   0  0  0  0  0
    3.4680   19.4820  -30.6160 O   0  0  0  0  0
    4.6380   19.7240  -30.3340 C   0  0  0  0  0
    5.3990   20.8470  -31.0210 C   0  0  0  0  0
    5.3520   19.0170  -29.4450 N   0  0  0  0  0
    4.8470   17.8960  -28.7200 C   0  0  0  0  0
    5.8760   17.2700  -27.8040 C   0  0  0  0  0
    5.4610   15.8550  -27.4140 C   0  0  0  0  0
    6.2120   15.3990  -26.1570 C   0  0  0  0  0
    5.8960   13.9880  -25.6700 C   0  0  0  0  0
    4.5320   13.6910  -25.9490 N   0  0  0  0  0
    6.0090   13.8270  -24.1840 C   0  0  0  0  0
    5.2330   14.4020  -23.4330 O   0  0  0  0  0
    6.9580   13.0190  -23.7370 N   0  0  0  0  0
    6.9920   12.5790  -22.3370 C   0  0  0  0  0
    7.4700   13.6870  -21.4080 C   0  0  0  0  0
    7.2780   13.5900  -20.1950 O   0  0  0  0  0
    7.8420   11.3210  -22.1770 C   0  0  0  0  0
    8.1130   14.7120  -21.9730 N   0  0  0  0  0
    8.2750   16.0260  -21.3230 C   0  0  0  0  0
    9.3150   16.1340  -20.1950 C   0  0  0  0  0
   10.1600   17.0300  -20.2280 O   0  0  0  0  0
    6.9200   16.5890  -20.8780 C   0  0  0  0  0
    9.2420   15.2650  -19.1910 N   0  0  0  0  0
   10.2580   15.2180  -18.1240 C   0  0  0  0  0
   10.6060   13.7500  -17.8290 C   0  0  0  0  0
   10.2330   12.8640  -18.6060 O   0  0  0  0  0
    9.7710   16.0020  -16.8800 C   0  0  0  0  0
    8.2850   15.8550  -16.5340 C   0  0  0  0  0
    7.9600   16.4490  -15.1590 C   0  0  0  0  0
    6.6590   16.0160  -14.6290 N   0  0  0  0  0
    6.3770   14.8000  -14.1410 C   0  0  0  0  0
    7.3060   13.8380  -14.1010 N   0  0  0  0  0
    5.1430   14.5420  -13.6910 N   0  0  0  0  0
   17.2150    6.9410  -14.5590 O   0  0  0  0  0
   17.6920    8.0780  -14.7670 C   0  0  0  0  0
   19.1640    8.3720  -14.6350 C   0  0  0  0  0
   16.9860    9.1600  -15.1160 N   0  0  0  0  0
   15.5340    9.1320  -15.2680 C   0  0  0  0  0
   14.9320   10.4710  -15.7230 C   0  0  0  0  0
   13.5110   10.7030  -15.2220 C   0  0  0  0  0
   13.0440   12.1100  -15.6250 C   0  0  0  0  0
   11.6630   12.1410  -16.2860 C   0  0  0  0  0
   11.3510   13.4990  -16.7530 N   0  0  0  0  0
   10.6490   11.6180  -15.3040 C   0  0  0  0  0
   10.3750   12.2350  -14.2710 O   0  0  0  0  0
   10.1260   10.4360  -15.6180 N   0  0  0  0  0
    9.0690    9.7790  -14.8560 C   0  0  0  0  0
    9.6990    8.8230  -13.8350 C   0  0  0  0  0
   10.9060    8.8860  -13.6010 O   0  0  0  0  0
    8.1160    9.0560  -15.8310 C   0  0  0  0  0
    7.6990    9.9360  -16.8610 O   0  0  0  0  0
    8.8760    7.9750  -13.2170 N   0  0  0  0  0
    9.3030    7.0800  -12.1450 C   0  0  0  0  0
    8.6380    5.7120  -12.3310 C   0  0  0  0  0
    7.8800    5.5330  -13.2910 O   0  0  0  0  0
    8.9170    7.6880  -10.7970 C   0  0  0  0  0
    8.9320    4.7380  -11.4360 N   0  0  0  0  0
    8.1930    3.4490  -11.4160 C   0  0  0  0  0
    6.7740    3.4860  -10.8140 C   0  0  0  0  0
    6.4010    4.4360  -10.1300 O   0  0  0  0  0
    9.0990    2.5230  -10.5810 C   0  0  0  0  0
   10.4380    3.1850  -10.5450 C   0  0  0  0  0
   10.1810    4.6580  -10.6510 C   0  0  0  0  0
    5.9820    2.5660  -11.0040 O   0  0  0  0  0
   -0.1609    9.8666  -28.5290 H   0  0  0  0  0
   -1.2217   10.9193  -29.2660 H   0  0  0  0  0
   -0.6882    9.5674  -30.0812 H   0  0  0  0  0
    1.5696   10.4052  -30.1487 H   0  0  0  0  0
   -0.4447   12.4565  -31.1301 H   0  0  0  0  0
    1.2280   12.2549  -31.7068 H   0  0  0  0  0
    0.0269   10.9717  -31.9927 H   0  0  0  0  0
    2.7173   10.9143  -28.3490 H   0  0  0  0  0
    2.0899   13.5042  -27.0717 H   0  0  0  0  0
    2.7765   12.3625  -24.8576 H   0  0  0  0  0
    2.6590   10.0155  -24.9574 H   0  0  0  0  0
    0.3513   11.1724  -26.2620 H   0  0  0  0  0
    0.6378   11.1725  -24.5045 H   0  0  0  0  0
    0.3952   12.7113  -25.3671 H   0  0  0  0  0
    5.4327   20.6580  -32.0940 H   0  0  0  0  0
    4.8938   21.7944  -30.8333 H   0  0  0  0  0
    6.4141   20.8907  -30.6264 H   0  0  0  0  0
    6.3177   19.2987  -29.2764 H   0  0  0  0  0
    4.5458   17.1404  -29.4456 H   0  0  0  0  0
    4.0214   18.2465  -28.1006 H   0  0  0  0  0
    5.9580   17.8747  -26.9008 H   0  0  0  0  0
    6.8318   17.2256  -28.3261 H   0  0  0  0  0
    5.7011   15.1780  -28.2338 H   0  0  0  0  0
    4.3905   15.8449  -27.2089 H   0  0  0  0  0
    5.9117   16.0753  -25.3567 H   0  0  0  0  0
    7.2718   15.4066  -26.4118 H   0  0  0  0  0
    6.6134   13.3416  -26.1756 H   0  0  0  0  0
    3.8144   14.0600  -25.3250 H   0  0  0  0  0
    7.6811   12.6953  -24.3794 H   0  0  0  0  0
    5.9698   12.3338  -22.0488 H   0  0  0  0  0
    7.4212   10.5200  -22.7848 H   0  0  0  0  0
    8.8612   11.5289  -22.5027 H   0  0  0  0  0
    7.8483   11.0191  -21.1297 H   0  0  0  0  0
    8.5127   14.5793  -22.9020 H   0  0  0  0  0
    8.7054   16.6409  -22.1134 H   0  0  0  0  0
    6.2732   16.7056  -21.7476 H   0  0  0  0  0
    6.4577   15.9021  -20.1692 H   0  0  0  0  0
    7.0693   17.5582  -20.4021 H   0  0  0  0  0
    8.4596   14.6114  -19.1583 H   0  0  0  0  0
   11.1761   15.7105  -18.4443 H   0  0  0  0  0
    9.9314   17.0573  -17.1006 H   0  0  0  0  0
   10.3246   15.6029  -16.0301 H   0  0  0  0  0
    8.0408   14.7929  -16.5150 H   0  0  0  0  0
    7.7036   16.3902  -17.2848 H   0  0  0  0  0
    7.9258   17.5329  -15.2690 H   0  0  0  0  0
    8.7277   16.1086  -14.4641 H   0  0  0  0  0
    5.9040   16.7018  -14.6330 H   0  0  0  0  0
    8.2479   14.0239  -14.4456 H   0  0  0  0  0
    4.9176   13.6183  -13.3216 H   0  0  0  0  0
    4.4281   15.2691  -13.7175 H   0  0  0  0  0
   19.4857    8.1593  -13.6155 H   0  0  0  0  0
   19.7221    7.7462  -15.3315 H   0  0  0  0  0
   19.3453    9.4224  -14.8629 H   0  0  0  0  0
   17.4804   10.0366  -15.2819 H   0  0  0  0  0
   15.1094    8.8999  -14.2913 H   0  0  0  0  0
   15.3017    8.3937  -16.0355 H   0  0  0  0  0
   14.8967   10.4601  -16.8124 H   0  0  0  0  0
   15.5563   11.2656  -15.3145 H   0  0  0  0  0
   13.4912   10.6127  -14.1359 H   0  0  0  0  0
   12.8461    9.9609  -15.6639 H   0  0  0  0  0
   13.7598   12.4928  -16.3525 H   0  0  0  0  0
   12.9798   12.7035  -14.7130 H   0  0  0  0  0
   11.6447   11.5006  -17.1678 H   0  0  0  0  0
   11.7235   14.2895  -16.2269 H   0  0  0  0  0
   10.4867    9.9584  -16.4440 H   0  0  0  0  0
    8.4802   10.5088  -14.3003 H   0  0  0  0  0
    7.2394    8.7136  -15.2811 H   0  0  0  0  0
    8.6402    8.2110  -16.2775 H   0  0  0  0  0
    7.1078    9.4711  -17.4576 H   0  0  0  0  0
    7.8987    7.9503  -13.5078 H   0  0  0  0  0
   10.3848    6.9496  -12.1743 H   0  0  0  0  0
    9.4062    8.6553  -10.6827 H   0  0  0  0  0
    7.8357    7.8191  -10.7553 H   0  0  0  0  0
    9.2347    7.0217   -9.9950 H   0  0  0  0  0
    8.0092    3.1249  -12.4404 H   0  0  0  0  0
    9.1611    1.5278  -11.0213 H   0  0  0  0  0
    8.7008    2.3804   -9.5764 H   0  0  0  0  0
   11.0698    2.8371  -11.3622 H   0  0  0  0  0
   10.9699    2.9447   -9.6244 H   0  0  0  0  0
   10.0914    5.1364   -9.6757 H   0  0  0  0  0
   11.0053    5.1916  -11.1242 H   0  0  0  0  0
    6.3980    1.8947  -11.5498 H   0  0  0  0  0
  2  1  1  0  0  0
  3  2  1  0  0  0
  2  5  1  0  0  0
  3  4  2  0  0  0
  6  3  1  0  0  0
  7  6  1  0  0  0
  8  7  1  0  0  0
  7 10  1  0  0  0
  8  9  2  0  0  0
 22  8  1  0  0  0
 10 11  1  0  0  0
 10 12  1  0  0  0
 14 13  2  0  0  0
 14 15  1  0  0  0
 16 14  1  0  0  0
 17 16  1  0  0  0
 18 17  1  0  0  0
 19 18  1  0  0  0
 20 19  1  0  0  0
 21 20  1  0  0  0
 21 22  1  0  0  0
 23 21  1  0  0  0
 23 24  2  0  0  0
 25 23  1  0  0  0
 26 25  1  0  0  0
 27 26  1  0  0  0
 26 29  1  0  0  0
 27 28  2  0  0  0
 30 27  1  0  0  0
 31 30  1  0  0  0
 32 31  1  0  0  0
 31 34  1  0  0  0
 32 33  2  0  0  0
 35 32  1  0  0  0
 36 35  1  0  0  0
 37 36  1  0  0  0
 36 39  1  0  0  0
 37 38  2  0  0  0
 55 37  1  0  0  0
 39 40  1  0  0  0
 40 41  1  0  0  0
 41 42  1  0  0  0
 42 43  1  0  0  0
 43 44  2  0  0  0
 43 45  1  0  0  0
 47 46  2  0  0  0
 47 48  1  0  0  0
 49 47  1  0  0  0
 50 49  1  0  0  0
 51 50  1  0  0  0
 52 51  1  0  0  0
 53 52  1  0  0  0
 54 53  1  0  0  0
 54 55  1  0  0  0
 54 56  1  0  0  0
 56 57  2  0  0  0
 56 58  1  0  0  0
 58 59  1  0  0  0
 59 60  1  0  0  0
 59 62  1  0  0  0
 60 61  2  0  0  0
 60 64  1  0  0  0
 62 63  1  0  0  0
 64 65  1  0  0  0
 65 66  1  0  0  0
 65 68  1  0  0  0
 66 67  2  0  0  0
 66 69  1  0  0  0
 69 70  1  0  0  0
 69 75  1  0  0  0
 70 71  1  0  0  0
 70 73  1  0  0  0
 71 72  2  0  0  0
 71 76  1  0  0  0
 73 74  1  0  0  0
 74 75  1  0  0  0
  1 77  1  0  0  0
  1 78  1  0  0  0
  1 79  1  0  0  0
  2 80  1  0  0  0
  5 81  1  0  0  0
  5 82  1  0  0  0
  5 83  1  0  0  0
  6 84  1  0  0  0
  7 85  1  0  0  0
 10 86  1  0  0  0
 11 87  1  0  0  0
 12 88  1  0  0  0
 12 89  1  0  0  0
 12 90  1  0  0  0
 15 91  1  0  0  0
 15 92  1  0  0  0
 15 93  1  0  0  0
 16 94  1  0  0  0
 17 95  1  0  0  0
 17 96  1  0  0  0
 18 97  1  0  0  0
 18 98  1  0  0  0
 19 99  1  0  0  0
 19100  1  0  0  0
 20101  1  0  0  0
 20102  1  0  0  0
 21103  1  0  0  0
 22104  1  0  0  0
 25105  1  0  0  0
 26106  1  0  0  0
 29107  1  0  0  0
 29108  1  0  0  0
 29109  1  0  0  0
 30110  1  0  0  0
 31111  1  0  0  0
 34112  1  0  0  0
 34113  1  0  0  0
 34114  1  0  0  0
 35115  1  0  0  0
 36116  1  0  0  0
 39117  1  0  0  0
 39118  1  0  0  0
 40119  1  0  0  0
 40120  1  0  0  0
 41121  1  0  0  0
 41122  1  0  0  0
 42123  1  0  0  0
 44124  1  0  0  0
 45125  1  0  0  0
 45126  1  0  0  0
 48127  1  0  0  0
 48128  1  0  0  0
 48129  1  0  0  0
 49130  1  0  0  0
 50131  1  0  0  0
 50132  1  0  0  0
 51133  1  0  0  0
 51134  1  0  0  0
 52135  1  0  0  0
 52136  1  0  0  0
 53137  1  0  0  0
 53138  1  0  0  0
 54139  1  0  0  0
 55140  1  0  0  0
 58141  1  0  0  0
 59142  1  0  0  0
 62143  1  0  0  0
 62144  1  0  0  0
 63145  1  0  0  0
 64146  1  0  0  0
 65147  1  0  0  0
 68148  1  0  0  0
 68149  1  0  0  0
 68150  1  0  0  0
 70151  1  0  0  0
 73152  1  0  0  0
 73153  1  0  0  0
 74154  1  0  0  0
 74155  1  0  0  0
 75156  1  0  0  0
 75157  1  0  0  0
 76158  1  0  0  0
M  END
$$$$
