6tyz_ligand
  -I-interpret- 

217219  0  0  0  0  0  0  0  0999 V2000
   -4.1190    6.1820   39.8050 N   0  3  0  0  0
   -3.4840    5.6740   38.5950 C   0  0  0  0  0
   -4.2480    4.4540   38.1030 C   0  0  0  0  0
   -4.6420    3.6140   38.9000 O   0  0  0  0  0
   -2.0170    5.3220   38.8700 C   0  0  0  0  0
   -1.2330    4.8300   37.6800 C   0  0  0  0  0
   -1.1340    5.8480   36.5510 C   0  0  0  0  0
   -0.0210    6.3810   36.3180 O   0  0  0  0  0
   -2.1690    6.1120   35.8910 O   0  0  0  0  0
   -4.4530    4.3530   36.7890 N   0  0  0  0  0
   -5.1730    3.2120   36.2340 C   0  0  0  0  0
   -4.3720    1.9360   36.4370 C   0  0  0  0  0
   -3.2050    1.8480   36.0490 O   0  0  0  0  0
   -5.4460    3.4350   34.7470 C   0  0  0  0  0
   -6.3420    2.3700   34.1400 C   0  0  0  0  0
   -6.5410    2.6000   32.6580 C   0  0  0  0  0
   -5.2940    2.4230   31.9290 N   0  0  0  0  0
   -4.8070    1.2470   31.5310 C   0  0  0  0  0
   -5.4540    0.1090   31.8000 N   0  0  0  0  0
   -3.6550    1.2130   30.8830 N   0  0  0  0  0
   -4.9920    0.9420   37.0550 N   0  0  0  0  0
   -4.3040   -0.3160   37.2790 C   0  0  0  0  0
   -4.3740   -1.1850   36.0330 C   0  0  0  0  0
   -5.4130   -1.2900   35.3780 O   0  0  0  0  0
   -4.9070   -1.0380   38.4810 C   0  0  0  0  0
   -4.7420   -0.2560   39.7940 C   0  0  0  0  0
   -3.2850   -0.1890   40.2320 C   0  0  0  0  0
   -3.2460   -1.7810   35.6880 N   0  0  0  0  0
   -3.2170   -2.7970   34.6580 C   0  0  0  0  0
   -2.9260   -4.1540   35.2800 C   0  0  0  0  0
   -2.4700   -4.2770   36.4280 O   0  0  0  0  0
   -2.1850   -2.4600   33.5690 C   0  0  0  0  0
   -0.7770   -2.2960   34.0820 C   0  0  0  0  0
    0.2470   -2.1990   32.9470 C   0  0  0  0  0
   -0.0590   -1.1410   31.9820 N   0  0  0  0  0
    0.3740    0.1080   32.0520 C   0  0  0  0  0
    1.1660    0.5120   33.0470 N   0  0  0  0  0
    0.0240    0.9670   31.1080 N   0  0  0  0  0
   -3.2630   -5.1800   34.5150 N   0  0  0  0  0
   -3.0280   -6.5590   34.8990 C   0  0  0  0  0
   -1.9810   -7.0860   33.9350 C   0  0  0  0  0
   -2.2130   -7.1150   32.7230 O   0  0  0  0  0
   -4.3140   -7.3870   34.8370 C   0  0  0  0  0
   -5.3640   -6.8060   35.7850 C   0  0  0  0  0
   -4.0090   -8.8770   35.1160 C   0  0  0  0  0
   -6.7450   -7.3950   35.5890 C   0  0  0  0  0
   -0.8000   -7.4130   34.4580 N   0  0  0  0  0
    0.2400   -7.9290   33.5890 C   0  0  0  0  0
    0.0300   -9.4180   33.3560 C   0  0  0  0  0
   -0.4920  -10.1300   34.2260 O   0  0  0  0  0
    1.6120   -7.7170   34.1950 C   0  0  0  0  0
    2.0700   -6.2710   34.4190 C   0  0  0  0  0
    3.4380   -6.2560   35.0890 C   0  0  0  0  0
    2.0840   -5.5000   33.1300 C   0  0  0  0  0
    0.4570   -9.9160   32.2050 N   0  0  0  0  0
    0.4050  -11.3610   31.9920 C   0  0  0  0  0
    1.2870  -12.1080   32.9800 C   0  0  0  0  0
    2.3410  -11.6270   33.4180 O   0  0  0  0  0
    0.8870  -11.5280   30.5480 C   0  0  0  0  0
    1.6870  -10.3010   30.2550 C   0  0  0  0  0
    1.0700   -9.2010   31.0710 C   0  0  0  0  0
    0.8300  -13.3150   33.3340 N   0  0  0  0  0
    1.4710  -14.1010   34.3690 C   0  0  0  0  0
    2.9730  -14.2550   34.1520 C   0  0  0  0  0
    3.7480  -14.2060   35.1120 O   0  0  0  0  0
    0.7800  -15.4640   34.4340 C   0  0  0  0  0
   -0.5540  -15.2650   34.8870 O   0  0  0  0  0
    1.4910  -16.4160   35.3600 C   0  0  0  0  0
    3.4080  -14.4700   32.9090 N   0  0  0  0  0
    4.8300  -14.7160   32.6920 C   0  0  0  0  0
    5.6770  -13.5390   33.1570 C   0  0  0  0  0
    6.8290  -13.7300   33.5620 O   0  0  0  0  0
    5.1110  -15.0570   31.2180 C   0  0  0  0  0
    4.9080  -13.9430   30.2620 C   0  0  0  0  0
    3.7740  -13.6770   29.5500 C   0  0  0  0  0
    5.8640  -12.9550   29.8820 C   0  0  0  0  0
    3.9620  -12.5780   28.7570 N   0  0  0  0  0
    5.2370  -12.1120   28.9360 C   0  0  0  0  0
    7.1930  -12.6940   30.2420 C   0  0  0  0  0
    5.8810  -11.0000   28.3800 C   0  0  0  0  0
    7.8400  -11.5870   29.6710 C   0  0  0  0  0
    7.1840  -10.7750   28.7350 C   0  0  0  0  0
    5.1260  -12.3290   33.1310 N   0  0  0  0  0
    5.8900  -11.1660   33.5730 C   0  0  0  0  0
    6.0310  -11.0960   35.0880 C   0  0  0  0  0
    6.8990  -10.3720   35.5940 O   0  0  0  0  0
    5.2310   -9.8890   33.0700 C   0  0  0  0  0
    5.3850   -9.7140   31.6000 C   0  0  0  0  0
    4.6730   -8.1680   30.9830 S   0  0  0  0  0
    5.8690   -7.0070   31.6150 C   0  0  0  0  0
    5.2160  -11.8400   35.8250 N   0  0  0  0  0
    5.2180  -11.7930   37.2790 C   0  0  0  0  0
    6.0130  -12.9350   37.8890 C   0  0  0  0  0
    6.1230  -13.0130   39.1210 O   0  0  0  0  0
    3.7740  -11.8120   37.8020 C   0  0  0  0  0
    2.8500  -10.7170   37.2540 C   0  0  0  0  0
    1.4130  -10.9220   37.6950 C   0  0  0  0  0
    3.3310   -9.3510   37.6740 C   0  0  0  0  0
    6.5850  -13.8040   37.0570 N   0  0  0  0  0
    7.3390  -14.9620   37.5280 C   0  0  0  0  0
    8.5370  -14.5410   38.3670 C   0  0  0  0  0
    9.1510  -13.5060   38.1130 O   0  0  0  0  0
    7.7900  -15.7940   36.3440 C   0  0  0  0  0
    8.9140  -15.2280   39.3150 O   0  0  0  0  0
   -5.0928    6.4112   39.6059 H   0  0  0  0  0
   -4.0783    5.4695   40.5337 H   0  0  0  0  0
   -3.6286    7.0195   40.1189 H   0  0  0  0  0
   -3.5052    6.4430   37.8228 H   0  0  0  0  0
   -2.0239    4.5080   39.5949 H   0  0  0  0  0
   -1.5342    6.2415   39.2009 H   0  0  0  0  0
   -1.7509    3.9553   37.2866 H   0  0  0  0  0
   -0.2190    4.6206   38.0208 H   0  0  0  0  0
    0.6310    6.0405   36.9349 H   0  0  0  0  0
   -4.1029    5.0807   36.1659 H   0  0  0  0  0
   -6.1259    3.1116   36.7536 H   0  0  0  0  0
   -4.4894    3.3998   34.2256 H   0  0  0  0  0
   -5.9541    4.3938   34.6435 H   0  0  0  0  0
   -7.3139    2.4122   34.6317 H   0  0  0  0  0
   -5.8699    1.3976   34.2803 H   0  0  0  0  0
   -6.8916    3.6210   32.5072 H   0  0  0  0  0
   -7.2678    1.8773   32.2871 H   0  0  0  0  0
   -4.7534    3.2588   31.7064 H   0  0  0  0  0
   -5.0590   -0.7841   31.5055 H   0  0  0  0  0
   -6.3428    0.1335   32.2998 H   0  0  0  0  0
   -3.1507    2.0791   30.6934 H   0  0  0  0  0
   -5.9536    1.0608   37.3737 H   0  0  0  0  0
   -3.2547   -0.1123   37.4925 H   0  0  0  0  0
   -4.3869   -1.9894   38.5928 H   0  0  0  0  0
   -5.9747   -1.1568   38.2965 H   0  0  0  0  0
   -5.3106   -0.7668   40.5711 H   0  0  0  0  0
   -5.0993    0.7614   39.6344 H   0  0  0  0  0
   -2.9059   -1.1995   40.3845 H   0  0  0  0  0
   -2.6974    0.3083   39.4602 H   0  0  0  0  0
   -3.2125    0.3721   41.1637 H   0  0  0  0  0
   -2.3787   -1.5197   36.1570 H   0  0  0  0  0
   -4.1954   -2.8307   34.1788 H   0  0  0  0  0
   -2.4804   -1.5072   33.1297 H   0  0  0  0  0
   -2.1762   -3.2925   32.8655 H   0  0  0  0  0
   -0.5324   -3.1707   34.6846 H   0  0  0  0  0
   -0.7322   -1.3717   34.6580 H   0  0  0  0  0
    0.2363   -3.1480   32.4108 H   0  0  0  0  0
    1.2141   -1.9686   33.3938 H   0  0  0  0  0
   -0.6545   -1.3865   31.1911 H   0  0  0  0  0
    1.4969    1.4764   33.0760 H   0  0  0  0  0
    1.4405   -0.1436   33.7786 H   0  0  0  0  0
   -0.5726    0.6638   30.3383 H   0  0  0  0  0
   -3.7074   -4.9930   33.6161 H   0  0  0  0  0
   -2.6852   -6.6276   35.9314 H   0  0  0  0  0
   -4.7332   -7.3359   33.8321 H   0  0  0  0  0
   -5.4318   -5.7369   35.5838 H   0  0  0  0  0
   -5.0504   -7.0370   36.8030 H   0  0  0  0  0
   -3.3095   -9.2496   34.3677 H   0  0  0  0  0
   -3.5690   -8.9769   36.1082 H   0  0  0  0  0
   -4.9343   -9.4511   35.0680 H   0  0  0  0  0
   -7.0803   -7.2005   34.5703 H   0  0  0  0  0
   -6.7077   -8.4706   35.7614 H   0  0  0  0  0
   -7.4377   -6.9364   36.2947 H   0  0  0  0  0
   -0.6295   -7.3018   35.4575 H   0  0  0  0  0
    0.1835   -7.3896   32.6435 H   0  0  0  0  0
    2.3175   -8.1413   33.4805 H   0  0  0  0  0
    1.5682   -8.1682   35.1863 H   0  0  0  0  0
    1.3568   -5.7789   35.0804 H   0  0  0  0  0
    3.3760   -6.7663   36.0502 H   0  0  0  0  0
    4.1593   -6.7666   34.4509 H   0  0  0  0  0
    3.7541   -5.2244   35.2436 H   0  0  0  0  0
    2.7690   -5.9779   32.4297 H   0  0  0  0  0
    1.0801   -5.4857   32.7057 H   0  0  0  0  0
    2.4130   -4.4788   33.3225 H   0  0  0  0  0
   -0.5903  -11.7765   32.1497 H   0  0  0  0  0
    0.0517  -11.6369   29.8563 H   0  0  0  0  0
    1.4817  -12.4333   30.4257 H   0  0  0  0  0
    1.6688  -10.0620   29.1917 H   0  0  0  0  0
    2.7366  -10.4428   30.5124 H   0  0  0  0  0
    1.8007   -8.4583   31.3913 H   0  0  0  0  0
    0.3449   -8.6169   30.5043 H   0  0  0  0  0
    0.0079  -13.6920   32.8623 H   0  0  0  0  0
    1.3654  -13.5764   35.3186 H   0  0  0  0  0
    0.7955  -15.9096   33.4394 H   0  0  0  0  0
   -1.0043  -16.1115   34.9342 H   0  0  0  0  0
    2.5115  -16.5684   35.0087 H   0  0  0  0  0
    1.5104  -15.9962   36.3657 H   0  0  0  0  0
    0.9637  -17.3699   35.3732 H   0  0  0  0  0
    2.7574  -14.4625   32.1235 H   0  0  0  0  0
    5.1123  -15.5785   33.2957 H   0  0  0  0  0
    4.4070  -15.8409   30.9387 H   0  0  0  0  0
    6.1634  -15.3341   31.1563 H   0  0  0  0  0
    2.8523  -14.2562   29.6053 H   0  0  0  0  0
    7.7137  -13.3376   30.9511 H   0  0  0  0  0
    5.3627  -10.3361   27.6881 H   0  0  0  0  0
    8.8655  -11.3557   29.9589 H   0  0  0  0  0
    7.7241   -9.9451   28.2793 H   0  0  0  0  0
    4.1676  -12.2132   32.8016 H   0  0  0  0  0
    6.8910  -11.2682   33.1539 H   0  0  0  0  0
    5.7116   -9.0440   33.5630 H   0  0  0  0  0
    4.1658   -9.9479   33.2934 H   0  0  0  0  0
    4.8588  -10.5356   31.1139 H   0  0  0  0  0
    6.4526   -9.6950   31.3810 H   0  0  0  0  0
    5.9029   -7.0779   32.7022 H   0  0  0  0  0
    6.8513   -7.2391   31.2036 H   0  0  0  0  0
    5.5814   -5.9966   31.3243 H   0  0  0  0  0
    4.5641  -12.4679   35.3547 H   0  0  0  0  0
    5.7053  -10.8653   37.5789 H   0  0  0  0  0
    3.8348  -11.6527   38.8786 H   0  0  0  0  0
    3.3450  -12.7629   37.4860 H   0  0  0  0  0
    2.8804  -10.7838   36.1665 H   0  0  0  0  0
    1.0567  -11.8858   37.3314 H   0  0  0  0  0
    1.3619  -10.9015   38.7836 H   0  0  0  0  0
    0.7915  -10.1255   37.2857 H   0  0  0  0  0
    3.3424   -9.2899   38.7622 H   0  0  0  0  0
    4.3376   -9.1874   37.2891 H   0  0  0  0  0
    2.6595   -8.5917   37.2732 H   0  0  0  0  0
    6.4926  -13.6546   36.0522 H   0  0  0  0  0
    6.6860  -15.5607   38.1630 H   0  0  0  0  0
    6.9171  -16.1330   35.7862 H   0  0  0  0  0
    8.4239  -15.1883   35.6964 H   0  0  0  0  0
    8.3522  -16.6569   36.7010 H   0  0  0  0  0
    8.3474  -15.9988   39.3955 H   0  0  0  0  0
  1  2  1  0  0  0
  2  3  1  0  0  0
  2  5  1  0  0  0
  3  4  2  0  0  0
  3 10  1  0  0  0
  5  6  1  0  0  0
  6  7  1  0  0  0
  7  8  1  0  0  0
  7  9  2  0  0  0
 10 11  1  0  0  0
 11 12  1  0  0  0
 11 14  1  0  0  0
 12 13  2  0  0  0
 12 21  1  0  0  0
 14 15  1  0  0  0
 15 16  1  0  0  0
 16 17  1  0  0  0
 17 18  1  0  0  0
 18 19  1  0  0  0
 18 20  2  0  0  0
 21 22  1  0  0  0
 22 23  1  0  0  0
 22 25  1  0  0  0
 23 24  2  0  0  0
 23 28  1  0  0  0
 25 26  1  0  0  0
 26 27  1  0  0  0
 28 29  1  0  0  0
 29 30  1  0  0  0
 29 32  1  0  0  0
 30 31  2  0  0  0
 30 39  1  0  0  0
 32 33  1  0  0  0
 33 34  1  0  0  0
 34 35  1  0  0  0
 35 36  1  0  0  0
 36 37  1  0  0  0
 36 38  2  0  0  0
 39 40  1  0  0  0
 40 41  1  0  0  0
 40 43  1  0  0  0
 41 42  2  0  0  0
 41 47  1  0  0  0
 43 44  1  0  0  0
 43 45  1  0  0  0
 44 46  1  0  0  0
 47 48  1  0  0  0
 48 49  1  0  0  0
 48 51  1  0  0  0
 49 50  2  0  0  0
 49 55  1  0  0  0
 51 52  1  0  0  0
 52 53  1  0  0  0
 52 54  1  0  0  0
 55 56  1  0  0  0
 55 61  1  0  0  0
 56 57  1  0  0  0
 56 59  1  0  0  0
 57 58  2  0  0  0
 57 62  1  0  0  0
 59 60  1  0  0  0
 60 61  1  0  0  0
 62 63  1  0  0  0
 63 64  1  0  0  0
 63 66  1  0  0  0
 64 65  2  0  0  0
 64 69  1  0  0  0
 66 67  1  0  0  0
 66 68  1  0  0  0
 69 70  1  0  0  0
 70 71  1  0  0  0
 70 73  1  0  0  0
 71 72  2  0  0  0
 71 83  1  0  0  0
 73 74  1  0  0  0
 74 75  4  0  0  0
 74 76  4  0  0  0
 75 77  4  0  0  0
 76 78  4  0  0  0
 76 79  4  0  0  0
 77 78  4  0  0  0
 78 80  4  0  0  0
 79 81  4  0  0  0
 80 82  4  0  0  0
 81 82  4  0  0  0
 83 84  1  0  0  0
 84 85  1  0  0  0
 84 87  1  0  0  0
 85 86  2  0  0  0
 85 91  1  0  0  0
 87 88  1  0  0  0
 88 89  1  0  0  0
 89 90  1  0  0  0
 91 92  1  0  0  0
 92 93  1  0  0  0
 92 95  1  0  0  0
 93 94  2  0  0  0
 93 99  1  0  0  0
 95 96  1  0  0  0
 96 97  1  0  0  0
 96 98  1  0  0  0
 99100  1  0  0  0
100101  1  0  0  0
100103  1  0  0  0
101102  2  0  0  0
101104  1  0  0  0
  1105  1  0  0  0
  1106  1  0  0  0
  1107  1  0  0  0
  2108  1  0  0  0
  5109  1  0  0  0
  5110  1  0  0  0
  6111  1  0  0  0
  6112  1  0  0  0
  8113  1  0  0  0
 10114  1  0  0  0
 11115  1  0  0  0
 14116  1  0  0  0
 14117  1  0  0  0
 15118  1  0  0  0
 15119  1  0  0  0
 16120  1  0  0  0
 16121  1  0  0  0
 17122  1  0  0  0
 19123  1  0  0  0
 19124  1  0  0  0
 20125  1  0  0  0
 21126  1  0  0  0
 22127  1  0  0  0
 25128  1  0  0  0
 25129  1  0  0  0
 26130  1  0  0  0
 26131  1  0  0  0
 27132  1  0  0  0
 27133  1  0  0  0
 27134  1  0  0  0
 28135  1  0  0  0
 29136  1  0  0  0
 32137  1  0  0  0
 32138  1  0  0  0
 33139  1  0  0  0
 33140  1  0  0  0
 34141  1  0  0  0
 34142  1  0  0  0
 35143  1  0  0  0
 37144  1  0  0  0
 37145  1  0  0  0
 38146  1  0  0  0
 39147  1  0  0  0
 40148  1  0  0  0
 43149  1  0  0  0
 44150  1  0  0  0
 44151  1  0  0  0
 45152  1  0  0  0
 45153  1  0  0  0
 45154  1  0  0  0
 46155  1  0  0  0
 46156  1  0  0  0
 46157  1  0  0  0
 47158  1  0  0  0
 48159  1  0  0  0
 51160  1  0  0  0
 51161  1  0  0  0
 52162  1  0  0  0
 53163  1  0  0  0
 53164  1  0  0  0
 53165  1  0  0  0
 54166  1  0  0  0
 54167  1  0  0  0
 54168  1  0  0  0
 56169  1  0  0  0
 59170  1  0  0  0
 59171  1  0  0  0
 60172  1  0  0  0
 60173  1  0  0  0
 61174  1  0  0  0
 61175  1  0  0  0
 62176  1  0  0  0
 63177  1  0  0  0
 66178  1  0  0  0
 67179  1  0  0  0
 68180  1  0  0  0
 68181  1  0  0  0
 68182  1  0  0  0
 69183  1  0  0  0
 70184  1  0  0  0
 73185  1  0  0  0
 73186  1  0  0  0
 75187  1  0  0  0
 79188  1  0  0  0
 80189  1  0  0  0
 81190  1  0  0  0
 82191  1  0  0  0
 83192  1  0  0  0
 84193  1  0  0  0
 87194  1  0  0  0
 87195  1  0  0  0
 88196  1  0  0  0
 88197  1  0  0  0
 90198  1  0  0  0
 90199  1  0  0  0
 90200  1  0  0  0
 91201  1  0  0  0
 92202  1  0  0  0
 95203  1  0  0  0
 95204  1  0  0  0
 96205  1  0  0  0
 97206  1  0  0  0
 97207  1  0  0  0
 97208  1  0  0  0
 98209  1  0  0  0
 98210  1  0  0  0
 98211  1  0  0  0
 99212  1  0  0  0
100213  1  0  0  0
103214  1  0  0  0
103215  1  0  0  0
103216  1  0  0  0
104217  1  0  0  0
M  END
$$$$
