### 
### Created by X-TOOL on Mon Aug  2 16:17:08 2021
### 

@<TRIPOS>MOLECULE
6tyz_ligand
  218   220     1     0     0
SMALL
GAST_HUCK


@<TRIPOS>ATOM
      1 N          -4.1190    6.1820   39.8050 N.4       1 GLU         0.2380
      2 CA         -3.4840    5.6740   38.5950 C.3       1 GLU         0.0665
      3 C          -4.2480    4.4540   38.1030 C.2       1 GLU         0.2268
      4 O          -4.6420    3.6140   38.9000 O.2       1 GLU        -0.3907
      5 CB         -2.0170    5.3220   38.8700 C.3       1 GLU         0.0194
      6 CG         -1.2330    4.8300   37.6800 C.3       1 GLU         0.0075
      7 CD         -1.1340    5.8480   36.5510 C.2       1 GLU         0.0351
      8 OE1        -0.0210    6.3810   36.3180 O.co2     1 GLU        -0.5690
      9 OE2        -2.1690    6.1120   35.8910 O.co2     1 GLU        -0.5690
     10 N          -4.4530    4.3530   36.7890 N.am      1 GLU        -0.2610
     11 CA         -5.1730    3.2120   36.2340 C.3       1 GLU         0.1312
     12 C          -4.3720    1.9360   36.4370 C.2       1 GLU         0.2039
     13 O          -3.2050    1.8480   36.0490 O.2       1 GLU        -0.3944
     14 CB         -5.4460    3.4350   34.7470 C.3       1 GLU        -0.0092
     15 CG         -6.3420    2.3700   34.1400 C.3       1 GLU        -0.0156
     16 CD         -6.5410    2.6000   32.6580 C.3       1 GLU         0.0627
     17 NE         -5.2940    2.4230   31.9290 N.pl3     1 GLU        -0.2723
     18 CZ         -4.8070    1.2470   31.5310 C.cat     1 GLU         0.2882
     19 NH1        -5.4540    0.1090   31.8000 N.pl3     1 GLU        -0.2849
     20 NH2        -3.6550    1.2130   30.8830 N.pl3     1 GLU        -0.2849
     21 N          -4.9920    0.9420   37.0550 N.am      1 GLU        -0.2637
     22 CA         -4.3040   -0.3160   37.2790 C.3       1 GLU         0.1310
     23 C          -4.3740   -1.1850   36.0330 C.2       1 GLU         0.2039
     24 O          -5.4130   -1.2900   35.3780 O.2       1 GLU        -0.3944
     25 CB         -4.9070   -1.0380   38.4810 C.3       1 GLU        -0.0126
     26 CG         -4.7420   -0.2560   39.7940 C.3       1 GLU        -0.0517
     27 CD         -3.2850   -0.1890   40.2320 C.3       1 GLU        -0.0651
     28 N          -3.2460   -1.7810   35.6880 N.am      1 GLU        -0.2637
     29 CA         -3.2170   -2.7970   34.6580 C.3       1 GLU         0.1311
     30 C          -2.9260   -4.1540   35.2800 C.2       1 GLU         0.2039
     31 O          -2.4700   -4.2770   36.4280 O.2       1 GLU        -0.3944
     32 CB         -2.1850   -2.4600   33.5690 C.3       1 GLU        -0.0092
     33 CG         -0.7770   -2.2960   34.0820 C.3       1 GLU        -0.0156
     34 CD          0.2470   -2.1990   32.9470 C.3       1 GLU         0.0627
     35 NE         -0.0590   -1.1410   31.9820 N.pl3     1 GLU        -0.2723
     36 CZ          0.3740    0.1080   32.0520 C.cat     1 GLU         0.2882
     37 NH1         1.1660    0.5120   33.0470 N.pl3     1 GLU        -0.2849
     38 NH2         0.0240    0.9670   31.1080 N.pl3     1 GLU        -0.2849
     39 N          -3.2630   -5.1800   34.5150 N.am      1 GLU        -0.2635
     40 CA         -3.0280   -6.5590   34.8990 C.3       1 GLU         0.1335
     41 C          -1.9810   -7.0860   33.9350 C.2       1 GLU         0.2042
     42 O          -2.2130   -7.1150   32.7230 O.2       1 GLU        -0.3944
     43 CB         -4.3140   -7.3870   34.8370 C.3       1 GLU        -0.0037
     44 CG1        -5.3640   -6.8060   35.7850 C.3       1 GLU        -0.0491
     45 CG2        -4.0090   -8.8770   35.1160 C.3       1 GLU        -0.0582
     46 CD1        -6.7450   -7.3950   35.5890 C.3       1 GLU        -0.0648
     47 N          -0.8000   -7.4130   34.4580 N.am      1 GLU        -0.2637
     48 CA          0.2400   -7.9290   33.5890 C.3       1 GLU         0.1314
     49 C           0.0300   -9.4180   33.3560 C.2       1 GLU         0.2064
     50 O          -0.4920  -10.1300   34.2260 O.2       1 GLU        -0.3942
     51 CB          1.6120   -7.7170   34.1950 C.3       1 GLU        -0.0101
     52 CG          2.0700   -6.2710   34.4190 C.3       1 GLU        -0.0425
     53 CD1         3.4380   -6.2560   35.0890 C.3       1 GLU        -0.0625
     54 CD2         2.0840   -5.5000   33.1300 C.3       1 GLU        -0.0625
     55 N           0.4570   -9.9160   32.2050 N.am      1 GLU        -0.2498
     56 CA          0.4050  -11.3610   31.9920 C.3       1 GLU         0.1338
     57 C           1.2870  -12.1080   32.9800 C.2       1 GLU         0.2042
     58 O           2.3410  -11.6270   33.4180 O.2       1 GLU        -0.3944
     59 CB          0.8870  -11.5280   30.5480 C.3       1 GLU        -0.0104
     60 CG          1.6870  -10.3010   30.2550 C.3       1 GLU        -0.0281
     61 CD          1.0700   -9.2010   31.0710 C.3       1 GLU         0.0369
     62 N           0.8300  -13.3150   33.3340 N.am      1 GLU        -0.2613
     63 CA          1.4710  -14.1010   34.3690 C.3       1 GLU         0.1565
     64 C           2.9730  -14.2550   34.1520 C.2       1 GLU         0.2066
     65 O           3.7480  -14.2060   35.1120 O.2       1 GLU        -0.3943
     66 CB          0.7800  -15.4640   34.4340 C.3       1 GLU         0.0924
     67 OG1        -0.5540  -15.2650   34.8870 O.3       1 GLU        -0.3874
     68 CG2         1.4910  -16.4160   35.3600 C.3       1 GLU        -0.0346
     69 N           3.4080  -14.4700   32.9090 N.am      1 GLU        -0.2626
     70 CA          4.8300  -14.7160   32.6920 C.3       1 GLU         0.1352
     71 C           5.6770  -13.5390   33.1570 C.2       1 GLU         0.2052
     72 O           6.8290  -13.7300   33.5620 O.2       1 GLU        -0.3942
     73 CB          5.1110  -15.0570   31.2180 C.3       1 GLU         0.0042
     74 CG          4.9080  -13.9430   30.2620 C.2       1 GLU        -0.0418
     75 CD1         3.7740  -13.6770   29.5500 C.2       1 GLU         0.0167
     76 CD2         5.8640  -12.9550   29.8820 C.ar      1 GLU        -0.0214
     77 NE1         3.9620  -12.5780   28.7570 N.pl3     1 GLU        -0.2890
     78 CE2         5.2370  -12.1120   28.9360 C.ar      1 GLU         0.0603
     79 CE3         7.1930  -12.6940   30.2420 C.ar      1 GLU        -0.0747
     80 CZ2         5.8810  -11.0000   28.3800 C.ar      1 GLU        -0.0443
     81 CZ3         7.8400  -11.5870   29.6710 C.ar      1 GLU        -0.0792
     82 CH2         7.1840  -10.7750   28.7350 C.ar      1 GLU        -0.0768
     83 N           5.1260  -12.3290   33.1310 N.am      1 GLU        -0.2636
     84 CA          5.8900  -11.1660   33.5730 C.3       1 GLU         0.1317
     85 C           6.0310  -11.0960   35.0880 C.2       1 GLU         0.2039
     86 O           6.8990  -10.3720   35.5940 O.2       1 GLU        -0.3944
     87 CB          5.2310   -9.8890   33.0700 C.3       1 GLU        -0.0034
     88 CG          5.3850   -9.7140   31.6000 C.3       1 GLU        -0.0024
     89 SD          4.6730   -8.1680   30.9830 S.3       1 GLU        -0.1639
     90 CE          5.8690   -7.0070   31.6150 C.3       1 GLU        -0.0181
     91 N           5.2160  -11.8400   35.8250 N.am      1 GLU        -0.2637
     92 CA          5.2180  -11.7930   37.2790 C.3       1 GLU         0.1312
     93 C           6.0130  -12.9350   37.8890 C.2       1 GLU         0.2033
     94 O           6.1230  -13.0130   39.1210 O.2       1 GLU        -0.3944
     95 CB          3.7740  -11.8120   37.8020 C.3       1 GLU        -0.0101
     96 CG          2.8500  -10.7170   37.2540 C.3       1 GLU        -0.0425
     97 CD1         1.4130  -10.9220   37.6950 C.3       1 GLU        -0.0625
     98 CD2         3.3310   -9.3510   37.6740 C.3       1 GLU        -0.0625
     99 N           6.5850  -13.8040   37.0570 N.am      1 GLU        -0.2698
    100 CA          7.3390  -14.9620   37.5280 C.3       1 GLU         0.0916
    101 C           8.5370  -14.5410   38.3670 C.2       1 GLU         0.0598
    102 O           9.1510  -13.5060   38.1130 O.co2     1 GLU        -0.5666
    103 CB          7.7900  -15.7940   36.3440 C.3       1 GLU        -0.0300
    104 OXT         8.9140  -15.2280   39.3150 O.co2     1 GLU        -0.5666
    105 H1         -3.6156    6.9908   40.1344 H         1 GLU         0.2015
    106 H2         -4.1083    5.4672   40.5156 H         1 GLU         0.2015
    107 H3         -5.0721    6.4394   39.6016 H         1 GLU         0.2015
    108 H4         -3.5193    6.4528   37.8190 H         1 GLU         0.1099
    109 H5         -1.9957    4.5353   39.6385 H         1 GLU         0.0363
    110 H6         -1.5185    6.2240   39.2546 H         1 GLU         0.0363
    111 H7         -1.7232    3.9256   37.2905 H         1 GLU         0.0434
    112 H8         -0.2149    4.5806   38.0134 H         1 GLU         0.0434
    113 H9         -4.1098    5.0665   36.1781 H         1 GLU         0.1884
    114 H10        -6.1348    3.1120   36.7584 H         1 GLU         0.0800
    115 H11        -4.4858    3.4321   34.2104 H         1 GLU         0.0313
    116 H12        -5.9323    4.4138   34.6232 H         1 GLU         0.0313
    117 H13        -7.3207    2.3964   34.6415 H         1 GLU         0.0301
    118 H14        -5.8792    1.3836   34.2907 H         1 GLU         0.0301
    119 H15        -6.9076    3.6249   32.4994 H         1 GLU         0.0689
    120 H16        -7.2836    1.8822   32.2794 H         1 GLU         0.0689
    121 H17        -4.7481    3.2670   31.7042 H         1 GLU         0.2642
    122 H18        -5.0648   -0.7914   31.4857 H         1 GLU         0.2615
    123 H19        -6.3419    0.1323   32.3216 H         1 GLU         0.2615
    124 H20        -3.1551    2.0892   30.6749 H         1 GLU         0.2615
    125 H21        -3.2575    0.3103   30.5863 H         1 GLU         0.2615
    126 H22        -5.9348    1.0585   37.3674 H         1 GLU         0.1883
    127 H23        -3.2467   -0.1033   37.4953 H         1 GLU         0.0800
    128 H24        -4.4110   -2.0138   38.5892 H         1 GLU         0.0312
    129 H25        -5.9805   -1.1908   38.2962 H         1 GLU         0.0312
    130 H26        -5.3280   -0.7534   40.5809 H         1 GLU         0.0265
    131 H27        -5.1177    0.7676   39.6486 H         1 GLU         0.0265
    132 H28        -3.2105    0.3770   41.1722 H         1 GLU         0.0230
    133 H29        -2.6909    0.3127   39.4540 H         1 GLU         0.0230
    134 H30        -2.9012   -1.2083   40.3863 H         1 GLU         0.0230
    135 H31        -2.3957   -1.5248   36.1478 H         1 GLU         0.1883
    136 H32        -4.2097   -2.8380   34.1860 H         1 GLU         0.0800
    137 H33        -2.4879   -1.5194   33.0858 H         1 GLU         0.0313
    138 H34        -2.1893   -3.2716   32.8265 H         1 GLU         0.0313
    139 H35        -0.5265   -3.1626   34.7114 H         1 GLU         0.0301
    140 H36        -0.7248   -1.3775   34.6850 H         1 GLU         0.0301
    141 H37         0.2709   -3.1613   32.4146 H         1 GLU         0.0689
    142 H38         1.2358   -1.9974   33.3847 H         1 GLU         0.0689
    143 H39        -0.6604   -1.3889   31.1834 H         1 GLU         0.2642
    144 H40         1.4914    1.4886   33.0821 H         1 GLU         0.2615
    145 H41         1.4519   -0.1528   33.7800 H         1 GLU         0.2615
    146 H42        -0.5870    0.6635   30.3364 H         1 GLU         0.2615
    147 H43         0.3626    1.9390   31.1449 H         1 GLU         0.2615
    148 H44        -3.6987   -4.9966   33.6338 H         1 GLU         0.1883
    149 H45        -2.6372   -6.5956   35.9266 H         1 GLU         0.0803
    150 H46        -4.7152   -7.3171   33.8152 H         1 GLU         0.0345
    151 H47        -5.4215   -5.7203   35.6180 H         1 GLU         0.0267
    152 H48        -5.0456   -7.0015   36.8196 H         1 GLU         0.0267
    153 H49        -3.2501   -9.2353   34.4049 H         1 GLU         0.0235
    154 H50        -4.9293   -9.4679   34.9986 H         1 GLU         0.0235
    155 H51        -3.6306   -8.9878   36.1429 H         1 GLU         0.0235
    156 H52        -7.4450   -6.9330   36.3007 H         1 GLU         0.0230
    157 H53        -6.7087   -8.4806   35.7628 H         1 GLU         0.0230
    158 H54        -7.0846   -7.1993   34.5612 H         1 GLU         0.0230
    159 H55        -0.6328   -7.3039   35.4379 H         1 GLU         0.1883
    160 H56         0.1896   -7.4014   32.6251 H         1 GLU         0.0800
    161 H57         2.3445   -8.1952   33.5281 H         1 GLU         0.0315
    162 H58         1.6222   -8.2212   35.1726 H         1 GLU         0.0315
    163 H59         1.3520   -5.7848   35.0958 H         1 GLU         0.0298
    164 H60         3.7582   -5.2153   35.2456 H         1 GLU         0.0232
    165 H61         4.1669   -6.7710   34.4460 H         1 GLU         0.0232
    166 H62         3.3768   -6.7707   36.0592 H         1 GLU         0.0232
    167 H63         1.0837   -5.5308   32.6735 H         1 GLU         0.0232
    168 H64         2.8151   -5.9494   32.4418 H         1 GLU         0.0232
    169 H65         2.3634   -4.4552   33.3307 H         1 GLU         0.0232
    170 H66        -0.6274  -11.7266   32.0945 H         1 GLU         0.0802
    171 H67         0.0303  -11.6023   29.8620 H         1 GLU         0.0313
    172 H68         1.5126  -12.4277   30.4522 H         1 GLU         0.0313
    173 H69         1.6351  -10.0574   29.1836 H         1 GLU         0.0287
    174 H70         2.7370  -10.4505   30.5466 H         1 GLU         0.0287
    175 H71         1.8364   -8.4934   31.4203 H         1 GLU         0.0524
    176 H72         0.3089   -8.6598   30.4897 H         1 GLU         0.0524
    177 H73         0.0241  -13.6846   32.8716 H         1 GLU         0.1884
    178 H74         1.3239  -13.5880   35.3308 H         1 GLU         0.0826
    179 H75         0.7618  -15.9027   33.4254 H         1 GLU         0.0639
    180 H76        -0.5383  -14.8649   35.7485 H         1 GLU         0.2101
    181 H77         0.9597  -17.3791   35.3742 H         1 GLU         0.0257
    182 H78         1.5113  -15.9935   36.3754 H         1 GLU         0.0257
    183 H79         2.5211  -16.5707   35.0066 H         1 GLU         0.0257
    184 H80         2.7701  -14.4627   32.1389 H         1 GLU         0.1884
    185 H81         5.1136  -15.5896   33.2973 H         1 GLU         0.0815
    186 H82         4.4436  -15.8813   30.9264 H         1 GLU         0.0397
    187 H83         6.1574  -15.3868   31.1387 H         1 GLU         0.0397
    188 H84         2.8531  -14.2557   29.6052 H         1 GLU         0.0795
    189 H85         3.2581  -12.1675   28.1271 H         1 GLU         0.2216
    190 H86         7.7108  -13.3341   30.9472 H         1 GLU         0.0540
    191 H87         5.3655  -10.3398   27.6919 H         1 GLU         0.0541
    192 H88         8.8599  -11.3569   29.9573 H         1 GLU         0.0510
    193 H89         7.7211   -9.9497   28.2818 H         1 GLU         0.0530
    194 H90         4.1864  -12.2154   32.8080 H         1 GLU         0.1883
    195 H91         6.8981  -11.2367   33.1385 H         1 GLU         0.0800
    196 H92         5.6918   -9.0293   33.5785 H         1 GLU         0.0320
    197 H93         4.1584   -9.9260   33.3112 H         1 GLU         0.0320
    198 H94         4.8862  -10.5540   31.0944 H         1 GLU         0.0378
    199 H95         6.4579   -9.7251   31.3578 H         1 GLU         0.0378
    200 H96         5.5799   -5.9869   31.3222 H         1 GLU         0.0340
    201 H97         6.8609   -7.2402   31.2006 H         1 GLU         0.0340
    202 H98         5.9042   -7.0775   32.7122 H         1 GLU         0.0340
    203 H99         4.5769  -12.4556   35.3639 H         1 GLU         0.1883
    204 H100        5.6883  -10.8482   37.5892 H         1 GLU         0.0800
    205 H101        3.8102  -11.7063   38.8963 H         1 GLU         0.0315
    206 H102        3.3338  -12.7860   37.5420 H         1 GLU         0.0315
    207 H103        2.8794  -10.7688   36.1556 H         1 GLU         0.0298
    208 H104        0.7848  -10.1187   37.2826 H         1 GLU         0.0232
    209 H105        1.3601  -10.9014   38.7935 H         1 GLU         0.0232
    210 H106        1.0522  -11.8944   37.3286 H         1 GLU         0.0232
    211 H107        4.3730   -9.2134   37.3494 H         1 GLU         0.0232
    212 H108        3.2734   -9.2626   38.7689 H         1 GLU         0.0232
    213 H109        2.6977   -8.5805   37.2100 H         1 GLU         0.0232
    214 H110        6.4944  -13.6575   36.0719 H         1 GLU         0.1875
    215 H111        6.6766  -15.5757   38.1562 H         1 GLU         0.0723
    216 H112        8.3575  -16.6652   36.7030 H         1 GLU         0.0270
    217 H113        8.4299  -15.1839   35.6896 H         1 GLU         0.0270
    218 H114        6.9099  -16.1368   35.7802 H         1 GLU         0.0270
@<TRIPOS>BOND
     1    1    2 1  
     2    2    3 1  
     3    2    5 1  
     4    3    4 2  
     5    3   10 am 
     6    5    6 1  
     7    6    7 1  
     8    7    8 ar 
     9    7    9 ar 
    10   10   11 1  
    11   11   12 1  
    12   11   14 1  
    13   12   13 2  
    14   12   21 am 
    15   14   15 1  
    16   15   16 1  
    17   16   17 1  
    18   17   18 ar 
    19   18   19 ar 
    20   18   20 ar 
    21   21   22 1  
    22   22   23 1  
    23   22   25 1  
    24   23   24 2  
    25   23   28 am 
    26   25   26 1  
    27   26   27 1  
    28   28   29 1  
    29   29   30 1  
    30   29   32 1  
    31   30   31 2  
    32   30   39 am 
    33   32   33 1  
    34   33   34 1  
    35   34   35 1  
    36   35   36 ar 
    37   36   37 ar 
    38   36   38 ar 
    39   39   40 1  
    40   40   41 1  
    41   40   43 1  
    42   41   42 2  
    43   41   47 am 
    44   43   44 1  
    45   43   45 1  
    46   44   46 1  
    47   47   48 1  
    48   48   49 1  
    49   48   51 1  
    50   49   50 2  
    51   49   55 am 
    52   51   52 1  
    53   52   53 1  
    54   52   54 1  
    55   55   56 1  
    56   55   61 1  
    57   56   57 1  
    58   56   59 1  
    59   57   58 2  
    60   57   62 am 
    61   59   60 1  
    62   60   61 1  
    63   62   63 1  
    64   63   64 1  
    65   63   66 1  
    66   64   65 2  
    67   64   69 am 
    68   66   67 1  
    69   66   68 1  
    70   69   70 1  
    71   70   71 1  
    72   70   73 1  
    73   71   72 2  
    74   71   83 am 
    75   73   74 1  
    76   74   75 2  
    77   74   76 1  
    78   75   77 1  
    79   76   78 ar 
    80   76   79 ar 
    81   77   78 1  
    82   78   80 ar 
    83   79   81 ar 
    84   80   82 ar 
    85   81   82 ar 
    86   83   84 1  
    87   84   85 1  
    88   84   87 1  
    89   85   86 2  
    90   85   91 am 
    91   87   88 1  
    92   88   89 1  
    93   89   90 1  
    94   91   92 1  
    95   92   93 1  
    96   92   95 1  
    97   93   94 2  
    98   93   99 am 
    99   95   96 1  
   100   96   97 1  
   101   96   98 1  
   102   99  100 1  
   103  100  101 1  
   104  100  103 1  
   105  101  102 ar 
   106  101  104 ar 
   107    1  105 1  
   108    1  106 1  
   109    1  107 1  
   110    2  108 1  
   111    5  109 1  
   112    5  110 1  
   113    6  111 1  
   114    6  112 1  
   115   10  113 1  
   116   11  114 1  
   117   14  115 1  
   118   14  116 1  
   119   15  117 1  
   120   15  118 1  
   121   16  119 1  
   122   16  120 1  
   123   17  121 1  
   124   19  122 1  
   125   19  123 1  
   126   20  124 1  
   127   20  125 1  
   128   21  126 1  
   129   22  127 1  
   130   25  128 1  
   131   25  129 1  
   132   26  130 1  
   133   26  131 1  
   134   27  132 1  
   135   27  133 1  
   136   27  134 1  
   137   28  135 1  
   138   29  136 1  
   139   32  137 1  
   140   32  138 1  
   141   33  139 1  
   142   33  140 1  
   143   34  141 1  
   144   34  142 1  
   145   35  143 1  
   146   37  144 1  
   147   37  145 1  
   148   38  146 1  
   149   38  147 1  
   150   39  148 1  
   151   40  149 1  
   152   43  150 1  
   153   44  151 1  
   154   44  152 1  
   155   45  153 1  
   156   45  154 1  
   157   45  155 1  
   158   46  156 1  
   159   46  157 1  
   160   46  158 1  
   161   47  159 1  
   162   48  160 1  
   163   51  161 1  
   164   51  162 1  
   165   52  163 1  
   166   53  164 1  
   167   53  165 1  
   168   53  166 1  
   169   54  167 1  
   170   54  168 1  
   171   54  169 1  
   172   56  170 1  
   173   59  171 1  
   174   59  172 1  
   175   60  173 1  
   176   60  174 1  
   177   61  175 1  
   178   61  176 1  
   179   62  177 1  
   180   63  178 1  
   181   66  179 1  
   182   67  180 1  
   183   68  181 1  
   184   68  182 1  
   185   68  183 1  
   186   69  184 1  
   187   70  185 1  
   188   73  186 1  
   189   73  187 1  
   190   75  188 1  
   191   77  189 1  
   192   79  190 1  
   193   80  191 1  
   194   81  192 1  
   195   82  193 1  
   196   83  194 1  
   197   84  195 1  
   198   87  196 1  
   199   87  197 1  
   200   88  198 1  
   201   88  199 1  
   202   90  200 1  
   203   90  201 1  
   204   90  202 1  
   205   91  203 1  
   206   92  204 1  
   207   95  205 1  
   208   95  206 1  
   209   96  207 1  
   210   97  208 1  
   211   97  209 1  
   212   97  210 1  
   213   98  211 1  
   214   98  212 1  
   215   98  213 1  
   216   99  214 1  
   217  100  215 1  
   218  103  216 1  
   219  103  217 1  
   220  103  218 1  
@<TRIPOS>SUBSTRUCTURE
     1 GLU         1

