### 
### Created by X-TOOL on Mon Sep 10 21:13:06 2018
### 

@<TRIPOS>MOLECULE
2y2n_ligand
   39    40     1     0     0
SMALL
GAST_HUCK


@<TRIPOS>ATOM
      1 O2          8.1110   10.3480  -12.8580 O.3       1 E07        -0.8710
      2 B           8.7030   10.0250  -11.4580 B         1 E07         3.0000
      3 O1          8.4960   11.2840  -10.5470 O.3       1 E07        -0.8710
      4 C3          8.1030    8.8230  -10.9910 C.3       1 E07        -0.2301
      5 C16         8.8700    8.1100   -9.8890 C.3       1 E07        -0.1732
      6 N4          6.7190    9.1350  -10.6340 N.am      1 E07        -0.4390
      7 C5          5.6600    8.1770  -10.3720 C.2       1 E07         0.1721
      8 O6          5.7940    6.9510  -10.3830 O.2       1 E07        -0.3910
      9 C7          4.3140    8.7840  -10.1440 C.ar      1 E07         0.0507
     10 C14         4.0140    9.4090   -8.9330 C.ar      1 E07        -0.0482
     11 C13         2.6860    9.7790   -8.7040 C.ar      1 E07        -0.0628
     12 C12         1.6830    9.5590   -9.6670 C.ar      1 E07        -0.0638
     13 C11         1.9930    8.9560  -10.8880 C.ar      1 E07        -0.0524
     14 C8          3.3200    8.5770  -11.1090 C.ar      1 E07        -0.0116
     15 C9          3.6770    7.9030  -12.4000 C.3       1 E07         0.0175
     16 C10         3.7020    8.9190  -13.4970 C.ar      1 E07        -0.0309
     17 C21         2.6320    8.9510  -14.4080 C.ar      1 E07        -0.0581
     18 C20         2.6760    9.8100  -15.5130 C.ar      1 E07        -0.0681
     19 C19         3.7960   10.6440  -15.6610 C.ar      1 E07        -0.0684
     20 C18         4.8710   10.6530  -14.7460 C.ar      1 E07        -0.0681
     21 C17         4.8570    9.8300  -13.6240 C.ar      1 E07        -0.0581
     22 H           8.2261    9.5898  -13.4356 H         1 E07        -0.1290
     23 H           7.5579   11.4756  -10.4761 H         1 E07        -0.1290
     24 H           8.1276    8.0852  -11.7929 H         1 E07        -0.1825
     25 H           8.8967    8.7405   -9.0002 H         1 E07        -0.0100
     26 H           8.3739    7.1685   -9.6534 H         1 E07        -0.0100
     27 H           9.8874    7.9116  -10.2260 H         1 E07        -0.0100
     28 H           6.4740   10.1225  -10.5621 H         1 E07         0.1452
     29 H           4.7889    9.6020   -8.1911 H         1 E07         0.0651
     30 H           2.4205   10.2492   -7.7571 H         1 E07         0.0573
     31 H           0.6569    9.8615   -9.4582 H         1 E07         0.0635
     32 H           1.2256    8.7866  -11.6434 H         1 E07         0.0573
     33 H           2.9362    7.1368  -12.6288 H         1 E07         0.0597
     34 H           4.6590    7.4387  -12.3100 H         1 E07         0.0597
     35 H           1.7668    8.3062  -14.2541 H         1 E07         0.0561
     36 H           1.8629    9.8307  -16.2386 H         1 E07         0.0600
     37 H           3.8372   11.3138  -16.5200 H         1 E07         0.0561
     38 H           5.7215   11.3120  -14.9203 H         1 E07         0.0600
     39 H           5.6538    9.8564  -12.8807 H         1 E07         0.0561
@<TRIPOS>BOND
     1    1    2 1  
     2    2    3 1  
     3    2    4 1  
     4    4    5 1  
     5    4    6 1  
     6    6    7 am 
     7    7    8 2  
     8    7    9 1  
     9    9   10 ar 
    10    9   14 ar 
    11   10   11 ar 
    12   11   12 ar 
    13   12   13 ar 
    14   13   14 ar 
    15   14   15 1  
    16   15   16 1  
    17   16   17 ar 
    18   16   21 ar 
    19   17   18 ar 
    20   18   19 ar 
    21   19   20 ar 
    22   20   21 ar 
    23    1   22 1  
    24    3   23 1  
    25    4   24 1  
    26    5   25 1  
    27    5   26 1  
    28    5   27 1  
    29    6   28 1  
    30   10   29 1  
    31   11   30 1  
    32   12   31 1  
    33   13   32 1  
    34   15   33 1  
    35   15   34 1  
    36   17   35 1  
    37   18   36 1  
    38   19   37 1  
    39   20   38 1  
    40   21   39 1  
@<TRIPOS>SUBSTRUCTURE
     1 E07         1

