2y2n_ligand
  -I-interpret- 

 39 40  0  0  0  0  0  0  0  0999 V2000
    8.1110   10.3480  -12.8580 O   0  0  0  0  0
    8.7030   10.0250  -11.4580 B   0  0  0  0  0
    8.4960   11.2840  -10.5470 O   0  0  0  0  0
    8.1030    8.8230  -10.9910 C   0  0  0  0  0
    8.8700    8.1100   -9.8890 C   0  0  0  0  0
    6.7190    9.1350  -10.6340 N   0  0  0  0  0
    5.6600    8.1770  -10.3720 C   0  0  0  0  0
    5.7940    6.9510  -10.3830 O   0  0  0  0  0
    4.3140    8.7840  -10.1440 C   0  0  0  0  0
    4.0140    9.4090   -8.9330 C   0  0  0  0  0
    2.6860    9.7790   -8.7040 C   0  0  0  0  0
    1.6830    9.5590   -9.6670 C   0  0  0  0  0
    1.9930    8.9560  -10.8880 C   0  0  0  0  0
    3.3200    8.5770  -11.1090 C   0  0  0  0  0
    3.6770    7.9030  -12.4000 C   0  0  0  0  0
    3.7020    8.9190  -13.4970 C   0  0  0  0  0
    2.6320    8.9510  -14.4080 C   0  0  0  0  0
    2.6760    9.8100  -15.5130 C   0  0  0  0  0
    3.7960   10.6440  -15.6610 C   0  0  0  0  0
    4.8710   10.6530  -14.7460 C   0  0  0  0  0
    4.8570    9.8300  -13.6240 C   0  0  0  0  0
    8.5042   11.1579  -13.1914 H   0  0  0  0  0
    8.9348   12.0402  -10.9436 H   0  0  0  0  0
    8.1276    8.0852  -11.7929 H   0  0  0  0  0
    8.8967    8.7405   -9.0002 H   0  0  0  0  0
    8.3739    7.1685   -9.6534 H   0  0  0  0  0
    9.8874    7.9116  -10.2260 H   0  0  0  0  0
    6.4740   10.1225  -10.5621 H   0  0  0  0  0
    4.7889    9.6020   -8.1911 H   0  0  0  0  0
    2.4205   10.2492   -7.7571 H   0  0  0  0  0
    0.6569    9.8615   -9.4582 H   0  0  0  0  0
    1.2256    8.7866  -11.6434 H   0  0  0  0  0
    2.9362    7.1368  -12.6288 H   0  0  0  0  0
    4.6590    7.4387  -12.3100 H   0  0  0  0  0
    1.7668    8.3062  -14.2541 H   0  0  0  0  0
    1.8629    9.8307  -16.2386 H   0  0  0  0  0
    3.8372   11.3138  -16.5200 H   0  0  0  0  0
    5.7215   11.3120  -14.9203 H   0  0  0  0  0
    5.6538    9.8564  -12.8807 H   0  0  0  0  0
  1  2  1  0  0  0
  2  3  1  0  0  0
  2  4  1  0  0  0
  4  5  1  0  0  0
  4  6  1  0  0  0
  6  7  1  0  0  0
  7  8  2  0  0  0
  7  9  1  0  0  0
  9 10  4  0  0  0
  9 14  4  0  0  0
 10 11  4  0  0  0
 11 12  4  0  0  0
 12 13  4  0  0  0
 13 14  4  0  0  0
 14 15  1  0  0  0
 15 16  1  0  0  0
 16 17  4  0  0  0
 16 21  4  0  0  0
 17 18  4  0  0  0
 18 19  4  0  0  0
 19 20  4  0  0  0
 20 21  4  0  0  0
  1 22  1  0  0  0
  3 23  1  0  0  0
  4 24  1  0  0  0
  5 25  1  0  0  0
  5 26  1  0  0  0
  5 27  1  0  0  0
  6 28  1  0  0  0
 10 29  1  0  0  0
 11 30  1  0  0  0
 12 31  1  0  0  0
 13 32  1  0  0  0
 15 33  1  0  0  0
 15 34  1  0  0  0
 17 35  1  0  0  0
 18 36  1  0  0  0
 19 37  1  0  0  0
 20 38  1  0  0  0
 21 39  1  0  0  0
M  END
$$$$
