6gg8_ligand
  -I-interpret- 

 45 48  0  0  0  0  0  0  0  0999 V2000
   -9.0800   18.3710  -14.1590 O   0  0  0  0  0
   -6.7370   14.6420  -15.5060 C   0  0  0  0  0
   -9.0210   14.2570  -16.0570 C   0  0  0  0  0
  -10.0540   13.3520  -16.2340 C   0  0  0  0  0
  -11.2390   13.8020  -16.7810 C   0  0  0  0  0
  -11.4090   15.1220  -17.1420 C   0  0  0  0  0
  -10.3820   16.0230  -16.9600 C   0  0  0  0  0
   -9.1820   15.5890  -16.4230 C   0  0  0  0  0
   -8.0840   17.5850  -18.5350 C   0  0  0  0  0
   -8.1560   16.4790  -19.3750 C   0  0  0  0  0
   -8.5220   16.6350  -20.7030 C   0  0  0  0  0
   -8.8000   17.9130  -21.1770 C   0  0  0  0  0
  -10.0880   19.2090  -22.6590 C   0  0  0  0  0
   -6.5610   18.7110  -13.7030 N   0  0  0  0  0
   -8.0030   17.8990  -13.3180 S   0  0  0  0  0
   -8.1040   17.8820  -11.8640 O   0  0  0  0  0
   -7.6100   16.2250  -13.7760 C   0  0  0  0  0
   -7.1440   16.0780  -15.2140 C   0  0  0  0  0
   -7.8580   13.7460  -15.4670 O   0  0  0  0  0
  -12.2560   12.9300  -16.9570 F   0  0  0  0  0
   -8.0970   16.4830  -16.2320 N   0  0  0  0  0
   -7.6660   17.5000  -17.1090 C   0  0  0  0  0
   -6.8490   18.3530  -16.7650 O   0  0  0  0  0
   -9.1580   18.0980  -22.5070 O   0  0  0  0  0
   -9.5270   20.4840  -22.0820 C   0  0  0  0  0
   -9.6040   21.5720  -22.6450 O   0  0  0  0  0
   -8.9630   20.2990  -20.8510 N   0  0  0  0  0
   -8.7140   19.0080  -20.3390 C   0  0  0  0  0
   -8.3640   18.8530  -19.0110 C   0  0  0  0  0
   -6.0237   14.3285  -14.7437 H   0  0  0  0  0
   -6.3074   14.6066  -16.5072 H   0  0  0  0  0
   -9.9342   12.3071  -15.9477 H   0  0  0  0  0
  -12.3549   15.4526  -17.5710 H   0  0  0  0  0
  -10.5136   17.0691  -17.2367 H   0  0  0  0  0
   -7.9240   15.4867  -18.9882 H   0  0  0  0  0
   -8.5908   15.7713  -21.3643 H   0  0  0  0  0
  -11.0070   18.9646  -22.1263 H   0  0  0  0  0
  -10.2704   19.3629  -23.7226 H   0  0  0  0  0
   -6.5541   19.4168  -14.4393 H   0  0  0  0  0
   -5.7022   18.4927  -13.1978 H   0  0  0  0  0
   -8.5202   15.6353  -13.6668 H   0  0  0  0  0
   -6.7935   15.8948  -13.1338 H   0  0  0  0  0
   -6.3016   16.7666  -15.2791 H   0  0  0  0  0
   -8.7162   21.1136  -20.2890 H   0  0  0  0  0
   -8.3095   19.7171  -18.3488 H   0  0  0  0  0
 15  1  2  0  0  0
 18  2  1  0  0  0
  2 19  1  0  0  0
  3  4  4  0  0  0
  8  3  4  0  0  0
  3 19  1  0  0  0
  4  5  4  0  0  0
  6  5  4  0  0  0
  5 20  1  0  0  0
  7  6  4  0  0  0
  8  7  4  0  0  0
 21  8  1  0  0  0
  9 10  4  0  0  0
 22  9  1  0  0  0
  9 29  4  0  0  0
 10 11  4  0  0  0
 11 12  4  0  0  0
 12 24  1  0  0  0
 12 28  4  0  0  0
 24 13  1  0  0  0
 13 25  1  0  0  0
 15 14  1  0  0  0
 15 16  2  0  0  0
 17 15  1  0  0  0
 18 17  1  0  0  0
 21 18  1  0  0  0
 21 22  1  0  0  0
 22 23  2  0  0  0
 25 26  2  0  0  0
 25 27  1  0  0  0
 27 28  1  0  0  0
 28 29  4  0  0  0
  2 30  1  0  0  0
  2 31  1  0  0  0
  4 32  1  0  0  0
  6 33  1  0  0  0
  7 34  1  0  0  0
 10 35  1  0  0  0
 11 36  1  0  0  0
 13 37  1  0  0  0
 13 38  1  0  0  0
 14 39  1  0  0  0
 14 40  1  0  0  0
 17 41  1  0  0  0
 17 42  1  0  0  0
 18 43  1  0  0  0
 27 44  1  0  0  0
 29 45  1  0  0  0
M  END
$$$$
