3d1x_ligand
  -I-interpret- 

100104  0  0  0  0  0  0  0  0999 V2000
   20.8880   27.5860   18.7790 O   0  0  0  0  0
   21.3540   26.4210   18.7210 C   0  0  0  0  0
   22.9830   24.7550   19.3350 N   0  0  0  0  0
   22.4590   25.9450   19.6160 C   0  0  0  0  0
   22.8880   26.7680   20.6730 C   0  0  0  0  0
   23.8870   26.2640   21.5110 C   0  0  0  0  0
   24.4530   25.0060   21.2210 C   0  0  0  0  0
   25.5390   24.4370   21.9640 C   0  0  0  0  0
   26.0460   23.2100   21.6210 C   0  0  0  0  0
   25.5800   22.4810   20.5050 C   0  0  0  0  0
   24.5110   22.9740   19.7990 C   0  0  0  0  0
   23.9800   24.2600   20.1140 C   0  0  0  0  0
   20.9110   25.4820   17.8890 N   0  0  0  0  0
   19.7960   25.7200   17.0150 C   0  0  0  0  0
   18.8000   24.5730   17.1640 C   0  0  0  0  0
   18.9590   23.5070   16.4880 O   0  0  0  0  0
   20.1660   25.8770   15.5150 C   0  0  0  0  0
   21.0980   27.0740   15.4080 C   0  0  0  0  0
   20.6300   28.1960   15.4340 O   0  0  0  0  0
   22.4150   26.7410   15.3790 N   0  0  0  0  0
   15.4820   24.3820   18.0270 C   0  0  0  0  0
   15.1360   25.4890   18.8960 O   0  0  0  0  0
   16.8610   23.8240   18.4140 C   0  0  0  0  0
   17.8510   24.8240   18.0620 N   0  0  0  0  0
   16.9400   23.4380   19.8990 C   0  0  0  0  0
   18.3400   23.2450   20.4130 C   0  0  0  0  0
   19.0060   22.0150   20.2010 C   0  0  0  0  0
   18.9990   24.2510   21.0720 C   0  0  0  0  0
   20.2740   21.8630   20.6930 C   0  0  0  0  0
   20.2550   24.0950   21.5710 C   0  0  0  0  0
   20.9250   22.8940   21.3640 C   0  0  0  0  0
   14.4490   22.5180   16.7590 N   0  3  0  0  0
   14.4100   23.3100   18.0250 C   0  0  0  0  0
   13.8250   21.2270   16.9320 C   0  0  0  0  0
   14.5650   20.4090   17.9880 C   0  0  0  0  0
   15.7780   20.3430   18.0220 O   0  0  0  0  0
   13.9620   20.4310   15.6100 C   0  0  0  0  0
   13.2050   21.1690   14.4950 C   0  0  0  0  0
   13.3840   20.3870   13.1350 C   0  0  0  0  0
   14.8770   20.4700   12.6510 C   0  0  0  0  0
   15.2400   21.9250   12.4180 C   0  0  0  0  0
   15.1960   22.6480   13.7830 C   0  0  0  0  0
   13.7780   22.5960   14.3430 C   0  0  0  0  0
   13.7080   23.2800   15.7190 C   0  0  0  0  0
   13.7280   19.7880   18.8800 N   0  0  0  0  0
   14.2040   18.8840   19.9550 C   0  0  0  0  0
   14.9400   17.6990   19.2860 C   0  0  0  0  0
   12.9510   18.3520   20.6920 C   0  0  0  0  0
   15.0570   19.6640   20.9600 C   0  0  0  0  0
   22.4594   27.7575   20.8320 H   0  0  0  0  0
   24.2234   26.8355   22.3761 H   0  0  0  0  0
   25.9641   24.9828   22.8063 H   0  0  0  0  0
   26.8392   22.7809   22.2333 H   0  0  0  0  0
   26.0588   21.5471   20.2106 H   0  0  0  0  0
   24.0678   22.3828   18.9976 H   0  0  0  0  0
   21.3733   24.5730   17.8713 H   0  0  0  0  0
   19.3717   26.6767   17.3197 H   0  0  0  0  0
   19.2712   26.0306   14.9118 H   0  0  0  0  0
   20.6525   24.9757   15.1421 H   0  0  0  0  0
   23.1260   27.4723   15.3776 H   0  0  0  0  0
   22.6926   25.7597   15.3586 H   0  0  0  0  0
   15.5407   24.7509   17.0030 H   0  0  0  0  0
   14.2742   25.8317   18.6481 H   0  0  0  0  0
   17.0494   22.8991   17.8690 H   0  0  0  0  0
   17.8189   25.7387   18.5123 H   0  0  0  0  0
   16.4223   22.4854   20.0113 H   0  0  0  0  0
   16.4990   24.2567   20.4677 H   0  0  0  0  0
   18.5194   21.2053   19.6572 H   0  0  0  0  0
   18.4982   25.2106   21.2007 H   0  0  0  0  0
   20.7867   20.9109   20.5560 H   0  0  0  0  0
   20.7311   24.9026   22.1271 H   0  0  0  0  0
   21.9459   22.7620   21.7223 H   0  0  0  0  0
   15.4204   22.3669   16.4869 H   0  0  0  0  0
   13.4348   23.7899   18.1079 H   0  0  0  0  0
   14.5860   22.6373   18.8644 H   0  0  0  0  0
   12.7869   21.3877   17.2228 H   0  0  0  0  0
   13.5423   19.4333   15.7386 H   0  0  0  0  0
   15.0151   20.3451   15.3422 H   0  0  0  0  0
   12.1464   21.2254   14.7486 H   0  0  0  0  0
   12.7392   20.8353   12.3791 H   0  0  0  0  0
   13.1169   19.3413   13.2878 H   0  0  0  0  0
   14.9950   19.9085   11.7242 H   0  0  0  0  0
   15.5338   20.0440   13.4095 H   0  0  0  0  0
   14.5358   22.3840   11.7241 H   0  0  0  0  0
   16.2360   22.0011   11.9817 H   0  0  0  0  0
   15.4963   23.6876   13.6524 H   0  0  0  0  0
   15.8779   22.1555   14.4763 H   0  0  0  0  0
   13.1722   23.1209   13.6044 H   0  0  0  0  0
   14.1618   24.2672   15.6321 H   0  0  0  0  0
   12.6615   23.3360   16.0187 H   0  0  0  0  0
   12.7253   19.9569   18.7996 H   0  0  0  0  0
   14.2518   17.1719   18.6253 H   0  0  0  0  0
   15.7834   18.0765   18.7078 H   0  0  0  0  0
   15.3016   17.0166   20.0552 H   0  0  0  0  0
   12.3952   19.1901   21.1125 H   0  0  0  0  0
   12.3186   17.8119   19.9874 H   0  0  0  0  0
   13.2600   17.6807   21.4933 H   0  0  0  0  0
   15.9170   20.0949   20.4474 H   0  0  0  0  0
   14.4585   20.4611   21.4012 H   0  0  0  0  0
   15.4003   18.9892   21.7441 H   0  0  0  0  0
  2  1  2  0  0  0
  2  4  1  0  0  0
 13  2  1  0  0  0
  4  3  4  0  0  0
  3 12  4  0  0  0
  4  5  4  0  0  0
  5  6  4  0  0  0
  6  7  4  0  0  0
  7  8  4  0  0  0
 12  7  4  0  0  0
  8  9  4  0  0  0
 10  9  4  0  0  0
 11 10  4  0  0  0
 12 11  4  0  0  0
 14 13  1  0  0  0
 15 14  1  0  0  0
 14 17  1  0  0  0
 15 16  2  0  0  0
 24 15  1  0  0  0
 17 18  1  0  0  0
 18 19  2  0  0  0
 18 20  1  0  0  0
 21 22  1  0  0  0
 23 21  1  0  0  0
 21 33  1  0  0  0
 23 24  1  0  0  0
 23 25  1  0  0  0
 25 26  1  0  0  0
 26 27  4  0  0  0
 26 28  4  0  0  0
 27 29  4  0  0  0
 28 30  4  0  0  0
 29 31  4  0  0  0
 30 31  4  0  0  0
 33 32  1  0  0  0
 32 34  1  0  0  0
 32 44  1  0  0  0
 34 35  1  0  0  0
 34 37  1  0  0  0
 35 36  2  0  0  0
 35 45  1  0  0  0
 37 38  1  0  0  0
 38 39  1  0  0  0
 38 43  1  0  0  0
 39 40  1  0  0  0
 40 41  1  0  0  0
 41 42  1  0  0  0
 42 43  1  0  0  0
 43 44  1  0  0  0
 45 46  1  0  0  0
 46 47  1  0  0  0
 46 48  1  0  0  0
 46 49  1  0  0  0
  5 50  1  0  0  0
  6 51  1  0  0  0
  8 52  1  0  0  0
  9 53  1  0  0  0
 10 54  1  0  0  0
 11 55  1  0  0  0
 13 56  1  0  0  0
 14 57  1  0  0  0
 17 58  1  0  0  0
 17 59  1  0  0  0
 20 60  1  0  0  0
 20 61  1  0  0  0
 21 62  1  0  0  0
 22 63  1  0  0  0
 23 64  1  0  0  0
 24 65  1  0  0  0
 25 66  1  0  0  0
 25 67  1  0  0  0
 27 68  1  0  0  0
 28 69  1  0  0  0
 29 70  1  0  0  0
 30 71  1  0  0  0
 31 72  1  0  0  0
 32 73  1  0  0  0
 33 74  1  0  0  0
 33 75  1  0  0  0
 34 76  1  0  0  0
 37 77  1  0  0  0
 37 78  1  0  0  0
 38 79  1  0  0  0
 39 80  1  0  0  0
 39 81  1  0  0  0
 40 82  1  0  0  0
 40 83  1  0  0  0
 41 84  1  0  0  0
 41 85  1  0  0  0
 42 86  1  0  0  0
 42 87  1  0  0  0
 43 88  1  0  0  0
 44 89  1  0  0  0
 44 90  1  0  0  0
 45 91  1  0  0  0
 47 92  1  0  0  0
 47 93  1  0  0  0
 47 94  1  0  0  0
 48 95  1  0  0  0
 48 96  1  0  0  0
 48 97  1  0  0  0
 49 98  1  0  0  0
 49 99  1  0  0  0
 49100  1  0  0  0
M  END
$$$$
