6bij_ligand
  -I-interpret- 

186187  0  0  0  0  0  0  0  0999 V2000
   47.9690    6.5780    3.8630 N   0  3  0  0  0
   49.0210    7.2530    3.1210 C   0  0  0  0  0
   48.8870    8.7550    3.2670 C   0  0  0  0  0
   47.9440    9.2350    3.8930 O   0  0  0  0  0
   49.8240    9.5070    2.7080 N   0  0  0  0  0
   49.8330   10.9590    2.8250 C   0  0  0  0  0
   49.5710   11.5960    1.4830 C   0  0  0  0  0
   50.1280   11.1710    0.4600 O   0  0  0  0  0
   48.6960   12.5990    1.4720 N   0  0  0  0  0
   48.4370   13.3920    0.2680 C   0  0  0  0  0
   49.7010   14.1540   -0.0810 C   0  0  0  0  0
   50.3670   14.6720    0.8030 O   0  0  0  0  0
   47.2510   14.3640    0.4740 C   0  0  0  0  0
   45.9200   13.6780    0.2540 C   0  0  0  0  0
   45.3930   13.5510   -1.0180 C   0  0  0  0  0
   45.1960   13.1520    1.3120 C   0  0  0  0  0
   44.2010   12.9190   -1.2420 C   0  0  0  0  0
   43.9770   12.5170    1.0910 C   0  0  0  0  0
   43.4910   12.4090   -0.1950 C   0  0  0  0  0
   42.3100   11.7650   -0.4510 O   0  0  0  0  0
   50.9870   16.3400   -2.4170 C   0  0  0  0  0
   49.8770   16.4530   -3.0020 O   0  0  0  0  0
   51.2610   15.1420   -1.5950 C   0  0  0  0  0
   50.0390   14.4710   -1.3020 N   0  0  0  0  0
   52.1140   14.1630   -2.3400 C   0  0  0  0  0
   53.3250   14.8590   -2.9110 C   0  0  0  0  0
   53.7600   14.0710   -4.1280 C   0  0  0  0  0
   55.1940   14.2030   -4.3370 N   0  0  0  0  0
   55.7180   14.7500   -5.5670 C   0  0  0  0  0
   54.9570   15.1250   -6.4620 O   0  0  0  0  0
   57.1530   14.8460   -5.7280 N   0  0  0  0  0
   51.0600   17.6310   -1.9110 N   0  3  0  0  0
   50.7880   18.9210   -2.5230 C   0  0  0  0  0
   51.6670   19.1770   -3.7430 C   0  0  0  0  0
   52.8140   18.7220   -3.8060 O   0  0  0  0  0
   50.9640   20.0300   -1.5130 C   0  0  0  0  0
   52.2760   21.3770   -5.6780 C   0  0  0  0  0
   51.4840   22.2760   -5.3090 O   0  0  0  0  0
   51.7360   20.0210   -5.9290 C   0  0  0  0  0
   50.9500   19.5910   -4.7840 N   0  0  0  0  0
   50.8860   20.0510   -7.1720 C   0  0  0  0  0
   51.6230   20.6650   -8.3430 C   0  0  0  0  0
   52.0580   19.5520   -9.2820 C   0  0  0  0  0
   52.9530   18.6120   -8.5950 N   0  0  0  0  0
   54.3560   18.6760   -8.9190 C   0  0  0  0  0
   54.7450   19.5030   -9.7340 O   0  0  0  0  0
   55.3240   17.7970   -8.3050 N   0  0  0  0  0
   53.5630   21.7670   -5.6920 N   0  0  0  0  0
   54.0350   23.1010   -5.2940 C   0  0  0  0  0
   53.6180   24.2230   -6.2590 C   0  0  0  0  0
   53.5730   24.0190   -7.4740 O   0  0  0  0  0
   55.5670   22.9460   -5.2970 C   0  0  0  0  0
   55.8110   21.4610   -5.1230 C   0  0  0  0  0
   54.6760   20.8150   -5.8830 C   0  0  0  0  0
   53.3120   25.3980   -5.7090 N   0  0  0  0  0
   53.1230   26.5880   -6.5220 C   0  0  0  0  0
   54.4610   27.0570   -7.0800 C   0  0  0  0  0
   55.5330   26.6640   -6.6180 O   0  0  0  0  0
   52.4870   27.7190   -5.7030 C   0  0  0  0  0
   54.4010   27.8920   -8.1010 N   0  0  0  0  0
   55.6140   28.3800   -8.7320 C   0  0  0  0  0
   55.6050   29.8960   -8.7180 C   0  0  0  0  0
   54.6000   30.5140   -9.0750 O   0  0  0  0  0
   55.7500   27.8690  -10.1580 C   0  0  0  0  0
   57.0920   28.2070  -10.7970 C   0  0  0  0  0
   58.2930   27.8350   -9.8950 C   0  0  0  0  0
   58.3650   26.3380   -9.6290 C   0  0  0  0  0
   59.7770   25.9530   -9.2870 N   0  3  0  0  0
   56.7370   30.4810   -8.3300 N   0  0  0  0  0
   56.8630   31.9290   -8.2610 C   0  0  0  0  0
   56.7680   32.5380   -9.6540 C   0  0  0  0  0
   57.4650   32.1080  -10.5790 O   0  0  0  0  0
   58.1930   32.3060   -7.5970 C   0  0  0  0  0
   55.9020   33.5420   -9.7980 N   0  0  0  0  0
   55.7290   34.2130  -11.0680 C   0  0  0  0  0
   56.9770   35.0120  -11.4440 C   0  0  0  0  0
   57.7920   35.4050  -10.5970 O   0  0  0  0  0
   54.5270   35.1550  -11.0240 C   0  0  0  0  0
   57.0880   35.2780  -12.7420 N   0  0  0  0  0
   58.1590   36.0990  -13.2720 C   0  0  0  0  0
   57.9490   37.5550  -12.8920 C   0  0  0  0  0
   56.8430   38.0990  -13.0180 O   0  0  0  0  0
   58.2170   35.9730  -14.7940 C   0  0  0  0  0
   59.0210   38.1980  -12.4450 N   0  0  0  0  0
   58.9520   39.6280  -12.1810 C   0  0  0  0  0
   59.4160   40.4220  -13.3980 C   0  0  0  0  0
   59.2780   41.6440  -13.4280 O   0  0  0  0  0
   59.7910   40.0000  -10.9570 C   0  0  0  0  0
   61.1800   39.7650  -11.2360 O   0  0  0  0  0
   59.3720   39.1310   -9.7920 C   0  0  0  0  0
   59.9300   39.8430  -14.3540 O   0  0  0  0  0
   48.0723    5.5690    3.7553 H   0  0  0  0  0
   48.0389    6.8247    4.8503 H   0  0  0  0  0
   47.0602    6.8684    3.5023 H   0  0  0  0  0
   48.9382    6.9892    2.0666 H   0  0  0  0  0
   49.9891    6.9423    3.5139 H   0  0  0  0  0
   50.5663    9.0524    2.1762 H   0  0  0  0  0
   50.8101   11.2802    3.1858 H   0  0  0  0  0
   49.0519   11.2640    3.5214 H   0  0  0  0  0
   48.1899   12.8224    2.3290 H   0  0  0  0  0
   48.1619   12.7268   -0.5505 H   0  0  0  0  0
   47.3426   15.1753   -0.2481 H   0  0  0  0  0
   47.2825   14.7315    1.4997 H   0  0  0  0  0
   45.9416   13.9652   -1.8639 H   0  0  0  0  0
   45.5846   13.2362    2.3269 H   0  0  0  0  0
   43.8181   12.8228   -2.2580 H   0  0  0  0  0
   43.4110   12.1083    1.9281 H   0  0  0  0  0
   41.9261   11.4626    0.3753 H   0  0  0  0  0
   51.8465   16.0605   -3.0263 H   0  0  0  0  0
   49.8565   17.2794   -3.4901 H   0  0  0  0  0
   51.7664   15.4780   -0.6896 H   0  0  0  0  0
   49.4097   14.2312   -2.0681 H   0  0  0  0  0
   51.5332   13.7301   -3.1545 H   0  0  0  0  0
   52.4411   13.3803   -1.6555 H   0  0  0  0  0
   54.1269   14.9017   -2.1740 H   0  0  0  0  0
   53.0846   15.8865   -3.1841 H   0  0  0  0  0
   53.2382   14.4566   -5.0038 H   0  0  0  0  0
   53.5209   13.0191   -3.9720 H   0  0  0  0  0
   55.8383   13.9050   -3.6046 H   0  0  0  0  0
   57.5452   15.2272   -6.5890 H   0  0  0  0  0
   57.7722   14.5325   -4.9805 H   0  0  0  0  0
   52.0690   17.7097   -1.7841 H   0  0  0  0  0
   50.2955   17.5954   -1.2367 H   0  0  0  0  0
   49.7529   18.9038   -2.8641 H   0  0  0  0  0
   50.2736   19.8771   -0.6835 H   0  0  0  0  0
   51.9885   20.0217   -1.1410 H   0  0  0  0  0
   50.7564   20.9888   -1.9882 H   0  0  0  0  0
   52.5534   19.3147   -6.0744 H   0  0  0  0  0
   49.9301   19.6056   -4.7794 H   0  0  0  0  0
   50.0026   20.6560   -6.9682 H   0  0  0  0  0
   50.6236   19.0256   -7.4322 H   0  0  0  0  0
   52.4963   21.2110   -7.9860 H   0  0  0  0  0
   50.9684   21.3594   -8.8697 H   0  0  0  0  0
   52.5897   19.9913  -10.1260 H   0  0  0  0  0
   51.1740   19.0122   -9.6213 H   0  0  0  0  0
   52.5959   17.9404   -7.9154 H   0  0  0  0  0
   56.3106   17.8722   -8.5528 H   0  0  0  0  0
   55.0209   17.1011   -7.6236 H   0  0  0  0  0
   53.6068   23.3971   -4.3364 H   0  0  0  0  0
   56.0335   23.5279   -4.5021 H   0  0  0  0  0
   56.0094   23.3228   -6.2192 H   0  0  0  0  0
   55.8287   21.1644   -4.0743 H   0  0  0  0  0
   56.7876   21.1551   -5.4983 H   0  0  0  0  0
   54.9128   20.6477   -6.9337 H   0  0  0  0  0
   54.4418   19.8137   -5.5215 H   0  0  0  0  0
   53.2083   25.4634   -4.6964 H   0  0  0  0  0
   52.4527   26.3326   -7.3427 H   0  0  0  0  0
   51.5165   27.3933   -5.3285 H   0  0  0  0  0
   53.1367   27.9680   -4.8640 H   0  0  0  0  0
   52.3575   28.5963   -6.3368 H   0  0  0  0  0
   53.4926   28.1975   -8.4502 H   0  0  0  0  0
   56.4701   28.0068   -8.1699 H   0  0  0  0  0
   54.9727   28.3473  -10.7539 H   0  0  0  0  0
   55.6652   26.7827  -10.1272 H   0  0  0  0  0
   57.1208   29.2835  -10.9658 H   0  0  0  0  0
   57.1768   27.6343  -11.7205 H   0  0  0  0  0
   58.1723   28.3453   -8.9394 H   0  0  0  0  0
   59.2082   28.1346  -10.4057 H   0  0  0  0  0
   58.0481   25.7965  -10.5203 H   0  0  0  0  0
   57.7094   26.0867   -8.7952 H   0  0  0  0  0
   59.8210   24.9495   -9.1095 H   0  0  0  0  0
   60.3908   26.1888  -10.0668 H   0  0  0  0  0
   60.0741   26.4603   -8.4534 H   0  0  0  0  0
   57.5353   29.8996   -8.0749 H   0  0  0  0  0
   56.0458   32.3266   -7.6592 H   0  0  0  0  0
   58.2240   31.8933   -6.5886 H   0  0  0  0  0
   59.0179   31.9002   -8.1826 H   0  0  0  0  0
   58.2790   33.3916   -7.5495 H   0  0  0  0  0
   55.3496   33.8434   -8.9952 H   0  0  0  0  0
   55.5591   33.4433  -11.8209 H   0  0  0  0  0
   53.6263   34.5825  -10.8026 H   0  0  0  0  0
   54.6826   35.9045  -10.2480 H   0  0  0  0  0
   54.4176   35.6477  -11.9901 H   0  0  0  0  0
   56.3973   34.8920  -13.3857 H   0  0  0  0  0
   59.1001   35.7517  -12.8455 H   0  0  0  0  0
   58.3969   34.9326  -15.0646 H   0  0  0  0  0
   57.2696   36.3022  -15.2209 H   0  0  0  0  0
   59.0257   36.5947  -15.1782 H   0  0  0  0  0
   59.8917   37.6908  -12.2868 H   0  0  0  0  0
   57.9121   39.8806  -11.9741 H   0  0  0  0  0
   59.6390   41.0522  -10.7166 H   0  0  0  0  0
   61.7039   39.9992  -10.4664 H   0  0  0  0  0
   58.3158   39.2957   -9.5789 H   0  0  0  0  0
   59.5338   38.0832  -10.0453 H   0  0  0  0  0
   59.9656   39.3900   -8.9152 H   0  0  0  0  0
   59.9644   38.9005  -14.1750 H   0  0  0  0  0
  2  1  1  0  0  0
  3  2  1  0  0  0
  3  4  2  0  0  0
  5  3  1  0  0  0
  6  5  1  0  0  0
  7  6  1  0  0  0
  7  8  2  0  0  0
  9  7  1  0  0  0
 10  9  1  0  0  0
 11 10  1  0  0  0
 10 13  1  0  0  0
 11 12  2  0  0  0
 24 11  1  0  0  0
 13 14  1  0  0  0
 14 15  4  0  0  0
 14 16  4  0  0  0
 15 17  4  0  0  0
 16 18  4  0  0  0
 17 19  4  0  0  0
 18 19  4  0  0  0
 19 20  1  0  0  0
 21 22  1  0  0  0
 21 23  1  0  0  0
 32 21  1  0  0  0
 23 24  1  0  0  0
 23 25  1  0  0  0
 25 26  1  0  0  0
 26 27  1  0  0  0
 27 28  1  0  0  0
 28 29  1  0  0  0
 29 30  2  0  0  0
 29 31  1  0  0  0
 33 32  1  0  0  0
 34 33  1  0  0  0
 33 36  1  0  0  0
 34 35  2  0  0  0
 40 34  1  0  0  0
 37 38  2  0  0  0
 39 37  1  0  0  0
 37 48  1  0  0  0
 39 40  1  0  0  0
 39 41  1  0  0  0
 41 42  1  0  0  0
 42 43  1  0  0  0
 43 44  1  0  0  0
 44 45  1  0  0  0
 45 46  2  0  0  0
 45 47  1  0  0  0
 48 49  1  0  0  0
 48 54  1  0  0  0
 49 50  1  0  0  0
 49 52  1  0  0  0
 50 51  2  0  0  0
 50 55  1  0  0  0
 52 53  1  0  0  0
 53 54  1  0  0  0
 55 56  1  0  0  0
 56 57  1  0  0  0
 56 59  1  0  0  0
 57 58  2  0  0  0
 57 60  1  0  0  0
 60 61  1  0  0  0
 61 62  1  0  0  0
 61 64  1  0  0  0
 62 63  2  0  0  0
 62 69  1  0  0  0
 64 65  1  0  0  0
 65 66  1  0  0  0
 66 67  1  0  0  0
 67 68  1  0  0  0
 69 70  1  0  0  0
 70 71  1  0  0  0
 70 73  1  0  0  0
 71 72  2  0  0  0
 71 74  1  0  0  0
 74 75  1  0  0  0
 75 76  1  0  0  0
 75 78  1  0  0  0
 76 77  2  0  0  0
 76 79  1  0  0  0
 79 80  1  0  0  0
 80 81  1  0  0  0
 80 83  1  0  0  0
 81 82  2  0  0  0
 81 84  1  0  0  0
 84 85  1  0  0  0
 85 86  1  0  0  0
 85 88  1  0  0  0
 86 87  2  0  0  0
 86 91  1  0  0  0
 88 89  1  0  0  0
 88 90  1  0  0  0
  1 92  1  0  0  0
  1 93  1  0  0  0
  1 94  1  0  0  0
  2 95  1  0  0  0
  2 96  1  0  0  0
  5 97  1  0  0  0
  6 98  1  0  0  0
  6 99  1  0  0  0
  9100  1  0  0  0
 10101  1  0  0  0
 13102  1  0  0  0
 13103  1  0  0  0
 15104  1  0  0  0
 16105  1  0  0  0
 17106  1  0  0  0
 18107  1  0  0  0
 20108  1  0  0  0
 21109  1  0  0  0
 22110  1  0  0  0
 23111  1  0  0  0
 24112  1  0  0  0
 25113  1  0  0  0
 25114  1  0  0  0
 26115  1  0  0  0
 26116  1  0  0  0
 27117  1  0  0  0
 27118  1  0  0  0
 28119  1  0  0  0
 31120  1  0  0  0
 31121  1  0  0  0
 32122  1  0  0  0
 32123  1  0  0  0
 33124  1  0  0  0
 36125  1  0  0  0
 36126  1  0  0  0
 36127  1  0  0  0
 39128  1  0  0  0
 40129  1  0  0  0
 41130  1  0  0  0
 41131  1  0  0  0
 42132  1  0  0  0
 42133  1  0  0  0
 43134  1  0  0  0
 43135  1  0  0  0
 44136  1  0  0  0
 47137  1  0  0  0
 47138  1  0  0  0
 49139  1  0  0  0
 52140  1  0  0  0
 52141  1  0  0  0
 53142  1  0  0  0
 53143  1  0  0  0
 54144  1  0  0  0
 54145  1  0  0  0
 55146  1  0  0  0
 56147  1  0  0  0
 59148  1  0  0  0
 59149  1  0  0  0
 59150  1  0  0  0
 60151  1  0  0  0
 61152  1  0  0  0
 64153  1  0  0  0
 64154  1  0  0  0
 65155  1  0  0  0
 65156  1  0  0  0
 66157  1  0  0  0
 66158  1  0  0  0
 67159  1  0  0  0
 67160  1  0  0  0
 68161  1  0  0  0
 68162  1  0  0  0
 68163  1  0  0  0
 69164  1  0  0  0
 70165  1  0  0  0
 73166  1  0  0  0
 73167  1  0  0  0
 73168  1  0  0  0
 74169  1  0  0  0
 75170  1  0  0  0
 78171  1  0  0  0
 78172  1  0  0  0
 78173  1  0  0  0
 79174  1  0  0  0
 80175  1  0  0  0
 83176  1  0  0  0
 83177  1  0  0  0
 83178  1  0  0  0
 84179  1  0  0  0
 85180  1  0  0  0
 88181  1  0  0  0
 89182  1  0  0  0
 90183  1  0  0  0
 90184  1  0  0  0
 90185  1  0  0  0
 91186  1  0  0  0
M  END
$$$$
