### 
### Created by X-TOOL on Wed Jan  1 15:39:36 2020
### 

@<TRIPOS>MOLECULE
6bij_ligand
  185   186     1     0     0
SMALL
GAST_HUCK


@<TRIPOS>ATOM
      1 N          47.9690    6.5780    3.8630 N.4       1 GLY         0.2357
      2 CA         49.0210    7.2530    3.1210 C.3       1 GLY         0.0545
      3 C          48.8870    8.7550    3.2670 C.2       1 GLY         0.2234
      4 O          47.9440    9.2350    3.8930 O.2       1 GLY        -0.3911
      5 N          49.8240    9.5070    2.7080 N.am      1 GLY        -0.2639
      6 CA         49.8330   10.9590    2.8250 C.3       1 GLY         0.1202
      7 C          49.5710   11.5960    1.4830 C.2       1 GLY         0.2009
      8 O          50.1280   11.1710    0.4600 O.2       1 GLY        -0.3947
      9 N          48.6960   12.5990    1.4720 N.am      1 TYR        -0.2624
     10 CA         48.4370   13.3920    0.2680 C.3       1 TYR         0.1389
     11 C          49.7010   14.1540   -0.0810 C.2       1 TYR         0.2040
     12 O          50.3670   14.6720    0.8030 O.2       1 TYR        -0.3944
     13 CB         47.2510   14.3640    0.4740 C.3       1 TYR         0.0163
     14 CG         45.9200   13.6780    0.2540 C.ar      1 TYR        -0.0493
     15 CD1        45.3930   13.5510   -1.0180 C.ar      1 TYR        -0.0685
     16 CD2        45.1960   13.1520    1.3120 C.ar      1 TYR        -0.0685
     17 CE1        44.2010   12.9190   -1.2420 C.ar      1 TYR        -0.0398
     18 CE2        43.9770   12.5170    1.0910 C.ar      1 TYR        -0.0398
     19 CZ         43.4910   12.4090   -0.1950 C.ar      1 TYR         0.0805
     20 OH         42.3100   11.7650   -0.4510 O.3       1 TYR        -0.3376
     21 C1         50.9870   16.3400   -2.4170 C.3       1 CIR         0.1056
     22 O1         49.8770   16.4530   -3.0020 O.3       1 CIR        -0.3507
     23 C2         51.2610   15.1420   -1.5950 C.3       1 CIR         0.1105
     24 N2         50.0390   14.4710   -1.3020 N.am      1 CIR        -0.2739
     25 C3         52.1140   14.1630   -2.3400 C.3       1 CIR        -0.0203
     26 C4         53.3250   14.8590   -2.9110 C.3       1 CIR        -0.0306
     27 C5         53.7600   14.0710   -4.1280 C.3       1 CIR         0.0313
     28 N6         55.1940   14.2030   -4.3370 N.am      1 CIR        -0.2733
     29 C7         55.7180   14.7500   -5.5670 C.2       1 CIR         0.2548
     30 O7         54.9570   15.1250   -6.4620 O.2       1 CIR        -0.4010
     31 N8         57.1530   14.8460   -5.7280 N.am      1 CIR        -0.2870
     32 N          51.0600   17.6310   -1.9110 N.4       1 ALA         0.2693
     33 CA         50.7880   18.9210   -2.5230 C.3       1 ALA         0.0665
     34 C          51.6670   19.1770   -3.7430 C.2       1 ALA         0.2266
     35 O          52.8140   18.7220   -3.8060 O.2       1 ALA        -0.3907
     36 CB         50.9640   20.0300   -1.5130 C.3       1 ALA        -0.0038
     37 C1         52.2760   21.3770   -5.6780 C.2       1 CIR         0.2064
     38 O1         51.4840   22.2760   -5.3090 O.2       1 CIR        -0.3942
     39 C2         51.7360   20.0210   -5.9290 C.3       1 CIR         0.1313
     40 N2         50.9500   19.5910   -4.7840 N.am      1 CIR        -0.2610
     41 C3         50.8860   20.0510   -7.1720 C.3       1 CIR        -0.0106
     42 C4         51.6230   20.6650   -8.3430 C.3       1 CIR        -0.0288
     43 C5         52.0580   19.5520   -9.2820 C.3       1 CIR         0.0314
     44 N6         52.9530   18.6120   -8.5950 N.am      1 CIR        -0.2733
     45 C7         54.3560   18.6760   -8.9190 C.2       1 CIR         0.2548
     46 O7         54.7450   19.5030   -9.7340 O.2       1 CIR        -0.4010
     47 N8         55.3240   17.7970   -8.3050 N.am      1 CIR        -0.2870
     48 N          53.5630   21.7670   -5.6920 N.am      1 PRO        -0.2498
     49 CA         54.0350   23.1010   -5.2940 C.3       1 PRO         0.1338
     50 C          53.6180   24.2230   -6.2590 C.2       1 PRO         0.2041
     51 O          53.5730   24.0190   -7.4740 O.2       1 PRO        -0.3944
     52 CB         55.5670   22.9460   -5.2970 C.3       1 PRO        -0.0104
     53 CG         55.8110   21.4610   -5.1230 C.3       1 PRO        -0.0281
     54 CD         54.6760   20.8150   -5.8830 C.3       1 PRO         0.0369
     55 N          53.3120   25.3980   -5.7090 N.am      1 ALA        -0.2640
     56 CA         53.1230   26.5880   -6.5220 C.3       1 ALA         0.1282
     57 C          54.4610   27.0570   -7.0800 C.2       1 ALA         0.2036
     58 O          55.5330   26.6640   -6.6180 O.2       1 ALA        -0.3944
     59 CB         52.4870   27.7190   -5.7030 C.3       1 ALA        -0.0244
     60 N          54.4010   27.8920   -8.1010 N.am      1 LYS        -0.2637
     61 CA         55.6140   28.3800   -8.7320 C.3       1 LYS         0.1310
     62 C          55.6050   29.8960   -8.7180 C.2       1 LYS         0.2039
     63 O          54.6000   30.5140   -9.0750 O.2       1 LYS        -0.3944
     64 CB         55.7500   27.8690  -10.1580 C.3       1 LYS        -0.0122
     65 CG         57.0920   28.2070  -10.7970 C.3       1 LYS        -0.0440
     66 CD         58.2930   27.8350   -9.8950 C.3       1 LYS        -0.0124
     67 CE         58.3650   26.3380   -9.6290 C.3       1 LYS        -0.0354
     68 NZ         59.7770   25.9530   -9.2870 N.4       1 LYS         0.2185
     69 N          56.7370   30.4810   -8.3300 N.am      1 ALA        -0.2640
     70 CA         56.8630   31.9290   -8.2610 C.3       1 ALA         0.1282
     71 C          56.7680   32.5380   -9.6540 C.2       1 ALA         0.2036
     72 O          57.4650   32.1080  -10.5790 O.2       1 ALA        -0.3944
     73 CB         58.1930   32.3060   -7.5970 C.3       1 ALA        -0.0244
     74 N          55.9020   33.5420   -9.7980 N.am      1 ALA        -0.2640
     75 CA         55.7290   34.2130  -11.0680 C.3       1 ALA         0.1282
     76 C          56.9770   35.0120  -11.4440 C.2       1 ALA         0.2036
     77 O          57.7920   35.4050  -10.5970 O.2       1 ALA        -0.3944
     78 CB         54.5270   35.1550  -11.0240 C.3       1 ALA        -0.0244
     79 N          57.0880   35.2780  -12.7420 N.am      1 ALA        -0.2640
     80 CA         58.1590   36.0990  -13.2720 C.3       1 ALA         0.1282
     81 C          57.9490   37.5550  -12.8920 C.2       1 ALA         0.2031
     82 O          56.8430   38.0990  -13.0180 O.2       1 ALA        -0.3944
     83 CB         58.2170   35.9730  -14.7940 C.3       1 ALA        -0.0244
     84 N          59.0210   38.1980  -12.4450 N.am      1 THR        -0.2670
     85 CA         58.9520   39.6280  -12.1810 C.3       1 THR         0.1198
     86 C          59.4160   40.4220  -13.3980 C.2       1 THR         0.0626
     87 O          59.2780   41.6440  -13.4280 O.co2     1 THR        -0.5665
     88 CB         59.7910   40.0000  -10.9570 C.3       1 THR         0.0869
     89 OG1        61.1800   39.7650  -11.2360 O.3       1 THR        -0.3880
     90 CG2        59.3720   39.1310   -9.7920 C.3       1 THR        -0.0352
     91 OXT        59.9300   39.8430  -14.3540 O.co2     1 THR        -0.5665
     92 H1         48.0701    5.5807    3.7572 H         1 GLY         0.2012
     93 H2         47.0703    6.8642    3.5074 H         1 GLY         0.2012
     94 H3         48.0371    6.8210    4.8389 H         1 GLY         0.2012
     95 H4         48.9449    6.9837    2.0572 H         1 GLY         0.1061
     96 H5         49.9999    6.9366    3.5102 H         1 GLY         0.1061
     97 H6         50.5517    9.0613    2.1866 H         1 GLY         0.1882
     98 H7         50.8152   11.2867    3.1962 H         1 GLY         0.0763
     99 H8         49.0509   11.2705    3.5330 H         1 GLY         0.0763
    100 H9         48.1998   12.8180    2.3122 H         1 TYR         0.1885
    101 H10        48.1883   12.7115   -0.5597 H         1 TYR         0.0821
    102 H11        47.3448   15.1968   -0.2385 H         1 TYR         0.0453
    103 H12        47.2849   14.7550    1.5016 H         1 TYR         0.0453
    104 H13        45.9386   13.9629   -1.8592 H         1 TYR         0.0530
    105 H14        45.5825   13.2358    2.3213 H         1 TYR         0.0530
    106 H15        43.8202   12.8233   -2.2524 H         1 TYR         0.0525
    107 H16        43.4141   12.1105    1.9235 H         1 TYR         0.0525
    108 H17        42.1339   11.7880   -1.3843 H         1 TYR         0.2458
    109 H18        51.7576   16.2697   -3.1988 H         1 CIR         0.1208
    110 H19        49.6567   15.6301   -3.4225 H         1 CIR         0.2155
    111 H20        51.7621   15.4454   -0.6639 H         1 CIR         0.0639
    112 H21        49.4221   14.2359   -2.0531 H         1 CIR         0.1858
    113 H22        51.5287   13.7205   -3.1595 H         1 CIR         0.0291
    114 H23        52.4413   13.3689   -1.6527 H         1 CIR         0.0291
    115 H24        54.1342   14.8798   -2.1662 H         1 CIR         0.0285
    116 H25        53.0668   15.8883   -3.2007 H         1 CIR         0.0285
    117 H26        53.2291   14.4506   -5.0134 H         1 CIR         0.0517
    118 H27        53.5125   13.0096   -3.9791 H         1 CIR         0.0517
    119 H28        55.8257   13.9109   -3.6189 H         1 CIR         0.1845
    120 H29        57.5375   15.2215   -6.5713 H         1 CIR         0.1808
    121 H30        57.7601   14.5369   -4.9959 H         1 CIR         0.1808
    122 H31        52.0146   17.7115   -1.5974 H         1 ALA         0.2064
    123 H32        50.4447   17.6104   -1.1129 H         1 ALA         0.2064
    124 H33        49.7396   18.9217   -2.8559 H         1 ALA         0.1097
    125 H34        50.7548   20.9982   -1.9914 H         1 ALA         0.0310
    126 H35        51.9976   20.0227   -1.1368 H         1 ALA         0.0310
    127 H36        50.2678   19.8769   -0.6753 H         1 ALA         0.0310
    128 H37        52.5690   19.3182   -6.0779 H         1 CIR         0.0800
    129 H38        49.9501   19.6053   -4.7795 H         1 CIR         0.1884
    130 H39        49.9815   20.6436   -6.9705 H         1 CIR         0.0313
    131 H40        50.5994   19.0214   -7.4322 H         1 CIR         0.0313
    132 H41        52.5070   21.2095   -7.9797 H         1 CIR         0.0287
    133 H42        50.9576   21.3601   -8.8760 H         1 CIR         0.0287
    134 H43        52.5863   19.9907  -10.1414 H         1 CIR         0.0517
    135 H44        51.1686   19.0102   -9.6360 H         1 CIR         0.0517
    136 H45        52.6029   17.9536   -7.9288 H         1 CIR         0.1845
    137 H46        56.2905   17.8672   -8.5519 H         1 CIR         0.1808
    138 H47        55.0276   17.1183   -7.6331 H         1 CIR         0.1808
    139 H48        53.6677   23.3464   -4.2866 H         1 PRO         0.0802
    140 H49        56.0145   23.5113   -4.4662 H         1 PRO         0.0313
    141 H50        55.9894   23.2982   -6.2496 H         1 PRO         0.0313
    142 H51        55.7793   21.1811   -4.0597 H         1 PRO         0.0287
    143 H52        56.7826   21.1713   -5.5497 H         1 PRO         0.0287
    144 H53        54.9252   20.7069   -6.9489 H         1 PRO         0.0524
    145 H54        54.4294   19.8290   -5.4623 H         1 PRO         0.0524
    146 H55        53.2103   25.4622   -4.7162 H         1 ALA         0.1883
    147 H56        52.4545   26.3389   -7.3593 H         1 ALA         0.0797
    148 H57        52.3558   28.6050   -6.3415 H         1 ALA         0.0277
    149 H58        53.1418   27.9713   -4.8559 H         1 ALA         0.0277
    150 H59        51.5075   27.3916   -5.3245 H         1 ALA         0.0277
    151 H60        53.5104   28.1915   -8.4433 H         1 LYS         0.1883
    152 H61        56.4784   28.0238   -8.1524 H         1 LYS         0.0800
    153 H62        54.9512   28.3176  -10.7668 H         1 LYS         0.0312
    154 H63        55.6338   26.7752  -10.1490 H         1 LYS         0.0312
    155 H64        57.1240   29.2881  -10.9976 H         1 LYS         0.0269
    156 H65        57.1795   27.6555  -11.7447 H         1 LYS         0.0269
    157 H66        58.1923   28.3617   -8.9346 H         1 LYS         0.0317
    158 H67        59.2218   28.1523  -10.3917 H         1 LYS         0.0317
    159 H68        58.0440   25.7908  -10.5276 H         1 LYS         0.0813
    160 H69        57.7026   26.0834   -8.7885 H         1 LYS         0.0813
    161 H70        59.8217   24.9614   -9.1114 H         1 LYS         0.1994
    162 H71        60.0717   26.4537   -8.4633 H         1 LYS         0.1994
    163 H72        60.3846   26.1856  -10.0569 H         1 LYS         0.1994
    164 H73        57.5196   29.9110   -8.0799 H         1 ALA         0.1883
    165 H74        56.0395   32.3256   -7.6490 H         1 ALA         0.0797
    166 H75        58.2810   33.4014   -7.5484 H         1 ALA         0.0277
    167 H76        59.0264   31.8970   -8.1871 H         1 ALA         0.0277
    168 H77        58.2256   31.8901   -6.5792 H         1 ALA         0.0277
    169 H78        55.3604   33.8374   -9.0110 H         1 ALA         0.1883
    170 H79        55.5526   33.4507  -11.8411 H         1 ALA         0.0797
    171 H80        54.4155   35.6529  -11.9985 H         1 ALA         0.0277
    172 H81        54.6828   35.9120  -10.2412 H         1 ALA         0.0277
    173 H82        53.6172   34.5784  -10.8007 H         1 ALA         0.0277
    174 H83        56.4109   34.8995  -13.3731 H         1 ALA         0.1883
    175 H84        59.1133   35.7535  -12.8479 H         1 ALA         0.0797
    176 H85        59.0328   36.6000  -15.1830 H         1 ALA         0.0277
    177 H86        57.2615   36.3050  -15.2261 H         1 ALA         0.0277
    178 H87        58.3986   34.9234  -15.0684 H         1 ALA         0.0277
    179 H88        59.8747   37.7008  -12.2899 H         1 THR         0.1876
    180 H89        57.9038   39.8899  -11.9745 H         1 THR         0.0752
    181 H90        59.6357   41.0601  -10.7080 H         1 THR         0.0632
    182 H91        61.6984   39.9968  -10.4744 H         1 THR         0.2100
    183 H92        59.9704   39.3915   -8.9065 H         1 THR         0.0256
    184 H93        59.5348   38.0733  -10.0463 H         1 THR         0.0256
    185 H94        58.3062   39.2963   -9.5759 H         1 THR         0.0256
@<TRIPOS>BOND
     1    2    1 1  
     2    3    2 1  
     3    3    4 2  
     4    5    3 am 
     5    6    5 1  
     6    7    6 1  
     7    7    8 2  
     8    9    7 am 
     9   10    9 1  
    10   11   10 1  
    11   10   13 1  
    12   11   12 2  
    13   24   11 am 
    14   13   14 1  
    15   14   15 ar 
    16   14   16 ar 
    17   15   17 ar 
    18   16   18 ar 
    19   17   19 ar 
    20   18   19 ar 
    21   19   20 1  
    22   21   22 1  
    23   21   23 1  
    24   32   21 1  
    25   23   24 1  
    26   23   25 1  
    27   25   26 1  
    28   26   27 1  
    29   27   28 1  
    30   28   29 am 
    31   29   30 2  
    32   29   31 am 
    33   33   32 1  
    34   34   33 1  
    35   33   36 1  
    36   34   35 2  
    37   40   34 am 
    38   37   38 2  
    39   39   37 1  
    40   37   48 am 
    41   39   40 1  
    42   39   41 1  
    43   41   42 1  
    44   42   43 1  
    45   43   44 1  
    46   44   45 am 
    47   45   46 2  
    48   45   47 am 
    49   48   49 1  
    50   48   54 1  
    51   49   50 1  
    52   49   52 1  
    53   50   51 2  
    54   50   55 am 
    55   52   53 1  
    56   53   54 1  
    57   55   56 1  
    58   56   57 1  
    59   56   59 1  
    60   57   58 2  
    61   57   60 am 
    62   60   61 1  
    63   61   62 1  
    64   61   64 1  
    65   62   63 2  
    66   62   69 am 
    67   64   65 1  
    68   65   66 1  
    69   66   67 1  
    70   67   68 1  
    71   69   70 1  
    72   70   71 1  
    73   70   73 1  
    74   71   72 2  
    75   71   74 am 
    76   74   75 1  
    77   75   76 1  
    78   75   78 1  
    79   76   77 2  
    80   76   79 am 
    81   79   80 1  
    82   80   81 1  
    83   80   83 1  
    84   81   82 2  
    85   81   84 am 
    86   84   85 1  
    87   85   86 1  
    88   85   88 1  
    89   86   87 ar 
    90   86   91 ar 
    91   88   89 1  
    92   88   90 1  
    93    1   92 1  
    94    1   93 1  
    95    1   94 1  
    96    2   95 1  
    97    2   96 1  
    98    5   97 1  
    99    6   98 1  
   100    6   99 1  
   101    9  100 1  
   102   10  101 1  
   103   13  102 1  
   104   13  103 1  
   105   15  104 1  
   106   16  105 1  
   107   17  106 1  
   108   18  107 1  
   109   20  108 1  
   110   21  109 1  
   111   22  110 1  
   112   23  111 1  
   113   24  112 1  
   114   25  113 1  
   115   25  114 1  
   116   26  115 1  
   117   26  116 1  
   118   27  117 1  
   119   27  118 1  
   120   28  119 1  
   121   31  120 1  
   122   31  121 1  
   123   32  122 1  
   124   32  123 1  
   125   33  124 1  
   126   36  125 1  
   127   36  126 1  
   128   36  127 1  
   129   39  128 1  
   130   40  129 1  
   131   41  130 1  
   132   41  131 1  
   133   42  132 1  
   134   42  133 1  
   135   43  134 1  
   136   43  135 1  
   137   44  136 1  
   138   47  137 1  
   139   47  138 1  
   140   49  139 1  
   141   52  140 1  
   142   52  141 1  
   143   53  142 1  
   144   53  143 1  
   145   54  144 1  
   146   54  145 1  
   147   55  146 1  
   148   56  147 1  
   149   59  148 1  
   150   59  149 1  
   151   59  150 1  
   152   60  151 1  
   153   61  152 1  
   154   64  153 1  
   155   64  154 1  
   156   65  155 1  
   157   65  156 1  
   158   66  157 1  
   159   66  158 1  
   160   67  159 1  
   161   67  160 1  
   162   68  161 1  
   163   68  162 1  
   164   68  163 1  
   165   69  164 1  
   166   70  165 1  
   167   73  166 1  
   168   73  167 1  
   169   73  168 1  
   170   74  169 1  
   171   75  170 1  
   172   78  171 1  
   173   78  172 1  
   174   78  173 1  
   175   79  174 1  
   176   80  175 1  
   177   83  176 1  
   178   83  177 1  
   179   83  178 1  
   180   84  179 1  
   181   85  180 1  
   182   88  181 1  
   183   89  182 1  
   184   90  183 1  
   185   90  184 1  
   186   90  185 1  
@<TRIPOS>SUBSTRUCTURE
     1 GLY         1

