3i7c_ligand
  -I-interpret- 

 43 46  0  0  0  0  0  0  0  0999 V2000
   16.6060   11.6710   62.8010 N   0  0  0  0  0
   17.7100   12.2850   62.3630 C   0  0  0  0  0
   17.7650   13.6030   62.1870 N   0  0  0  0  0
   16.6960   14.3720   62.4450 C   0  0  0  0  0
   15.5260   13.7820   62.9080 C   0  0  0  0  0
   15.5020   12.3940   63.0800 C   0  0  0  0  0
   16.7600   18.0930   61.9030 C   0  0  0  0  0
   18.6610   16.7270   62.8320 C   0  0  0  0  0
   17.8690   16.3850   60.4740 C   0  0  0  0  0
   14.4220   11.7620   63.5050 N   0  0  0  0  0
    8.9110   14.4790   65.8550 C   0  0  0  0  0
    9.8370   13.7940   66.6360 C   0  0  0  0  0
   12.4010   15.5520   62.7740 C   0  0  0  0  0
    9.3360   15.0990   64.6860 C   0  0  0  0  0
   11.1790   13.7060   66.2680 C   0  0  0  0  0
   11.0770   15.6250   63.1640 C   0  0  0  0  0
   12.9410   14.2490   64.7210 C   0  0  0  0  0
   15.3100   15.9630   62.7210 N   0  0  0  0  0
   13.3390   14.8520   63.5260 C   0  0  0  0  0
   14.6540   14.8630   63.0770 C   0  0  0  0  0
   10.6700   15.0140   64.3240 C   0  0  0  0  0
   11.6050   14.3260   65.1100 C   0  0  0  0  0
   16.4640   15.6890   62.3740 N   0  0  0  0  0
   17.4460   16.7230   61.9080 C   0  0  0  0  0
   18.5940   11.6864   62.1429 H   0  0  0  0  0
   16.4323   18.3375   62.9134 H   0  0  0  0  0
   17.4638   18.8491   61.5549 H   0  0  0  0  0
   15.8975   18.0636   61.2371 H   0  0  0  0  0
   18.3425   16.9604   63.8479 H   0  0  0  0  0
   19.1325   15.7444   62.8144 H   0  0  0  0  0
   19.3726   17.4790   62.4911 H   0  0  0  0  0
   18.3318   15.3983   60.4561 H   0  0  0  0  0
   16.9915   16.3879   59.8275 H   0  0  0  0  0
   18.5835   17.1293   60.1223 H   0  0  0  0  0
   14.4349   10.7481   63.6159 H   0  0  0  0  0
   13.5755   12.2881   63.7221 H   0  0  0  0  0
    7.8647   14.5287   66.1565 H   0  0  0  0  0
    9.5053   13.3149   67.5572 H   0  0  0  0  0
   12.7165   16.0530   61.8588 H   0  0  0  0  0
    8.6284   15.6451   64.0621 H   0  0  0  0  0
   11.8848   13.1534   66.8882 H   0  0  0  0  0
   10.3568   16.1671   62.5512 H   0  0  0  0  0
   13.6668   13.7242   65.3422 H   0  0  0  0  0
  2  1  4  0  0  0
  6  1  4  0  0  0
  3  2  4  0  0  0
  4  3  4  0  0  0
  4  5  4  0  0  0
 23  4  4  0  0  0
  5  6  4  0  0  0
 20  5  4  0  0  0
  6 10  1  0  0  0
 24  7  1  0  0  0
 24  8  1  0  0  0
 24  9  1  0  0  0
 12 11  4  0  0  0
 14 11  4  0  0  0
 15 12  4  0  0  0
 13 16  4  0  0  0
 19 13  4  0  0  0
 21 14  4  0  0  0
 22 15  4  0  0  0
 16 21  4  0  0  0
 19 17  4  0  0  0
 17 22  4  0  0  0
 18 20  4  0  0  0
 23 18  4  0  0  0
 20 19  1  0  0  0
 22 21  4  0  0  0
 23 24  1  0  0  0
  2 25  1  0  0  0
  7 26  1  0  0  0
  7 27  1  0  0  0
  7 28  1  0  0  0
  8 29  1  0  0  0
  8 30  1  0  0  0
  8 31  1  0  0  0
  9 32  1  0  0  0
  9 33  1  0  0  0
  9 34  1  0  0  0
 10 35  1  0  0  0
 10 36  1  0  0  0
 11 37  1  0  0  0
 12 38  1  0  0  0
 13 39  1  0  0  0
 14 40  1  0  0  0
 15 41  1  0  0  0
 16 42  1  0  0  0
 17 43  1  0  0  0
M  END
$$$$
