4jaz_ligand
  -I-interpret- 

 29 30  0  0  0  0  0  0  0  0999 V2000
   15.8670   19.4060    9.8370 C   0  0  0  0  0
   14.4270   19.4980    9.8600 C   0  0  0  0  0
   13.8340   20.7400    9.4010 C   0  0  0  0  0
   14.6700   21.8450    8.9410 C   0  0  0  0  0
   16.1150   21.7000    8.9210 C   0  0  0  0  0
   16.7160   20.4740    9.3740 C   0  0  0  0  0
   17.0230   22.7370    8.4410 C   0  0  0  0  0
   16.5370   23.9320    7.8390 C   0  0  0  0  0
   17.3800   24.9920    7.3160 C   0  0  0  0  0
   18.8390   24.9170    7.3580 C   0  0  0  0  0
   19.6290   26.0230    6.8040 C   0  0  0  0  0
   18.9470   27.1540    6.2310 C   0  0  0  0  0
   17.4920   27.2470    6.1790 C   0  0  0  0  0
   16.7420   26.1330    6.7380 C   0  0  0  0  0
   19.6270   28.2120    5.6990 O   0  0  0  0  0
   12.4710   20.5070    9.4390 O   0  0  0  0  0
   16.3430   18.2240   10.2830 O   0  0  0  0  0
   13.8106   18.6690   10.2077 H   0  0  0  0  0
   14.2104   22.7774    8.6131 H   0  0  0  0  0
   17.7994   20.3546    9.3670 H   0  0  0  0  0
   18.0984   22.5931    8.5459 H   0  0  0  0  0
   15.4570   24.0600    7.7656 H   0  0  0  0  0
   19.3344   24.0502    7.7954 H   0  0  0  0  0
   20.7182   25.9885    6.8261 H   0  0  0  0  0
   16.9906   28.1105    5.7419 H   0  0  0  0  0
   15.6529   26.1697    6.7152 H   0  0  0  0  0
   19.0005   28.8606    5.3697 H   0  0  0  0  0
   12.0048   21.2932    9.1455 H   0  0  0  0  0
   17.3021   18.2302   10.2411 H   0  0  0  0  0
  1  2  4  0  0  0
  1  6  4  0  0  0
  1 17  1  0  0  0
  2  3  4  0  0  0
  3  4  4  0  0  0
  3 16  1  0  0  0
  4  5  4  0  0  0
  5  6  4  0  0  0
  5  7  1  0  0  0
  7  8  2  0  0  0
  8  9  1  0  0  0
  9 10  4  0  0  0
  9 14  4  0  0  0
 10 11  4  0  0  0
 11 12  4  0  0  0
 12 13  4  0  0  0
 12 15  1  0  0  0
 13 14  4  0  0  0
  2 18  1  0  0  0
  4 19  1  0  0  0
  6 20  1  0  0  0
  7 21  1  0  0  0
  8 22  1  0  0  0
 10 23  1  0  0  0
 11 24  1  0  0  0
 13 25  1  0  0  0
 14 26  1  0  0  0
 15 27  1  0  0  0
 16 28  1  0  0  0
 17 29  1  0  0  0
M  END
$$$$
