5ij7_ligand
  -I-interpret- 

 67 70  0  0  0  0  0  0  0  0999 V2000
   30.3620    4.4240  203.0880 C   0  0  0  0  0
   31.3080    4.4550  204.1370 C   0  0  0  0  0
   31.1030    5.3240  205.2020 C   0  0  0  0  0
   32.4930    3.5910  203.9680 C   0  0  0  0  0
   30.9950    2.0570  202.6890 C   0  0  0  0  0
   33.0550    0.1080  203.7450 C   0  0  0  0  0
   32.6630   -1.4400  205.5510 C   0  0  0  0  0
   31.8810   -3.7930  205.0730 C   0  0  0  0  0
   33.4550    0.8820  206.1480 C   0  0  0  0  0
   33.1680    0.5000  207.6070 C   0  0  0  0  0
   29.1390    8.2480  206.3250 C   0  0  0  0  0
   29.1540   10.7090  205.9930 C   0  0  0  0  0
   30.0370    6.2250  205.2120 C   0  0  0  0  0
   29.1260    6.2410  204.1700 C   0  0  0  0  0
   29.3020    5.3450  203.1330 C   0  0  0  0  0
   32.1090    5.2490  206.5980 Cl  0  0  0  0  0
   32.2620    2.3790  203.3640 N   0  0  0  0  0
   30.3940    3.3020  202.0750 C   0  0  0  0  0
   33.3660    1.4580  203.1490 C   0  0  0  0  0
   33.0580   -0.1310  205.0970 C   0  0  0  0  0
   32.3070   -2.4180  204.6720 C   0  0  0  0  0
   32.3310   -2.1540  203.3290 N   0  0  0  0  0
   32.6850   -0.9290  202.7820 C   0  0  0  0  0
   32.6260   -0.7730  201.5550 O   0  0  0  0  0
   33.6080    3.9460  204.3380 O   0  0  0  0  0
   28.1390    5.3680  201.8480 Cl  0  0  0  0  0
   30.0280    7.1160  206.2460 O   0  0  0  0  0
   29.8800    9.4130  205.7000 C   0  0  0  0  0
   28.9260   10.8960  207.4380 N   0  0  0  0  0
   28.2100    9.7690  208.0570 C   0  0  0  0  0
   28.9240    8.4540  207.8070 C   0  0  0  0  0
   29.1680   11.9940  208.1930 C   0  0  0  0  0
   29.6890   13.2760  207.5650 C   0  0  0  0  0
   28.7000   13.8240  206.5600 C   0  0  0  0  0
   29.8550   14.2270  208.6050 O   0  0  0  0  0
   28.9820   11.9940  209.3960 O   0  0  0  0  0
   30.2969    1.6489  203.4199 H   0  0  0  0  0
   31.1875    1.3295  201.9005 H   0  0  0  0  0
   32.6487   -1.6523  206.6200 H   0  0  0  0  0
   32.6871   -4.2748  205.6263 H   0  0  0  0  0
   30.9942   -3.7279  205.7034 H   0  0  0  0  0
   31.6521   -4.3758  204.1808 H   0  0  0  0  0
   34.5368    0.9903  206.0706 H   0  0  0  0  0
   32.8630    1.7748  205.9468 H   0  0  0  0  0
   32.0976    0.3391  207.7353 H   0  0  0  0  0
   33.7064   -0.4149  207.8544 H   0  0  0  0  0
   33.4969    1.3055  208.2636 H   0  0  0  0  0
   28.1827    8.1292  205.8156 H   0  0  0  0  0
   28.1850   10.6785  205.4949 H   0  0  0  0  0
   29.7689   11.5343  205.6341 H   0  0  0  0  0
   28.2915    6.9422  204.1676 H   0  0  0  0  0
   31.0024    3.6083  201.2240 H   0  0  0  0  0
   29.3756    3.0840  201.7533 H   0  0  0  0  0
   33.5258    1.3424  202.0770 H   0  0  0  0  0
   34.2588    1.8587  203.6290 H   0  0  0  0  0
   32.0722   -2.9056  202.6898 H   0  0  0  0  0
   29.9304    9.2673  204.6210 H   0  0  0  0  0
   30.8851    9.4636  206.1186 H   0  0  0  0  0
   27.2135    9.7101  207.6193 H   0  0  0  0  0
   28.1632    9.9380  209.1328 H   0  0  0  0  0
   29.8919    8.4735  208.3079 H   0  0  0  0  0
   28.3141    7.6382  208.1951 H   0  0  0  0  0
   30.6285   13.0743  207.0504 H   0  0  0  0  0
   28.5380   13.0876  205.7729 H   0  0  0  0  0
   27.7553   14.0365  207.0605 H   0  0  0  0  0
   29.0966   14.7414  206.1250 H   0  0  0  0  0
   30.1844   15.0495  208.2354 H   0  0  0  0  0
  2  1  4  0  0  0
  1 15  4  0  0  0
 18  1  1  0  0  0
  2  3  4  0  0  0
  4  2  1  0  0  0
  3 13  4  0  0  0
  3 16  1  0  0  0
 17  4  1  0  0  0
  4 25  2  0  0  0
 17  5  1  0  0  0
  5 18  1  0  0  0
 19  6  1  0  0  0
  6 20  2  0  0  0
  6 23  1  0  0  0
 20  7  1  0  0  0
  7 21  2  0  0  0
 21  8  1  0  0  0
  9 10  1  0  0  0
 20  9  1  0  0  0
 27 11  1  0  0  0
 11 28  1  0  0  0
 11 31  1  0  0  0
 28 12  1  0  0  0
 12 29  1  0  0  0
 13 14  4  0  0  0
 13 27  1  0  0  0
 15 14  4  0  0  0
 15 26  1  0  0  0
 17 19  1  0  0  0
 21 22  1  0  0  0
 22 23  1  0  0  0
 23 24  2  0  0  0
 29 30  1  0  0  0
 29 32  1  0  0  0
 30 31  1  0  0  0
 32 33  1  0  0  0
 32 36  2  0  0  0
 33 34  1  0  0  0
 33 35  1  0  0  0
  5 37  1  0  0  0
  5 38  1  0  0  0
  7 39  1  0  0  0
  8 40  1  0  0  0
  8 41  1  0  0  0
  8 42  1  0  0  0
  9 43  1  0  0  0
  9 44  1  0  0  0
 10 45  1  0  0  0
 10 46  1  0  0  0
 10 47  1  0  0  0
 11 48  1  0  0  0
 12 49  1  0  0  0
 12 50  1  0  0  0
 14 51  1  0  0  0
 18 52  1  0  0  0
 18 53  1  0  0  0
 19 54  1  0  0  0
 19 55  1  0  0  0
 22 56  1  0  0  0
 28 57  1  0  0  0
 28 58  1  0  0  0
 30 59  1  0  0  0
 30 60  1  0  0  0
 31 61  1  0  0  0
 31 62  1  0  0  0
 33 63  1  0  0  0
 34 64  1  0  0  0
 34 65  1  0  0  0
 34 66  1  0  0  0
 35 67  1  0  0  0
M  END
$$$$
