1wht_ligand
  -I-interpret- 

 27 27  0  0  0  0  0  0  0  0999 V2000
   66.2650   32.3170   71.9920 C   0  0  0  0  0
   65.8040   33.7440   72.3260 C   0  0  0  0  0
   64.4170   33.8480   73.0340 C   0  0  0  0  0
   63.3680   33.0550   72.3240 C   0  0  0  0  0
   63.8890   35.2680   73.1360 C   0  0  0  0  0
   63.8640   35.9840   71.8330 C   0  0  0  0  0
   62.8890   35.7060   70.8730 C   0  0  0  0  0
   64.8570   36.9340   71.5690 C   0  0  0  0  0
   62.9350   36.4120   69.6660 C   0  0  0  0  0
   64.8970   37.6770   70.3890 C   0  0  0  0  0
   63.9190   37.3880   69.4310 C   0  0  0  0  0
   66.1820   31.3660   72.8620 O   0  0  0  0  0
   66.7490   32.1670   70.8690 O   0  0  0  0  0
   62.3620   32.8050   72.9780 O   0  0  0  0  0
   63.5310   32.7750   71.1280 O   0  0  0  0  0
   65.7105   34.2720   71.3770 H   0  0  0  0  0
   66.5391   34.1558   73.0175 H   0  0  0  0  0
   64.6038   33.4559   74.0337 H   0  0  0  0  0
   64.5543   35.8189   73.8008 H   0  0  0  0  0
   62.8630   35.2116   73.4996 H   0  0  0  0  0
   62.1151   34.9612   71.0584 H   0  0  0  0  0
   65.6321   37.1005   72.3171 H   0  0  0  0  0
   62.1947   36.2015   68.8942 H   0  0  0  0  0
   65.6526   38.4446   70.2216 H   0  0  0  0  0
   63.9201   37.9296   68.4851 H   0  0  0  0  0
   65.7740   31.7018   73.6635 H   0  0  0  0  0
   64.3987   33.0736   70.8460 H   0  0  0  0  0
  1 13  2  0  0  0
  1 12  1  0  0  0
  1  2  1  0  0  0
  2  3  1  0  0  0
  3  5  1  0  0  0
  3  4  1  0  0  0
  4 15  1  0  0  0
  4 14  2  0  0  0
  5  6  1  0  0  0
  6  8  4  0  0  0
  6  7  4  0  0  0
  7  9  4  0  0  0
  9 11  4  0  0  0
 11 10  4  0  0  0
 10  8  4  0  0  0
  2 16  1  0  0  0
  2 17  1  0  0  0
  3 18  1  0  0  0
  5 19  1  0  0  0
  5 20  1  0  0  0
  7 21  1  0  0  0
  8 22  1  0  0  0
  9 23  1  0  0  0
 10 24  1  0  0  0
 11 25  1  0  0  0
 12 26  1  0  0  0
 15 27  1  0  0  0
M  END
$$$$
