### 
### Created by X-TOOL on Mon Sep 10 21:13:27 2018
### 

@<TRIPOS>MOLECULE
5dxg_ligand
  209   210     1     0     0
SMALL
GAST_HUCK


@<TRIPOS>ATOM
      1 N          29.6940   24.4970    7.6990 N.4       1 HIS         0.2394
      2 CA         28.4590   23.7130    7.5530 C.3       1 HIS         0.0761
      3 C          28.7830   22.2470    7.1380 C.2       1 HIS         0.2288
      4 O          29.7990   21.9370    6.5500 O.2       1 HIS        -0.3905
      5 CB         27.5210   24.3930    6.5600 C.3       1 HIS         0.0628
      6 CG         26.8390   25.6490    7.0960 C.2       1 HIS         0.0593
      7 ND1        25.9820   25.7000    8.0940 N.pl3     1 HIS        -0.2622
      8 CD2        27.0210   26.8490    6.6200 C.2       1 HIS        -0.0274
      9 CE1        25.6460   26.9760    8.2440 C.2       1 HIS         0.0875
     10 NE2        26.2770   27.6760    7.3230 N.2       1 HIS        -0.3437
     11 N          27.9330   21.3280    7.5690 N.am      1 LYS        -0.2609
     12 CA         28.0860   19.9120    7.2880 C.3       1 LYS         0.1308
     13 C          28.1060   19.6620    5.7720 C.2       1 LYS         0.2010
     14 O          27.5180   20.3650    4.9850 O.2       1 LYS        -0.3947
     15 CB         26.8890   19.1960    7.8210 C.3       1 LYS        -0.0122
     16 CG         26.7090   19.5740    9.2590 C.3       1 LYS        -0.0440
     17 CD         25.7580   18.6730    9.9130 C.3       1 LYS        -0.0124
     18 CE         25.8930   18.8080   11.4050 C.3       1 LYS        -0.0354
     19 NZ         24.6510   18.4460   12.0770 N.4       1 LYS         0.2185
     20 N          28.7760   18.5900    5.4330 N.am      1 MH8        -0.2743
     21 CA         28.8770   18.2270    4.0440 C.3       1 MH8         0.1302
     22 CB1        29.5730   19.3500    3.2930 C.3       1 MH8        -0.0320
     23 CB2        29.7200   16.9490    3.9660 C.3       1 MH8        -0.0201
     24 CG         29.4370   16.0780    2.7640 C.3       1 MH8        -0.0516
     25 CD         30.5630   15.1590    2.2920 C.3       1 MH8        -0.0534
     26 CE         31.4430   14.7410    3.4350 C.3       1 MH8        -0.0559
     27 CZ         32.3450   15.8310    3.9150 C.3       1 MH8        -0.0653
     28 C          27.4640   18.0190    3.4370 C.2       1 MH8         0.2263
     29 O          27.2100   18.4070    2.3350 O.2       1 MH8        -0.3419
     30 N          26.5980   17.3970    4.1790 N.am      1 LEU        -0.2629
     31 CA         25.2210   17.1470    3.7610 C.3       1 LEU         0.1314
     32 C          24.5000   18.4430    3.3890 C.2       1 LEU         0.2042
     33 O          23.7330   18.4240    2.4580 O.2       1 LEU        -0.3944
     34 CB         24.5240   16.4670    4.9070 C.3       1 LEU        -0.0099
     35 CG         23.1000   16.0440    4.5910 C.3       1 LEU        -0.0425
     36 CD1        23.0130   15.2930    3.2750 C.3       1 LEU        -0.0625
     37 CD2        22.5760   15.2070    5.7190 C.3       1 LEU        -0.0625
     38 N          24.7550   19.5140    4.1340 N.am      1 HIS        -0.2619
     39 CA         24.1080   20.8120    3.9050 C.3       1 HIS         0.1421
     40 C          24.3510   21.2980    2.4440 C.2       1 HIS         0.2060
     41 O          23.4780   21.8060    1.7750 O.2       1 HIS        -0.3942
     42 CB         24.6270   21.8130    4.8850 C.3       1 HIS         0.0427
     43 CG         23.9940   23.1790    4.7530 C.2       1 HIS         0.0561
     44 ND1        22.9480   23.6020    5.3890 N.pl3     1 HIS        -0.2623
     45 CD2        24.4580   24.1310    4.0130 C.2       1 HIS        -0.0276
     46 CE1        22.7470   24.8240    5.0240 C.2       1 HIS         0.0875
     47 NE2        23.6820   25.1510    4.1790 N.2       1 HIS        -0.3437
     48 N          25.5940   21.1210    2.0580 N.am      1 ARG        -0.2636
     49 CA         26.0450   21.4450    0.7080 C.3       1 ARG         0.1308
     50 C          25.4620   20.4340   -0.2890 C.2       1 ARG         0.2010
     51 O          24.9090   20.8370   -1.2450 O.2       1 ARG        -0.3947
     52 CB         27.5540   21.5180    0.5600 C.3       1 ARG        -0.0092
     53 CG         28.0020   21.7240   -0.8870 C.3       1 ARG        -0.0156
     54 CD         27.7250   23.1180   -1.4240 C.3       1 ARG         0.0627
     55 NE         27.8780   23.1360   -2.8800 N.pl3     1 ARG        -0.2723
     56 CZ         28.9830   23.4350   -3.5280 C.cat     1 ARG         0.2882
     57 NH1        30.0820   23.7260   -2.8570 N.pl3     1 ARG        -0.2849
     58 NH2        29.0300   23.3890   -4.8630 N.pl3     1 ARG        -0.2849
     59 N          25.6220   19.1550   -0.0060 N.am      1 MH8        -0.2743
     60 CA         25.1090   18.1580   -0.9760 C.3       1 MH8         0.1302
     61 CB1        25.8930   18.3020   -2.2620 C.3       1 MH8        -0.0320
     62 CB2        25.2580   16.7690   -0.4750 C.3       1 MH8        -0.0201
     63 CG         26.6530   16.4450   -0.0780 C.3       1 MH8        -0.0516
     64 CD         26.9800   14.9570   -0.1250 C.3       1 MH8        -0.0534
     65 CE         25.8570   14.1010    0.3020 C.3       1 MH8        -0.0559
     66 CZ         25.5140   12.9360   -0.5950 C.3       1 MH8        -0.0653
     67 C          23.6270   18.3190   -1.2860 C.2       1 MH8         0.2263
     68 O          23.2040   18.0320   -2.3550 O.2       1 MH8        -0.3419
     69 N          22.8490   18.7100   -0.3190 N.am      1 LEU        -0.2629
     70 CA         21.4080   18.8840   -0.5230 C.3       1 LEU         0.1314
     71 C          21.0680   19.9840   -1.5600 C.2       1 LEU         0.2041
     72 O          19.9780   20.0620   -2.0210 O.2       1 LEU        -0.3944
     73 CB         20.7480   19.1880    0.8010 C.3       1 LEU        -0.0099
     74 CG         20.5240   17.9400    1.6540 C.3       1 LEU        -0.0425
     75 CD1        20.2360   18.3520    3.0590 C.3       1 LEU        -0.0625
     76 CD2        19.3180   17.1780    1.1660 C.3       1 LEU        -0.0625
     77 N          21.9990   20.8490   -1.8090 N.am      1 GLN        -0.2636
     78 CA         21.7490   21.9790   -2.7310 C.3       1 GLN         0.1330
     79 C          22.0140   21.6850   -4.2400 C.2       1 GLN         0.2041
     80 O          21.6140   22.3900   -5.1280 O.2       1 GLN        -0.3944
     81 CB         22.5310   23.2140   -2.2650 C.3       1 GLN         0.0045
     82 CG         22.0600   23.7000   -0.8960 C.3       1 GLN         0.0412
     83 CD         22.9820   24.7840   -0.3420 C.2       1 GLN         0.1737
     84 OE1        23.7180   24.5800    0.5940 O.2       1 GLN        -0.3973
     85 NE2        22.9380   25.8670   -0.9520 N.am      1 GLN        -0.3009
     86 N          22.7870   20.6730   -4.4760 N.am      1 ASP        -0.2622
     87 CA         23.1410   20.2710   -5.8170 C.3       1 ASP         0.1423
     88 C          21.9240   19.5470   -6.3530 C.2       1 ASP         0.2054
     89 O          21.7680   18.3660   -6.2940 O.2       1 ASP        -0.3943
     90 CB         24.4260   19.4670   -5.8270 C.3       1 ASP         0.0406
     91 CG         25.6680   20.2260   -5.3040 C.2       1 ASP         0.0393
     92 OD1        25.5610   21.3750   -4.8130 O.co2     1 ASP        -0.5688
     93 OD2        26.7160   19.5860   -5.3290 O.co2     1 ASP        -0.5688
     94 N          20.9650   20.3260   -6.7140 N.am      1 SER        -0.2663
     95 CA         19.7020   19.8340   -7.2130 C.3       1 SER         0.1198
     96 CB         19.9910   19.7050   -8.6600 C.2       1 SER         0.1960
     97 OG         19.6890   20.6240   -9.4060 O.2       1 SER        -0.3951
     98 N          20.6700   18.6020   -8.9810 N.am      1 NH2        -0.2992
     99 H1         29.4631   25.4408    7.9674 H         1 HIS         0.2017
    100 H2         30.1901   24.5091    6.8216 H         1 HIS         0.2017
    101 H3         30.2756   24.0788    8.4082 H         1 HIS         0.2017
    102 H4         27.9540   23.6826    8.5298 H         1 HIS         0.1123
    103 H5         26.7402   23.6724    6.2753 H         1 HIS         0.0525
    104 H6         28.1049   24.6716    5.6704 H         1 HIS         0.0525
    105 H7         25.6386   24.9043    8.6507 H         1 HIS         0.2386
    106 H8         27.6719   27.1186    5.7896 H         1 HIS         0.0324
    107 H9         24.9674   27.3744    8.9968 H         1 HIS         0.1149
    108 H10        27.1483   21.6233    8.1140 H         1 LYS         0.1885
    109 H11        29.0085   19.5326    7.7518 H         1 LYS         0.0800
    110 H12        27.0399   18.1095    7.7393 H         1 LYS         0.0312
    111 H13        25.9969   19.4865    7.2468 H         1 LYS         0.0312
    112 H14        26.3292   20.6047    9.3172 H         1 LYS         0.0269
    113 H15        27.6792   19.5111    9.7736 H         1 LYS         0.0269
    114 H16        25.9713   17.6353    9.6169 H         1 LYS         0.0317
    115 H17        24.7338   18.9373    9.6111 H         1 LYS         0.0317
    116 H18        26.1442   19.8504   11.6506 H         1 LYS         0.0813
    117 H19        26.6977   18.1447   11.7548 H         1 LYS         0.0813
    118 H20        24.7671   18.5446   13.0734 H         1 LYS         0.1994
    119 H21        24.4172   17.4901   11.8589 H         1 LYS         0.1994
    120 H22        23.9100   19.0531   11.7634 H         1 LYS         0.1994
    121 H23        29.2145   18.0274    6.1339 H         1 MH8         0.1839
    122 H24        29.6559   19.0833    2.2290 H         1 MH8         0.0242
    123 H25        30.5785   19.5032    3.7119 H         1 MH8         0.0242
    124 H26        28.9884   20.2763    3.3943 H         1 MH8         0.0242
    125 H27        29.5273   16.3556    4.8720 H         1 MH8         0.0277
    126 H28        30.7806   17.2394    3.9365 H         1 MH8         0.0277
    127 H29        29.1780   16.7424    1.9265 H         1 MH8         0.0265
    128 H30        28.5725   15.4439    3.0099 H         1 MH8         0.0265
    129 H31        31.1723   15.6924    1.5475 H         1 MH8         0.0265
    130 H32        30.1238   14.2618    1.8316 H         1 MH8         0.0265
    131 H33        32.0631   13.8938    3.1067 H         1 MH8         0.0263
    132 H34        30.8024   14.4242    4.2712 H         1 MH8         0.0263
    133 H35        32.9585   15.4587    4.7487 H         1 MH8         0.0230
    134 H36        31.7400   16.6836    4.2572 H         1 MH8         0.0230
    135 H37        33.0007   16.1532    3.0926 H         1 MH8         0.0230
    136 H38        26.8881   17.0738    5.0798 H         1 LEU         0.1889
    137 H39        25.2225   16.4817    2.8850 H         1 LEU         0.0802
    138 H40        24.4988   17.1616    5.7596 H         1 LEU         0.0315
    139 H41        25.0998   15.5707    5.1811 H         1 LEU         0.0315
    140 H42        22.4796   16.9486    4.5084 H         1 LEU         0.0298
    141 H43        21.9682   15.0060    3.0850 H         1 LEU         0.0232
    142 H44        23.6379   14.3892    3.3266 H         1 LEU         0.0232
    143 H45        23.3697   15.9394    2.4596 H         1 LEU         0.0232
    144 H46        22.6496   15.7722    6.6598 H         1 LEU         0.0232
    145 H47        23.1701   14.2846    5.7979 H         1 LEU         0.0232
    146 H48        21.5238   14.9501    5.5270 H         1 LEU         0.0232
    147 H49        25.4146   19.4323    4.8811 H         1 HIS         0.1885
    148 H50        23.0249   20.6974    4.0588 H         1 HIS         0.0824
    149 H51        25.7115   21.9170    4.7334 H         1 HIS         0.0491
    150 H52        24.4330   21.4373    5.9005 H         1 HIS         0.0491
    151 H53        22.3821   23.0639    6.0607 H         1 HIS         0.2386
    152 H54        25.3364   24.0830    3.3711 H         1 HIS         0.0324
    153 H55        21.9373   25.4683    5.3634 H         1 HIS         0.1149
    154 H56        26.2543   20.7514    2.7117 H         1 ARG         0.1883
    155 H57        25.6452   22.4391    0.4591 H         1 ARG         0.0800
    156 H58        27.9887   20.5782    0.9313 H         1 ARG         0.0313
    157 H59        27.9255   22.3581    1.1651 H         1 ARG         0.0313
    158 H60        27.4725   20.9972   -1.5205 H         1 ARG         0.0301
    159 H61        29.0849   21.5397   -0.9440 H         1 ARG         0.0301
    160 H62        28.4345   23.8285   -0.9749 H         1 ARG         0.0689
    161 H63        26.6975   23.4111   -1.1626 H         1 ARG         0.0689
    162 H64        27.0509   22.8942   -3.4443 H         1 ARG         0.2642
    163 H65        30.9478   23.9603   -3.3634 H         1 ARG         0.2615
    164 H66        30.0737   23.7188   -1.8271 H         1 ARG         0.2615
    165 H67        28.1810   23.1634   -5.4007 H         1 ARG         0.2615
    166 H68        29.9152   23.5792   -5.3540 H         1 ARG         0.2615
    167 H69        26.0756   18.8669    0.8374 H         1 MH8         0.1839
    168 H70        25.5282   17.5701   -2.9977 H         1 MH8         0.0242
    169 H71        26.9597   18.1216   -2.0633 H         1 MH8         0.0242
    170 H72        25.7610   19.3189   -2.6600 H         1 MH8         0.0242
    171 H73        24.9486   16.0740   -1.2695 H         1 MH8         0.0277
    172 H74        24.6047   16.6394    0.4004 H         1 MH8         0.0277
    173 H75        26.8120   16.8020    0.9502 H         1 MH8         0.0265
    174 H76        27.3378   16.9715   -0.7590 H         1 MH8         0.0265
    175 H77        27.8366   14.7662    0.5382 H         1 MH8         0.0265
    176 H78        27.2493   14.6908   -1.1577 H         1 MH8         0.0265
    177 H79        24.9630   14.7373    0.3785 H         1 MH8         0.0263
    178 H80        26.1049   13.6961    1.2942 H         1 MH8         0.0263
    179 H81        24.6656   12.3815   -0.1675 H         1 MH8         0.0230
    180 H82        26.3842   12.2682   -0.6776 H         1 MH8         0.0230
    181 H83        25.2423   13.3095   -1.5933 H         1 MH8         0.0230
    182 H84        23.2422   18.8955    0.5815 H         1 LEU         0.1889
    183 H85        21.0044   17.9333   -0.9015 H         1 LEU         0.0802
    184 H86        19.7736   19.6602    0.6073 H         1 LEU         0.0315
    185 H87        21.3887   19.8853    1.3607 H         1 LEU         0.0315
    186 H88        21.4177   17.2998    1.6170 H         1 LEU         0.0298
    187 H89        20.0739   17.4570    3.6776 H         1 LEU         0.0232
    188 H90        19.3332   18.9801    3.0792 H         1 LEU         0.0232
    189 H91        21.0886   18.9225    3.4559 H         1 LEU         0.0232
    190 H92        19.4852   16.8523    0.1287 H         1 LEU         0.0232
    191 H93        18.4318   17.8283    1.2078 H         1 LEU         0.0232
    192 H94        19.1572   16.2975    1.8054 H         1 LEU         0.0232
    193 H95        22.8945   20.7525   -1.3745 H         1 GLN         0.1883
    194 H96        20.6786   22.2182   -2.6478 H         1 GLN         0.0801
    195 H97        22.3898   24.0222   -2.9977 H         1 GLN         0.0337
    196 H98        23.5988   22.9571   -2.2036 H         1 GLN         0.0337
    197 H99        22.0485   22.8493   -0.1987 H         1 GLN         0.0504
    198 H100       21.0435   24.1094   -0.9918 H         1 GLN         0.0504
    199 H101       23.5102   26.6316   -0.6554 H         1 GLN         0.1814
    200 H102       22.3304   25.9732   -1.7391 H         1 GLN         0.1814
    201 H103       23.1509   20.1525   -3.7036 H         1 ASP         0.1884
    202 H104       23.3110   21.1674   -6.4314 H         1 ASP         0.0819
    203 H105       24.6265   19.1545   -6.8624 H         1 ASP         0.0478
    204 H106       24.2782   18.5771   -5.1975 H         1 ASP         0.0478
    205 H107       21.1002   21.3145   -6.6460 H         1 SER         0.1881
    206 H108       18.8889   20.5512   -7.0273 H         1 SER         0.0763
    207 H109       19.4434   18.8627   -6.7661 H         1 SER         0.0763
    208 H110       20.9134   18.4244   -9.9345 H         1 NH2         0.1815
    209 H111       20.9354   17.9530   -8.2680 H         1 NH2         0.1815
@<TRIPOS>BOND
     1    1    2 1  
     2    2    3 1  
     3    2    5 1  
     4    3    4 2  
     5    3   11 am 
     6    5    6 1  
     7    6    7 1  
     8    6    8 2  
     9    7    9 1  
    10    8   10 1  
    11    9   10 2  
    12   11   12 1  
    13   12   13 1  
    14   12   15 1  
    15   13   14 2  
    16   13   20 am 
    17   15   16 1  
    18   16   17 1  
    19   17   18 1  
    20   18   19 1  
    21   20   21 1  
    22   21   22 1  
    23   21   23 1  
    24   21   28 1  
    25   23   24 1  
    26   24   25 1  
    27   25   26 1  
    28   26   27 1  
    29   28   29 2  
    30   28   30 am 
    31   30   31 1  
    32   31   32 1  
    33   31   34 1  
    34   32   33 2  
    35   32   38 am 
    36   34   35 1  
    37   35   36 1  
    38   35   37 1  
    39   38   39 1  
    40   39   40 1  
    41   39   42 1  
    42   40   41 2  
    43   40   48 am 
    44   42   43 1  
    45   43   44 1  
    46   43   45 2  
    47   44   46 1  
    48   45   47 1  
    49   46   47 2  
    50   48   49 1  
    51   49   50 1  
    52   49   52 1  
    53   50   51 2  
    54   50   59 am 
    55   52   53 1  
    56   53   54 1  
    57   54   55 1  
    58   55   56 ar 
    59   56   57 ar 
    60   56   58 ar 
    61   59   60 1  
    62   60   61 1  
    63   60   62 1  
    64   60   67 1  
    65   62   63 1  
    66   63   64 1  
    67   64   65 1  
    68   65   66 1  
    69   67   68 2  
    70   67   69 am 
    71   69   70 1  
    72   70   71 1  
    73   70   73 1  
    74   71   72 2  
    75   71   77 am 
    76   73   74 1  
    77   74   75 1  
    78   74   76 1  
    79   77   78 1  
    80   78   79 1  
    81   78   81 1  
    82   79   80 2  
    83   79   86 am 
    84   81   82 1  
    85   82   83 1  
    86   83   84 2  
    87   83   85 am 
    88   86   87 1  
    89   87   88 1  
    90   87   90 1  
    91   88   89 2  
    92   88   94 am 
    93   90   91 1  
    94   91   92 ar 
    95   91   93 ar 
    96   94   95 1  
    97   95   96 1  
    98   96   97 2  
    99   96   98 am 
   100    1   99 1  
   101    1  100 1  
   102    1  101 1  
   103    2  102 1  
   104    5  103 1  
   105    5  104 1  
   106    7  105 1  
   107    8  106 1  
   108    9  107 1  
   109   11  108 1  
   110   12  109 1  
   111   15  110 1  
   112   15  111 1  
   113   16  112 1  
   114   16  113 1  
   115   17  114 1  
   116   17  115 1  
   117   18  116 1  
   118   18  117 1  
   119   19  118 1  
   120   19  119 1  
   121   19  120 1  
   122   20  121 1  
   123   22  122 1  
   124   22  123 1  
   125   22  124 1  
   126   23  125 1  
   127   23  126 1  
   128   24  127 1  
   129   24  128 1  
   130   25  129 1  
   131   25  130 1  
   132   26  131 1  
   133   26  132 1  
   134   27  133 1  
   135   27  134 1  
   136   27  135 1  
   137   30  136 1  
   138   31  137 1  
   139   34  138 1  
   140   34  139 1  
   141   35  140 1  
   142   36  141 1  
   143   36  142 1  
   144   36  143 1  
   145   37  144 1  
   146   37  145 1  
   147   37  146 1  
   148   38  147 1  
   149   39  148 1  
   150   42  149 1  
   151   42  150 1  
   152   44  151 1  
   153   45  152 1  
   154   46  153 1  
   155   48  154 1  
   156   49  155 1  
   157   52  156 1  
   158   52  157 1  
   159   53  158 1  
   160   53  159 1  
   161   54  160 1  
   162   54  161 1  
   163   55  162 1  
   164   57  163 1  
   165   57  164 1  
   166   58  165 1  
   167   58  166 1  
   168   59  167 1  
   169   61  168 1  
   170   61  169 1  
   171   61  170 1  
   172   62  171 1  
   173   62  172 1  
   174   63  173 1  
   175   63  174 1  
   176   64  175 1  
   177   64  176 1  
   178   65  177 1  
   179   65  178 1  
   180   66  179 1  
   181   66  180 1  
   182   66  181 1  
   183   69  182 1  
   184   70  183 1  
   185   73  184 1  
   186   73  185 1  
   187   74  186 1  
   188   75  187 1  
   189   75  188 1  
   190   75  189 1  
   191   76  190 1  
   192   76  191 1  
   193   76  192 1  
   194   77  193 1  
   195   78  194 1  
   196   81  195 1  
   197   81  196 1  
   198   82  197 1  
   199   82  198 1  
   200   85  199 1  
   201   85  200 1  
   202   86  201 1  
   203   87  202 1  
   204   90  203 1  
   205   90  204 1  
   206   94  205 1  
   207   95  206 1  
   208   95  207 1  
   209   98  208 1  
   210   98  209 1  
@<TRIPOS>SUBSTRUCTURE
     1 HIS         1

