5dxg_ligand
  -I-interpret- 

207208  0  0  0  0  0  0  0  0999 V2000
   29.6940   24.4970    7.6990 N   0  3  0  0  0
   28.4590   23.7130    7.5530 C   0  0  0  0  0
   28.7830   22.2470    7.1380 C   0  0  0  0  0
   29.7990   21.9370    6.5500 O   0  0  0  0  0
   27.5210   24.3930    6.5600 C   0  0  0  0  0
   26.8390   25.6490    7.0960 C   0  0  0  0  0
   25.9820   25.7000    8.0940 N   0  0  0  0  0
   27.0210   26.8490    6.6200 C   0  0  0  0  0
   25.6460   26.9760    8.2440 C   0  0  0  0  0
   26.2770   27.6760    7.3230 N   0  0  0  0  0
   27.9330   21.3280    7.5690 N   0  0  0  0  0
   28.0860   19.9120    7.2880 C   0  0  0  0  0
   28.1060   19.6620    5.7720 C   0  0  0  0  0
   27.5180   20.3650    4.9850 O   0  0  0  0  0
   26.8890   19.1960    7.8210 C   0  0  0  0  0
   26.7090   19.5740    9.2590 C   0  0  0  0  0
   25.7580   18.6730    9.9130 C   0  0  0  0  0
   25.8930   18.8080   11.4050 C   0  0  0  0  0
   24.6510   18.4460   12.0770 N   0  3  0  0  0
   28.7760   18.5900    5.4330 N   0  0  0  0  0
   28.8770   18.2270    4.0440 C   0  0  0  0  0
   29.5730   19.3500    3.2930 C   0  0  0  0  0
   29.7200   16.9490    3.9660 C   0  0  0  0  0
   29.4370   16.0780    2.7640 C   0  0  0  0  0
   30.5630   15.1590    2.2920 C   0  0  0  0  0
   31.4430   14.7410    3.4350 C   0  0  0  0  0
   32.3450   15.8310    3.9150 C   0  0  0  0  0
   27.4640   18.0190    3.4370 C   0  0  0  0  0
   27.2100   18.4070    2.3350 O   0  0  0  0  0
   26.5980   17.3970    4.1790 N   0  0  0  0  0
   25.2210   17.1470    3.7610 C   0  0  0  0  0
   24.5000   18.4430    3.3890 C   0  0  0  0  0
   23.7330   18.4240    2.4580 O   0  0  0  0  0
   24.5240   16.4670    4.9070 C   0  0  0  0  0
   23.1000   16.0440    4.5910 C   0  0  0  0  0
   23.0130   15.2930    3.2750 C   0  0  0  0  0
   22.5760   15.2070    5.7190 C   0  0  0  0  0
   24.7550   19.5140    4.1340 N   0  0  0  0  0
   24.1080   20.8120    3.9050 C   0  0  0  0  0
   24.3510   21.2980    2.4440 C   0  0  0  0  0
   23.4780   21.8060    1.7750 O   0  0  0  0  0
   24.6270   21.8130    4.8850 C   0  0  0  0  0
   23.9940   23.1790    4.7530 C   0  0  0  0  0
   22.9480   23.6020    5.3890 N   0  0  0  0  0
   24.4580   24.1310    4.0130 C   0  0  0  0  0
   22.7470   24.8240    5.0240 C   0  0  0  0  0
   23.6820   25.1510    4.1790 N   0  0  0  0  0
   25.5940   21.1210    2.0580 N   0  0  0  0  0
   26.0450   21.4450    0.7080 C   0  0  0  0  0
   25.4620   20.4340   -0.2890 C   0  0  0  0  0
   24.9090   20.8370   -1.2450 O   0  0  0  0  0
   27.5540   21.5180    0.5600 C   0  0  0  0  0
   28.0020   21.7240   -0.8870 C   0  0  0  0  0
   27.7250   23.1180   -1.4240 C   0  0  0  0  0
   27.8780   23.1360   -2.8800 N   0  0  0  0  0
   28.9830   23.4350   -3.5280 C   0  0  0  0  0
   30.0820   23.7260   -2.8570 N   0  0  0  0  0
   29.0300   23.3890   -4.8630 N   0  0  0  0  0
   25.6220   19.1550   -0.0060 N   0  0  0  0  0
   25.1090   18.1580   -0.9760 C   0  0  0  0  0
   25.8930   18.3020   -2.2620 C   0  0  0  0  0
   25.2580   16.7690   -0.4750 C   0  0  0  0  0
   26.6530   16.4450   -0.0780 C   0  0  0  0  0
   26.9800   14.9570   -0.1250 C   0  0  0  0  0
   25.8570   14.1010    0.3020 C   0  0  0  0  0
   25.5140   12.9360   -0.5950 C   0  0  0  0  0
   23.6270   18.3190   -1.2860 C   0  0  0  0  0
   23.2040   18.0320   -2.3550 O   0  0  0  0  0
   22.8490   18.7100   -0.3190 N   0  0  0  0  0
   21.4080   18.8840   -0.5230 C   0  0  0  0  0
   21.0680   19.9840   -1.5600 C   0  0  0  0  0
   19.9780   20.0620   -2.0210 O   0  0  0  0  0
   20.7480   19.1880    0.8010 C   0  0  0  0  0
   20.5240   17.9400    1.6540 C   0  0  0  0  0
   20.2360   18.3520    3.0590 C   0  0  0  0  0
   19.3180   17.1780    1.1660 C   0  0  0  0  0
   21.9990   20.8490   -1.8090 N   0  0  0  0  0
   21.7490   21.9790   -2.7310 C   0  0  0  0  0
   22.0140   21.6850   -4.2400 C   0  0  0  0  0
   21.6140   22.3900   -5.1280 O   0  0  0  0  0
   22.5310   23.2140   -2.2650 C   0  0  0  0  0
   22.0600   23.7000   -0.8960 C   0  0  0  0  0
   22.9820   24.7840   -0.3420 C   0  0  0  0  0
   23.7180   24.5800    0.5940 O   0  0  0  0  0
   22.9380   25.8670   -0.9520 N   0  0  0  0  0
   22.7870   20.6730   -4.4760 N   0  0  0  0  0
   23.1410   20.2710   -5.8170 C   0  0  0  0  0
   21.9240   19.5470   -6.3530 C   0  0  0  0  0
   21.7680   18.3660   -6.2940 O   0  0  0  0  0
   24.4260   19.4670   -5.8270 C   0  0  0  0  0
   25.6680   20.2260   -5.3040 C   0  0  0  0  0
   25.5610   21.3750   -4.8130 O   0  0  0  0  0
   26.7160   19.5860   -5.3290 O   0  0  0  0  0
   20.9650   20.3260   -6.7140 N   0  0  0  0  0
   19.7020   19.8340   -7.2130 C   0  0  0  0  0
   19.9910   19.7050   -8.6600 C   0  0  0  0  0
   19.6890   20.6240   -9.4060 O   0  0  0  0  0
   20.6700   18.6020   -8.9810 N   0  0  0  0  0
   30.3128   24.0336    8.3644 H   0  0  0  0  0
   30.1587   24.5689    6.7938 H   0  0  0  0  0
   29.4644   25.4306    8.0398 H   0  0  0  0  0
   27.9491   23.6685    8.5154 H   0  0  0  0  0
   26.7335   23.6778    6.3225 H   0  0  0  0  0
   28.1255   24.6970    5.7054 H   0  0  0  0  0
   27.6725   27.1188    5.7889 H   0  0  0  0  0
   24.9668   27.3747    8.9975 H   0  0  0  0  0
   27.1326   21.6292    8.1249 H   0  0  0  0  0
   29.0149   19.5658    7.7411 H   0  0  0  0  0
   27.0314   18.1188    7.7349 H   0  0  0  0  0
   26.0038   19.4754    7.2496 H   0  0  0  0  0
   26.3241   20.5924    9.3112 H   0  0  0  0  0
   27.6709   19.5014    9.7665 H   0  0  0  0  0
   25.9674   17.6446    9.6187 H   0  0  0  0  0
   24.7428   18.9329    9.6130 H   0  0  0  0  0
   26.1294   19.8453   11.6422 H   0  0  0  0  0
   26.6831   18.1392   11.7465 H   0  0  0  0  0
   24.7696   18.5461   13.0851 H   0  0  0  0  0
   23.9020   19.0609   11.7589 H   0  0  0  0  0
   24.4155   17.4786   11.8556 H   0  0  0  0  0
   29.2232   18.0161    6.1479 H   0  0  0  0  0
   28.9928   20.2672    3.3942 H   0  0  0  0  0
   30.5691   19.5009    3.7091 H   0  0  0  0  0
   29.6545   19.0846    2.2390 H   0  0  0  0  0
   29.4814   16.3572    4.8497 H   0  0  0  0  0
   30.7621   17.2603    3.8938 H   0  0  0  0  0
   29.2467   16.7635    1.9382 H   0  0  0  0  0
   28.6200   15.4197    3.0595 H   0  0  0  0  0
   31.1707   15.6998    1.5665 H   0  0  0  0  0
   30.1198   14.2660    1.8512 H   0  0  0  0  0
   32.0722   13.9229    3.0845 H   0  0  0  0  0
   30.7944   14.4605    4.2649 H   0  0  0  0  0
   32.9941   16.1494    3.0993 H   0  0  0  0  0
   31.7443   16.6752    4.2537 H   0  0  0  0  0
   32.9523   15.4609    4.7410 H   0  0  0  0  0
   26.8939   17.0673    5.0978 H   0  0  0  0  0
   25.2124   16.5196    2.8697 H   0  0  0  0  0
   24.4771   17.1806    5.7296 H   0  0  0  0  0
   25.0877   15.5641    5.1418 H   0  0  0  0  0
   22.4869   16.9388    4.4831 H   0  0  0  0  0
   23.3668   15.9346    2.4679 H   0  0  0  0  0
   23.6326   14.3978    3.3274 H   0  0  0  0  0
   21.9774   15.0092    3.0879 H   0  0  0  0  0
   23.2042   14.3240    5.8368 H   0  0  0  0  0
   22.5905   15.7903    6.6397 H   0  0  0  0  0
   21.5537   14.9003    5.4977 H   0  0  0  0  0
   25.4278   19.4307    4.8961 H   0  0  0  0  0
   23.0331   20.7006    4.0477 H   0  0  0  0  0
   25.6943   21.9294    4.6970 H   0  0  0  0  0
   24.3949   21.4418    5.8832 H   0  0  0  0  0
   25.3372   24.0830    3.3705 H   0  0  0  0  0
   21.9366   25.4689    5.3637 H   0  0  0  0  0
   26.2676   20.7440    2.7248 H   0  0  0  0  0
   25.6770   22.4484    0.4937 H   0  0  0  0  0
   27.9680   20.5703    0.9044 H   0  0  0  0  0
   27.9041   22.3712    1.1410 H   0  0  0  0  0
   27.4411   21.0215   -1.5034 H   0  0  0  0  0
   29.0811   21.5733   -0.9171 H   0  0  0  0  0
   28.4326   23.8190   -0.9813 H   0  0  0  0  0
   26.7047   23.4037   -1.1680 H   0  0  0  0  0
   27.0590   22.8966   -3.4388 H   0  0  0  0  0
   30.0738   23.7189   -1.8371 H   0  0  0  0  0
   29.9066   23.5773   -5.3492 H   0  0  0  0  0
   28.1892   23.1656   -5.3955 H   0  0  0  0  0
   26.0847   18.8612    0.8542 H   0  0  0  0  0
   25.7614   19.3100   -2.6553 H   0  0  0  0  0
   26.9498   18.1230   -2.0638 H   0  0  0  0  0
   25.5306   17.5763   -2.9901 H   0  0  0  0  0
   24.9750   16.0919   -1.2809 H   0  0  0  0  0
   24.6273   16.6636    0.4077 H   0  0  0  0  0
   26.7801   16.7720    0.9540 H   0  0  0  0  0
   27.3152   16.9445   -0.7852 H   0  0  0  0  0
   27.8094   14.7794    0.5597 H   0  0  0  0  0
   27.2143   14.7029   -1.1588 H   0  0  0  0  0
   24.9762   14.7431    0.3106 H   0  0  0  0  0
   26.1557   13.6675    1.2565 H   0  0  0  0  0
   25.2450   13.3074   -1.5839 H   0  0  0  0  0
   26.3770   12.2751   -0.6761 H   0  0  0  0  0
   24.6732   12.3874   -0.1704 H   0  0  0  0  0
   23.2501   18.8992    0.5996 H   0  0  0  0  0
   21.0229   17.9498   -0.9316 H   0  0  0  0  0
   19.7730   19.6290    0.5936 H   0  0  0  0  0
   21.4064   19.8566    1.3556 H   0  0  0  0  0
   21.4180   17.3196    1.5909 H   0  0  0  0  0
   21.0815   18.9172    3.4511 H   0  0  0  0  0
   19.3413   18.9743    3.0776 H   0  0  0  0  0
   20.0756   17.4644    3.6709 H   0  0  0  0  0
   18.4363   17.8155    1.2309 H   0  0  0  0  0
   19.4748   16.8769    0.1302 H   0  0  0  0  0
   19.1742   16.2927    1.7853 H   0  0  0  0  0
   22.9124   20.7505   -1.3658 H   0  0  0  0  0
   20.6762   22.1651   -2.6799 H   0  0  0  0  0
   22.3694   24.0144   -2.9870 H   0  0  0  0  0
   23.5843   22.9441   -2.1890 H   0  0  0  0  0
   22.0666   22.8549   -0.2076 H   0  0  0  0  0
   21.0591   24.1182   -1.0027 H   0  0  0  0  0
   23.5431   26.6374   -0.6678 H   0  0  0  0  0
   22.2968   25.9848   -1.7365 H   0  0  0  0  0
   23.1582   20.1421   -3.6881 H   0  0  0  0  0
   23.3726   21.1117   -6.4710 H   0  0  0  0  0
   24.6283   19.2055   -6.8656 H   0  0  0  0  0
   24.2724   18.6155   -5.1641 H   0  0  0  0  0
   24.6546   21.6777   -4.9044 H   0  0  0  0  0
   21.1029   21.3343   -6.6447 H   0  0  0  0  0
   18.8588   20.4883   -6.9915 H   0  0  0  0  0
   19.3794   18.9033   -6.7462 H   0  0  0  0  0
   20.9941   18.4630   -9.9381 H   0  0  0  0  0
   20.8649   17.8979   -8.2693 H   0  0  0  0  0
  1  2  1  0  0  0
  2  3  1  0  0  0
  2  5  1  0  0  0
  3  4  2  0  0  0
  3 11  1  0  0  0
  5  6  1  0  0  0
  6  7  4  0  0  0
  6  8  4  0  0  0
  7  9  4  0  0  0
  8 10  4  0  0  0
  9 10  4  0  0  0
 11 12  1  0  0  0
 12 13  1  0  0  0
 12 15  1  0  0  0
 13 14  2  0  0  0
 13 20  1  0  0  0
 15 16  1  0  0  0
 16 17  1  0  0  0
 17 18  1  0  0  0
 18 19  1  0  0  0
 20 21  1  0  0  0
 21 22  1  0  0  0
 21 23  1  0  0  0
 21 28  1  0  0  0
 23 24  1  0  0  0
 24 25  1  0  0  0
 25 26  1  0  0  0
 26 27  1  0  0  0
 28 29  2  0  0  0
 28 30  1  0  0  0
 30 31  1  0  0  0
 31 32  1  0  0  0
 31 34  1  0  0  0
 32 33  2  0  0  0
 32 38  1  0  0  0
 34 35  1  0  0  0
 35 36  1  0  0  0
 35 37  1  0  0  0
 38 39  1  0  0  0
 39 40  1  0  0  0
 39 42  1  0  0  0
 40 41  2  0  0  0
 40 48  1  0  0  0
 42 43  1  0  0  0
 43 44  4  0  0  0
 43 45  4  0  0  0
 44 46  4  0  0  0
 45 47  4  0  0  0
 46 47  4  0  0  0
 48 49  1  0  0  0
 49 50  1  0  0  0
 49 52  1  0  0  0
 50 51  2  0  0  0
 50 59  1  0  0  0
 52 53  1  0  0  0
 53 54  1  0  0  0
 54 55  1  0  0  0
 55 56  1  0  0  0
 56 57  2  0  0  0
 56 58  1  0  0  0
 59 60  1  0  0  0
 60 61  1  0  0  0
 60 62  1  0  0  0
 60 67  1  0  0  0
 62 63  1  0  0  0
 63 64  1  0  0  0
 64 65  1  0  0  0
 65 66  1  0  0  0
 67 68  2  0  0  0
 67 69  1  0  0  0
 69 70  1  0  0  0
 70 71  1  0  0  0
 70 73  1  0  0  0
 71 72  2  0  0  0
 71 77  1  0  0  0
 73 74  1  0  0  0
 74 75  1  0  0  0
 74 76  1  0  0  0
 77 78  1  0  0  0
 78 79  1  0  0  0
 78 81  1  0  0  0
 79 80  2  0  0  0
 79 86  1  0  0  0
 81 82  1  0  0  0
 82 83  1  0  0  0
 83 84  2  0  0  0
 83 85  1  0  0  0
 86 87  1  0  0  0
 87 88  1  0  0  0
 87 90  1  0  0  0
 88 89  2  0  0  0
 88 94  1  0  0  0
 90 91  1  0  0  0
 91 92  1  0  0  0
 91 93  2  0  0  0
 94 95  1  0  0  0
 95 96  1  0  0  0
 96 97  2  0  0  0
 96 98  1  0  0  0
  1 99  1  0  0  0
  1100  1  0  0  0
  1101  1  0  0  0
  2102  1  0  0  0
  5103  1  0  0  0
  5104  1  0  0  0
  8105  1  0  0  0
  9106  1  0  0  0
 11107  1  0  0  0
 12108  1  0  0  0
 15109  1  0  0  0
 15110  1  0  0  0
 16111  1  0  0  0
 16112  1  0  0  0
 17113  1  0  0  0
 17114  1  0  0  0
 18115  1  0  0  0
 18116  1  0  0  0
 19117  1  0  0  0
 19118  1  0  0  0
 19119  1  0  0  0
 20120  1  0  0  0
 22121  1  0  0  0
 22122  1  0  0  0
 22123  1  0  0  0
 23124  1  0  0  0
 23125  1  0  0  0
 24126  1  0  0  0
 24127  1  0  0  0
 25128  1  0  0  0
 25129  1  0  0  0
 26130  1  0  0  0
 26131  1  0  0  0
 27132  1  0  0  0
 27133  1  0  0  0
 27134  1  0  0  0
 30135  1  0  0  0
 31136  1  0  0  0
 34137  1  0  0  0
 34138  1  0  0  0
 35139  1  0  0  0
 36140  1  0  0  0
 36141  1  0  0  0
 36142  1  0  0  0
 37143  1  0  0  0
 37144  1  0  0  0
 37145  1  0  0  0
 38146  1  0  0  0
 39147  1  0  0  0
 42148  1  0  0  0
 42149  1  0  0  0
 45150  1  0  0  0
 46151  1  0  0  0
 48152  1  0  0  0
 49153  1  0  0  0
 52154  1  0  0  0
 52155  1  0  0  0
 53156  1  0  0  0
 53157  1  0  0  0
 54158  1  0  0  0
 54159  1  0  0  0
 55160  1  0  0  0
 57161  1  0  0  0
 58162  1  0  0  0
 58163  1  0  0  0
 59164  1  0  0  0
 61165  1  0  0  0
 61166  1  0  0  0
 61167  1  0  0  0
 62168  1  0  0  0
 62169  1  0  0  0
 63170  1  0  0  0
 63171  1  0  0  0
 64172  1  0  0  0
 64173  1  0  0  0
 65174  1  0  0  0
 65175  1  0  0  0
 66176  1  0  0  0
 66177  1  0  0  0
 66178  1  0  0  0
 69179  1  0  0  0
 70180  1  0  0  0
 73181  1  0  0  0
 73182  1  0  0  0
 74183  1  0  0  0
 75184  1  0  0  0
 75185  1  0  0  0
 75186  1  0  0  0
 76187  1  0  0  0
 76188  1  0  0  0
 76189  1  0  0  0
 77190  1  0  0  0
 78191  1  0  0  0
 81192  1  0  0  0
 81193  1  0  0  0
 82194  1  0  0  0
 82195  1  0  0  0
 85196  1  0  0  0
 85197  1  0  0  0
 86198  1  0  0  0
 87199  1  0  0  0
 90200  1  0  0  0
 90201  1  0  0  0
 92202  1  0  0  0
 94203  1  0  0  0
 95204  1  0  0  0
 95205  1  0  0  0
 98206  1  0  0  0
 98207  1  0  0  0
M  END
$$$$
