4b6e_ligand
  -I-interpret- 

 16 17  0  0  0  0  0  0  0  0999 V2000
   45.2750    9.2910  -39.4650 N   0  0  0  0  0
   44.5300    8.1520  -39.6560 C   0  0  0  0  0
   44.9930    6.8600  -39.3080 C   0  0  0  0  0
   43.2590    8.2400  -40.2270 C   0  0  0  0  0
   42.4850    7.1130  -40.4410 C   0  0  0  0  0
   42.9520    5.8540  -40.1010 C   0  0  0  0  0
   44.2150    5.7340  -39.5300 C   0  0  0  0  0
   44.9870    4.6540  -39.0770 C   0  0  0  0  0
   46.1740    5.0660  -38.6010 N   0  0  0  0  0
   46.1670    6.4190  -38.7490 N   0  0  0  0  0
   46.2070    9.2281  -39.0554 H   0  0  0  0  0
   44.8959   10.1993  -39.7328 H   0  0  0  0  0
   42.8680    9.2172  -40.5103 H   0  0  0  0  0
   41.4942    7.2174  -40.8832 H   0  0  0  0  0
   42.3390    4.9703  -40.2782 H   0  0  0  0  0
   44.6650    3.6131  -39.1073 H   0  0  0  0  0
  1  2  1  0  0  0
  2  3  4  0  0  0
  2  4  4  0  0  0
  3  7  4  0  0  0
  3 10  4  0  0  0
  4  5  4  0  0  0
  5  6  4  0  0  0
  6  7  4  0  0  0
  7  8  4  0  0  0
  8  9  4  0  0  0
  9 10  4  0  0  0
  1 11  1  0  0  0
  1 12  1  0  0  0
  4 13  1  0  0  0
  5 14  1  0  0  0
  6 15  1  0  0  0
  8 16  1  0  0  0
M  END
$$$$
