3ral_ligand
  -I-interpret- 

 45 47  0  0  0  0  0  0  0  0999 V2000
   95.9080   77.3670  -46.5810 C   0  0  0  0  0
   92.1830   82.2250  -50.7910 N   0  0  0  0  0
   86.0320   80.9820  -44.9520 O   0  0  0  0  0
   92.8390   80.9390  -48.6460 S   0  0  0  0  0
   96.9100   78.2360  -47.1960 C   0  0  0  0  0
   93.7360   81.4270  -52.3760 N   0  0  0  0  0
   86.7200   83.3220  -43.8580 O   0  0  0  0  0
   87.2540   81.8790  -44.4080 S   0  0  0  0  0
   96.5820   79.0040  -48.3690 C   0  0  0  0  0
   90.8080   82.8040  -48.9980 N   0  0  0  0  0
   95.5220   79.5680  -51.3300 O   0  0  0  0  0
   94.2490   78.0420  -48.3230 C   0  0  0  0  0
   87.9830   81.1020  -43.2730 N   0  0  0  0  0
   94.5620   77.2710  -47.1570 C   0  0  0  0  0
   98.2000   78.3500  -46.6630 O   0  0  0  0  0
   98.6200   77.6970  -45.5780 C   0  0  0  0  0
   95.2440   78.9190  -48.9490 C   0  0  0  0  0
   94.8610   79.7120  -50.1590 C   0  0  0  0  0
   93.7160   80.6740  -50.0860 C   0  0  0  0  0
   93.2330   81.4430  -51.1270 C   0  0  0  0  0
   91.8540   82.0730  -49.5030 C   0  0  0  0  0
   90.0080   82.5480  -47.9000 C   0  0  0  0  0
   90.1520   81.3600  -47.0210 C   0  0  0  0  0
   89.2910   81.1520  -45.9220 C   0  0  0  0  0
   88.2490   82.1150  -45.6420 C   0  0  0  0  0
   88.0950   83.2940  -46.4870 C   0  0  0  0  0
   88.9580   83.5070  -47.5960 C   0  0  0  0  0
   96.1615   76.7890  -45.6923 H   0  0  0  0  0
   93.3236   82.0160  -53.0995 H   0  0  0  0  0
   94.5294   80.8258  -52.5986 H   0  0  0  0  0
   97.3329   79.6495  -48.8247 H   0  0  0  0  0
   90.5891   83.6606  -49.5067 H   0  0  0  0  0
   95.1384   80.1537  -51.9868 H   0  0  0  0  0
   93.2501   77.9755  -48.7542 H   0  0  0  0  0
   87.6549   80.1767  -42.9962 H   0  0  0  0  0
   88.7887   81.5182  -42.8061 H   0  0  0  0  0
   93.8115   76.6228  -46.7045 H   0  0  0  0  0
   98.0006   77.9755  -44.7254 H   0  0  0  0  0
   98.5431   76.6233  -45.7492 H   0  0  0  0  0
   99.6582   77.9606  -45.3760 H   0  0  0  0  0
   95.8251   79.4166  -49.7450 H   0  0  0  0  0
   90.9382   80.6341  -47.2285 H   0  0  0  0  0
   89.4105   80.2725  -45.2893 H   0  0  0  0  0
   87.3110   84.0182  -46.2659 H   0  0  0  0  0
   88.8325   84.3916  -48.2203 H   0  0  0  0  0
  5  1  4  0  0  0
 14  1  4  0  0  0
  2 20  4  0  0  0
 21  2  4  0  0  0
  8  3  2  0  0  0
  4 19  4  0  0  0
 21  4  4  0  0  0
  9  5  4  0  0  0
  5 15  1  0  0  0
 20  6  1  0  0  0
  8  7  2  0  0  0
  8 13  1  0  0  0
 25  8  1  0  0  0
 17  9  4  0  0  0
 10 21  1  0  0  0
 22 10  1  0  0  0
 18 11  1  0  0  0
 12 14  4  0  0  0
 17 12  4  0  0  0
 15 16  1  0  0  0
 18 17  1  0  0  0
 19 18  1  0  0  0
 19 20  4  0  0  0
 23 22  4  0  0  0
 22 27  4  0  0  0
 24 23  4  0  0  0
 24 25  4  0  0  0
 25 26  4  0  0  0
 26 27  4  0  0  0
  1 28  1  0  0  0
  6 29  1  0  0  0
  6 30  1  0  0  0
  9 31  1  0  0  0
 10 32  1  0  0  0
 11 33  1  0  0  0
 12 34  1  0  0  0
 13 35  1  0  0  0
 13 36  1  0  0  0
 14 37  1  0  0  0
 16 38  1  0  0  0
 16 39  1  0  0  0
 16 40  1  0  0  0
 18 41  1  0  0  0
 23 42  1  0  0  0
 24 43  1  0  0  0
 26 44  1  0  0  0
 27 45  1  0  0  0
M  END
$$$$
