3mvj_ligand
  -I-interpret- 

 31 33  0  0  0  0  0  0  0  0999 V2000
   15.9820   14.2380   14.3730 C   0  0  0  0  0
   16.6720   13.5410   15.5420 C   0  0  0  0  0
   18.1660   13.8180   15.4410 C   0  0  0  0  0
   18.2760   14.9270   14.4630 N   0  0  0  0  0
   16.9630   15.3250   13.9210 C   0  0  0  0  0
   19.3080   15.8820   14.7100 C   0  0  0  0  0
   20.1990   15.5920   15.6890 N   0  0  0  0  0
   21.2470   16.3890   16.0300 C   0  0  0  0  0
   21.4860   17.5680   15.4410 N   0  0  0  0  0
   19.5440   17.1070   14.0420 C   0  0  0  0  0
   20.6430   17.9380   14.4290 C   0  0  0  0  0
   20.6570   19.0510   13.6620 N   0  0  0  0  0
   19.6320   19.0330   12.7630 C   0  0  0  0  0
   18.9360   17.8850   12.9640 C   0  0  0  0  0
   17.7390   17.5150   12.1420 C   0  0  0  0  0
   14.7000   14.8250   14.7820 N   0  3  0  0  0
   15.7473   13.5392   13.5700 H   0  0  0  0  0
   16.4849   12.4679   15.5036 H   0  0  0  0  0
   16.2826   13.9180   16.4877 H   0  0  0  0  0
   18.7230   12.9370   15.1222 H   0  0  0  0  0
   18.5975   14.0820   16.4065 H   0  0  0  0  0
   16.6635   16.3077   14.2854 H   0  0  0  0  0
   16.9901   15.4096   12.8346 H   0  0  0  0  0
   21.9221   16.0535   16.8173 H   0  0  0  0  0
   19.4120   19.7993   12.0198 H   0  0  0  0  0
   17.9363   16.5816   11.6147 H   0  0  0  0  0
   16.8758   17.3891   12.7956 H   0  0  0  0  0
   17.5372   18.3061   11.4198 H   0  0  0  0  0
   14.0663   14.0824   15.0776 H   0  0  0  0  0
   14.8546   15.4702   15.5568 H   0  0  0  0  0
   14.2915   15.3288   13.9948 H   0  0  0  0  0
  1  2  1  0  0  0
  1  5  1  0  0  0
  1 16  1  0  0  0
  2  3  1  0  0  0
  3  4  1  0  0  0
  4  5  1  0  0  0
  4  6  1  0  0  0
  6  7  4  0  0  0
  6 10  4  0  0  0
  7  8  4  0  0  0
  8  9  4  0  0  0
  9 11  4  0  0  0
 10 11  4  0  0  0
 10 14  4  0  0  0
 11 12  4  0  0  0
 12 13  4  0  0  0
 13 14  4  0  0  0
 14 15  1  0  0  0
  1 17  1  0  0  0
  2 18  1  0  0  0
  2 19  1  0  0  0
  3 20  1  0  0  0
  3 21  1  0  0  0
  5 22  1  0  0  0
  5 23  1  0  0  0
  8 24  1  0  0  0
 13 25  1  0  0  0
 15 26  1  0  0  0
 15 27  1  0  0  0
 15 28  1  0  0  0
 16 29  1  0  0  0
 16 30  1  0  0  0
 16 31  1  0  0  0
M  END
$$$$
