5op2_ligand
  -I-interpret- 

 57 60  0  0  0  0  0  0  0  0999 V2000
    0.9800   -4.6250   19.4520 C   0  0  0  0  0
    1.9510   -4.9480   18.5480 C   0  0  0  0  0
    1.5820   -5.7680   17.4780 C   0  0  0  0  0
    0.2850   -6.2250   17.3850 C   0  0  0  0  0
   -0.7190   -5.8770   18.3160 C   0  0  0  0  0
   -0.3400   -5.0610   19.3760 C   0  0  0  0  0
    2.5390   -6.1030   16.5720 O   0  0  0  0  0
    2.2380   -7.0360   15.4340 C   0  0  0  0  0
    3.6630   -7.3440   14.8660 C   0  0  0  0  0
   -1.2660   -4.7060   20.4420 N   0  0  0  0  0
    3.3490   -4.4430   18.7740 C   0  0  0  0  0
    4.3970   -4.9770   18.0620 N   0  0  0  0  0
    3.5320   -3.5550   19.6040 O   0  0  0  0  0
    5.7190   -4.5070   17.8540 C   0  0  0  0  0
    6.2780   -3.4490   18.4870 C   0  0  0  0  0
    7.5570   -3.0130   18.2400 C   0  0  0  0  0
    8.3280   -3.6610   17.2830 C   0  0  0  0  0
    7.7980   -4.7360   16.6880 N   0  0  0  0  0
    6.5350   -5.1420   16.9030 C   0  0  0  0  0
    4.2110   -6.4640   13.9290 C   0  0  0  0  0
    5.5050   -6.6700   13.4170 C   0  0  0  0  0
    6.2730   -7.7830   13.8080 C   0  0  0  0  0
    5.7020   -8.6610   14.7580 C   0  0  0  0  0
    4.4130   -8.4560   15.2710 C   0  0  0  0  0
   -0.6780   -4.2200   21.7210 C   0  0  0  0  0
   -1.7180   -3.4430   22.5620 C   0  0  0  0  0
   -2.9260   -4.2400   22.6730 N   0  3  0  0  0
   -3.5300   -4.4210   21.3400 C   0  0  0  0  0
   -2.6310   -5.2590   20.4690 C   0  0  0  0  0
   -3.8440   -3.5510   23.6020 C   0  0  0  0  0
    1.2566   -3.9833   20.2885 H   0  0  0  0  0
    0.0225   -6.8836   16.5571 H   0  0  0  0  0
   -1.7439   -6.2320   18.2082 H   0  0  0  0  0
    1.5660   -6.6038   14.6926 H   0  0  0  0  0
    1.6988   -7.9307   15.7453 H   0  0  0  0  0
    4.1877   -5.8642   17.6044 H   0  0  0  0  0
    5.6837   -2.9166   19.2296 H   0  0  0  0  0
    7.9640   -2.1650   18.7907 H   0  0  0  0  0
    9.3266   -3.3072   17.0266 H   0  0  0  0  0
    6.1367   -5.9789   16.3293 H   0  0  0  0  0
    3.6285   -5.6071   13.5905 H   0  0  0  0  0
    5.9198   -5.9559   12.7057 H   0  0  0  0  0
    7.2663   -7.9606   13.3957 H   0  0  0  0  0
    6.2790   -9.5199   15.1007 H   0  0  0  0  0
    3.9936   -9.1634   15.9864 H   0  0  0  0  0
    0.1494   -3.5495   21.4886 H   0  0  0  0  0
   -0.3421   -5.0823   22.2969 H   0  0  0  0  0
   -1.9470   -2.4936   22.0779 H   0  0  0  0  0
   -1.3147   -3.2463   23.5554 H   0  0  0  0  0
   -2.7188   -5.1694   23.0387 H   0  0  0  0  0
   -3.6667   -3.4445   20.8754 H   0  0  0  0  0
   -4.4903   -4.9249   21.4496 H   0  0  0  0  0
   -2.5927   -6.2704   20.8735 H   0  0  0  0  0
   -3.0289   -5.2632   19.4542 H   0  0  0  0  0
   -3.3663   -3.4530   24.5768 H   0  0  0  0  0
   -4.0800   -2.5615   23.2104 H   0  0  0  0  0
   -4.7610   -4.1317   23.7021 H   0  0  0  0  0
  1  2  4  0  0  0
  1  6  4  0  0  0
  2  3  4  0  0  0
  2 11  1  0  0  0
  3  4  4  0  0  0
  3  7  1  0  0  0
  4  5  4  0  0  0
  5  6  4  0  0  0
  6 10  1  0  0  0
  7  8  1  0  0  0
  8  9  1  0  0  0
  9 20  4  0  0  0
  9 24  4  0  0  0
 10 25  1  0  0  0
 10 29  1  0  0  0
 11 12  1  0  0  0
 11 13  2  0  0  0
 12 14  1  0  0  0
 14 15  4  0  0  0
 14 19  4  0  0  0
 15 16  4  0  0  0
 16 17  4  0  0  0
 17 18  4  0  0  0
 18 19  4  0  0  0
 20 21  4  0  0  0
 21 22  4  0  0  0
 22 23  4  0  0  0
 23 24  4  0  0  0
 25 26  1  0  0  0
 26 27  1  0  0  0
 27 28  1  0  0  0
 27 30  1  0  0  0
 28 29  1  0  0  0
  1 31  1  0  0  0
  4 32  1  0  0  0
  5 33  1  0  0  0
  8 34  1  0  0  0
  8 35  1  0  0  0
 12 36  1  0  0  0
 15 37  1  0  0  0
 16 38  1  0  0  0
 17 39  1  0  0  0
 19 40  1  0  0  0
 20 41  1  0  0  0
 21 42  1  0  0  0
 22 43  1  0  0  0
 23 44  1  0  0  0
 24 45  1  0  0  0
 25 46  1  0  0  0
 25 47  1  0  0  0
 26 48  1  0  0  0
 26 49  1  0  0  0
 27 50  1  0  0  0
 28 51  1  0  0  0
 28 52  1  0  0  0
 29 53  1  0  0  0
 29 54  1  0  0  0
 30 55  1  0  0  0
 30 56  1  0  0  0
 30 57  1  0  0  0
M  END
$$$$
