2v86_ligand
  -I-interpret- 

153152  0  0  0  0  0  0  0  0999 V2000
   -0.0640  -15.3170   -0.3190 N   0  3  0  0  0
    1.2320  -14.5850   -0.4130 C   0  0  0  0  0
    2.3730  -15.5470   -0.7150 C   0  0  0  0  0
    2.2560  -16.7360   -0.4840 O   0  0  0  0  0
    1.5100  -13.8540    0.8990 C   0  0  0  0  0
   10.8600  -15.3250   -5.7730 C   0  0  0  0  0
    9.1730  -17.0390   -5.0080 C   0  0  0  0  0
    3.4740  -15.0200   -1.2380 N   0  0  0  0  0
    4.6300  -15.8570   -1.5350 C   0  0  0  0  0
    5.6820  -15.0540   -2.3050 C   0  0  0  0  0
    5.1460  -14.5370   -3.6350 C   0  0  0  0  0
    6.2710  -13.9560   -4.4790 C   0  0  0  0  0
    7.3480  -14.9640   -4.6950 N   0  0  0  0  0
    8.6000  -14.6840   -5.1310 C   0  0  0  0  0
    8.9130  -13.4050   -5.3970 N   0  0  0  0  0
    9.5060  -15.6420   -5.2980 N   0  0  0  0  0
    5.2220  -16.3580   -0.2200 C   0  0  0  0  0
    5.3960  -15.5890    0.7140 O   0  0  0  0  0
    5.5160  -17.6530   -0.1520 N   0  0  0  0  0
    6.0950  -18.2300    1.0590 C   0  0  0  0  0
    7.1980  -19.2240    0.7140 C   0  0  0  0  0
    7.3650  -19.5920   -0.4310 O   0  0  0  0  0
    5.0330  -18.9770    1.9120 C   0  0  0  0  0
    4.4790  -20.0610    1.1550 O   0  0  0  0  0
    3.9200  -18.0370    2.3320 C   0  0  0  0  0
    7.9580  -19.6290    1.7290 N   0  0  0  0  0
    9.0210  -20.6110    1.5580 C   0  0  0  0  0
   10.4030  -19.9860    1.7560 C   0  0  0  0  0
   10.7870  -18.9190    0.7550 C   0  0  0  0  0
   12.2680  -18.6050    0.8840 C   0  0  0  0  0
   12.6510  -17.3240    0.1510 C   0  0  0  0  0
   14.1250  -17.0190    0.1670 N   0  3  0  0  0
    8.8350  -21.7060    2.5980 C   0  0  0  0  0
    8.4420  -21.4340    3.7160 O   0  0  0  0  0
   14.8640  -18.0480   -0.6290 C   0  0  0  0  0
   14.2550  -15.6900   -0.5140 C   0  0  0  0  0
   14.7340  -16.9500    1.5420 C   0  0  0  0  0
    9.1230  -22.9420    2.2080 N   0  0  0  0  0
    9.0050  -24.0800    3.1060 C   0  0  0  0  0
    7.6110  -24.2380    3.7100 C   0  0  0  0  0
    7.4740  -24.4690    4.9000 O   0  0  0  0  0
   10.0390  -23.9630    4.2310 C   0  0  0  0  0
   11.4780  -23.8230    3.7460 C   0  0  0  0  0
   11.9180  -24.9810    2.8640 C   0  0  0  0  0
   11.8530  -26.1300    3.2590 O   0  0  0  0  0
   12.3740  -24.6660    1.6590 N   0  0  0  0  0
    6.5810  -24.1090    2.8790 N   0  0  0  0  0
    5.2020  -24.2670    3.3450 C   0  0  0  0  0
    4.5240  -25.4120    2.6030 C   0  0  0  0  0
    3.3600  -25.6800    2.7990 O   0  0  0  0  0
    4.3660  -22.9880    3.1280 C   0  0  0  0  0
    4.4030  -22.6160    1.7460 O   0  0  0  0  0
    4.9030  -21.8500    3.9760 C   0  0  0  0  0
    5.2810  -26.0800    1.7420 N   0  0  0  0  0
    4.7540  -27.1980    0.9750 C   0  0  0  0  0
    4.4160  -28.3680    1.8950 C   0  0  0  0  0
    5.2140  -28.7540    2.7300 O   0  0  0  0  0
    5.7740  -27.6360   -0.0700 C   0  0  0  0  0
    3.2210  -28.9210    1.7320 N   0  0  0  0  0
    2.7880  -30.0570    2.5360 C   0  0  0  0  0
    2.7050  -31.3050    1.6710 C   0  0  0  0  0
    3.4370  -32.2720    1.9630 O   0  0  0  0  0
    1.4220  -29.7780    3.1560 C   0  0  0  0  0
    1.4510  -28.8310    4.3410 C   0  0  0  0  0
    0.0490  -28.3540    4.6510 C   0  0  0  0  0
   -0.4840  -27.5940    3.5240 N   0  0  0  0  0
   -1.7710  -27.3150    3.3420 C   0  0  0  0  0
   -2.1520  -26.6120    2.2810 N   0  0  0  0  0
   -2.6780  -27.7440    4.2110 N   0  0  0  0  0
    1.9080  -31.2950    0.7100 N   0  0  0  0  0
   -0.2434  -15.8026   -1.1979 H   0  0  0  0  0
   -0.0159  -15.9948    0.4417 H   0  0  0  0  0
   -0.8160  -14.6524   -0.1367 H   0  0  0  0  0
    1.1620  -13.8619   -1.2256 H   0  0  0  0  0
    1.5950  -14.5804    1.7072 H   0  0  0  0  0
    2.4417  -13.2950    0.8117 H   0  0  0  0  0
    0.6910  -13.1667    1.1111 H   0  0  0  0  0
   11.5883  -15.6343   -5.0234 H   0  0  0  0  0
   11.0497  -15.8553   -6.7062 H   0  0  0  0  0
   10.9428  -14.2511   -5.9405 H   0  0  0  0  0
    8.8864  -17.1330   -3.9605 H   0  0  0  0  0
    8.3440  -17.3528   -5.6424 H   0  0  0  0  0
   10.0417  -17.6669   -5.2061 H   0  0  0  0  0
    3.5112  -14.0197   -1.4338 H   0  0  0  0  0
    4.3211  -16.7014   -2.1512 H   0  0  0  0  0
    6.5279  -15.7099   -2.5105 H   0  0  0  0  0
    5.9682  -14.1961   -1.6965 H   0  0  0  0  0
    4.4124  -13.7549   -3.4392 H   0  0  0  0  0
    4.6904  -15.3655   -4.1773 H   0  0  0  0  0
    6.6936  -13.0974   -3.9572 H   0  0  0  0  0
    5.8668  -13.6614   -5.4475 H   0  0  0  0  0
    7.1251  -15.9400   -4.4994 H   0  0  0  0  0
    8.2152  -12.6721   -5.2694 H   0  0  0  0  0
    5.3346  -18.2524   -0.9571 H   0  0  0  0  0
    6.4982  -17.3948    1.6317 H   0  0  0  0  0
    5.5217  -19.3624    2.8068 H   0  0  0  0  0
    3.8237  -20.5190    1.6865 H   0  0  0  0  0
    4.3378  -17.2231    2.9246 H   0  0  0  0  0
    3.4353  -17.6303    1.4444 H   0  0  0  0  0
    3.1895  -18.5842    2.9279 H   0  0  0  0  0
    7.7909  -19.2393    2.6567 H   0  0  0  0  0
    8.9645  -21.0065    0.5439 H   0  0  0  0  0
   11.1269  -20.7928    1.6415 H   0  0  0  0  0
   10.3872  -19.5027    2.7329 H   0  0  0  0  0
   10.2080  -18.0162    0.9493 H   0  0  0  0  0
   10.5803  -19.2782   -0.2531 H   0  0  0  0  0
   12.8291  -19.4289    0.4429 H   0  0  0  0  0
   12.4956  -18.4716    1.9416 H   0  0  0  0  0
   12.1474  -16.5011    0.6583 H   0  0  0  0  0
   12.3610  -17.4520   -0.8919 H   0  0  0  0  0
   14.6943  -19.0329   -0.1939 H   0  0  0  0  0
   14.5041  -18.0370   -1.6578 H   0  0  0  0  0
   15.9300  -17.8211   -0.6131 H   0  0  0  0  0
   13.8707  -15.7653   -1.5312 H   0  0  0  0  0
   13.6836  -14.9432    0.0373 H   0  0  0  0  0
   15.3049  -15.3985   -0.5415 H   0  0  0  0  0
   14.2414  -16.1660    2.1172 H   0  0  0  0  0
   14.6027  -17.9082    2.0446 H   0  0  0  0  0
   15.7973  -16.7259    1.4562 H   0  0  0  0  0
    9.4364  -23.0981    1.2500 H   0  0  0  0  0
    9.1896  -24.9692    2.5031 H   0  0  0  0  0
    9.9845  -24.8820    4.8146 H   0  0  0  0  0
    9.8004  -23.0608    4.7943 H   0  0  0  0  0
   12.1256  -23.8064    4.6226 H   0  0  0  0  0
   11.5436  -22.9095    3.1549 H   0  0  0  0  0
   12.6870  -25.4004    1.0241 H   0  0  0  0  0
   12.4117  -23.6894    1.3672 H   0  0  0  0  0
    6.7551  -23.8956    1.8969 H   0  0  0  0  0
    5.2527  -24.4761    4.4135 H   0  0  0  0  0
    3.3369  -23.1902    3.4249 H   0  0  0  0  0
    3.8819  -21.8203    1.6159 H   0  0  0  0  0
    4.8561  -22.1294    5.0285 H   0  0  0  0  0
    5.9375  -21.6483    3.6981 H   0  0  0  0  0
    4.2998  -20.9577    3.8084 H   0  0  0  0  0
    6.2545  -25.8033    1.6151 H   0  0  0  0  0
    3.8410  -26.8764    0.4738 H   0  0  0  0  0
    5.9832  -26.8042   -0.7426 H   0  0  0  0  0
    6.6939  -27.9424    0.4281 H   0  0  0  0  0
    5.3716  -28.4735   -0.6399 H   0  0  0  0  0
    2.5896  -28.5417    1.0264 H   0  0  0  0  0
    3.5157  -30.2148    3.3320 H   0  0  0  0  0
    1.0353  -30.7306    3.5181 H   0  0  0  0  0
    0.8121  -29.3065    2.3855 H   0  0  0  0  0
    2.0786  -27.9728    4.1009 H   0  0  0  0  0
    1.8542  -29.3525    5.2091 H   0  0  0  0  0
    0.0761  -27.7139    5.5329 H   0  0  0  0  0
   -0.5902  -29.2178    4.8338 H   0  0  0  0  0
    0.1780  -27.2530    2.8270 H   0  0  0  0  0
   -3.1397  -26.4030    2.1356 H   0  0  0  0  0
   -1.4568  -26.2813    1.6119 H   0  0  0  0  0
   -2.3886  -28.2901    5.0224 H   0  0  0  0  0
    1.8265  -32.1133    0.1065 H   0  0  0  0  0
    1.3384  -30.4686    0.5284 H   0  0  0  0  0
  2  1  1  0  0  0
  3  2  1  0  0  0
  2  5  1  0  0  0
  3  4  2  0  0  0
  8  3  1  0  0  0
 16  6  1  0  0  0
 16  7  1  0  0  0
  9  8  1  0  0  0
 10  9  1  0  0  0
  9 17  1  0  0  0
 11 10  1  0  0  0
 12 11  1  0  0  0
 13 12  1  0  0  0
 14 13  1  0  0  0
 14 15  2  0  0  0
 14 16  1  0  0  0
 17 18  2  0  0  0
 17 19  1  0  0  0
 19 20  1  0  0  0
 20 21  1  0  0  0
 20 23  1  0  0  0
 21 22  2  0  0  0
 21 26  1  0  0  0
 23 24  1  0  0  0
 23 25  1  0  0  0
 26 27  1  0  0  0
 27 28  1  0  0  0
 27 33  1  0  0  0
 28 29  1  0  0  0
 29 30  1  0  0  0
 30 31  1  0  0  0
 31 32  1  0  0  0
 32 35  1  0  0  0
 32 36  1  0  0  0
 32 37  1  0  0  0
 33 34  2  0  0  0
 33 38  1  0  0  0
 38 39  1  0  0  0
 39 40  1  0  0  0
 39 42  1  0  0  0
 40 41  2  0  0  0
 40 47  1  0  0  0
 42 43  1  0  0  0
 43 44  1  0  0  0
 44 45  2  0  0  0
 44 46  1  0  0  0
 47 48  1  0  0  0
 48 49  1  0  0  0
 48 51  1  0  0  0
 49 50  2  0  0  0
 49 54  1  0  0  0
 51 52  1  0  0  0
 51 53  1  0  0  0
 54 55  1  0  0  0
 55 56  1  0  0  0
 55 58  1  0  0  0
 56 57  2  0  0  0
 56 59  1  0  0  0
 59 60  1  0  0  0
 60 61  1  0  0  0
 60 63  1  0  0  0
 61 62  2  0  0  0
 61 70  1  0  0  0
 63 64  1  0  0  0
 64 65  1  0  0  0
 65 66  1  0  0  0
 66 67  1  0  0  0
 67 68  1  0  0  0
 67 69  2  0  0  0
  1 71  1  0  0  0
  1 72  1  0  0  0
  1 73  1  0  0  0
  2 74  1  0  0  0
  5 75  1  0  0  0
  5 76  1  0  0  0
  5 77  1  0  0  0
  6 78  1  0  0  0
  6 79  1  0  0  0
  6 80  1  0  0  0
  7 81  1  0  0  0
  7 82  1  0  0  0
  7 83  1  0  0  0
  8 84  1  0  0  0
  9 85  1  0  0  0
 10 86  1  0  0  0
 10 87  1  0  0  0
 11 88  1  0  0  0
 11 89  1  0  0  0
 12 90  1  0  0  0
 12 91  1  0  0  0
 13 92  1  0  0  0
 15 93  1  0  0  0
 19 94  1  0  0  0
 20 95  1  0  0  0
 23 96  1  0  0  0
 24 97  1  0  0  0
 25 98  1  0  0  0
 25 99  1  0  0  0
 25100  1  0  0  0
 26101  1  0  0  0
 27102  1  0  0  0
 28103  1  0  0  0
 28104  1  0  0  0
 29105  1  0  0  0
 29106  1  0  0  0
 30107  1  0  0  0
 30108  1  0  0  0
 31109  1  0  0  0
 31110  1  0  0  0
 35111  1  0  0  0
 35112  1  0  0  0
 35113  1  0  0  0
 36114  1  0  0  0
 36115  1  0  0  0
 36116  1  0  0  0
 37117  1  0  0  0
 37118  1  0  0  0
 37119  1  0  0  0
 38120  1  0  0  0
 39121  1  0  0  0
 42122  1  0  0  0
 42123  1  0  0  0
 43124  1  0  0  0
 43125  1  0  0  0
 46126  1  0  0  0
 46127  1  0  0  0
 47128  1  0  0  0
 48129  1  0  0  0
 51130  1  0  0  0
 52131  1  0  0  0
 53132  1  0  0  0
 53133  1  0  0  0
 53134  1  0  0  0
 54135  1  0  0  0
 55136  1  0  0  0
 58137  1  0  0  0
 58138  1  0  0  0
 58139  1  0  0  0
 59140  1  0  0  0
 60141  1  0  0  0
 63142  1  0  0  0
 63143  1  0  0  0
 64144  1  0  0  0
 64145  1  0  0  0
 65146  1  0  0  0
 65147  1  0  0  0
 66148  1  0  0  0
 68149  1  0  0  0
 68150  1  0  0  0
 69151  1  0  0  0
 70152  1  0  0  0
 70153  1  0  0  0
M  END
$$$$
