### 
### Created by X-TOOL on Sun Sep  9 21:50:33 2018
### 

@<TRIPOS>MOLECULE
2v86_ligand
  155   154     1     0     0
SMALL
GAST_HUCK


@<TRIPOS>ATOM
      1 N          -0.0640  -15.3170   -0.3190 N.4       1 NON         0.2377
      2 CA          1.2320  -14.5850   -0.4130 C.3       1 NON         0.0621
      3 C           2.3730  -15.5470   -0.7150 C.2       1 NON         0.2264
      4 O           2.2560  -16.7360   -0.4840 O.2       1 NON        -0.3907
      5 CB          1.5100  -13.8540    0.8990 C.3       1 NON        -0.0040
      6 C1         10.8600  -15.3250   -5.7730 C.3       1 NON         0.0535
      7 C2          9.1730  -17.0390   -5.0080 C.3       1 NON         0.0535
      8 N           3.4740  -15.0200   -1.2380 N.am      1 NON        -0.2610
      9 CA          4.6300  -15.8570   -1.5350 C.3       1 NON         0.1312
     10 CB          5.6820  -15.0540   -2.3050 C.3       1 NON        -0.0092
     11 CG          5.1460  -14.5370   -3.6350 C.3       1 NON        -0.0156
     12 CD          6.2710  -13.9560   -4.4790 C.3       1 NON         0.0627
     13 NE          7.3480  -14.9640   -4.6950 N.pl3     1 NON        -0.2721
     14 CZ          8.6000  -14.6840   -5.1310 C.cat     1 NON         0.2920
     15 NH2         8.9130  -13.4050   -5.3970 N.pl3     1 NON        -0.2847
     16 NH1         9.5060  -15.6420   -5.2980 N.pl3     1 NON        -0.2650
     17 C           5.2220  -16.3580   -0.2200 C.2       1 NON         0.2040
     18 OA1         5.3960  -15.5890    0.7140 O.2       1 NON        -0.3944
     19 N           5.5160  -17.6530   -0.1520 N.am      1 NON        -0.2613
     20 CA          6.0950  -18.2300    1.0590 C.3       1 NON         0.1565
     21 C           7.1980  -19.2240    0.7140 C.2       1 NON         0.2065
     22 O           7.3650  -19.5920   -0.4310 O.2       1 NON        -0.3943
     23 CB          5.0330  -18.9770    1.9120 C.3       1 NON         0.0924
     24 OG1         4.4790  -20.0610    1.1550 O.3       1 NON        -0.3874
     25 CG2         3.9200  -18.0370    2.3320 C.3       1 NON        -0.0346
     26 N           7.9580  -19.6290    1.7290 N.am      1 NON        -0.2637
     27 CA          9.0210  -20.6110    1.5580 C.3       1 NON         0.1310
     28 CB         10.4030  -19.9860    1.7560 C.3       1 NON        -0.0122
     29 CG         10.7870  -18.9190    0.7550 C.3       1 NON        -0.0440
     30 CD         12.2680  -18.6050    0.8840 C.3       1 NON        -0.0123
     31 CE         12.6510  -17.3240    0.1510 C.3       1 NON        -0.0309
     32 NZ         14.1250  -17.0190    0.1670 N.4       1 NON         0.2369
     33 C           8.8350  -21.7060    2.5980 C.2       1 NON         0.2039
     34 O           8.4420  -21.4340    3.7160 O.2       1 NON        -0.3944
     35 CM1        14.8640  -18.0480   -0.6290 C.3       1 NON        -0.0418
     36 CM2        14.2550  -15.6900   -0.5140 C.3       1 NON        -0.0418
     37 CM3        14.7340  -16.9500    1.5420 C.3       1 NON        -0.0418
     38 N           9.1230  -22.9420    2.2080 N.am      1 NON        -0.2636
     39 CA          9.0050  -24.0800    3.1060 C.3       1 NON         0.1330
     40 C           7.6110  -24.2380    3.7100 C.2       1 NON         0.2041
     41 O           7.4740  -24.4690    4.9000 O.2       1 NON        -0.3944
     42 CB         10.0390  -23.9630    4.2310 C.3       1 NON         0.0045
     43 CG         11.4780  -23.8230    3.7460 C.3       1 NON         0.0412
     44 CD         11.9180  -24.9810    2.8640 C.2       1 NON         0.1737
     45 OE1        11.8530  -26.1300    3.2590 O.2       1 NON        -0.3973
     46 NE2        12.3740  -24.6660    1.6590 N.am      1 NON        -0.3009
     47 N           6.5810  -24.1090    2.8790 N.am      1 NON        -0.2613
     48 CA          5.2020  -24.2670    3.3450 C.3       1 NON         0.1565
     49 C           4.5240  -25.4120    2.6030 C.2       1 NON         0.2065
     50 O           3.3600  -25.6800    2.7990 O.2       1 NON        -0.3943
     51 CB          4.3660  -22.9880    3.1280 C.3       1 NON         0.0924
     52 OG1         4.4030  -22.6160    1.7460 O.3       1 NON        -0.3874
     53 CG2         4.9030  -21.8500    3.9760 C.3       1 NON        -0.0346
     54 N           5.2810  -26.0800    1.7420 N.am      1 NON        -0.2639
     55 CA          4.7540  -27.1980    0.9750 C.3       1 NON         0.1282
     56 C           4.4160  -28.3680    1.8950 C.2       1 NON         0.2036
     57 O           5.2140  -28.7540    2.7300 O.2       1 NON        -0.3944
     58 CB          5.7740  -27.6360   -0.0700 C.3       1 NON        -0.0244
     59 N           3.2210  -28.9210    1.7320 N.am      1 NON        -0.2637
     60 CA          2.7880  -30.0570    2.5360 C.3       1 NON         0.1307
     61 C           2.7050  -31.3050    1.6710 C.2       1 NON         0.1992
     62 O           3.4370  -32.2720    1.9630 O.2       1 NON        -0.3947
     63 CB          1.4220  -29.7780    3.1560 C.3       1 NON        -0.0092
     64 CG          1.4510  -28.8310    4.3410 C.3       1 NON        -0.0156
     65 CD          0.0490  -28.3540    4.6510 C.3       1 NON         0.0627
     66 NE         -0.4840  -27.5940    3.5240 N.pl3     1 NON        -0.2723
     67 CZ         -1.7710  -27.3150    3.3420 C.cat     1 NON         0.2882
     68 NH1        -2.1520  -26.6120    2.2810 N.pl3     1 NON        -0.2849
     69 NH2        -2.6780  -27.7440    4.2110 N.pl3     1 NON        -0.2849
     70 N           1.9080  -31.2950    0.7100 N.am      1 NON        -0.2990
     71 H1         -0.8051  -14.6637   -0.1190 H         1 NON         0.2015
     72 H2         -0.0108  -16.0011    0.4194 H         1 NON         0.2015
     73 H3         -0.2521  -15.7809   -1.1939 H         1 NON         0.2015
     74 H4          1.1645  -13.8477   -1.2265 H         1 NON         0.1095
     75 H5          2.4666  -13.3163    0.8235 H         1 NON         0.0310
     76 H6          1.5631  -14.5831    1.7209 H         1 NON         0.0310
     77 H7          0.7006  -13.1361    1.0974 H         1 NON         0.0310
     78 H8         11.4501  -16.2507   -5.8429 H         1 NON         0.0653
     79 H9         11.3439  -14.6341   -5.0670 H         1 NON         0.0653
     80 H10        10.7996  -14.8530   -6.7647 H         1 NON         0.0653
     81 H11         8.1297  -17.1037   -4.6656 H         1 NON         0.0653
     82 H12         9.8413  -17.4196   -4.2215 H         1 NON         0.0653
     83 H13         9.2979  -17.6425   -5.9191 H         1 NON         0.0653
     84 H14         3.5105  -14.0393   -1.4300 H         1 NON         0.1884
     85 H15         4.3126  -16.7154   -2.1452 H         1 NON         0.0800
     86 H16         6.5501  -15.7009   -2.4995 H         1 NON         0.0313
     87 H17         5.9939  -14.1966   -1.6906 H         1 NON         0.0313
     88 H18         4.3975  -13.7542   -3.4429 H         1 NON         0.0301
     89 H19         4.6760  -15.3674   -4.1822 H         1 NON         0.0301
     90 H20         6.6941  -13.0817   -3.9627 H         1 NON         0.0689
     91 H21         5.8669  -13.6461   -5.4540 H         1 NON         0.0689
     92 H22         7.1229  -15.9495   -4.4975 H         1 NON         0.2642
     93 H23         8.2089  -12.6647   -5.2667 H         1 NON         0.2615
     94 H24         9.8571  -13.1647   -5.7313 H         1 NON         0.2615
     95 H25         5.3382  -18.2406   -0.9413 H         1 NON         0.1884
     96 H26         6.5223  -17.4132    1.6592 H         1 NON         0.0826
     97 H27         5.5196  -19.3783    2.8132 H         1 NON         0.0639
     98 H28         4.0686  -19.7197    0.3690 H         1 NON         0.2101
     99 H29         3.1821  -18.5881    2.9335 H         1 NON         0.0257
    100 H30         3.4300  -17.6259    1.4371 H         1 NON         0.0257
    101 H31         4.3403  -17.2151    2.9302 H         1 NON         0.0257
    102 H32         7.7942  -19.2469    2.6385 H         1 NON         0.1883
    103 H33         8.9588  -21.0404    0.5472 H         1 NON         0.0800
    104 H34        11.1503  -20.7910    1.6960 H         1 NON         0.0312
    105 H35        10.4299  -19.5347    2.7588 H         1 NON         0.0312
    106 H36        10.2019  -18.0080    0.9491 H         1 NON         0.0269
    107 H37        10.5771  -19.2798   -0.2627 H         1 NON         0.0269
    108 H38        12.8454  -19.4407    0.4620 H         1 NON         0.0317
    109 H39        12.5143  -18.4904    1.9499 H         1 NON         0.0317
    110 H40        12.1203  -16.4845    0.6238 H         1 NON         0.0815
    111 H41        12.3298  -17.4173   -0.8969 H         1 NON         0.0815
    112 H42        15.9400  -17.8201   -0.6138 H         1 NON         0.0778
    113 H43        14.5018  -18.0379   -1.6676 H         1 NON         0.0778
    114 H44        14.6936  -19.0425   -0.1909 H         1 NON         0.0778
    115 H45        13.7142  -14.9269    0.0650 H         1 NON         0.0778
    116 H46        13.8283  -15.7532   -1.5259 H         1 NON         0.0778
    117 H47        15.3179  -15.4146   -0.5807 H         1 NON         0.0778
    118 H48        14.6354  -17.9278    2.0361 H         1 NON         0.0778
    119 H49        14.2127  -16.1848    2.1360 H         1 NON         0.0778
    120 H50        15.7988  -16.6870    1.4587 H         1 NON         0.0778
    121 H51         9.4302  -23.0951    1.2688 H         1 NON         0.1883
    122 H52         9.2233  -24.9881    2.5249 H         1 NON         0.0801
    123 H53         9.9721  -24.8656    4.8562 H         1 NON         0.0337
    124 H54         9.7915  -23.0785    4.8363 H         1 NON         0.0337
    125 H55        12.1413  -23.7770    4.6223 H         1 NON         0.0504
    126 H56        11.5656  -22.8898    3.1703 H         1 NON         0.0504
    127 H57        12.6776  -25.3863    1.0353 H         1 NON         0.1814
    128 H58        12.4142  -23.7082    1.3742 H         1 NON         0.1814
    129 H59         6.7517  -23.8998    1.9161 H         1 NON         0.1884
    130 H60         5.2237  -24.4970    4.4205 H         1 NON         0.0826
    131 H61         3.3244  -23.1892    3.4190 H         1 NON         0.0639
    132 H62         3.8873  -21.8286    1.6172 H         1 NON         0.2101
    133 H63         4.2950  -20.9489    3.8077 H         1 NON         0.0257
    134 H64         5.9470  -21.6454    3.6965 H         1 NON         0.0257
    135 H65         4.8562  -22.1307    5.0385 H         1 NON         0.0257
    136 H66         6.2354  -25.8087    1.6176 H         1 NON         0.1883
    137 H67         3.8360  -26.8743    0.4628 H         1 NON         0.0797
    138 H68         5.3691  -28.4812   -0.6459 H         1 NON         0.0277
    139 H69         6.7029  -27.9455    0.4314 H         1 NON         0.0277
    140 H70         5.9860  -26.7974   -0.7496 H         1 NON         0.0277
    141 H71         2.6020  -28.5491    1.0403 H         1 NON         0.1883
    142 H72         3.5196  -30.2243    3.3402 H         1 NON         0.0800
    143 H73         0.9948  -30.7347    3.4910 H         1 NON         0.0313
    144 H74         0.7761  -29.3392    2.3812 H         1 NON         0.0313
    145 H75         2.0864  -27.9656    4.1013 H         1 NON         0.0301
    146 H76         1.8604  -29.3550    5.2172 H         1 NON         0.0301
    147 H77         0.0724  -27.7120    5.5439 H         1 NON         0.0689
    148 H78        -0.5972  -29.2236    4.8413 H         1 NON         0.0689
    149 H79         0.1845  -27.2496    2.8201 H         1 NON         0.2642
    150 H80        -3.1486  -26.3947    2.1380 H         1 NON         0.2615
    151 H81        -1.4508  -26.2843    1.6014 H         1 NON         0.2615
    152 H82        -2.3850  -28.2892    5.0343 H         1 NON         0.2615
    153 H83        -3.6748  -27.5317    4.0620 H         1 NON         0.2615
    154 H84         1.8266  -32.0979    0.1195 H         1 NON         0.1815
    155 H85         1.3510  -30.4840    0.5308 H         1 NON         0.1815
@<TRIPOS>BOND
     1    2    1 1  
     2    3    2 1  
     3    2    5 1  
     4    3    4 2  
     5    8    3 am 
     6   16    6 1  
     7   16    7 1  
     8    9    8 1  
     9   10    9 1  
    10    9   17 1  
    11   11   10 1  
    12   12   11 1  
    13   13   12 1  
    14   14   13 ar 
    15   14   15 ar 
    16   14   16 ar 
    17   17   18 2  
    18   17   19 am 
    19   19   20 1  
    20   20   21 1  
    21   20   23 1  
    22   21   22 2  
    23   21   26 am 
    24   23   24 1  
    25   23   25 1  
    26   26   27 1  
    27   27   28 1  
    28   27   33 1  
    29   28   29 1  
    30   29   30 1  
    31   30   31 1  
    32   31   32 1  
    33   32   35 1  
    34   32   36 1  
    35   32   37 1  
    36   33   34 2  
    37   33   38 am 
    38   38   39 1  
    39   39   40 1  
    40   39   42 1  
    41   40   41 2  
    42   40   47 am 
    43   42   43 1  
    44   43   44 1  
    45   44   45 2  
    46   44   46 am 
    47   47   48 1  
    48   48   49 1  
    49   48   51 1  
    50   49   50 2  
    51   49   54 am 
    52   51   52 1  
    53   51   53 1  
    54   54   55 1  
    55   55   56 1  
    56   55   58 1  
    57   56   57 2  
    58   56   59 am 
    59   59   60 1  
    60   60   61 1  
    61   60   63 1  
    62   61   62 2  
    63   61   70 am 
    64   63   64 1  
    65   64   65 1  
    66   65   66 1  
    67   66   67 ar 
    68   67   68 ar 
    69   67   69 ar 
    70    1   71 1  
    71    1   72 1  
    72    1   73 1  
    73    2   74 1  
    74    5   75 1  
    75    5   76 1  
    76    5   77 1  
    77    6   78 1  
    78    6   79 1  
    79    6   80 1  
    80    7   81 1  
    81    7   82 1  
    82    7   83 1  
    83    8   84 1  
    84    9   85 1  
    85   10   86 1  
    86   10   87 1  
    87   11   88 1  
    88   11   89 1  
    89   12   90 1  
    90   12   91 1  
    91   13   92 1  
    92   15   93 1  
    93   15   94 1  
    94   19   95 1  
    95   20   96 1  
    96   23   97 1  
    97   24   98 1  
    98   25   99 1  
    99   25  100 1  
   100   25  101 1  
   101   26  102 1  
   102   27  103 1  
   103   28  104 1  
   104   28  105 1  
   105   29  106 1  
   106   29  107 1  
   107   30  108 1  
   108   30  109 1  
   109   31  110 1  
   110   31  111 1  
   111   35  112 1  
   112   35  113 1  
   113   35  114 1  
   114   36  115 1  
   115   36  116 1  
   116   36  117 1  
   117   37  118 1  
   118   37  119 1  
   119   37  120 1  
   120   38  121 1  
   121   39  122 1  
   122   42  123 1  
   123   42  124 1  
   124   43  125 1  
   125   43  126 1  
   126   46  127 1  
   127   46  128 1  
   128   47  129 1  
   129   48  130 1  
   130   51  131 1  
   131   52  132 1  
   132   53  133 1  
   133   53  134 1  
   134   53  135 1  
   135   54  136 1  
   136   55  137 1  
   137   58  138 1  
   138   58  139 1  
   139   58  140 1  
   140   59  141 1  
   141   60  142 1  
   142   63  143 1  
   143   63  144 1  
   144   64  145 1  
   145   64  146 1  
   146   65  147 1  
   147   65  148 1  
   148   66  149 1  
   149   68  150 1  
   150   68  151 1  
   151   69  152 1  
   152   69  153 1  
   153   70  154 1  
   154   70  155 1  
@<TRIPOS>SUBSTRUCTURE
     1 NON         1

