5f74_ligand
  -I-interpret- 

 37 39  0  0  0  0  0  0  0  0999 V2000
   13.8360   41.1870   10.4360 P   0  0  0  0  0
   12.7350   40.9670    9.4300 O   0  0  0  0  0
   15.1460   40.4990   10.1690 O   0  0  0  0  0
   13.3540   41.3110   11.8670 O   0  0  0  0  0
   14.2410   42.8830   10.1460 O   0  0  0  0  0
   15.4810   43.3390   10.4500 C   0  0  0  0  0
   16.0310   44.1640    9.1840 C   0  0  0  0  0
   16.9710   43.3480    8.5090 O   0  0  0  0  0
   14.8970   44.5010    8.1200 C   0  0  0  0  0
   14.4870   45.8530    8.1710 O   0  0  0  0  0
   15.5860   44.1780    6.7130 C   0  0  0  0  0
   15.9270   45.3880    6.0420 O   0  0  0  0  0
   17.0060   43.5620    7.1230 C   0  0  0  0  0
   17.4130   42.2980    6.3260 N   0  0  0  0  0
   17.0910   40.9190    6.6290 C   0  0  0  0  0
   17.6070   40.0380    5.7380 N   0  0  0  0  0
   18.3100   40.8400    4.7980 C   0  0  0  0  0
   19.0710   40.5080    3.6310 C   0  0  0  0  0
   19.2440   39.1910    3.2070 N   0  0  0  0  0
   19.6630   41.5160    2.8670 N   0  0  0  0  0
   19.4710   42.8100    3.3240 C   0  0  0  0  0
   18.7880   43.2710    4.3900 N   0  0  0  0  0
   18.1970   42.2430    5.1450 C   0  0  0  0  0
   11.9524   41.4515    9.7027 H   0  0  0  0  0
   12.5106   41.7693   11.8808 H   0  0  0  0  0
   16.1452   42.5040   10.6729 H   0  0  0  0  0
   15.4409   43.9814   11.3297 H   0  0  0  0  0
   16.4466   45.0970    9.5648 H   0  0  0  0  0
   13.9906   43.9247    8.3057 H   0  0  0  0  0
   13.8048   46.0044    7.5127 H   0  0  0  0  0
   14.9383   43.5573    6.0938 H   0  0  0  0  0
   16.3391   45.1805    5.2001 H   0  0  0  0  0
   17.7922   44.2695    6.8597 H   0  0  0  0  0
   16.4924   40.6192    7.4892 H   0  0  0  0  0
   18.8217   38.4261    3.7333 H   0  0  0  0  0
   19.7929   38.9925    2.3705 H   0  0  0  0  0
   19.9514   43.5816    2.7223 H   0  0  0  0  0
  1  2  1  0  0  0
  1  3  2  0  0  0
  1  4  1  0  0  0
  1  5  1  0  0  0
  5  6  1  0  0  0
  6  7  1  0  0  0
  7  8  1  0  0  0
  7  9  1  0  0  0
  8 13  1  0  0  0
  9 10  1  0  0  0
  9 11  1  0  0  0
 11 12  1  0  0  0
 11 13  1  0  0  0
 13 14  1  0  0  0
 14 15  4  0  0  0
 14 23  4  0  0  0
 15 16  4  0  0  0
 16 17  4  0  0  0
 17 18  4  0  0  0
 17 23  4  0  0  0
 18 19  1  0  0  0
 18 20  4  0  0  0
 20 21  4  0  0  0
 21 22  4  0  0  0
 22 23  4  0  0  0
  2 24  1  0  0  0
  4 25  1  0  0  0
  6 26  1  0  0  0
  6 27  1  0  0  0
  7 28  1  0  0  0
  9 29  1  0  0  0
 10 30  1  0  0  0
 11 31  1  0  0  0
 12 32  1  0  0  0
 13 33  1  0  0  0
 15 34  1  0  0  0
 19 35  1  0  0  0
 19 36  1  0  0  0
 21 37  1  0  0  0
M  END
$$$$
