### 
### Created by X-TOOL on Mon Sep 10 21:13:11 2018
### 

@<TRIPOS>MOLECULE
3vsx_ligand
   79    80     1     0     0
SMALL
GAST_HUCK


@<TRIPOS>ATOM
      1 C1        -57.8350 -161.0780 -136.4860 C.ar      1 R32        -0.0404
      2 C2        -58.6460 -160.1120 -137.0690 C.ar      1 R32         0.0830
      3 C3        -58.4240 -158.7820 -136.7620 C.ar      1 R32         0.0596
      4 C4        -57.4240 -158.3830 -135.8940 C.ar      1 R32        -0.0616
      5 C5        -56.6160 -159.3520 -135.3140 C.ar      1 R32        -0.0766
      6 C6        -56.8220 -160.6960 -135.6090 C.ar      1 R32        -0.0753
      7 N7        -59.6490 -160.5270 -137.9380 N.am      1 R32        -0.2222
      8 CL1       -59.4290 -157.5770 -137.4820 Cl        1 R32        -0.0830
      9 C9        -59.2840 -160.9690 -139.2940 C.3       1 R32         0.0426
     10 C10       -60.3800 -160.7780 -140.3220 C.3       1 R32        -0.0639
     11 N11       -61.5950 -161.3790 -139.7860 N.4       1 R32         0.4235
     12 C12       -62.0480 -160.9650 -138.4740 C.3       1 R32        -0.0105
     13 C13       -60.9550 -160.5090 -137.4980 C.2       1 R32         0.1859
     14 O14       -61.2720 -160.1480 -136.3770 O.2       1 R32        -0.3868
     15 C15       -59.9840 -161.4680 -141.6310 C.3       1 R32        -0.0762
     16 C16       -60.5950 -159.2860 -140.5820 C.3       1 R32        -0.0762
     17 C17       -62.6280 -161.8180 -140.7110 C.3       1 R32        -0.0619
     18 C18       -63.4310 -162.9940 -140.1430 C.3       1 R32        -0.0162
     19 C19       -64.8040 -163.1380 -140.8010 C.3       1 R32         0.0979
     20 C20       -65.7890 -164.0050 -139.9990 C.3       1 R32        -0.0016
     21 C21       -67.1100 -164.2380 -140.7550 C.3       1 R32         0.0534
     22 C22       -67.8180 -162.8900 -140.9850 C.2       1 R32         0.1793
     23 N23       -67.9450 -162.5830 -142.2890 N.am      1 R32        -0.2873
     24 C24       -68.5920 -161.3300 -142.6170 C.3       1 R32         0.0429
     25 C25       -69.8710 -161.5980 -143.4170 C.3       1 R32         0.0654
     26 N26       -62.6670 -164.2340 -140.1550 N.4       1 R32         0.2211
     27 O27       -64.6720 -163.6240 -142.1110 O.3       1 R32        -0.3861
     28 C28       -68.0510 -165.2600 -140.0840 C.3       1 R32        -0.0269
     29 O29       -68.2070 -162.1890 -140.0540 O.2       1 R32        -0.3968
     30 C30       -67.4010 -166.6280 -139.8740 C.3       1 R32        -0.0603
     31 C31       -69.3940 -165.3770 -140.7990 C.3       1 R32        -0.0603
     32 C32       -69.4600 -162.1540 -144.7860 C.2       1 R32         0.2007
     33 C33       -70.6510 -160.2970 -143.6370 C.3       1 R32        -0.0513
     34 C34       -70.7550 -162.6430 -142.7200 C.3       1 R32        -0.0513
     35 N35       -68.7220 -161.2870 -145.5150 N.am      1 R32        -0.2997
     36 O36       -69.7760 -163.2840 -145.1410 O.2       1 R32        -0.3445
     37 H         -57.9910 -162.1324 -136.7143 H         1 R32         0.0502
     38 H         -57.2729 -157.3272 -135.6693 H         1 R32         0.0583
     39 H         -55.8209 -159.0599 -134.6280 H         1 R32         0.0488
     40 H         -56.1871 -161.4546 -135.1513 H         1 R32         0.0579
     41 H         -59.0750 -162.0374 -139.2399 H         1 R32         0.0571
     42 H         -58.4341 -160.3653 -139.6124 H         1 R32         0.0571
     43 H         -62.5168 -161.8391 -138.0220 H         1 R32         0.0263
     44 H         -62.6965 -160.1032 -138.6318 H         1 R32         0.0263
     45 H         -59.0572 -161.0322 -142.0040 H         1 R32         0.0216
     46 H         -59.8389 -162.5329 -141.4494 H         1 R32         0.0216
     47 H         -60.7751 -161.3282 -142.3677 H         1 R32         0.0216
     48 H         -60.8829 -158.7944 -139.6528 H         1 R32         0.0216
     49 H         -59.6701 -158.8466 -140.9556 H         1 R32         0.0216
     50 H         -61.3847 -159.1576 -141.3223 H         1 R32         0.0216
     51 H         -62.1483 -162.1425 -141.6344 H         1 R32         0.0076
     52 H         -63.3110 -160.9864 -140.8846 H         1 R32         0.0076
     53 H         -63.6259 -162.7630 -139.0957 H         1 R32         0.0855
     54 H         -65.2350 -162.1371 -140.8235 H         1 R32         0.0651
     55 H         -66.0183 -163.4848 -139.0690 H         1 R32         0.0319
     56 H         -65.3227 -164.9748 -139.8254 H         1 R32         0.0319
     57 H         -66.8487 -164.6874 -141.7131 H         1 R32         0.0541
     58 H         -67.5993 -163.2080 -143.0172 H         1 R32         0.1849
     59 H         -67.9143 -160.7211 -143.2154 H         1 R32         0.0511
     60 H         -68.8469 -160.8050 -141.6964 H         1 R32         0.0511
     61 H         -63.2372 -164.9870 -139.7700 H         1 R32         0.1997
     62 H         -62.4045 -164.4610 -141.1142 H         1 R32         0.1997
     63 H         -61.8261 -164.1193 -139.5892 H         1 R32         0.1997
     64 H         -64.0544 -163.0712 -142.5955 H         1 R32         0.2100
     65 H         -68.2519 -164.8594 -139.0904 H         1 R32         0.0322
     66 H         -67.1014 -167.0383 -140.8383 H         1 R32         0.0234
     67 H         -66.5240 -166.5181 -139.2362 H         1 R32         0.0234
     68 H         -68.1159 -167.2994 -139.3983 H         1 R32         0.0234
     69 H         -69.8926 -164.4077 -140.7938 H         1 R32         0.0234
     70 H         -69.2297 -165.6970 -141.8279 H         1 R32         0.0234
     71 H         -70.0156 -166.1095 -140.2842 H         1 R32         0.0234
     72 H         -70.9204 -159.8687 -142.6716 H         1 R32         0.0222
     73 H         -70.0298 -159.5912 -144.1884 H         1 R32         0.0222
     74 H         -71.5556 -160.5092 -144.2069 H         1 R32         0.0222
     75 H         -70.2028 -163.5778 -142.6234 H         1 R32         0.0222
     76 H         -71.0332 -162.2799 -141.7306 H         1 R32         0.0222
     77 H         -71.6541 -162.8102 -143.3131 H         1 R32         0.0222
     78 H         -68.3826 -161.5569 -146.4382 H         1 R32         0.1820
     79 H         -68.5046 -160.3630 -145.1418 H         1 R32         0.1820
@<TRIPOS>BOND
     1    1    2 ar 
     2    1    6 ar 
     3    2    3 ar 
     4    2    7 1  
     5    3    4 ar 
     6    3    8 1  
     7    4    5 ar 
     8    5    6 ar 
     9    7    9 1  
    10    7   13 am 
    11    9   10 1  
    12   10   11 1  
    13   10   15 1  
    14   10   16 1  
    15   11   12 1  
    16   11   17 1  
    17   12   13 1  
    18   13   14 2  
    19   17   18 1  
    20   18   19 1  
    21   18   26 1  
    22   19   20 1  
    23   19   27 1  
    24   20   21 1  
    25   21   22 1  
    26   21   28 1  
    27   22   23 am 
    28   22   29 2  
    29   23   24 1  
    30   24   25 1  
    31   25   32 1  
    32   25   33 1  
    33   25   34 1  
    34   28   30 1  
    35   28   31 1  
    36   32   35 am 
    37   32   36 2  
    38    1   37 1  
    39    4   38 1  
    40    5   39 1  
    41    6   40 1  
    42    9   41 1  
    43    9   42 1  
    44   12   43 1  
    45   12   44 1  
    46   15   45 1  
    47   15   46 1  
    48   15   47 1  
    49   16   48 1  
    50   16   49 1  
    51   16   50 1  
    52   17   51 1  
    53   17   52 1  
    54   18   53 1  
    55   19   54 1  
    56   20   55 1  
    57   20   56 1  
    58   21   57 1  
    59   23   58 1  
    60   24   59 1  
    61   24   60 1  
    62   26   61 1  
    63   26   62 1  
    64   26   63 1  
    65   27   64 1  
    66   28   65 1  
    67   30   66 1  
    68   30   67 1  
    69   30   68 1  
    70   31   69 1  
    71   31   70 1  
    72   31   71 1  
    73   33   72 1  
    74   33   73 1  
    75   33   74 1  
    76   34   75 1  
    77   34   76 1  
    78   34   77 1  
    79   35   78 1  
    80   35   79 1  
@<TRIPOS>SUBSTRUCTURE
     1 R32         1

