3vsx_ligand
  -I-interpret- 

 80 81  0  0  0  0  0  0  0  0999 V2000
  -57.8350 -161.0780 -136.4860 C   0  0  0  0  0
  -58.6460 -160.1120 -137.0690 C   0  0  0  0  0
  -58.4240 -158.7820 -136.7620 C   0  0  0  0  0
  -57.4240 -158.3830 -135.8940 C   0  0  0  0  0
  -56.6160 -159.3520 -135.3140 C   0  0  0  0  0
  -56.8220 -160.6960 -135.6090 C   0  0  0  0  0
  -59.6490 -160.5270 -137.9380 N   0  0  0  0  0
  -59.4290 -157.5770 -137.4820 Cl  0  0  0  0  0
  -59.2840 -160.9690 -139.2940 C   0  0  0  0  0
  -60.3800 -160.7780 -140.3220 C   0  0  0  0  0
  -61.5950 -161.3790 -139.7860 N   0  3  0  0  0
  -62.0480 -160.9650 -138.4740 C   0  0  0  0  0
  -60.9550 -160.5090 -137.4980 C   0  0  0  0  0
  -61.2720 -160.1480 -136.3770 O   0  0  0  0  0
  -59.9840 -161.4680 -141.6310 C   0  0  0  0  0
  -60.5950 -159.2860 -140.5820 C   0  0  0  0  0
  -62.6280 -161.8180 -140.7110 C   0  0  0  0  0
  -63.4310 -162.9940 -140.1430 C   0  0  0  0  0
  -64.8040 -163.1380 -140.8010 C   0  0  0  0  0
  -65.7890 -164.0050 -139.9990 C   0  0  0  0  0
  -67.1100 -164.2380 -140.7550 C   0  0  0  0  0
  -67.8180 -162.8900 -140.9850 C   0  0  0  0  0
  -67.9450 -162.5830 -142.2890 N   0  0  0  0  0
  -68.5920 -161.3300 -142.6170 C   0  0  0  0  0
  -69.8710 -161.5980 -143.4170 C   0  0  0  0  0
  -62.6670 -164.2340 -140.1550 N   0  3  0  0  0
  -64.6720 -163.6240 -142.1110 O   0  0  0  0  0
  -68.0510 -165.2600 -140.0840 C   0  0  0  0  0
  -68.2070 -162.1890 -140.0540 O   0  0  0  0  0
  -67.4010 -166.6280 -139.8740 C   0  0  0  0  0
  -69.3940 -165.3770 -140.7990 C   0  0  0  0  0
  -69.4600 -162.1540 -144.7860 C   0  0  0  0  0
  -70.6510 -160.2970 -143.6370 C   0  0  0  0  0
  -70.7550 -162.6430 -142.7200 C   0  0  0  0  0
  -68.7220 -161.2870 -145.5150 N   0  0  0  0  0
  -69.7760 -163.2840 -145.1410 O   0  0  0  0  0
  -57.9910 -162.1324 -136.7143 H   0  0  0  0  0
  -57.2729 -157.3272 -135.6693 H   0  0  0  0  0
  -55.8209 -159.0599 -134.6280 H   0  0  0  0  0
  -56.1871 -161.4546 -135.1513 H   0  0  0  0  0
  -59.0750 -162.0374 -139.2399 H   0  0  0  0  0
  -58.4341 -160.3653 -139.6124 H   0  0  0  0  0
  -61.1656 -162.2772 -139.5641 H   0  0  0  0  0
  -62.5168 -161.8391 -138.0220 H   0  0  0  0  0
  -62.6965 -160.1032 -138.6318 H   0  0  0  0  0
  -59.0572 -161.0322 -142.0040 H   0  0  0  0  0
  -59.8389 -162.5329 -141.4494 H   0  0  0  0  0
  -60.7751 -161.3282 -142.3677 H   0  0  0  0  0
  -60.8829 -158.7944 -139.6528 H   0  0  0  0  0
  -59.6701 -158.8466 -140.9556 H   0  0  0  0  0
  -61.3847 -159.1576 -141.3223 H   0  0  0  0  0
  -62.1483 -162.1425 -141.6344 H   0  0  0  0  0
  -63.3110 -160.9864 -140.8846 H   0  0  0  0  0
  -63.6259 -162.7630 -139.0957 H   0  0  0  0  0
  -65.2350 -162.1371 -140.8235 H   0  0  0  0  0
  -66.0183 -163.4848 -139.0690 H   0  0  0  0  0
  -65.3227 -164.9748 -139.8254 H   0  0  0  0  0
  -66.8487 -164.6874 -141.7131 H   0  0  0  0  0
  -67.5993 -163.2080 -143.0172 H   0  0  0  0  0
  -67.9143 -160.7211 -143.2154 H   0  0  0  0  0
  -68.8469 -160.8050 -141.6964 H   0  0  0  0  0
  -63.2372 -164.9870 -139.7700 H   0  0  0  0  0
  -62.4045 -164.4610 -141.1142 H   0  0  0  0  0
  -61.8261 -164.1193 -139.5892 H   0  0  0  0  0
  -65.5416 -163.7084 -142.5089 H   0  0  0  0  0
  -68.2519 -164.8594 -139.0904 H   0  0  0  0  0
  -67.1014 -167.0383 -140.8383 H   0  0  0  0  0
  -66.5240 -166.5181 -139.2362 H   0  0  0  0  0
  -68.1159 -167.2994 -139.3983 H   0  0  0  0  0
  -69.8926 -164.4077 -140.7938 H   0  0  0  0  0
  -69.2297 -165.6970 -141.8279 H   0  0  0  0  0
  -70.0156 -166.1095 -140.2842 H   0  0  0  0  0
  -70.9204 -159.8687 -142.6716 H   0  0  0  0  0
  -70.0298 -159.5912 -144.1884 H   0  0  0  0  0
  -71.5556 -160.5092 -144.2069 H   0  0  0  0  0
  -70.2028 -163.5778 -142.6234 H   0  0  0  0  0
  -71.0332 -162.2799 -141.7306 H   0  0  0  0  0
  -71.6541 -162.8102 -143.3131 H   0  0  0  0  0
  -68.3826 -161.5569 -146.4382 H   0  0  0  0  0
  -68.5046 -160.3630 -145.1418 H   0  0  0  0  0
  1  2  4  0  0  0
  1  6  4  0  0  0
  2  3  4  0  0  0
  2  7  1  0  0  0
  3  4  4  0  0  0
  3  8  1  0  0  0
  4  5  4  0  0  0
  5  6  4  0  0  0
  7  9  1  0  0  0
  7 13  1  0  0  0
  9 10  1  0  0  0
 10 11  1  0  0  0
 10 15  1  0  0  0
 10 16  1  0  0  0
 11 12  1  0  0  0
 11 17  1  0  0  0
 12 13  1  0  0  0
 13 14  2  0  0  0
 17 18  1  0  0  0
 18 19  1  0  0  0
 18 26  1  0  0  0
 19 20  1  0  0  0
 19 27  1  0  0  0
 20 21  1  0  0  0
 21 22  1  0  0  0
 21 28  1  0  0  0
 22 23  1  0  0  0
 22 29  2  0  0  0
 23 24  1  0  0  0
 24 25  1  0  0  0
 25 32  1  0  0  0
 25 33  1  0  0  0
 25 34  1  0  0  0
 28 30  1  0  0  0
 28 31  1  0  0  0
 32 35  1  0  0  0
 32 36  2  0  0  0
  1 37  1  0  0  0
  4 38  1  0  0  0
  5 39  1  0  0  0
  6 40  1  0  0  0
  9 41  1  0  0  0
  9 42  1  0  0  0
 11 43  1  0  0  0
 12 44  1  0  0  0
 12 45  1  0  0  0
 15 46  1  0  0  0
 15 47  1  0  0  0
 15 48  1  0  0  0
 16 49  1  0  0  0
 16 50  1  0  0  0
 16 51  1  0  0  0
 17 52  1  0  0  0
 17 53  1  0  0  0
 18 54  1  0  0  0
 19 55  1  0  0  0
 20 56  1  0  0  0
 20 57  1  0  0  0
 21 58  1  0  0  0
 23 59  1  0  0  0
 24 60  1  0  0  0
 24 61  1  0  0  0
 26 62  1  0  0  0
 26 63  1  0  0  0
 26 64  1  0  0  0
 27 65  1  0  0  0
 28 66  1  0  0  0
 30 67  1  0  0  0
 30 68  1  0  0  0
 30 69  1  0  0  0
 31 70  1  0  0  0
 31 71  1  0  0  0
 31 72  1  0  0  0
 33 73  1  0  0  0
 33 74  1  0  0  0
 33 75  1  0  0  0
 34 76  1  0  0  0
 34 77  1  0  0  0
 34 78  1  0  0  0
 35 79  1  0  0  0
 35 80  1  0  0  0
M  END
$$$$
