6r18_ligand
  -I-interpret- 

 36 37  0  0  0  0  0  0  0  0999 V2000
   22.7150   13.9580   26.3830 C   0  0  0  0  0
   25.0780   15.3420   28.2460 C   0  0  0  0  0
   25.5120   16.8840   29.9790 C   0  0  0  0  0
   29.1400   17.5600   29.1430 C   0  0  0  0  0
   26.9990   17.0400   30.1100 C   0  0  0  0  0
   27.6300   16.8110   31.3210 C   0  0  0  0  0
   29.0010   16.9550   31.4410 C   0  0  0  0  0
   29.7740   17.3310   30.3540 C   0  0  0  0  0
   27.7690   17.4160   29.0230 C   0  0  0  0  0
   31.2700   17.4880   30.4860 C   0  0  0  0  0
   22.1820   12.8100   25.8660 N   0  0  0  0  0
   24.5080   14.1520   28.0120 N   0  0  0  0  0
   24.1770   13.7080   26.6860 C   0  0  0  0  0
   31.6450   18.3210   31.6340 N   0  3  0  0  0
   23.0780   11.7700   25.8150 C   0  0  0  0  0
   24.3350   12.1920   26.5220 C   0  0  0  0  0
   22.8550   10.6990   25.2770 O   0  0  0  0  0
   22.1160   15.0010   26.5660 O   0  0  0  0  0
   25.2010   15.5290   29.5680 O   0  0  0  0  0
   25.4280   16.1260   27.3940 O   0  0  0  0  0
   25.1382   17.5844   29.2322 H   0  0  0  0  0
   25.0397   17.0891   30.9397 H   0  0  0  0  0
   29.7283   17.8571   28.2748 H   0  0  0  0  0
   27.0408   16.5143   32.1887 H   0  0  0  0  0
   29.4791   16.7703   32.4030 H   0  0  0  0  0
   27.2900   17.6008   28.0615 H   0  0  0  0  0
   31.6396   17.9726   29.5823 H   0  0  0  0  0
   31.7017   16.4979   30.6321 H   0  0  0  0  0
   21.2153   12.7334   25.5497 H   0  0  0  0  0
   24.3021   13.5405   28.8020 H   0  0  0  0  0
   24.8516   14.2572   26.0292 H   0  0  0  0  0
   32.6611   18.3967   31.6801 H   0  0  0  0  0
   31.2382   19.2501   31.5257 H   0  0  0  0  0
   31.2954   17.8933   32.4915 H   0  0  0  0  0
   24.4618   11.6840   27.4780 H   0  0  0  0  0
   25.2323   11.9282   25.9622 H   0  0  0  0  0
  1 11  1  0  0  0
 13  1  1  0  0  0
  1 18  2  0  0  0
 12  2  1  0  0  0
  2 19  1  0  0  0
  2 20  2  0  0  0
  3  5  1  0  0  0
 19  3  1  0  0  0
  4  8  4  0  0  0
  9  4  4  0  0  0
  5  6  4  0  0  0
  5  9  4  0  0  0
  6  7  4  0  0  0
  7  8  4  0  0  0
  8 10  1  0  0  0
 10 14  1  0  0  0
 11 15  1  0  0  0
 13 12  1  0  0  0
 13 16  1  0  0  0
 15 16  1  0  0  0
 15 17  2  0  0  0
  3 21  1  0  0  0
  3 22  1  0  0  0
  4 23  1  0  0  0
  6 24  1  0  0  0
  7 25  1  0  0  0
  9 26  1  0  0  0
 10 27  1  0  0  0
 10 28  1  0  0  0
 11 29  1  0  0  0
 12 30  1  0  0  0
 13 31  1  0  0  0
 14 32  1  0  0  0
 14 33  1  0  0  0
 14 34  1  0  0  0
 16 35  1  0  0  0
 16 36  1  0  0  0
M  END
$$$$
