4yuw_ligand
  -I-interpret- 

 24 24  0  0  0  0  0  0  0  0999 V2000
   17.5730   52.2450   -1.8590 N   0  3  0  0  0
   18.4430   53.0640   -0.9300 C   0  0  0  0  0
   19.8650   52.9310   -1.4380 C   0  0  0  0  0
   18.0340   54.5610   -0.9380 C   0  0  0  0  0
   19.0380   55.5000   -0.2410 C   0  0  0  0  0
   20.4620   55.3220   -0.7380 C   0  0  0  0  0
   21.4550   56.0710    0.1690 C   0  0  0  0  0
   20.8290   53.8330   -0.6000 C   0  0  0  0  0
   17.8693   51.2695   -1.8284 H   0  0  0  0  0
   16.5998   52.3155   -1.5618 H   0  0  0  0  0
   17.6656   52.6000   -2.8107 H   0  0  0  0  0
   18.3361   52.7039    0.0932 H   0  0  0  0  0
   19.9006   53.2459   -2.4809 H   0  0  0  0  0
   20.1799   51.8917   -1.3445 H   0  0  0  0  0
   17.0931   54.6381   -0.3932 H   0  0  0  0  0
   17.9776   54.8713   -1.9814 H   0  0  0  0  0
   19.0266   55.2664    0.8236 H   0  0  0  0  0
   18.7374   56.5254   -0.4560 H   0  0  0  0  0
   20.5172   55.6917   -1.7619 H   0  0  0  0  0
   21.3401   55.7240    1.1959 H   0  0  0  0  0
   22.4725   55.8765   -0.1699 H   0  0  0  0  0
   21.2530   57.1410    0.1210 H   0  0  0  0  0
   21.8452   53.6903   -0.9675 H   0  0  0  0  0
   20.7446   53.5504    0.4493 H   0  0  0  0  0
  1  2  1  0  0  0
  2  3  1  0  0  0
  2  4  1  0  0  0
  3  8  1  0  0  0
  4  5  1  0  0  0
  5  6  1  0  0  0
  6  7  1  0  0  0
  6  8  1  0  0  0
  1  9  1  0  0  0
  1 10  1  0  0  0
  1 11  1  0  0  0
  2 12  1  0  0  0
  3 13  1  0  0  0
  3 14  1  0  0  0
  4 15  1  0  0  0
  4 16  1  0  0  0
  5 17  1  0  0  0
  5 18  1  0  0  0
  6 19  1  0  0  0
  7 20  1  0  0  0
  7 21  1  0  0  0
  7 22  1  0  0  0
  8 23  1  0  0  0
  8 24  1  0  0  0
M  END
$$$$
