1ove_ligand
  -I-interpret- 

 51 55  0  0  0  0  0  0  0  0999 V2000
   25.4610   11.1920   29.3270 Cl  0  0  0  0  0
   25.5450   10.6500   30.9290 C   0  0  0  0  0
   26.8120   10.5510   31.5650 C   0  0  0  0  0
   26.8670   10.1040   32.9290 C   0  0  0  0  0
   25.6630    9.7640   33.6410 C   0  0  0  0  0
   24.4110    9.8780   32.9570 C   0  0  0  0  0
   22.9370    9.4910   33.7730 Cl  0  0  0  0  0
   24.3230   10.3190   31.5960 C   0  0  0  0  0
   23.0540   10.4210   30.9550 N   0  0  0  0  0
   22.5670    9.3050   30.2650 C   0  0  0  0  0
   23.1460    8.2470   30.1610 O   0  0  0  0  0
   21.1570    9.4630   29.5990 C   0  0  0  0  0
   20.1580   10.2560   30.5120 C   0  0  0  0  0
   20.9360   11.6600   30.8950 C   0  0  0  0  0
   22.3300   11.6460   31.0720 C   0  0  0  0  0
   22.9690   12.9410   31.4040 C   0  0  0  0  0
   22.2470   14.1610   31.5460 C   0  0  0  0  0
   20.8030   14.0820   31.3600 C   0  0  0  0  0
   20.1060   12.8540   31.0330 C   0  0  0  0  0
   18.6070   12.9010   30.8860 C   0  0  0  0  0
   17.9290   13.5750   29.8040 C   0  0  0  0  0
   16.4870   13.5510   29.7500 C   0  0  0  0  0
   15.7560   12.8570   30.7710 C   0  0  0  0  0
   14.4260   12.8280   30.7190 F   0  0  0  0  0
   16.4020   12.1950   31.8430 C   0  0  0  0  0
   17.7970   12.2180   31.8960 C   0  0  0  0  0
   18.3240   11.5570   32.9500 F   0  0  0  0  0
   22.9910   15.5020   31.9050 C   0  0  0  0  0
   22.1620   16.8360   32.2690 C   0  0  0  0  0
   22.4490   18.1460   31.4380 C   0  0  0  0  0
   23.7960   18.1860   30.8620 N   0  0  0  0  0
   24.0150   17.0570   29.9620 C   0  0  0  0  0
   24.0860   15.7500   30.7630 C   0  0  0  0  0
   27.7247   10.8093   31.0280 H   0  0  0  0  0
   27.8312   10.0213   33.4305 H   0  0  0  0  0
   25.7039    9.4276   34.6770 H   0  0  0  0  0
   20.7468    8.4671   29.4315 H   0  0  0  0  0
   21.2808   10.0177   28.6689 H   0  0  0  0  0
   19.8937    9.6883   31.4041 H   0  0  0  0  0
   19.2142   10.4474   30.0013 H   0  0  0  0  0
   24.0494   12.9613   31.5473 H   0  0  0  0  0
   20.2170   14.9942   31.4728 H   0  0  0  0  0
   18.5003   14.0965   29.0360 H   0  0  0  0  0
   15.9583   14.0554   28.9412 H   0  0  0  0  0
   15.8235   11.6792   32.6094 H   0  0  0  0  0
   23.4101   15.3209   32.8948 H   0  0  0  0  0
   21.4218   16.8329   33.0691 H   0  0  0  0  0
   21.7174   18.9430   31.3053 H   0  0  0  0  0
   24.4889   18.9070   31.0631 H   0  0  0  0  0
   24.1137   17.1318   28.8791 H   0  0  0  0  0
   24.8607   15.0105   30.5602 H   0  0  0  0  0
  2  1  1  0  0  0
  2  3  4  0  0  0
  2  8  4  0  0  0
  3  4  4  0  0  0
  4  5  4  0  0  0
  5  6  4  0  0  0
  6  7  1  0  0  0
  6  8  4  0  0  0
  8  9  1  0  0  0
  9 10  1  0  0  0
  9 15  1  0  0  0
 10 11  2  0  0  0
 10 12  1  0  0  0
 12 13  1  0  0  0
 13 14  1  0  0  0
 14 15  4  0  0  0
 14 19  4  0  0  0
 15 16  4  0  0  0
 16 17  4  0  0  0
 17 18  4  0  0  0
 17 28  1  0  0  0
 18 19  4  0  0  0
 19 20  1  0  0  0
 20 21  4  0  0  0
 20 26  4  0  0  0
 21 22  4  0  0  0
 22 23  4  0  0  0
 23 24  1  0  0  0
 23 25  4  0  0  0
 25 26  4  0  0  0
 26 27  1  0  0  0
 28 29  1  0  0  0
 28 33  1  0  0  0
 29 30  2  0  0  0
 30 31  1  0  0  0
 31 32  1  0  0  0
 32 33  2  0  0  0
  3 34  1  0  0  0
  4 35  1  0  0  0
  5 36  1  0  0  0
 12 37  1  0  0  0
 12 38  1  0  0  0
 13 39  1  0  0  0
 13 40  1  0  0  0
 16 41  1  0  0  0
 18 42  1  0  0  0
 21 43  1  0  0  0
 22 44  1  0  0  0
 25 45  1  0  0  0
 28 46  1  0  0  0
 29 47  1  0  0  0
 30 48  1  0  0  0
 31 49  1  0  0  0
 32 50  1  0  0  0
 33 51  1  0  0  0
M  END
$$$$
