1rhu_ligand
  -I-interpret- 

 81 84  0  0  0  0  0  0  0  0999 V2000
   73.7440  -15.4720   90.4530 C   0  0  0  0  0
   73.3650  -14.7380   89.2950 C   0  0  0  0  0
   72.0270  -14.2770   89.1530 C   0  0  0  0  0
   71.0670  -14.5540   90.1610 C   0  0  0  0  0
   71.4520  -15.2850   91.3110 C   0  0  0  0  0
   72.7960  -15.7560   91.4750 C   0  0  0  0  0
   73.1700  -16.5480   92.7270 C   0  0  0  0  0
   72.2070  -16.0310   94.1560 S   0  0  0  0  0
   72.7440  -17.1960   95.4220 C   0  0  0  0  0
   71.9900  -16.9800   96.7540 C   0  0  0  0  0
   72.3740  -18.0130   97.8450 C   0  0  0  0  0
   70.7480  -17.0500   96.4400 O   0  0  0  0  0
   73.7830  -18.1420   98.0930 N   0  0  0  0  0
   71.6720  -17.7070   99.2130 C   0  0  0  0  0
   70.6410  -18.7410   99.6630 C   0  0  0  0  0
   70.2550  -18.7530  100.8120 O   0  0  0  0  0
   70.2090  -19.5430   98.8810 O   0  0  0  0  0
   74.3530  -19.3070   97.8240 C   0  0  0  0  0
   73.7500  -20.3150   97.3490 O   0  0  0  0  0
   76.8000  -21.0770   96.9440 C   0  0  0  0  0
   76.2500  -20.8240   98.1760 N   0  0  0  0  0
   75.8420  -19.4090   98.1700 C   0  0  0  0  0
   76.8720  -18.7420   97.1670 C   0  0  0  0  0
   77.1930  -19.9200   96.3250 C   0  0  0  0  0
   77.8080  -19.9540   95.0560 C   0  0  0  0  0
   78.0000  -21.2070   94.4230 C   0  0  0  0  0
   77.5740  -22.4130   95.0560 C   0  0  0  0  0
   76.9540  -22.3790   96.3400 C   0  0  0  0  0
   76.4300  -23.6430   97.0530 C   0  0  0  0  0
   76.6620  -23.9330   98.5530 C   0  0  0  0  0
   77.2360  -22.7900   99.3680 C   0  0  0  0  0
   76.3490  -21.5310   99.3550 C   0  0  0  0  0
   75.7820  -21.1930  100.4330 O   0  0  0  0  0
   77.4380  -23.1660  100.7700 N   0  0  0  0  0
   78.5350  -23.8260  101.1540 C   0  0  0  0  0
   78.6190  -24.1060  102.6620 C   0  0  0  0  0
   79.4840  -24.1970  100.3920 O   0  0  0  0  0
   79.0480  -25.5000  102.8890 N   0  0  0  0  0
   78.1690  -26.5370  102.9220 C   0  0  0  0  0
   78.8400  -27.8940  103.1730 C   0  0  0  0  0
   76.9060  -26.4380  102.7660 O   0  0  0  0  0
   79.6160  -23.0970  103.2830 C   0  0  0  0  0
   79.8120  -23.2420  104.7860 C   0  0  0  0  0
   80.9340  -23.3080  105.2410 O   0  0  0  0  0
   78.8490  -23.2800  105.5260 O   0  0  0  0  0
   74.7714  -15.8205   90.5584 H   0  0  0  0  0
   74.0994  -14.5290   88.5171 H   0  0  0  0  0
   71.7383  -13.7098   88.2681 H   0  0  0  0  0
   70.0399  -14.2062   90.0506 H   0  0  0  0  0
   70.7135  -15.4932   92.0851 H   0  0  0  0  0
   74.2240  -16.3720   92.9419 H   0  0  0  0  0
   72.9662  -17.6022   92.5394 H   0  0  0  0  0
   73.8082  -17.0426   95.6009 H   0  0  0  0  0
   72.5362  -18.2063   95.0695 H   0  0  0  0  0
   72.2492  -16.0212   97.2030 H   0  0  0  0  0
   72.0247  -18.9571   97.4269 H   0  0  0  0  0
   70.2126  -16.9236   97.2267 H   0  0  0  0  0
   74.3264  -17.3625   98.4639 H   0  0  0  0  0
   71.1359  -16.7666   99.0854 H   0  0  0  0  0
   72.4555  -17.6971   99.9707 H   0  0  0  0  0
   70.6936  -18.0543  101.3030 H   0  0  0  0  0
   75.8921  -18.8814   99.1225 H   0  0  0  0  0
   77.7340  -18.2755   97.6439 H   0  0  0  0  0
   76.4825  -17.8840   96.6191 H   0  0  0  0  0
   78.1299  -19.0325   94.5709 H   0  0  0  0  0
   78.4773  -21.2502   93.4440 H   0  0  0  0  0
   77.7238  -23.3687   94.5537 H   0  0  0  0  0
   76.9783  -24.4463   96.5610 H   0  0  0  0  0
   75.3479  -23.5280   96.9907 H   0  0  0  0  0
   77.3926  -24.7405   98.6000 H   0  0  0  0  0
   75.6825  -24.1515   98.9783 H   0  0  0  0  0
   78.1888  -22.5651   98.8886 H   0  0  0  0  0
   76.7310  -22.9204  101.4630 H   0  0  0  0  0
   77.6445  -23.9836  103.1348 H   0  0  0  0  0
   80.0402  -25.6925  103.0261 H   0  0  0  0  0
   78.4401  -28.3320  104.0875 H   0  0  0  0  0
   78.6391  -28.5582  102.3324 H   0  0  0  0  0
   79.9158  -27.7523  103.2767 H   0  0  0  0  0
   79.2091  -22.1007  103.1101 H   0  0  0  0  0
   80.5844  -23.2793  102.8171 H   0  0  0  0  0
   78.0445  -23.2165  105.0060 H   0  0  0  0  0
  1  2  4  0  0  0
  6  1  4  0  0  0
  2  3  4  0  0  0
  4  3  4  0  0  0
  5  4  4  0  0  0
  6  5  4  0  0  0
  7  6  1  0  0  0
  8  7  1  0  0  0
  9  8  1  0  0  0
 10  9  1  0  0  0
 11 10  1  0  0  0
 10 12  1  0  0  0
 13 11  1  0  0  0
 11 14  1  0  0  0
 18 13  1  0  0  0
 14 15  1  0  0  0
 15 16  1  0  0  0
 15 17  2  0  0  0
 18 19  2  0  0  0
 22 18  1  0  0  0
 21 20  1  0  0  0
 20 24  4  0  0  0
 20 28  4  0  0  0
 21 22  1  0  0  0
 21 32  1  0  0  0
 22 23  1  0  0  0
 23 24  1  0  0  0
 24 25  4  0  0  0
 25 26  4  0  0  0
 26 27  4  0  0  0
 27 28  4  0  0  0
 28 29  1  0  0  0
 29 30  1  0  0  0
 30 31  1  0  0  0
 31 32  1  0  0  0
 31 34  1  0  0  0
 32 33  2  0  0  0
 34 35  1  0  0  0
 35 36  1  0  0  0
 35 37  2  0  0  0
 36 38  1  0  0  0
 36 42  1  0  0  0
 38 39  1  0  0  0
 39 40  1  0  0  0
 39 41  2  0  0  0
 42 43  1  0  0  0
 43 44  2  0  0  0
 43 45  1  0  0  0
  1 46  1  0  0  0
  2 47  1  0  0  0
  3 48  1  0  0  0
  4 49  1  0  0  0
  5 50  1  0  0  0
  7 51  1  0  0  0
  7 52  1  0  0  0
  9 53  1  0  0  0
  9 54  1  0  0  0
 10 55  1  0  0  0
 11 56  1  0  0  0
 12 57  1  0  0  0
 13 58  1  0  0  0
 14 59  1  0  0  0
 14 60  1  0  0  0
 16 61  1  0  0  0
 22 62  1  0  0  0
 23 63  1  0  0  0
 23 64  1  0  0  0
 25 65  1  0  0  0
 26 66  1  0  0  0
 27 67  1  0  0  0
 29 68  1  0  0  0
 29 69  1  0  0  0
 30 70  1  0  0  0
 30 71  1  0  0  0
 31 72  1  0  0  0
 34 73  1  0  0  0
 36 74  1  0  0  0
 38 75  1  0  0  0
 40 76  1  0  0  0
 40 77  1  0  0  0
 40 78  1  0  0  0
 42 79  1  0  0  0
 42 80  1  0  0  0
 45 81  1  0  0  0
M  END
$$$$
