3e90_ligand
  -I-interpret- 

 89 90  0  0  0  0  0  0  0  0999 V2000
   16.9910   58.7350   -0.5730 C   0  0  0  0  0
   15.1660   51.4250    0.1540 C   0  0  0  0  0
   15.4690   50.5030   -0.8410 C   0  0  0  0  0
   15.0810   50.7400   -2.1550 C   0  0  0  0  0
   15.3920   49.8190   -3.1490 C   0  0  0  0  0
   16.0880   48.6570   -2.8340 C   0  0  0  0  0
   16.4790   48.4200   -1.5210 C   0  0  0  0  0
   16.1710   49.3440   -0.5280 C   0  0  0  0  0
   16.5720   49.1130    0.7830 C   0  0  0  0  0
   16.2720   50.0370    1.7770 C   0  0  0  0  0
   15.5660   51.1940    1.4660 C   0  0  0  0  0
   15.2060   52.1840    2.5740 C   0  0  0  0  0
   14.2570   52.9580    2.4540 O   0  0  0  0  0
   15.9570   52.0940    3.6690 N   0  0  0  0  0
   15.7630   52.9680    4.8340 C   0  0  0  0  0
   16.4950   52.3530    6.0280 C   0  0  0  0  0
   15.8570   50.9950    6.3250 C   0  0  0  0  0
   16.6260   50.1950    7.3780 C   0  0  0  0  0
   16.6660   50.9100    8.7290 C   0  0  0  0  0
   17.3890   50.0580    9.6840 N   0  3  0  0  0
   16.2880   54.3670    4.5010 C   0  0  0  0  0
   15.9460   55.3560    5.1470 O   0  0  0  0  0
   17.1210   54.4160    3.4670 N   0  0  0  0  0
   17.6880   55.6800    2.9750 C   0  0  0  0  0
   19.2180   55.6610    3.0160 C   0  0  0  0  0
   19.7770   55.6920    4.4410 C   0  0  0  0  0
   21.3060   55.7440    4.4180 C   0  0  0  0  0
   21.8950   55.7890    5.8290 C   0  0  0  0  0
   21.4030   56.9860    6.5240 N   0  3  0  0  0
   17.2370   55.8540    1.5250 C   0  0  0  0  0
   17.2280   54.9030    0.7460 O   0  0  0  0  0
   16.8380   57.0820    1.2050 N   0  0  0  0  0
   16.3850   57.3950   -0.1550 C   0  0  0  0  0
   16.5940   59.0040   -1.9190 O   0  0  0  0  0
   14.8550   57.4420   -0.1720 C   0  0  0  0  0
   14.3260   56.1390    0.4320 C   0  0  0  0  0
   12.8010   56.0220    0.4560 C   0  0  0  0  0
   12.4850   54.6830    0.9750 N   0  0  0  0  0
   11.2300   54.2510    1.0370 C   0  0  0  0  0
   10.9830   53.0230    1.4860 N   0  0  0  0  0
   10.2380   55.0370    0.6310 N   0  0  0  0  0
   18.0780   58.6924   -0.5043 H   0  0  0  0  0
   16.6389   59.5277    0.0871 H   0  0  0  0  0
   14.6136   52.3312   -0.0944 H   0  0  0  0  0
   14.5328   51.6481   -2.4059 H   0  0  0  0  0
   15.0892   50.0084   -4.1788 H   0  0  0  0  0
   16.3263   47.9341   -3.6142 H   0  0  0  0  0
   17.0262   47.5113   -1.2701 H   0  0  0  0  0
   17.1226   48.2058    1.0317 H   0  0  0  0  0
   16.5910   49.8542    2.8031 H   0  0  0  0  0
   16.6956   51.3913    3.7007 H   0  0  0  0  0
   14.7071   53.0600    5.0885 H   0  0  0  0  0
   16.4130   53.0058    6.8970 H   0  0  0  0  0
   17.5533   52.2297    5.7982 H   0  0  0  0  0
   15.8579   50.4170    5.4009 H   0  0  0  0  0
   14.8535   51.1753    6.7105 H   0  0  0  0  0
   17.6511   50.0712    7.0288 H   0  0  0  0  0
   16.1203   49.2391    7.5145 H   0  0  0  0  0
   15.6519   51.0916    9.0849 H   0  0  0  0  0
   17.1725   51.8699    8.6280 H   0  0  0  0  0
   17.4246   50.5214   10.5919 H   0  0  0  0  0
   16.9046   49.1650    9.7755 H   0  0  0  0  0
   18.3377   49.8984    9.3449 H   0  0  0  0  0
   17.3759   53.5466    2.9984 H   0  0  0  0  0
   17.3442   56.4978    3.6083 H   0  0  0  0  0
   19.5757   56.5514    2.4989 H   0  0  0  0  0
   19.5518   54.7350    2.5478 H   0  0  0  0  0
   19.4619   54.7890    4.9639 H   0  0  0  0  0
   19.4008   56.5800    4.9490 H   0  0  0  0  0
   21.6099   56.6486    3.8912 H   0  0  0  0  0
   21.6717   54.8444    3.9229 H   0  0  0  0  0
   22.9828   55.8239    5.7688 H   0  0  0  0  0
   21.5920   54.8980    6.3789 H   0  0  0  0  0
   21.7954   57.0167    7.4650 H   0  0  0  0  0
   21.6881   57.8185    6.0081 H   0  0  0  0  0
   20.3851   56.9511    6.5797 H   0  0  0  0  0
   16.8471   57.8152    1.9140 H   0  0  0  0  0
   16.7090   56.6313   -0.8621 H   0  0  0  0  0
   16.9660   59.8434   -2.1995 H   0  0  0  0  0
   14.4962   57.5519   -1.1954 H   0  0  0  0  0
   14.5011   58.2936    0.4091 H   0  0  0  0  0
   14.6640   56.1080    1.4678 H   0  0  0  0  0
   14.6979   55.3254   -0.1908 H   0  0  0  0  0
   12.3864   56.1579   -0.5429 H   0  0  0  0  0
   12.3632   56.7953    1.0872 H   0  0  0  0  0
   13.2410   54.0763    1.2924 H   0  0  0  0  0
   10.0245   52.6760    1.5212 H   0  0  0  0  0
   11.7522   52.4286    1.7950 H   0  0  0  0  0
   10.4407   55.9702    0.2726 H   0  0  0  0  0
 33  1  1  0  0  0
  1 34  1  0  0  0
  2  3  4  0  0  0
 11  2  4  0  0  0
  3  4  4  0  0  0
  3  8  4  0  0  0
  4  5  4  0  0  0
  5  6  4  0  0  0
  7  6  4  0  0  0
  8  7  4  0  0  0
  9  8  4  0  0  0
 10  9  4  0  0  0
 11 10  4  0  0  0
 12 11  1  0  0  0
 12 13  2  0  0  0
 14 12  1  0  0  0
 15 14  1  0  0  0
 15 16  1  0  0  0
 21 15  1  0  0  0
 16 17  1  0  0  0
 17 18  1  0  0  0
 18 19  1  0  0  0
 19 20  1  0  0  0
 21 22  2  0  0  0
 23 21  1  0  0  0
 24 23  1  0  0  0
 24 25  1  0  0  0
 30 24  1  0  0  0
 25 26  1  0  0  0
 26 27  1  0  0  0
 27 28  1  0  0  0
 28 29  1  0  0  0
 30 31  2  0  0  0
 32 30  1  0  0  0
 32 33  1  0  0  0
 33 35  1  0  0  0
 35 36  1  0  0  0
 36 37  1  0  0  0
 37 38  1  0  0  0
 38 39  1  0  0  0
 39 40  1  0  0  0
 39 41  2  0  0  0
  1 42  1  0  0  0
  1 43  1  0  0  0
  2 44  1  0  0  0
  4 45  1  0  0  0
  5 46  1  0  0  0
  6 47  1  0  0  0
  7 48  1  0  0  0
  9 49  1  0  0  0
 10 50  1  0  0  0
 14 51  1  0  0  0
 15 52  1  0  0  0
 16 53  1  0  0  0
 16 54  1  0  0  0
 17 55  1  0  0  0
 17 56  1  0  0  0
 18 57  1  0  0  0
 18 58  1  0  0  0
 19 59  1  0  0  0
 19 60  1  0  0  0
 20 61  1  0  0  0
 20 62  1  0  0  0
 20 63  1  0  0  0
 23 64  1  0  0  0
 24 65  1  0  0  0
 25 66  1  0  0  0
 25 67  1  0  0  0
 26 68  1  0  0  0
 26 69  1  0  0  0
 27 70  1  0  0  0
 27 71  1  0  0  0
 28 72  1  0  0  0
 28 73  1  0  0  0
 29 74  1  0  0  0
 29 75  1  0  0  0
 29 76  1  0  0  0
 32 77  1  0  0  0
 33 78  1  0  0  0
 34 79  1  0  0  0
 35 80  1  0  0  0
 35 81  1  0  0  0
 36 82  1  0  0  0
 36 83  1  0  0  0
 37 84  1  0  0  0
 37 85  1  0  0  0
 38 86  1  0  0  0
 40 87  1  0  0  0
 40 88  1  0  0  0
 41 89  1  0  0  0
M  END
$$$$
