3dnj_ligand
  -I-interpret- 

 54 54  0  0  0  0  0  0  0  0999 V2000
   17.4910   -6.0820   12.8190 N   0  3  0  0  0
   17.9170   -6.6820   11.5350 C   0  0  0  0  0
   19.0640   -5.8790   10.9580 C   0  0  0  0  0
   19.3230   -4.7680   11.3980 O   0  0  0  0  0
   16.7510   -6.7180   10.5660 C   0  0  0  0  0
   15.6270   -7.6220   11.0200 C   0  0  0  0  0
   14.3150   -7.1610   11.0520 C   0  0  0  0  0
   15.8800   -8.9170   11.4350 C   0  0  0  0  0
   13.2790   -7.9880   11.4450 C   0  0  0  0  0
   14.8490   -9.7540   11.8410 C   0  0  0  0  0
   13.5510   -9.2740   11.8530 C   0  0  0  0  0
   12.4990  -10.0920   12.2120 O   0  0  0  0  0
   19.7530   -6.4510    9.9770 N   0  0  0  0  0
   20.9140   -5.8140    9.3560 C   0  0  0  0  0
   20.5550   -4.9100    8.2100 C   0  0  0  0  0
   19.7180   -5.2330    7.3860 O   0  0  0  0  0
   21.8730   -6.8660    8.8190 C   0  0  0  0  0
   22.8980   -7.2310    9.8640 C   0  0  0  0  0
   22.1440   -7.5820   11.0760 C   0  0  0  0  0
   23.8450   -8.3530    9.4060 C   0  0  0  0  0
   21.2540   -3.7830    8.1570 N   0  0  0  0  0
   21.1510   -2.8140    7.0640 C   0  0  0  0  0
   19.8980   -1.9510    7.1630 C   0  0  0  0  0
   19.5551   -1.4367    8.2610 O   0  0  0  0  0
   21.2130   -3.5140    5.7140 C   0  0  0  0  0
   19.1974   -1.7498    6.1352 O   0  0  0  0  0
   18.2819   -6.0626   13.4628 H   0  0  0  0  0
   17.1608   -5.1309   12.6555 H   0  0  0  0  0
   16.7378   -6.6404   13.2205 H   0  0  0  0  0
   18.2527   -7.7048   11.7059 H   0  0  0  0  0
   17.1223   -7.1038    9.6166 H   0  0  0  0  0
   16.3519   -5.7064   10.4917 H   0  0  0  0  0
   14.1004   -6.1322   10.7629 H   0  0  0  0  0
   16.9054   -9.2865   11.4435 H   0  0  0  0  0
   12.2519   -7.6233   11.4318 H   0  0  0  0  0
   15.0599  -10.7787   12.1471 H   0  0  0  0  0
   12.8379  -10.9517   12.4720 H   0  0  0  0  0
   19.4612   -7.3699    9.6439 H   0  0  0  0  0
   21.3723   -5.2152   10.1431 H   0  0  0  0  0
   22.3862   -6.4638    7.9455 H   0  0  0  0  0
   21.3063   -7.7582    8.5527 H   0  0  0  0  0
   23.5651   -6.3907   10.0560 H   0  0  0  0  0
   21.5490   -6.7255   11.3930 H   0  0  0  0  0
   21.4858   -8.4240   10.8618 H   0  0  0  0  0
   22.8401   -7.8559   11.8688 H   0  0  0  0  0
   23.2644   -9.2480    9.1822 H   0  0  0  0  0
   24.3803   -8.0326    8.5122 H   0  0  0  0  0
   24.5591   -8.5708   10.2002 H   0  0  0  0  0
   21.8992   -3.5805    8.9206 H   0  0  0  0  0
   22.0067   -2.1450    7.1551 H   0  0  0  0  0
   22.1603   -4.0457    5.6251 H   0  0  0  0  0
   20.3884   -4.2225    5.6353 H   0  0  0  0  0
   21.1345   -2.7733    4.9182 H   0  0  0  0  0
   19.5899   -2.2063    5.3874 H   0  0  0  0  0
  1  2  1  0  0  0
  2  3  1  0  0  0
  2  5  1  0  0  0
  3  4  2  0  0  0
  3 13  1  0  0  0
  5  6  1  0  0  0
  6  7  4  0  0  0
  6  8  4  0  0  0
  7  9  4  0  0  0
  8 10  4  0  0  0
  9 11  4  0  0  0
 10 11  4  0  0  0
 11 12  1  0  0  0
 13 14  1  0  0  0
 14 15  1  0  0  0
 14 17  1  0  0  0
 15 16  2  0  0  0
 15 21  1  0  0  0
 17 18  1  0  0  0
 18 19  1  0  0  0
 18 20  1  0  0  0
 21 22  1  0  0  0
 22 23  1  0  0  0
 22 25  1  0  0  0
 23 24  2  0  0  0
 23 26  1  0  0  0
  1 27  1  0  0  0
  1 28  1  0  0  0
  1 29  1  0  0  0
  2 30  1  0  0  0
  5 31  1  0  0  0
  5 32  1  0  0  0
  7 33  1  0  0  0
  8 34  1  0  0  0
  9 35  1  0  0  0
 10 36  1  0  0  0
 12 37  1  0  0  0
 13 38  1  0  0  0
 14 39  1  0  0  0
 17 40  1  0  0  0
 17 41  1  0  0  0
 18 42  1  0  0  0
 19 43  1  0  0  0
 19 44  1  0  0  0
 19 45  1  0  0  0
 20 46  1  0  0  0
 20 47  1  0  0  0
 20 48  1  0  0  0
 21 49  1  0  0  0
 22 50  1  0  0  0
 25 51  1  0  0  0
 25 52  1  0  0  0
 25 53  1  0  0  0
 26 54  1  0  0  0
M  END
$$$$
