1puq_ligand
  -I-interpret- 

 38 40  0  0  0  0  0  0  0  0999 V2000
   -6.9730    3.5010   -2.9930 O   0  0  0  0  0
   -8.2530    3.0460   -2.1290 P   0  0  0  0  0
   -9.3440    2.7010   -3.0670 O   0  0  0  0  0
   -8.4920    4.0670   -1.0840 O   0  0  0  0  0
   -7.7220    1.6980   -1.4270 O   0  0  0  0  0
   -8.4330    1.1020   -0.3390 C   0  0  0  0  0
   -9.8870    0.7950   -0.7050 C   0  0  0  0  0
  -10.6870   -0.0170    0.1630 O   0  0  0  0  0
  -10.7530    2.0450   -0.8730 C   0  0  0  0  0
  -11.1870    2.2090   -2.2250 O   0  0  0  0  0
  -11.9440    1.8980    0.0800 C   0  0  0  0  0
  -11.8150    0.5670    0.8270 C   0  0  0  0  0
  -12.0540    0.6020    2.2880 N   0  0  0  0  0
  -11.3840    1.4570    3.1220 C   0  0  0  0  0
  -11.8890    1.1900    4.3670 N   0  0  0  0  0
  -12.8430    0.2070    4.3190 C   0  0  0  0  0
  -13.6290   -0.4120    5.2260 C   0  0  0  0  0
  -13.5370   -0.0630    6.4540 O   0  0  0  0  0
  -14.5380   -1.4080    4.8880 N   0  0  0  0  0
  -14.6250   -1.7640    3.5680 C   0  0  0  0  0
  -15.4970   -2.7290    3.2450 N   0  0  0  0  0
  -13.8570   -1.1840    2.5520 N   0  0  0  0  0
  -12.9600   -0.1790    2.9980 C   0  0  0  0  0
  -10.4910    2.3220    2.8150 O   0  0  0  0  0
   -6.2531    3.7293   -2.4004 H   0  0  0  0  0
   -7.6959    4.1787   -0.5593 H   0  0  0  0  0
   -8.4320    1.8042    0.4946 H   0  0  0  0  0
   -7.9404    0.1641   -0.0826 H   0  0  0  0  0
   -9.6710    0.2364   -1.6157 H   0  0  0  0  0
  -10.1767    2.9386   -0.6333 H   0  0  0  0  0
  -11.7261    3.0004   -2.2931 H   0  0  0  0  0
  -12.8752    1.9157   -0.4862 H   0  0  0  0  0
  -11.9517    2.7229    0.7925 H   0  0  0  0  0
  -12.6258   -0.1595    0.7736 H   0  0  0  0  0
  -11.5928    1.6625    5.2210 H   0  0  0  0  0
  -15.1185   -1.8570    5.5964 H   0  0  0  0  0
  -15.5910   -3.0273    2.2741 H   0  0  0  0  0
  -16.0667   -3.1652    3.9700 H   0  0  0  0  0
  1  2  1  0  0  0
  2  3  2  0  0  0
  2  4  1  0  0  0
  2  5  1  0  0  0
  5  6  1  0  0  0
  6  7  1  0  0  0
  7  8  1  0  0  0
  7  9  1  0  0  0
  8 12  1  0  0  0
  9 10  1  0  0  0
  9 11  1  0  0  0
 11 12  1  0  0  0
 12 13  1  0  0  0
 13 14  1  0  0  0
 13 23  1  0  0  0
 14 15  1  0  0  0
 14 24  2  0  0  0
 15 16  1  0  0  0
 16 17  1  0  0  0
 16 23  2  0  0  0
 17 18  2  0  0  0
 17 19  1  0  0  0
 19 20  1  0  0  0
 20 21  1  0  0  0
 20 22  2  0  0  0
 22 23  1  0  0  0
  1 25  1  0  0  0
  4 26  1  0  0  0
  6 27  1  0  0  0
  6 28  1  0  0  0
  7 29  1  0  0  0
  9 30  1  0  0  0
 10 31  1  0  0  0
 11 32  1  0  0  0
 11 33  1  0  0  0
 12 34  1  0  0  0
 15 35  1  0  0  0
 19 36  1  0  0  0
 21 37  1  0  0  0
 21 38  1  0  0  0
M  END
$$$$
