### 
### Created by X-TOOL on Mon Sep 10 21:12:51 2018
### 

@<TRIPOS>MOLECULE
1puq_ligand
   36    38     1     0     0
SMALL
GAST_HUCK


@<TRIPOS>ATOM
      1 O3P        -6.9730    3.5010   -2.9930 O.co2     1 8OG        -0.5537
      2 P          -8.2530    3.0460   -2.1290 P.3       1 8OG         0.2008
      3 O1P        -9.3440    2.7010   -3.0670 O.co2     1 8OG        -0.5537
      4 O2P        -8.4920    4.0670   -1.0840 O.co2     1 8OG        -0.5537
      5 O5         -7.7220    1.6980   -1.4270 O.3       1 8OG        -0.2734
      6 C5         -8.4330    1.1020   -0.3390 C.3       1 8OG         0.1071
      7 C4         -9.8870    0.7950   -0.7050 C.3       1 8OG         0.1155
      8 O4        -10.6870   -0.0170    0.1630 O.3       1 8OG        -0.3405
      9 C3        -10.7530    2.0450   -0.8730 C.3       1 8OG         0.0888
     10 O3        -11.1870    2.2090   -2.2250 O.3       1 8OG        -0.3890
     11 C2        -11.9440    1.8980    0.0800 C.3       1 8OG         0.0297
     12 C1        -11.8150    0.5670    0.8270 C.3       1 8OG         0.1711
     13 N9        -12.0540    0.6020    2.2880 N.am      1 8OG        -0.1800
     14 C8        -11.3840    1.4570    3.1220 C.2       1 8OG         0.3009
     15 N7        -11.8890    1.1900    4.3670 N.am      1 8OG        -0.2392
     16 C5        -12.8430    0.2070    4.3190 C.2       1 8OG         0.1376
     17 C6        -13.6290   -0.4120    5.2260 C.2       1 8OG         0.2169
     18 O6        -13.5370   -0.0630    6.4540 O.2       1 8OG        -0.4208
     19 N1        -14.5380   -1.4080    4.8880 N.am      1 8OG        -0.1896
     20 C2        -14.6250   -1.7640    3.5680 C.2       1 8OG         0.2257
     21 N2        -15.4970   -2.7290    3.2450 N.pl3     1 8OG        -0.2848
     22 N3        -13.8570   -1.1840    2.5520 N.2       1 8OG        -0.2899
     23 C4        -12.9600   -0.1790    2.9980 C.2       1 8OG         0.1142
     24 O8        -10.4910    2.3220    2.8150 O.2       1 8OG        -0.4065
     25 H1         -8.4204    1.7945    0.5155 H         1 8OG         0.0639
     26 H2         -7.9317    0.1640   -0.0583 H         1 8OG         0.0639
     27 H3         -9.8332    0.2767   -1.6738 H         1 8OG         0.0649
     28 H4        -10.1674    2.9313   -0.5876 H         1 8OG         0.0622
     29 H5        -10.4291    2.2910   -2.7920 H         1 8OG         0.2099
     30 H6        -12.8817    1.9102   -0.4950 H         1 8OG         0.0343
     31 H7        -11.9454    2.7284    0.8013 H         1 8OG         0.0343
     32 H8        -12.6628   -0.0481    0.4911 H         1 8OG         0.0946
     33 H9        -11.5986    1.6533    5.2043 H         1 8OG         0.2143
     34 H10       -15.1071   -1.8482    5.5825 H         1 8OG         0.2492
     35 H11       -15.5947   -3.0276    2.2641 H         1 8OG         0.1875
     36 H12       -16.0695   -3.1721    3.9777 H         1 8OG         0.1875
@<TRIPOS>BOND
     1    1    2 ar 
     2    2    3 ar 
     3    2    4 ar 
     4    2    5 1  
     5    5    6 1  
     6    6    7 1  
     7    6   25 1  
     8    6   26 1  
     9    7    8 1  
    10    7    9 1  
    11    7   27 1  
    12    8   12 1  
    13    9   10 1  
    14    9   11 1  
    15    9   28 1  
    16   10   29 1  
    17   11   12 1  
    18   11   30 1  
    19   11   31 1  
    20   12   13 1  
    21   12   32 1  
    22   13   14 am 
    23   13   23 am 
    24   14   15 am 
    25   14   24 2  
    26   15   16 am 
    27   15   33 1  
    28   16   17 1  
    29   16   23 2  
    30   17   18 2  
    31   17   19 am 
    32   19   20 am 
    33   19   34 1  
    34   20   21 1  
    35   20   22 2  
    36   21   35 1  
    37   21   36 1  
    38   22   23 1  
@<TRIPOS>SUBSTRUCTURE
     1 8OG         1

