6ckw_ligand
  -I-interpret- 

 60 63  0  0  0  0  0  0  0  0999 V2000
   29.7740  -15.4730   28.9470 C   0  0  0  0  0
   30.4020  -16.3580   28.0720 C   0  0  0  0  0
   30.0900  -16.3150   26.7190 C   0  0  0  0  0
   30.4890   -9.9700   32.0570 C   0  0  0  0  0
   31.8560  -10.3140   32.5630 C   0  0  0  0  0
   28.5810   -8.7430   32.2840 C   0  0  0  0  0
   26.5890   -8.1040   32.0460 C   0  0  0  0  0
   24.1750   -7.6910   31.6650 C   0  0  0  0  0
   23.1810   -6.5510   31.9700 C   0  0  0  0  0
   21.9100   -6.6770   31.2700 C   0  0  0  0  0
   23.6500   -9.0320   32.1650 C   0  0  0  0  0
   22.9230   -9.8780   31.3310 C   0  0  0  0  0
   22.4530  -11.0990   31.7940 C   0  0  0  0  0
   22.7020  -11.4950   33.1020 C   0  0  0  0  0
   23.4330  -10.6520   33.9210 C   0  0  0  0  0
   23.9110   -9.4350   33.4730 C   0  0  0  0  0
   23.7150  -11.1070   35.5790 Cl  0  0  0  0  0
   20.9340   -6.7390   30.7150 N   0  0  0  0  0
   25.4500   -7.3580   32.2960 N   0  0  0  0  0
   27.7270   -7.8260   32.7370 N   0  0  0  0  0
   26.6490   -9.0890   31.1650 N   0  0  0  0  0
   27.9520   -9.4980   31.3210 N   0  0  0  0  0
   29.8580   -8.9680   32.6710 N   0  0  0  0  0
   29.8980  -10.7340   31.0190 C   0  0  0  0  0
   28.5830  -10.4990   30.6300 C   0  0  0  0  0
   27.8290  -11.1240   29.6960 N   0  0  0  0  0
   28.3840  -12.1910   28.8820 C   0  0  0  0  0
   28.1550  -13.5970   29.4670 C   0  0  0  0  0
   26.7070  -13.8340   29.5470 N   0  3  0  0  0
   28.8370  -14.5510   28.4850 C   0  0  0  0  0
   30.0120  -15.4380   30.2960 O   0  0  0  0  0
   30.9190  -16.4010   30.8290 C   0  0  0  0  0
   28.5470  -14.5270   27.1210 C   0  0  0  0  0
   29.1670  -15.4000   26.2450 C   0  0  0  0  0
   31.1310  -17.0770   28.4459 H   0  0  0  0  0
   30.5744  -17.0050   26.0281 H   0  0  0  0  0
   32.5082   -9.4465   32.4624 H   0  0  0  0  0
   31.7918  -10.6022   33.6122 H   0  0  0  0  0
   32.2594  -11.1428   31.9813 H   0  0  0  0  0
   24.3055   -7.7890   30.5873 H   0  0  0  0  0
   23.6427   -5.6201   31.6408 H   0  0  0  0  0
   22.9683   -6.5822   33.0386 H   0  0  0  0  0
   22.7209   -9.5777   30.3029 H   0  0  0  0  0
   21.8861  -11.7500   31.1285 H   0  0  0  0  0
   22.3297  -12.4490   33.4753 H   0  0  0  0  0
   24.4888   -8.7942   34.1391 H   0  0  0  0  0
   25.5018   -6.5620   32.9318 H   0  0  0  0  0
   30.4783  -11.5114   30.5220 H   0  0  0  0  0
   26.8580  -10.8419   29.5620 H   0  0  0  0  0
   29.4609  -12.0323   28.8258 H   0  0  0  0  0
   27.8857  -12.1554   27.9132 H   0  0  0  0  0
   28.5602  -13.7297   30.4701 H   0  0  0  0  0
   26.5365  -14.7626   29.9331 H   0  0  0  0  0
   26.2813  -13.1302   30.1502 H   0  0  0  0  0
   26.3016  -13.7731   28.6130 H   0  0  0  0  0
   30.5419  -17.4037   30.6278 H   0  0  0  0  0
   31.8951  -16.2776   30.3598 H   0  0  0  0  0
   31.0107  -16.2551   31.9053 H   0  0  0  0  0
   27.8207  -13.8094   26.7393 H   0  0  0  0  0
   28.9284  -15.3669   25.1820 H   0  0  0  0  0
  1  2  4  0  0  0
 30  1  4  0  0  0
  1 31  1  0  0  0
  2  3  4  0  0  0
  3 34  4  0  0  0
  4  5  1  0  0  0
  4 23  4  0  0  0
 24  4  4  0  0  0
  6 20  4  0  0  0
 22  6  4  0  0  0
  6 23  4  0  0  0
  7 19  1  0  0  0
  7 20  4  0  0  0
 21  7  4  0  0  0
  8  9  1  0  0  0
  8 11  1  0  0  0
 19  8  1  0  0  0
  9 10  1  0  0  0
 10 18  3  0  0  0
 11 12  4  0  0  0
 11 16  4  0  0  0
 12 13  4  0  0  0
 13 14  4  0  0  0
 15 14  4  0  0  0
 16 15  4  0  0  0
 15 17  1  0  0  0
 22 21  4  0  0  0
 25 22  4  0  0  0
 25 24  4  0  0  0
 26 25  1  0  0  0
 27 26  1  0  0  0
 28 27  1  0  0  0
 28 29  1  0  0  0
 28 30  1  0  0  0
 30 33  4  0  0  0
 31 32  1  0  0  0
 33 34  4  0  0  0
  2 35  1  0  0  0
  3 36  1  0  0  0
  5 37  1  0  0  0
  5 38  1  0  0  0
  5 39  1  0  0  0
  8 40  1  0  0  0
  9 41  1  0  0  0
  9 42  1  0  0  0
 12 43  1  0  0  0
 13 44  1  0  0  0
 14 45  1  0  0  0
 16 46  1  0  0  0
 19 47  1  0  0  0
 24 48  1  0  0  0
 26 49  1  0  0  0
 27 50  1  0  0  0
 27 51  1  0  0  0
 28 52  1  0  0  0
 29 53  1  0  0  0
 29 54  1  0  0  0
 29 55  1  0  0  0
 32 56  1  0  0  0
 32 57  1  0  0  0
 32 58  1  0  0  0
 33 59  1  0  0  0
 34 60  1  0  0  0
M  END
$$$$
