5tl9_ligand
  -I-interpret- 

 71 75  0  0  0  0  0  0  0  0999 V2000
    6.1520  -22.4590   33.2980 O   0  0  0  0  0
    8.8780  -16.7920   22.8400 C   0  0  0  0  0
    7.2860  -24.1670   32.3880 O   0  0  0  0  0
    8.5370  -16.7660   24.1970 C   0  0  0  0  0
    7.8030  -15.3850   29.0770 C   0  0  0  0  0
    8.3980  -14.3930   24.1360 N   0  0  0  0  0
    8.2940  -15.5450   24.8480 C   0  0  0  0  0
    8.0750  -14.1440   26.8760 C   0  0  0  0  0
    7.1400  -16.4600   26.8720 C   0  0  0  0  0
    7.6970  -16.6950   28.2760 C   0  0  0  0  0
    9.6530  -15.8250   30.5750 O   0  0  0  0  0
    8.4430  -15.7480   30.4030 C   0  0  0  0  0
    7.5070  -16.0150   31.3760 N   0  0  0  0  0
    7.8830  -16.4520   32.7200 C   0  0  0  0  0
    7.5330  -15.4390   33.8080 C   0  0  0  0  0
    6.1590  -15.8280   34.3350 C   0  0  0  0  0
    5.8930  -17.2570   33.8750 C   0  0  0  0  0
    7.1370  -17.7420   33.1330 C   0  0  0  0  0
    6.7560  -18.6830   31.9880 C   0  0  0  0  0
    7.4870  -20.0230   31.9740 C   0  0  0  0  0
    7.0690  -20.9310   30.8270 C   0  0  0  0  0
    7.0430  -20.3850   29.5150 C   0  0  0  0  0
    6.6790  -21.1540   28.4010 C   0  0  0  0  0
    6.3320  -22.4940   28.5670 C   0  0  0  0  0
    6.3550  -23.0630   29.8470 C   0  0  0  0  0
    6.7220  -22.3070   30.9940 C   0  0  0  0  0
    6.7080  -23.0410   32.3220 C   0  0  0  0  0
    8.5940  -14.3020   28.3090 C   0  0  0  0  0
    7.9580  -15.4510   26.1890 N   0  0  0  0  0
    8.9750  -15.5920   22.1240 C   0  0  0  0  0
    8.7220  -14.3800   22.8230 C   0  0  0  0  0
    9.3180  -15.5690   20.7560 C   0  0  0  0  0
    9.4030  -14.3480   20.0770 C   0  0  0  0  0
    9.1480  -13.1480   20.7510 C   0  0  0  0  0
    8.8060  -13.1550   22.1240 C   0  0  0  0  0
    8.5270  -11.8550   22.8400 C   0  0  0  0  0
    9.0675  -17.7428   22.3419 H   0  0  0  0  0
    7.6296  -24.4003   31.5225 H   0  0  0  0  0
    8.4593  -17.7002   24.7531 H   0  0  0  0  0
    6.8203  -14.9422   29.2394 H   0  0  0  0  0
    8.7809  -13.5261   26.3211 H   0  0  0  0  0
    7.0860  -13.6877   26.9171 H   0  0  0  0  0
    6.1104  -16.1092   26.9417 H   0  0  0  0  0
    7.1649  -17.3927   26.3085 H   0  0  0  0  0
    7.0198  -17.3656   28.8049 H   0  0  0  0  0
    8.6963  -17.1197   28.1809 H   0  0  0  0  0
    6.5180  -15.9044   31.1522 H   0  0  0  0  0
    8.9616  -16.5944   32.6527 H   0  0  0  0  0
    7.5250  -14.4247   33.4088 H   0  0  0  0  0
    8.2751  -15.4517   34.6063 H   0  0  0  0  0
    5.3941  -15.1515   33.9537 H   0  0  0  0  0
    6.1302  -15.7614   35.4226 H   0  0  0  0  0
    5.0224  -17.2899   33.2200 H   0  0  0  0  0
    5.6857  -17.8997   34.7306 H   0  0  0  0  0
    7.8022  -18.3567   33.7394 H   0  0  0  0  0
    7.0226  -18.1724   31.0626 H   0  0  0  0  0
    5.6960  -18.9070   32.1078 H   0  0  0  0  0
    7.2451  -20.5377   32.9039 H   0  0  0  0  0
    8.5504  -19.8147   31.8559 H   0  0  0  0  0
    7.3137  -19.3390   29.3711 H   0  0  0  0  0
    6.6673  -20.7055   27.4076 H   0  0  0  0  0
    6.0442  -23.0960   27.7051 H   0  0  0  0  0
    6.0846  -24.1121   29.9667 H   0  0  0  0  0
    9.6413  -14.6014   28.2675 H   0  0  0  0  0
    8.4738  -13.3512   28.8282 H   0  0  0  0  0
    9.5168  -16.5016   20.2279 H   0  0  0  0  0
    9.6686  -14.3315   19.0200 H   0  0  0  0  0
    9.2133  -12.2015   20.2144 H   0  0  0  0  0
    7.5089  -11.8672   23.2291 H   0  0  0  0  0
    9.2308  -11.7372   23.6639 H   0  0  0  0  0
    8.6406  -11.0256   22.1420 H   0  0  0  0  0
 27  1  2  0  0  0
  4  2  4  0  0  0
  2 30  4  0  0  0
 27  3  1  0  0  0
  7  4  4  0  0  0
  5 10  1  0  0  0
 12  5  1  0  0  0
  5 28  1  0  0  0
  7  6  4  0  0  0
  6 31  4  0  0  0
 29  7  1  0  0  0
 28  8  1  0  0  0
  8 29  1  0  0  0
 10  9  1  0  0  0
  9 29  1  0  0  0
 12 11  2  0  0  0
 13 12  1  0  0  0
 14 13  1  0  0  0
 14 15  1  0  0  0
 18 14  1  0  0  0
 16 15  1  0  0  0
 17 16  1  0  0  0
 18 17  1  0  0  0
 19 18  1  0  0  0
 20 19  1  0  0  0
 21 20  1  0  0  0
 21 22  4  0  0  0
 26 21  4  0  0  0
 22 23  4  0  0  0
 24 23  4  0  0  0
 25 24  4  0  0  0
 26 25  4  0  0  0
 26 27  1  0  0  0
 30 31  4  0  0  0
 30 32  4  0  0  0
 31 35  4  0  0  0
 32 33  4  0  0  0
 33 34  4  0  0  0
 34 35  4  0  0  0
 35 36  1  0  0  0
  2 37  1  0  0  0
  3 38  1  0  0  0
  4 39  1  0  0  0
  5 40  1  0  0  0
  8 41  1  0  0  0
  8 42  1  0  0  0
  9 43  1  0  0  0
  9 44  1  0  0  0
 10 45  1  0  0  0
 10 46  1  0  0  0
 13 47  1  0  0  0
 14 48  1  0  0  0
 15 49  1  0  0  0
 15 50  1  0  0  0
 16 51  1  0  0  0
 16 52  1  0  0  0
 17 53  1  0  0  0
 17 54  1  0  0  0
 18 55  1  0  0  0
 19 56  1  0  0  0
 19 57  1  0  0  0
 20 58  1  0  0  0
 20 59  1  0  0  0
 22 60  1  0  0  0
 23 61  1  0  0  0
 24 62  1  0  0  0
 25 63  1  0  0  0
 28 64  1  0  0  0
 28 65  1  0  0  0
 32 66  1  0  0  0
 33 67  1  0  0  0
 34 68  1  0  0  0
 36 69  1  0  0  0
 36 70  1  0  0  0
 36 71  1  0  0  0
M  END
$$$$
