2vgp_ligand
  -I-interpret- 

 27 28  0  0  0  0  0  0  0  0999 V2000
   12.3400    2.8260    6.2340 N   0  0  0  0  0
   11.3700    3.7560    6.3430 C   0  0  0  0  0
   10.2810    3.4710    5.6180 C   0  0  0  0  0
   10.4890    2.0760    4.8150 S   0  0  0  0  0
   12.0480    1.8060    5.4180 C   0  0  0  0  0
   12.9140    0.7800    5.2240 N   0  0  0  0  0
   12.8580   -0.1470    4.2400 C   0  0  0  0  0
   11.6990   -0.5010    3.5400 C   0  0  0  0  0
   11.7400   -1.4780    2.5370 C   0  0  0  0  0
   14.0540   -0.7990    3.9310 C   0  0  0  0  0
   14.0960   -1.7810    2.9350 C   0  0  0  0  0
   12.9410   -2.1260    2.2250 C   0  0  0  0  0
   12.9890   -3.1020    1.2160 C   0  0  0  0  0
   13.7630   -4.0620    1.2910 O   0  0  0  0  0
   12.1480   -2.8920    0.1780 N   0  0  0  0  0
   12.1300   -3.8630   -0.9340 C   0  0  0  0  0
    8.7360    4.5630    5.5650 Br  0  0  0  0  0
   11.4630    4.6501    6.9594 H   0  0  0  0  0
   13.6851    0.6992    5.8868 H   0  0  0  0  0
   10.7546   -0.0114    3.7777 H   0  0  0  0  0
   10.8299   -1.7356    1.9954 H   0  0  0  0  0
   14.9644   -0.5401    4.4715 H   0  0  0  0  0
   15.0376   -2.2819    2.7102 H   0  0  0  0  0
   11.5361   -2.0761    0.1636 H   0  0  0  0  0
   13.1198   -3.9122   -1.3878 H   0  0  0  0  0
   11.8549   -4.8460   -0.5519 H   0  0  0  0  0
   11.4021   -3.5452   -1.6804 H   0  0  0  0  0
  1  2  4  0  0  0
  1  5  4  0  0  0
  2  3  4  0  0  0
  3  4  4  0  0  0
  3 17  1  0  0  0
  4  5  4  0  0  0
  5  6  1  0  0  0
  6  7  1  0  0  0
  7  8  4  0  0  0
  7 10  4  0  0  0
  8  9  4  0  0  0
  9 12  4  0  0  0
 10 11  4  0  0  0
 11 12  4  0  0  0
 12 13  1  0  0  0
 13 14  2  0  0  0
 13 15  1  0  0  0
 15 16  1  0  0  0
  2 18  1  0  0  0
  6 19  1  0  0  0
  8 20  1  0  0  0
  9 21  1  0  0  0
 10 22  1  0  0  0
 11 23  1  0  0  0
 15 24  1  0  0  0
 16 25  1  0  0  0
 16 26  1  0  0  0
 16 27  1  0  0  0
M  END
$$$$
