4elh_ligand
  -I-interpret- 

 72 75  0  0  0  0  0  0  0  0999 V2000
   21.7780  -26.2860    0.7110 O   0  0  0  0  0
   21.5530  -26.9550   -0.3260 C   0  0  0  0  0
   22.5600  -27.9280   -0.7920 N   0  0  0  0  0
   22.3380  -28.6820   -1.9090 N   0  3  0  0  0
   23.3590  -29.5490   -2.3760 C   0  0  0  0  0
   24.3170  -30.0680   -1.3890 C   0  0  0  0  0
   25.0190  -31.3040   -1.6220 C   0  0  0  0  0
   25.9290  -31.7920   -0.6500 C   0  0  0  0  0
   26.1490  -31.0900    0.5150 C   0  0  0  0  0
   25.4670  -29.8950    0.7440 C   0  0  0  0  0
   24.5270  -29.3880   -0.2610 C   0  0  0  0  0
   23.7850  -28.0870   -0.0010 C   0  0  0  0  0
   24.7550  -26.9260   -0.1140 C   0  0  0  0  0
   24.7470  -25.9260   -1.0460 C   0  0  0  0  0
   24.6210  -24.4680   -0.6000 C   0  0  0  0  0
   25.5550  -26.1650   -2.3260 C   0  0  0  0  0
   20.2190  -26.7350   -1.0880 C   0  0  0  0  0
   19.5120  -27.8360   -1.5070 C   0  0  0  0  0
   18.0880  -27.7500   -1.9420 C   0  0  0  0  0
   17.2030  -26.7650   -1.4690 C   0  0  0  0  0
   17.6330  -25.7980   -0.5310 O   0  0  0  0  0
   17.2350  -24.4800   -0.6250 C   0  0  0  0  0
   15.8850  -26.7550   -1.9170 C   0  0  0  0  0
   14.9590  -25.7930   -1.4710 O   0  0  0  0  0
   13.6120  -25.8290   -1.9380 C   0  0  0  0  0
   15.4490  -27.7420   -2.8530 C   0  0  0  0  0
   16.3320  -28.7280   -3.3200 C   0  0  0  0  0
   15.8280  -29.7440   -4.3180 C   0  0  0  0  0
   16.0930  -31.2070   -4.0490 C   0  0  0  0  0
   16.5600  -31.7680   -2.8320 C   0  0  0  0  0
   16.7380  -33.1480   -2.7640 N   0  0  0  0  0
   16.4650  -33.9390   -3.8140 C   0  0  0  0  0
   16.6500  -35.3570   -3.7720 N   0  0  0  0  0
   16.0290  -33.4120   -4.9770 N   0  0  0  0  0
   15.8310  -32.0740   -5.1140 C   0  0  0  0  0
   15.3520  -31.5480   -6.3540 N   0  0  0  0  0
   17.6400  -28.7370   -2.8830 C   0  0  0  0  0
   22.2092  -28.0035   -2.6596 H   0  0  0  0  0
   21.5669  -29.3001   -1.6567 H   0  0  0  0  0
   23.9503  -28.9553   -3.0731 H   0  0  0  0  0
   22.8419  -30.4241   -2.7696 H   0  0  0  0  0
   24.8512  -31.8626   -2.5428 H   0  0  0  0  0
   26.4580  -32.7287   -0.8257 H   0  0  0  0  0
   26.8540  -31.4674    1.2556 H   0  0  0  0  0
   25.6322  -29.3396    1.6672 H   0  0  0  0  0
   23.4046  -28.1102    1.0202 H   0  0  0  0  0
   25.6810  -27.4440   -0.3635 H   0  0  0  0  0
   24.5323  -26.3712    0.7974 H   0  0  0  0  0
   23.7147  -26.0761   -1.3621 H   0  0  0  0  0
   23.6837  -24.3343   -0.0600 H   0  0  0  0  0
   25.4569  -24.2154    0.0524 H   0  0  0  0  0
   24.6330  -23.8192   -1.4758 H   0  0  0  0  0
   26.6029  -26.3200   -2.0690 H   0  0  0  0  0
   25.1706  -27.0475   -2.8373 H   0  0  0  0  0
   25.4642  -25.2969   -2.9788 H   0  0  0  0  0
   19.8508  -25.7285   -1.2865 H   0  0  0  0  0
   20.0090  -28.8060   -1.5220 H   0  0  0  0  0
   17.5663  -24.0689   -1.5786 H   0  0  0  0  0
   16.1482  -24.4246   -0.5619 H   0  0  0  0  0
   17.6772  -23.9091    0.1915 H   0  0  0  0  0
   13.6019  -25.7221   -3.0227 H   0  0  0  0  0
   13.1581  -26.7805   -1.6611 H   0  0  0  0  0
   13.0501  -25.0117   -1.4859 H   0  0  0  0  0
   14.4187  -27.7293   -3.2087 H   0  0  0  0  0
   16.3584  -29.5228   -5.2442 H   0  0  0  0  0
   14.7428  -29.6429   -4.3059 H   0  0  0  0  0
   16.7742  -31.1345   -1.9713 H   0  0  0  0  0
   17.0008  -35.8006   -2.9231 H   0  0  0  0  0
   16.4311  -35.9244   -4.5909 H   0  0  0  0  0
   15.2029  -30.5444   -6.4587 H   0  0  0  0  0
   15.1593  -32.1763   -7.1341 H   0  0  0  0  0
   18.3331  -29.4931   -3.2519 H   0  0  0  0  0
  1  2  2  0  0  0
  2  3  1  0  0  0
  2 17  1  0  0  0
  3  4  1  0  0  0
  3 12  1  0  0  0
  4  5  1  0  0  0
  5  6  1  0  0  0
  6  7  4  0  0  0
  6 11  4  0  0  0
  7  8  4  0  0  0
  8  9  4  0  0  0
  9 10  4  0  0  0
 10 11  4  0  0  0
 11 12  1  0  0  0
 12 13  1  0  0  0
 13 14  1  0  0  0
 14 15  1  0  0  0
 14 16  1  0  0  0
 17 18  2  0  0  0
 18 19  1  0  0  0
 19 20  4  0  0  0
 19 37  4  0  0  0
 20 21  1  0  0  0
 20 23  4  0  0  0
 21 22  1  0  0  0
 23 24  1  0  0  0
 23 26  4  0  0  0
 24 25  1  0  0  0
 26 27  4  0  0  0
 27 28  1  0  0  0
 27 37  4  0  0  0
 28 29  1  0  0  0
 29 30  4  0  0  0
 29 35  4  0  0  0
 30 31  4  0  0  0
 31 32  4  0  0  0
 32 33  1  0  0  0
 32 34  4  0  0  0
 34 35  4  0  0  0
 35 36  1  0  0  0
  4 38  1  0  0  0
  4 39  1  0  0  0
  5 40  1  0  0  0
  5 41  1  0  0  0
  7 42  1  0  0  0
  8 43  1  0  0  0
  9 44  1  0  0  0
 10 45  1  0  0  0
 12 46  1  0  0  0
 13 47  1  0  0  0
 13 48  1  0  0  0
 14 49  1  0  0  0
 15 50  1  0  0  0
 15 51  1  0  0  0
 15 52  1  0  0  0
 16 53  1  0  0  0
 16 54  1  0  0  0
 16 55  1  0  0  0
 17 56  1  0  0  0
 18 57  1  0  0  0
 22 58  1  0  0  0
 22 59  1  0  0  0
 22 60  1  0  0  0
 25 61  1  0  0  0
 25 62  1  0  0  0
 25 63  1  0  0  0
 26 64  1  0  0  0
 28 65  1  0  0  0
 28 66  1  0  0  0
 30 67  1  0  0  0
 33 68  1  0  0  0
 33 69  1  0  0  0
 36 70  1  0  0  0
 36 71  1  0  0  0
 37 72  1  0  0  0
M  END
$$$$
