### 
### Created by X-TOOL on Wed Jan  1 15:39:37 2020
### 

@<TRIPOS>MOLECULE
6h41_ligand
  288   294     1     0     0
SMALL
GAST_HUCK


@<TRIPOS>ATOM
      1 N          40.1170   -0.7420    4.7390 N.4       1 VAL         0.2381
      2 CA         40.5180    0.3320    3.8380 C.3       1 VAL         0.0673
      3 C          41.9350    0.8100    4.1630 C.2       1 VAL         0.2270
      4 O          42.2750    1.0290    5.3260 O.2       1 VAL        -0.3907
      5 CB         39.5250    1.5200    3.9020 C.3       1 VAL         0.0139
      6 CG1        39.2080    1.8870    5.3480 C.3       1 VAL        -0.0553
      7 CG2        40.0540    2.7200    3.1270 C.3       1 VAL        -0.0553
      8 N          42.7520    0.9440    3.1200 N.am      1 ASP        -0.2595
      9 CA         44.1380    1.4050    3.2220 C.3       1 ASP         0.1424
     10 C          45.0460    0.4780    4.0300 C.2       1 ASP         0.2056
     11 O          45.7720    0.9250    4.9180 O.2       1 ASP        -0.3943
     12 CB         44.1980    2.8180    3.8130 C.3       1 ASP         0.0406
     13 CG         43.6040    3.8610    2.8890 C.2       1 ASP         0.0393
     14 OD1        44.0680    3.9630    1.7330 O.co2     1 ASP        -0.5688
     15 OD2        42.6820    4.5860    3.3170 O.co2     1 ASP        -0.5688
     16 N          45.0040   -0.8130    3.7150 N.am      1 GLU        -0.2635
     17 CA         46.0490   -1.7310    4.1490 C.3       1 GLU         0.1325
     18 C          46.5040   -2.5380    2.9410 C.2       1 GLU         0.2040
     19 O          45.7760   -2.6550    1.9550 O.2       1 GLU        -0.3944
     20 CB         45.5760   -2.6600    5.2740 C.3       1 GLU        -0.0008
     21 CG         44.7250   -3.8450    4.8330 C.3       1 GLU         0.0044
     22 CD         43.2410   -3.5350    4.8160 C.2       1 GLU         0.0350
     23 OE1        42.8780   -2.3430    4.8890 O.co2     1 GLU        -0.5690
     24 OE2        42.4370   -4.4880    4.7400 O.co2     1 GLU        -0.5690
     25 N          47.7120   -3.0810    3.0120 N.am      1 CYS        -0.2629
     26 CA         48.2470   -3.8710    1.9130 C.3       1 CYS         0.1406
     27 C          47.8750   -5.3410    2.0610 C.2       1 CYS         0.2048
     28 O          47.3010   -5.7480    3.0710 O.2       1 CYS        -0.3944
     29 CB         49.7660   -3.7160    1.8340 C.3       1 CYS         0.0443
     30 SG         50.3090   -2.1250    1.1780 S.3       1 CYS        -0.0882
     31 N          48.1940   -6.1330    1.0440 N.am      1 TRP        -0.2626
     32 CA         47.9730   -7.5710    1.1060 C.3       1 TRP         0.1352
     33 C          49.1110   -8.2560    1.8410 C.2       1 TRP         0.2052
     34 O          50.2790   -8.0580    1.5110 O.2       1 TRP        -0.3942
     35 CB         47.8360   -8.1630   -0.2960 C.3       1 TRP         0.0042
     36 CG         46.5580   -7.8130   -0.9710 C.2       1 TRP        -0.0418
     37 CD1        46.3440   -6.7800   -1.8330 C.2       1 TRP         0.0167
     38 CD2        45.3070   -8.4990   -0.8460 C.ar      1 TRP        -0.0214
     39 NE1        45.0370   -6.7770   -2.2530 N.pl3     1 TRP        -0.2890
     40 CE2        44.3790   -7.8230   -1.6620 C.ar      1 TRP         0.0603
     41 CE3        44.8830   -9.6170   -0.1240 C.ar      1 TRP        -0.0747
     42 CZ2        43.0520   -8.2290   -1.7750 C.ar      1 TRP        -0.0443
     43 CZ3        43.5640  -10.0190   -0.2380 C.ar      1 TRP        -0.0792
     44 CH2        42.6640   -9.3260   -1.0560 C.ar      1 TRP        -0.0768
     45 N          48.7740   -9.0610    2.8410 N.am      1 ARG        -0.2636
     46 CA         49.7860   -9.8590    3.5130 C.3       1 ARG         0.1311
     47 C          50.0220  -11.1530    2.7500 C.2       1 ARG         0.2039
     48 O          49.1710  -12.0430    2.7420 O.2       1 ARG        -0.3944
     49 CB         49.3830  -10.1690    4.9540 C.3       1 ARG        -0.0092
     50 CG         50.4110  -11.0110    5.7020 C.3       1 ARG        -0.0156
     51 CD         51.7200  -10.2540    5.8800 C.3       1 ARG         0.0627
     52 NE         52.7570  -11.0700    6.5070 N.pl3     1 ARG        -0.2723
     53 CZ         53.9160  -10.5920    6.9500 C.cat     1 ARG         0.2882
     54 NH1        54.1860   -9.2980    6.8420 N.pl3     1 ARG        -0.2849
     55 NH2        54.8030  -11.4050    7.5070 N.pl3     1 ARG        -0.2849
     56 N          51.1730  -11.2440    2.0940 N.am      1 ILE        -0.2635
     57 CA         51.5980  -12.4910    1.4750 C.3       1 ILE         0.1335
     58 C          52.1360  -13.4140    2.5620 C.2       1 ILE         0.2042
     59 O          53.2610  -13.2370    3.0580 O.2       1 ILE        -0.3944
     60 CB         52.6620  -12.2660    0.3920 C.3       1 ILE        -0.0037
     61 CG1        52.2210  -11.1510   -0.5600 C.3       1 ILE        -0.0491
     62 CG2        52.9190  -13.5570   -0.3710 C.3       1 ILE        -0.0582
     63 CD1        50.9470  -11.4620   -1.3180 C.3       1 ILE        -0.0648
     64 N          51.3040  -14.3890    2.9220 N.am      1 ILE        -0.2635
     65 CA         51.5260  -15.2740    4.0610 C.3       1 ILE         0.1335
     66 C          52.7360  -16.1850    3.9030 C.2       1 ILE         0.2041
     67 O          53.6100  -16.2270    4.7690 O.2       1 ILE        -0.3944
     68 CB         50.2900  -16.1660    4.3100 C.3       1 ILE        -0.0037
     69 CG1        49.0500  -15.3100    4.5720 C.3       1 ILE        -0.0491
     70 CG2        50.5390  -17.1100    5.4730 C.3       1 ILE        -0.0582
     71 CD1        49.1260  -14.5060    5.8460 C.3       1 ILE        -0.0648
     72 N          52.7730  -16.9190    2.7970 N.am      1 ALA        -0.2640
     73 CA         53.8160  -17.9100    2.5630 C.3       1 ALA         0.1282
     74 C          55.1990  -17.2770    2.4250 C.2       1 ALA         0.2037
     75 O          56.2150  -17.9450    2.6100 O.2       1 ALA        -0.3944
     76 CB         53.4890  -18.7290    1.3230 C.3       1 ALA        -0.0244
     77 N          55.2360  -15.9880    2.1070 N.am      1 SER        -0.2616
     78 CA         56.5020  -15.3070    1.8690 C.3       1 SER         0.1539
     79 C          56.8340  -14.3080    2.9690 C.2       1 SER         0.2063
     80 O          57.8510  -13.6170    2.8990 O.2       1 SER        -0.3943
     81 CB         56.4680  -14.6020    0.5160 C.3       1 SER         0.0843
     82 OG         56.0400  -15.4990   -0.4890 O.3       1 SER        -0.3903
     83 N          55.9680  -14.2450    3.9780 N.am      1 HIS        -0.2624
     84 CA         56.1340  -13.3330    5.1060 C.3       1 HIS         0.1369
     85 C          56.3260  -11.8930    4.6450 C.2       1 HIS         0.2054
     86 O          57.0930  -11.1410    5.2480 O.2       1 HIS        -0.3942
     87 CB         57.3230  -13.7560    5.9740 C.3       1 HIS         0.0145
     88 CG         57.3250  -15.2100    6.3310 C.2       1 HIS        -0.0027
     89 ND1        56.5710  -15.7220    7.3630 N.2       1 HIS        -0.3252
     90 CD2        57.9920  -16.2570    5.7940 C.2       1 HIS         0.0291
     91 CE1        56.7720  -17.0270    7.4470 C.2       1 HIS         0.0907
     92 NE2        57.6310  -17.3760    6.5040 N.pl3     1 HIS        -0.2752
     93 N          55.6380  -11.5070    3.5750 N.am      1 THR        -0.2612
     94 CA         55.8740  -10.1810    3.0090 C.3       1 THR         0.1565
     95 C          54.5970   -9.3770    2.8360 C.2       1 THR         0.2066
     96 O          53.5000   -9.8720    3.0760 O.2       1 THR        -0.3943
     97 CB         56.5850  -10.2680    1.6420 C.3       1 THR         0.0924
     98 OG1        55.9900  -11.3090    0.8570 O.3       1 THR        -0.3874
     99 CG2        58.0650  -10.5640    1.8270 C.3       1 THR        -0.0346
    100 N          54.7550   -8.1240    2.4290 N.am      1 TRP        -0.2626
    101 CA         53.6160   -7.2840    2.0960 C.3       1 TRP         0.1352
    102 C          53.5790   -7.0580    0.5950 C.2       1 TRP         0.2053
    103 O          54.5910   -7.2030   -0.0890 O.2       1 TRP        -0.3942
    104 CB         53.6840   -5.9410    2.8280 C.3       1 TRP         0.0042
    105 CG         53.5530   -6.0430    4.3150 C.2       1 TRP        -0.0418
    106 CD1        54.5520   -5.9190    5.2360 C.2       1 TRP         0.0167
    107 CD2        52.3510   -6.2850    5.0560 C.ar      1 TRP        -0.0214
    108 NE1        54.0470   -6.0700    6.5050 N.pl3     1 TRP        -0.2890
    109 CE2        52.6980   -6.2960    6.4220 C.ar      1 TRP         0.0603
    110 CE3        51.0160   -6.4950    4.6980 C.ar      1 TRP        -0.0747
    111 CZ2        51.7590   -6.5060    7.4290 C.ar      1 TRP        -0.0443
    112 CZ3        50.0850   -6.7040    5.6990 C.ar      1 TRP        -0.0792
    113 CH2        50.4610   -6.7080    7.0480 C.ar      1 TRP        -0.0768
    114 N          52.4070   -6.7100    0.0810 N.am      1 PHE        -0.2618
    115 CA         52.2980   -6.3250   -1.3140 C.3       1 PHE         0.1404
    116 C          51.2620   -5.2290   -1.4850 C.2       1 PHE         0.2060
    117 O          50.1790   -5.2820   -0.9010 O.2       1 PHE        -0.3942
    118 CB         51.9460   -7.5200   -2.1960 C.3       1 PHE         0.0214
    119 CG         52.0140   -7.2140   -3.6600 C.ar      1 PHE        -0.0386
    120 CD1        50.8720   -6.8710   -4.3640 C.ar      1 PHE        -0.0601
    121 CD2        53.2280   -7.2340   -4.3260 C.ar      1 PHE        -0.0601
    122 CE1        50.9370   -6.5720   -5.7110 C.ar      1 PHE        -0.0686
    123 CE2        53.3000   -6.9370   -5.6720 C.ar      1 PHE        -0.0686
    124 CZ         52.1530   -6.6050   -6.3660 C.ar      1 PHE        -0.0687
    125 N          51.6040   -4.2340   -2.2950 N.am      1 CYS        -0.2627
    126 CA         50.7360   -3.0850   -2.4940 C.3       1 CYS         0.1406
    127 C          50.2940   -2.9430   -3.9460 C.2       1 CYS         0.2047
    128 O          49.1310   -3.1810   -4.2650 O.2       1 CYS        -0.3944
    129 CB         51.4360   -1.8070   -2.0240 C.3       1 CYS         0.0443
    130 SG         51.7200   -1.7500   -0.2350 S.3       1 CYS        -0.0882
    131 N          51.2070   -2.5590   -4.8320 N.am      1 ALA        -0.2640
    132 CA         50.7930   -2.1990   -6.1880 C.3       1 ALA         0.1282
    133 C          51.8370   -2.5000   -7.2720 C.2       1 ALA         0.2036
    134 O          52.8820   -3.0750   -6.9960 O.2       1 ALA        -0.3944
    135 CB         50.4010   -0.7130   -6.2260 C.3       1 ALA        -0.0244
    136 N          51.5120   -2.1300   -8.5080 N.am      1 GLU        -0.2636
    137 CA         52.3670   -2.3660   -9.6530 C.3       1 GLU         0.1324
    138 C          52.3580   -1.1710  -10.6070 C.2       1 GLU         0.2035
    139 O          51.9760   -1.2930  -11.7880 O.2       1 GLU        -0.3944
    140 CB         51.9170   -3.6210  -10.4140 C.3       1 GLU        -0.0008
    141 CG         51.7470   -4.8690   -9.5750 C.3       1 GLU         0.0044
    142 CD         52.0440   -6.1140  -10.3520 C.2       1 GLU         0.0350
    143 OE1        51.1400   -6.9270  -10.5940 O.co2     1 GLU        -0.5690
    144 OE2        53.2150   -6.2780  -10.7090 O.co2     1 GLU        -0.5690
    145 N          52.7750   -0.0200  -10.0790 N.am      1 GLU        -0.2694
    146 CA         52.7280    1.2720  -10.7850 C.3       1 GLU         0.0959
    147 C          53.3040    1.2770  -12.1990 C.2       1 GLU         0.0602
    148 O          54.1620    0.4690  -12.5480 O.co2     1 GLU        -0.5666
    149 CB         53.4700    2.3590   -9.9910 C.3       1 GLU        -0.0064
    150 CG         52.8690    2.7250   -8.6400 C.3       1 GLU         0.0038
    151 CD         53.4010    1.8620   -7.5130 C.2       1 GLU         0.0350
    152 OE1        54.2250    0.9630   -7.7880 O.co2     1 GLU        -0.5690
    153 OE2        52.9960    2.0860   -6.3530 O.co2     1 GLU        -0.5690
    154 OXT        52.9300    2.1210  -13.0200 O.co2     1 GLU        -0.5666
    155 H1         40.7799   -1.4987    4.6758 H         1 VAL         0.2015
    156 H2         39.2017   -1.0746    4.4790 H         1 VAL         0.2015
    157 H3         40.0922   -0.3952    5.6851 H         1 VAL         0.2015
    158 H4         40.5139   -0.0639    2.8117 H         1 VAL         0.1101
    159 H5         38.5872    1.2004    3.4241 H         1 VAL         0.0376
    160 H6         38.5027    2.7310    5.3659 H         1 VAL         0.0236
    161 H7         40.1355    2.1732    5.8655 H         1 VAL         0.0236
    162 H8         38.7570    1.0216    5.8556 H         1 VAL         0.0236
    163 H9         40.2717    2.4205    2.0912 H         1 VAL         0.0236
    164 H10        40.9748    3.0874    3.6036 H         1 VAL         0.0236
    165 H11        39.2976    3.5186    3.1265 H         1 VAL         0.0236
    166 H12        42.3978    0.7162    2.2130 H         1 ASP         0.1886
    167 H13        44.5401    1.4473    2.1990 H         1 ASP         0.0819
    168 H14        45.2501    3.0754    4.0048 H         1 ASP         0.0478
    169 H15        43.6395    2.8277    4.7606 H         1 ASP         0.0478
    170 H16        44.2409   -1.1605    3.1700 H         1 GLU         0.1883
    171 H17        46.8987   -1.1428    4.5258 H         1 GLU         0.0801
    172 H18        44.9827   -2.0613    5.9808 H         1 GLU         0.0330
    173 H19        46.4668   -3.0542    5.7849 H         1 GLU         0.0330
    174 H20        44.9006   -4.6802    5.5269 H         1 GLU         0.0433
    175 H21        45.0331   -4.1397    3.8190 H         1 GLU         0.0433
    176 H22        48.2644   -2.9453    3.8344 H         1 CYS         0.1884
    177 H23        47.8101   -3.4970    0.9753 H         1 CYS         0.0808
    178 H24        50.1614   -4.5109    1.1845 H         1 CYS         0.0432
    179 H25        50.1785   -3.8312    2.8472 H         1 CYS         0.0432
    180 H26        48.5940   -5.7339    0.2190 H         1 TRP         0.1884
    181 H27        47.0385   -7.7547    1.6564 H         1 TRP         0.0815
    182 H28        47.8987   -9.2584   -0.2180 H         1 TRP         0.0397
    183 H29        48.6675   -7.7911   -0.9127 H         1 TRP         0.0397
    184 H30        47.1003   -6.0607   -2.1439 H         1 TRP         0.0795
    185 H31        44.6193   -6.0988   -2.9060 H         1 TRP         0.2216
    186 H32        45.5732  -10.1586    0.5126 H         1 TRP         0.0540
    187 H33        42.3527   -7.6958   -2.4089 H         1 TRP         0.0541
    188 H34        43.2216  -10.8857    0.3158 H         1 TRP         0.0510
    189 H35        41.6368   -9.6662   -1.1211 H         1 TRP         0.0530
    190 H36        47.8195   -9.1187    3.1334 H         1 ARG         0.1883
    191 H37        50.7244   -9.2853    3.5309 H         1 ARG         0.0800
    192 H38        48.4286  -10.7157    4.9393 H         1 ARG         0.0313
    193 H39        49.2529   -9.2184    5.4920 H         1 ARG         0.0313
    194 H40        50.6039  -11.9316    5.1317 H         1 ARG         0.0301
    195 H41        50.0094  -11.2707    6.6926 H         1 ARG         0.0301
    196 H42        51.5348   -9.3726    6.5115 H         1 ARG         0.0689
    197 H43        52.0766   -9.9286    4.8916 H         1 ARG         0.0689
    198 H44        52.5791  -12.0790    6.6125 H         1 ARG         0.2642
    199 H45        55.0841   -8.9289    7.1855 H         1 ARG         0.2615
    200 H46        53.4975   -8.6622    6.4146 H         1 ARG         0.2615
    201 H47        54.5972  -12.4106    7.5928 H         1 ARG         0.2615
    202 H48        55.6978  -11.0310    7.8539 H         1 ARG         0.2615
    203 H49        51.7608  -10.4380    2.0237 H         1 ILE         0.1883
    204 H50        50.7235  -12.9647    1.0050 H         1 ILE         0.0803
    205 H51        53.5984  -11.9575    0.8798 H         1 ILE         0.0345
    206 H52        53.0258  -10.9799   -1.2901 H         1 ILE         0.0267
    207 H53        52.0595  -10.2360    0.0288 H         1 ILE         0.0267
    208 H54        53.2340  -14.3420    0.3322 H         1 ILE         0.0235
    209 H55        53.7121  -13.3916   -1.1150 H         1 ILE         0.0235
    210 H56        51.9967  -13.8709   -0.8818 H         1 ILE         0.0235
    211 H57        50.6972  -10.6176   -1.9773 H         1 ILE         0.0230
    212 H58        50.1261  -11.6251   -0.6042 H         1 ILE         0.0230
    213 H59        51.0924  -12.3690   -1.9231 H         1 ILE         0.0230
    214 H60        50.4756  -14.5233    2.3782 H         1 ILE         0.1883
    215 H61        51.6881  -14.6411    4.9459 H         1 ILE         0.0803
    216 H62        50.1105  -16.7682    3.4072 H         1 ILE         0.0345
    217 H63        48.1757  -15.9747    4.6326 H         1 ILE         0.0267
    218 H64        48.9240  -14.6142    3.7294 H         1 ILE         0.0267
    219 H65        51.4332  -17.7169    5.2677 H         1 ILE         0.0235
    220 H66        49.6691  -17.7708    5.6017 H         1 ILE         0.0235
    221 H67        50.6952  -16.5263    6.3921 H         1 ILE         0.0235
    222 H68        48.2031  -13.9194    5.9649 H         1 ILE         0.0230
    223 H69        49.9893  -13.8259    5.7995 H         1 ILE         0.0230
    224 H70        49.2409  -15.1864    6.7027 H         1 ILE         0.0230
    225 H71        52.0641  -16.7880    2.1039 H         1 ALA         0.1883
    226 H72        53.8393  -18.5875    3.4293 H         1 ALA         0.0797
    227 H73        54.2816  -19.4731    1.1556 H         1 ALA         0.0277
    228 H74        53.4217  -18.0625    0.4505 H         1 ALA         0.0277
    229 H75        52.5274  -19.2435    1.4664 H         1 ALA         0.0277
    230 H76        54.3804  -15.4761    2.0296 H         1 SER         0.1884
    231 H77        57.2980  -16.0658    1.8467 H         1 SER         0.0823
    232 H78        57.4759  -14.2357    0.2713 H         1 SER         0.0606
    233 H79        55.7711  -13.7524    0.5659 H         1 SER         0.0606
    234 H80        56.0226  -15.0501   -1.3261 H         1 SER         0.2097
    235 H81        55.1702  -14.8477    3.9628 H         1 HIS         0.1885
    236 H82        55.2216  -13.3798    5.7186 H         1 HIS         0.0817
    237 H83        57.2981  -13.1706    6.9050 H         1 HIS         0.0420
    238 H84        58.2497  -13.5327    5.4251 H         1 HIS         0.0420
    239 H85        58.6857  -16.2197    4.9553 H         1 HIS         0.0729
    240 H86        56.3095  -17.6985    8.1688 H         1 HIS         0.1199
    241 H87        57.9736  -18.3317    6.3302 H         1 HIS         0.2361
    242 H88        54.9644  -12.1193    3.1609 H         1 THR         0.1884
    243 H89        56.5284   -9.6363    3.7055 H         1 THR         0.0826
    244 H90        56.4728   -9.3077    1.1175 H         1 THR         0.0639
    245 H91        56.4293  -11.3605    0.0162 H         1 THR         0.2101
    246 H92        58.5531  -10.6220    0.8429 H         1 THR         0.0257
    247 H93        58.1843  -11.5230    2.3525 H         1 THR         0.0257
    248 H94        58.5283   -9.7612    2.4193 H         1 THR         0.0257
    249 H95        55.6786   -7.7489    2.3495 H         1 TRP         0.1884
    250 H96        52.6950   -7.8022    2.4013 H         1 TRP         0.0815
    251 H97        52.8701   -5.3029    2.4535 H         1 TRP         0.0397
    252 H98        54.6524   -5.4724    2.5989 H         1 TRP         0.0397
    253 H99        55.5978   -5.7281    4.9997 H         1 TRP         0.0795
    254 H100       54.5935   -6.0212    7.3767 H         1 TRP         0.2216
    255 H101       50.7165   -6.4940    3.6562 H         1 TRP         0.0540
    256 H102       52.0458   -6.5092    8.4744 H         1 TRP         0.0541
    257 H103       49.0464   -6.8675    5.4349 H         1 TRP         0.0510
    258 H104       49.7060   -6.8750    7.8077 H         1 TRP         0.0530
    259 H105       51.5914   -6.7129    0.6596 H         1 PHE         0.1885
    260 H106       53.2737   -5.9339   -1.6382 H         1 PHE         0.0823
    261 H107       50.9230   -7.8437   -1.9539 H         1 PHE         0.0474
    262 H108       52.6504   -8.3358   -1.9765 H         1 PHE         0.0474
    263 H109       49.9168   -6.8368   -3.8526 H         1 PHE         0.0557
    264 H110       54.1323   -7.4859   -3.7839 H         1 PHE         0.0557
    265 H111       50.0352   -6.3118   -6.2534 H         1 PHE         0.0599
    266 H112       54.2553   -6.9643   -6.1836 H         1 PHE         0.0599
    267 H113       52.2067   -6.3707   -7.4230 H         1 PHE         0.0559
    268 H114       52.4781   -4.2760   -2.7789 H         1 CYS         0.1884
    269 H115       49.8354   -3.2309   -1.8795 H         1 CYS         0.0808
    270 H116       50.8120   -0.9456   -2.3044 H         1 CYS         0.0432
    271 H117       52.4087   -1.7363   -2.5327 H         1 CYS         0.0432
    272 H118       52.1720   -2.5164   -4.5731 H         1 ALA         0.1883
    273 H119       49.8991   -2.7945   -6.4253 H         1 ALA         0.0797
    274 H120       50.0896   -0.4419   -7.2456 H         1 ALA         0.0277
    275 H121       51.2641   -0.0984   -5.9307 H         1 ALA         0.0277
    276 H122       49.5687   -0.5354   -5.5291 H         1 ALA         0.0277
    277 H123       50.6372   -1.6677   -8.6531 H         1 GLU         0.1883
    278 H124       53.3946   -2.5203   -9.2921 H         1 GLU         0.0801
    279 H125       52.6678   -3.8341  -11.1891 H         1 GLU         0.0330
    280 H126       50.9507   -3.3995  -10.8905 H         1 GLU         0.0330
    281 H127       50.7090   -4.9152   -9.2140 H         1 GLU         0.0433
    282 H128       52.4319   -4.8151   -8.7159 H         1 GLU         0.0433
    283 H129       53.1414   -0.0346   -9.1486 H         1 GLU         0.1875
    284 H130       51.6677    1.5557  -10.8583 H         1 GLU         0.0727
    285 H131       53.4928    3.2699  -10.6073 H         1 GLU         0.0323
    286 H132       54.4978    2.0074   -9.8182 H         1 GLU         0.0323
    287 H133       51.7775    2.6001   -8.6943 H         1 GLU         0.0432
    288 H134       53.1074    3.7764   -8.4214 H         1 GLU         0.0432
@<TRIPOS>BOND
     1    1    2 1  
     2    2    3 1  
     3    2    5 1  
     4    3    4 2  
     5    3    8 am 
     6    5    6 1  
     7    5    7 1  
     8    8    9 1  
     9    9   10 1  
    10    9   12 1  
    11   10   11 2  
    12   10   16 am 
    13   12   13 1  
    14   13   14 ar 
    15   13   15 ar 
    16   16   17 1  
    17   17   18 1  
    18   17   20 1  
    19   18   19 2  
    20   18   25 am 
    21   20   21 1  
    22   21   22 1  
    23   22   23 ar 
    24   22   24 ar 
    25   25   26 1  
    26   26   27 1  
    27   26   29 1  
    28   27   28 2  
    29   27   31 am 
    30   29   30 1  
    31   30  130 1  
    32   31   32 1  
    33   32   33 1  
    34   32   35 1  
    35   33   34 2  
    36   33   45 am 
    37   35   36 1  
    38   36   37 2  
    39   36   38 1  
    40   37   39 1  
    41   38   40 ar 
    42   38   41 ar 
    43   39   40 1  
    44   40   42 ar 
    45   41   43 ar 
    46   42   44 ar 
    47   43   44 ar 
    48   45   46 1  
    49   46   47 1  
    50   46   49 1  
    51   47   48 2  
    52   47   56 am 
    53   49   50 1  
    54   50   51 1  
    55   51   52 1  
    56   52   53 ar 
    57   53   54 ar 
    58   53   55 ar 
    59   56   57 1  
    60   57   58 1  
    61   57   60 1  
    62   58   59 2  
    63   58   64 am 
    64   60   61 1  
    65   60   62 1  
    66   61   63 1  
    67   64   65 1  
    68   65   66 1  
    69   65   68 1  
    70   66   67 2  
    71   66   72 am 
    72   68   69 1  
    73   68   70 1  
    74   69   71 1  
    75   72   73 1  
    76   73   74 1  
    77   73   76 1  
    78   74   75 2  
    79   74   77 am 
    80   77   78 1  
    81   78   79 1  
    82   78   81 1  
    83   79   80 2  
    84   79   83 am 
    85   81   82 1  
    86   83   84 1  
    87   84   85 1  
    88   84   87 1  
    89   85   86 2  
    90   85   93 am 
    91   87   88 1  
    92   88   89 1  
    93   88   90 2  
    94   89   91 2  
    95   90   92 1  
    96   91   92 1  
    97   93   94 1  
    98   94   95 1  
    99   94   97 1  
   100   95   96 2  
   101   95  100 am 
   102   97   98 1  
   103   97   99 1  
   104  100  101 1  
   105  101  102 1  
   106  101  104 1  
   107  102  103 2  
   108  102  114 am 
   109  104  105 1  
   110  105  106 2  
   111  105  107 1  
   112  106  108 1  
   113  107  109 ar 
   114  107  110 ar 
   115  108  109 1  
   116  109  111 ar 
   117  110  112 ar 
   118  111  113 ar 
   119  112  113 ar 
   120  114  115 1  
   121  115  116 1  
   122  115  118 1  
   123  116  117 2  
   124  116  125 am 
   125  118  119 1  
   126  119  120 ar 
   127  119  121 ar 
   128  120  122 ar 
   129  121  123 ar 
   130  122  124 ar 
   131  123  124 ar 
   132  125  126 1  
   133  126  127 1  
   134  126  129 1  
   135  127  128 2  
   136  127  131 am 
   137  129  130 1  
   138  131  132 1  
   139  132  133 1  
   140  132  135 1  
   141  133  134 2  
   142  133  136 am 
   143  136  137 1  
   144  137  138 1  
   145  137  140 1  
   146  138  139 2  
   147  138  145 am 
   148  140  141 1  
   149  141  142 1  
   150  142  143 ar 
   151  142  144 ar 
   152  145  146 1  
   153  146  147 1  
   154  146  149 1  
   155  147  148 ar 
   156  147  154 ar 
   157  149  150 1  
   158  150  151 1  
   159  151  152 ar 
   160  151  153 ar 
   161    1  155 1  
   162    1  156 1  
   163    1  157 1  
   164    2  158 1  
   165    5  159 1  
   166    6  160 1  
   167    6  161 1  
   168    6  162 1  
   169    7  163 1  
   170    7  164 1  
   171    7  165 1  
   172    8  166 1  
   173    9  167 1  
   174   12  168 1  
   175   12  169 1  
   176   16  170 1  
   177   17  171 1  
   178   20  172 1  
   179   20  173 1  
   180   21  174 1  
   181   21  175 1  
   182   25  176 1  
   183   26  177 1  
   184   29  178 1  
   185   29  179 1  
   186   31  180 1  
   187   32  181 1  
   188   35  182 1  
   189   35  183 1  
   190   37  184 1  
   191   39  185 1  
   192   41  186 1  
   193   42  187 1  
   194   43  188 1  
   195   44  189 1  
   196   45  190 1  
   197   46  191 1  
   198   49  192 1  
   199   49  193 1  
   200   50  194 1  
   201   50  195 1  
   202   51  196 1  
   203   51  197 1  
   204   52  198 1  
   205   54  199 1  
   206   54  200 1  
   207   55  201 1  
   208   55  202 1  
   209   56  203 1  
   210   57  204 1  
   211   60  205 1  
   212   61  206 1  
   213   61  207 1  
   214   62  208 1  
   215   62  209 1  
   216   62  210 1  
   217   63  211 1  
   218   63  212 1  
   219   63  213 1  
   220   64  214 1  
   221   65  215 1  
   222   68  216 1  
   223   69  217 1  
   224   69  218 1  
   225   70  219 1  
   226   70  220 1  
   227   70  221 1  
   228   71  222 1  
   229   71  223 1  
   230   71  224 1  
   231   72  225 1  
   232   73  226 1  
   233   76  227 1  
   234   76  228 1  
   235   76  229 1  
   236   77  230 1  
   237   78  231 1  
   238   81  232 1  
   239   81  233 1  
   240   82  234 1  
   241   83  235 1  
   242   84  236 1  
   243   87  237 1  
   244   87  238 1  
   245   90  239 1  
   246   91  240 1  
   247   92  241 1  
   248   93  242 1  
   249   94  243 1  
   250   97  244 1  
   251   98  245 1  
   252   99  246 1  
   253   99  247 1  
   254   99  248 1  
   255  100  249 1  
   256  101  250 1  
   257  104  251 1  
   258  104  252 1  
   259  106  253 1  
   260  108  254 1  
   261  110  255 1  
   262  111  256 1  
   263  112  257 1  
   264  113  258 1  
   265  114  259 1  
   266  115  260 1  
   267  118  261 1  
   268  118  262 1  
   269  120  263 1  
   270  121  264 1  
   271  122  265 1  
   272  123  266 1  
   273  124  267 1  
   274  125  268 1  
   275  126  269 1  
   276  129  270 1  
   277  129  271 1  
   278  131  272 1  
   279  132  273 1  
   280  135  274 1  
   281  135  275 1  
   282  135  276 1  
   283  136  277 1  
   284  137  278 1  
   285  140  279 1  
   286  140  280 1  
   287  141  281 1  
   288  141  282 1  
   289  145  283 1  
   290  146  284 1  
   291  149  285 1  
   292  149  286 1  
   293  150  287 1  
   294  150  288 1  
@<TRIPOS>SUBSTRUCTURE
     1 VAL         1

