6h41_ligand
  -I-interpret- 

289295  0  0  0  0  0  0  0  0999 V2000
   40.1170   -0.7420    4.7390 N   0  3  0  0  0
   40.5180    0.3320    3.8380 C   0  0  0  0  0
   41.9350    0.8100    4.1630 C   0  0  0  0  0
   42.2750    1.0290    5.3260 O   0  0  0  0  0
   39.5250    1.5200    3.9020 C   0  0  0  0  0
   39.2080    1.8870    5.3480 C   0  0  0  0  0
   40.0540    2.7200    3.1270 C   0  0  0  0  0
   42.7520    0.9440    3.1200 N   0  0  0  0  0
   44.1380    1.4050    3.2220 C   0  0  0  0  0
   45.0460    0.4780    4.0300 C   0  0  0  0  0
   45.7720    0.9250    4.9180 O   0  0  0  0  0
   44.1980    2.8180    3.8130 C   0  0  0  0  0
   43.6040    3.8610    2.8890 C   0  0  0  0  0
   44.0680    3.9630    1.7330 O   0  0  0  0  0
   42.6820    4.5860    3.3170 O   0  0  0  0  0
   45.0040   -0.8130    3.7150 N   0  0  0  0  0
   46.0490   -1.7310    4.1490 C   0  0  0  0  0
   46.5040   -2.5380    2.9410 C   0  0  0  0  0
   45.7760   -2.6550    1.9550 O   0  0  0  0  0
   45.5760   -2.6600    5.2740 C   0  0  0  0  0
   44.7250   -3.8450    4.8330 C   0  0  0  0  0
   43.2410   -3.5350    4.8160 C   0  0  0  0  0
   42.8780   -2.3430    4.8890 O   0  0  0  0  0
   42.4370   -4.4880    4.7400 O   0  0  0  0  0
   47.7120   -3.0810    3.0120 N   0  0  0  0  0
   48.2470   -3.8710    1.9130 C   0  0  0  0  0
   47.8750   -5.3410    2.0610 C   0  0  0  0  0
   47.3010   -5.7480    3.0710 O   0  0  0  0  0
   49.7660   -3.7160    1.8340 C   0  0  0  0  0
   50.3090   -2.1250    1.1780 S   0  0  0  0  0
   48.1940   -6.1330    1.0440 N   0  0  0  0  0
   47.9730   -7.5710    1.1060 C   0  0  0  0  0
   49.1110   -8.2560    1.8410 C   0  0  0  0  0
   50.2790   -8.0580    1.5110 O   0  0  0  0  0
   47.8360   -8.1630   -0.2960 C   0  0  0  0  0
   46.5580   -7.8130   -0.9710 C   0  0  0  0  0
   46.3440   -6.7800   -1.8330 C   0  0  0  0  0
   45.3070   -8.4990   -0.8460 C   0  0  0  0  0
   45.0370   -6.7770   -2.2530 N   0  0  0  0  0
   44.3790   -7.8230   -1.6620 C   0  0  0  0  0
   44.8830   -9.6170   -0.1240 C   0  0  0  0  0
   43.0520   -8.2290   -1.7750 C   0  0  0  0  0
   43.5640  -10.0190   -0.2380 C   0  0  0  0  0
   42.6640   -9.3260   -1.0560 C   0  0  0  0  0
   48.7740   -9.0610    2.8410 N   0  0  0  0  0
   49.7860   -9.8590    3.5130 C   0  0  0  0  0
   50.0220  -11.1530    2.7500 C   0  0  0  0  0
   49.1710  -12.0430    2.7420 O   0  0  0  0  0
   49.3830  -10.1690    4.9540 C   0  0  0  0  0
   50.4110  -11.0110    5.7020 C   0  0  0  0  0
   51.7200  -10.2540    5.8800 C   0  0  0  0  0
   52.7570  -11.0700    6.5070 N   0  0  0  0  0
   53.9160  -10.5920    6.9500 C   0  0  0  0  0
   54.1860   -9.2980    6.8420 N   0  0  0  0  0
   54.8030  -11.4050    7.5070 N   0  0  0  0  0
   51.1730  -11.2440    2.0940 N   0  0  0  0  0
   51.5980  -12.4910    1.4750 C   0  0  0  0  0
   52.1360  -13.4140    2.5620 C   0  0  0  0  0
   53.2610  -13.2370    3.0580 O   0  0  0  0  0
   52.6620  -12.2660    0.3920 C   0  0  0  0  0
   52.2210  -11.1510   -0.5600 C   0  0  0  0  0
   52.9190  -13.5570   -0.3710 C   0  0  0  0  0
   50.9470  -11.4620   -1.3180 C   0  0  0  0  0
   51.3040  -14.3890    2.9220 N   0  0  0  0  0
   51.5260  -15.2740    4.0610 C   0  0  0  0  0
   52.7360  -16.1850    3.9030 C   0  0  0  0  0
   53.6100  -16.2270    4.7690 O   0  0  0  0  0
   50.2900  -16.1660    4.3100 C   0  0  0  0  0
   49.0500  -15.3100    4.5720 C   0  0  0  0  0
   50.5390  -17.1100    5.4730 C   0  0  0  0  0
   49.1260  -14.5060    5.8460 C   0  0  0  0  0
   52.7730  -16.9190    2.7970 N   0  0  0  0  0
   53.8160  -17.9100    2.5630 C   0  0  0  0  0
   55.1990  -17.2770    2.4250 C   0  0  0  0  0
   56.2150  -17.9450    2.6100 O   0  0  0  0  0
   53.4890  -18.7290    1.3230 C   0  0  0  0  0
   55.2360  -15.9880    2.1070 N   0  0  0  0  0
   56.5020  -15.3070    1.8690 C   0  0  0  0  0
   56.8340  -14.3080    2.9690 C   0  0  0  0  0
   57.8510  -13.6170    2.8990 O   0  0  0  0  0
   56.4680  -14.6020    0.5160 C   0  0  0  0  0
   56.0400  -15.4990   -0.4890 O   0  0  0  0  0
   55.9680  -14.2450    3.9780 N   0  0  0  0  0
   56.1340  -13.3330    5.1060 C   0  0  0  0  0
   56.3260  -11.8930    4.6450 C   0  0  0  0  0
   57.0930  -11.1410    5.2480 O   0  0  0  0  0
   57.3230  -13.7560    5.9740 C   0  0  0  0  0
   57.3250  -15.2100    6.3310 C   0  0  0  0  0
   56.5710  -15.7220    7.3630 N   0  0  0  0  0
   57.9920  -16.2570    5.7940 C   0  0  0  0  0
   56.7720  -17.0270    7.4470 C   0  0  0  0  0
   57.6310  -17.3760    6.5040 N   0  0  0  0  0
   55.6380  -11.5070    3.5750 N   0  0  0  0  0
   55.8740  -10.1810    3.0090 C   0  0  0  0  0
   54.5970   -9.3770    2.8360 C   0  0  0  0  0
   53.5000   -9.8720    3.0760 O   0  0  0  0  0
   56.5850  -10.2680    1.6420 C   0  0  0  0  0
   55.9900  -11.3090    0.8570 O   0  0  0  0  0
   58.0650  -10.5640    1.8270 C   0  0  0  0  0
   54.7550   -8.1240    2.4290 N   0  0  0  0  0
   53.6160   -7.2840    2.0960 C   0  0  0  0  0
   53.5790   -7.0580    0.5950 C   0  0  0  0  0
   54.5910   -7.2030   -0.0890 O   0  0  0  0  0
   53.6840   -5.9410    2.8280 C   0  0  0  0  0
   53.5530   -6.0430    4.3150 C   0  0  0  0  0
   54.5520   -5.9190    5.2360 C   0  0  0  0  0
   52.3510   -6.2850    5.0560 C   0  0  0  0  0
   54.0470   -6.0700    6.5050 N   0  0  0  0  0
   52.6980   -6.2960    6.4220 C   0  0  0  0  0
   51.0160   -6.4950    4.6980 C   0  0  0  0  0
   51.7590   -6.5060    7.4290 C   0  0  0  0  0
   50.0850   -6.7040    5.6990 C   0  0  0  0  0
   50.4610   -6.7080    7.0480 C   0  0  0  0  0
   52.4070   -6.7100    0.0810 N   0  0  0  0  0
   52.2980   -6.3250   -1.3140 C   0  0  0  0  0
   51.2620   -5.2290   -1.4850 C   0  0  0  0  0
   50.1790   -5.2820   -0.9010 O   0  0  0  0  0
   51.9460   -7.5200   -2.1960 C   0  0  0  0  0
   52.0140   -7.2140   -3.6600 C   0  0  0  0  0
   50.8720   -6.8710   -4.3640 C   0  0  0  0  0
   53.2280   -7.2340   -4.3260 C   0  0  0  0  0
   50.9370   -6.5720   -5.7110 C   0  0  0  0  0
   53.3000   -6.9370   -5.6720 C   0  0  0  0  0
   52.1530   -6.6050   -6.3660 C   0  0  0  0  0
   51.6040   -4.2340   -2.2950 N   0  0  0  0  0
   50.7360   -3.0850   -2.4940 C   0  0  0  0  0
   50.2940   -2.9430   -3.9460 C   0  0  0  0  0
   49.1310   -3.1810   -4.2650 O   0  0  0  0  0
   51.4360   -1.8070   -2.0240 C   0  0  0  0  0
   51.7200   -1.7500   -0.2350 S   0  0  0  0  0
   51.2070   -2.5590   -4.8320 N   0  0  0  0  0
   50.7930   -2.1990   -6.1880 C   0  0  0  0  0
   51.8370   -2.5000   -7.2720 C   0  0  0  0  0
   52.8820   -3.0750   -6.9960 O   0  0  0  0  0
   50.4010   -0.7130   -6.2260 C   0  0  0  0  0
   51.5120   -2.1300   -8.5080 N   0  0  0  0  0
   52.3670   -2.3660   -9.6530 C   0  0  0  0  0
   52.3580   -1.1710  -10.6070 C   0  0  0  0  0
   51.9760   -1.2930  -11.7880 O   0  0  0  0  0
   51.9170   -3.6210  -10.4140 C   0  0  0  0  0
   51.7470   -4.8690   -9.5750 C   0  0  0  0  0
   52.0440   -6.1140  -10.3520 C   0  0  0  0  0
   51.1400   -6.9270  -10.5940 O   0  0  0  0  0
   53.2150   -6.2780  -10.7090 O   0  0  0  0  0
   52.7750   -0.0200  -10.0790 N   0  0  0  0  0
   52.7280    1.2720  -10.7850 C   0  0  0  0  0
   53.3040    1.2770  -12.1990 C   0  0  0  0  0
   54.1620    0.4690  -12.5480 O   0  0  0  0  0
   53.4700    2.3590   -9.9910 C   0  0  0  0  0
   52.8690    2.7250   -8.6400 C   0  0  0  0  0
   53.4010    1.8620   -7.5130 C   0  0  0  0  0
   54.2250    0.9630   -7.7880 O   0  0  0  0  0
   52.9960    2.0860   -6.3530 O   0  0  0  0  0
   52.9300    2.1210  -13.0200 O   0  0  0  0  0
   40.7885   -1.5071    4.6742 H   0  0  0  0  0
   40.0923   -0.3899    5.6960 H   0  0  0  0  0
   39.1907   -1.0777    4.4749 H   0  0  0  0  0
   40.5062   -0.0665    2.8235 H   0  0  0  0  0
   38.5947    1.2079    3.4274 H   0  0  0  0  0
   40.1140    2.2438    5.8379 H   0  0  0  0  0
   38.4513    2.6713    5.3649 H   0  0  0  0  0
   38.8330    1.0072    5.8710 H   0  0  0  0  0
   39.3036    3.5106    3.1273 H   0  0  0  0  0
   40.9663    3.0831    3.6003 H   0  0  0  0  0
   40.2693    2.4220    2.1009 H   0  0  0  0  0
   42.3907    0.7116    2.1949 H   0  0  0  0  0
   44.5173    1.4043    2.2001 H   0  0  0  0  0
   45.2461    3.0702    3.9741 H   0  0  0  0  0
   43.6200    2.8201    4.7371 H   0  0  0  0  0
   44.7653    3.3146    1.6109 H   0  0  0  0  0
   44.2257   -1.1674    3.1591 H   0  0  0  0  0
   46.8784   -1.1537    4.5575 H   0  0  0  0  0
   44.9505   -2.0568    5.9320 H   0  0  0  0  0
   46.4740   -3.0760    5.7309 H   0  0  0  0  0
   44.8871   -4.6537    5.5457 H   0  0  0  0  0
   45.0212   -4.1067    3.8172 H   0  0  0  0  0
   42.9246   -5.3136    4.6932 H   0  0  0  0  0
   48.2755   -2.9426    3.8509 H   0  0  0  0  0
   47.8058   -3.5004    0.9877 H   0  0  0  0  0
   50.1348   -4.4872    1.1577 H   0  0  0  0  0
   50.1522   -3.7953    2.8502 H   0  0  0  0  0
   48.6020   -5.7259    0.2025 H   0  0  0  0  0
   47.0442   -7.7413    1.6505 H   0  0  0  0  0
   47.8649   -9.2480   -0.1957 H   0  0  0  0  0
   48.6461   -7.7569   -0.9017 H   0  0  0  0  0
   47.1010   -6.0601   -2.1442 H   0  0  0  0  0
   45.5770  -10.1616    0.5161 H   0  0  0  0  0
   42.3489   -7.6929   -2.4124 H   0  0  0  0  0
   43.2197  -10.8905    0.3189 H   0  0  0  0  0
   41.6312   -9.6681   -1.1215 H   0  0  0  0  0
   47.8004   -9.1199    3.1393 H   0  0  0  0  0
   50.7092   -9.2800    3.5372 H   0  0  0  0  0
   48.4539  -10.7379    4.9204 H   0  0  0  0  0
   49.2898   -9.2193    5.4809 H   0  0  0  0  0
   50.6076  -11.9139    5.1239 H   0  0  0  0  0
   50.0121  -11.2519    6.6874 H   0  0  0  0  0
   51.5283   -9.3981    6.5271 H   0  0  0  0  0
   52.0751   -9.9592    4.8925 H   0  0  0  0  0
   52.5809  -12.0692    6.6115 H   0  0  0  0  0
   55.0733   -8.9316    7.1868 H   0  0  0  0  0
   53.5063   -8.6692    6.4141 H   0  0  0  0  0
   54.5971  -12.4000    7.5966 H   0  0  0  0  0
   51.7725  -10.4219    2.0223 H   0  0  0  0  0
   50.7382  -12.9443    0.9816 H   0  0  0  0  0
   53.5925  -11.9604    0.8704 H   0  0  0  0  0
   53.0137  -11.0204   -1.2967 H   0  0  0  0  0
   52.0311  -10.2640    0.0444 H   0  0  0  0  0
   53.2704  -14.3226    0.3207 H   0  0  0  0  0
   51.9942  -13.8888   -0.8430 H   0  0  0  0  0
   53.6758  -13.3812   -1.1355 H   0  0  0  0  0
   51.0924  -12.3609   -1.9171 H   0  0  0  0  0
   50.1345  -11.6234   -0.6096 H   0  0  0  0  0
   50.7006  -10.6247   -1.9709 H   0  0  0  0  0
   50.4590  -14.5259    2.3674 H   0  0  0  0  0
   51.7102  -14.6093    4.9050 H   0  0  0  0  0
   50.1128  -16.7612    3.4142 H   0  0  0  0  0
   48.2004  -15.9867    4.6640 H   0  0  0  0  0
   48.9609  -14.6042    3.7461 H   0  0  0  0  0
   51.3947  -17.7459    5.2463 H   0  0  0  0  0
   50.7440  -16.5299    6.3727 H   0  0  0  0  0
   49.6563  -17.7295    5.6319 H   0  0  0  0  0
   49.2399  -15.1813    6.6940 H   0  0  0  0  0
   49.9818  -13.8326    5.7986 H   0  0  0  0  0
   48.2110  -13.9252    5.9627 H   0  0  0  0  0
   52.0500  -16.7853    2.0901 H   0  0  0  0  0
   53.8452  -18.5619    3.4361 H   0  0  0  0  0
   52.5360  -19.2383    1.4664 H   0  0  0  0  0
   53.4225  -18.0674    0.4593 H   0  0  0  0  0
   54.2750  -19.4659    1.1582 H   0  0  0  0  0
   54.3633  -15.4659    2.0280 H   0  0  0  0  0
   57.2856  -16.0646    1.8699 H   0  0  0  0  0
   57.4689  -14.2448    0.2737 H   0  0  0  0  0
   55.7729  -13.7640    0.5669 H   0  0  0  0  0
   56.0224  -15.0454   -1.3349 H   0  0  0  0  0
   55.1542  -14.8597    3.9624 H   0  0  0  0  0
   55.2189  -13.3840    5.6960 H   0  0  0  0  0
   57.2615  -13.1931    6.9054 H   0  0  0  0  0
   58.2292  -13.5613    5.4004 H   0  0  0  0  0
   58.6863  -16.2197    4.9546 H   0  0  0  0  0
   56.3090  -17.6991    8.1695 H   0  0  0  0  0
   54.9510  -12.1315    3.1526 H   0  0  0  0  0
   56.5116   -9.6692    3.7298 H   0  0  0  0  0
   56.4771   -9.3103    1.1328 H   0  0  0  0  0
   56.4339  -11.3611    0.0074 H   0  0  0  0  0
   58.5228   -9.7678    2.4140 H   0  0  0  0  0
   58.1818  -11.5144    2.3478 H   0  0  0  0  0
   58.5475  -10.6212    0.8513 H   0  0  0  0  0
   55.6970   -7.7414    2.3479 H   0  0  0  0  0
   52.7058   -7.7918    2.4148 H   0  0  0  0  0
   52.8473   -5.3394    2.4728 H   0  0  0  0  0
   54.6645   -5.5122    2.6210 H   0  0  0  0  0
   55.5987   -5.7279    4.9995 H   0  0  0  0  0
   50.7149   -6.4940    3.6504 H   0  0  0  0  0
   52.0474   -6.5092    8.4801 H   0  0  0  0  0
   49.0407   -6.8684    5.4335 H   0  0  0  0  0
   49.7018   -6.8759    7.8119 H   0  0  0  0  0
   51.5751   -6.7130    0.6712 H   0  0  0  0  0
   53.2707   -5.9465   -1.6282 H   0  0  0  0  0
   50.9203   -7.8087   -1.9665 H   0  0  0  0  0
   52.6708   -8.3074   -1.9895 H   0  0  0  0  0
   49.9115   -6.8366   -3.8498 H   0  0  0  0  0
   54.1373   -7.4872   -3.7809 H   0  0  0  0  0
   50.0302   -6.3104   -6.2564 H   0  0  0  0  0
   54.2606   -6.9644   -6.1864 H   0  0  0  0  0
   52.2070   -6.3694   -7.4289 H   0  0  0  0  0
   52.4956   -4.2768   -2.7886 H   0  0  0  0  0
   49.8386   -3.2464   -1.8968 H   0  0  0  0  0
   50.7889   -0.9677   -2.2788 H   0  0  0  0  0
   52.4107   -1.7707   -2.5106 H   0  0  0  0  0
   52.1913   -2.5155   -4.5679 H   0  0  0  0  0
   49.9379   -2.8321   -6.4246 H   0  0  0  0  0
   49.5763   -0.5383   -5.5350 H   0  0  0  0  0
   51.2571   -0.1051   -5.9331 H   0  0  0  0  0
   50.0927   -0.4456   -7.2367 H   0  0  0  0  0
   50.6197   -1.6585   -8.6560 H   0  0  0  0  0
   53.3802   -2.5106   -9.2781 H   0  0  0  0  0
   52.7002   -3.8403  -11.1396 H   0  0  0  0  0
   50.9367   -3.3939  -10.8330 H   0  0  0  0  0
   50.7106   -4.9157   -9.2407 H   0  0  0  0  0
   52.4448   -4.8149   -8.7394 H   0  0  0  0  0
   50.3137   -6.6035  -10.2276 H   0  0  0  0  0
   53.1487   -0.0349   -9.1300 H   0  0  0  0  0
   51.6597    1.4716  -10.8685 H   0  0  0  0  0
   53.4311    3.2630  -10.5988 H   0  0  0  0  0
   54.4652    1.9640   -9.7869 H   0  0  0  0  0
   51.7914    2.5724   -8.6996 H   0  0  0  0  0
   53.1340    3.7600   -8.4240 H   0  0  0  0  0
   54.3959    0.9652   -8.7327 H   0  0  0  0  0
   52.2633    2.6830  -12.6184 H   0  0  0  0  0
  1  2  1  0  0  0
  2  3  1  0  0  0
  2  5  1  0  0  0
  3  4  2  0  0  0
  3  8  1  0  0  0
  5  6  1  0  0  0
  5  7  1  0  0  0
  8  9  1  0  0  0
  9 10  1  0  0  0
  9 12  1  0  0  0
 10 11  2  0  0  0
 10 16  1  0  0  0
 12 13  1  0  0  0
 13 14  1  0  0  0
 13 15  2  0  0  0
 16 17  1  0  0  0
 17 18  1  0  0  0
 17 20  1  0  0  0
 18 19  2  0  0  0
 18 25  1  0  0  0
 20 21  1  0  0  0
 21 22  1  0  0  0
 22 23  2  0  0  0
 22 24  1  0  0  0
 25 26  1  0  0  0
 26 27  1  0  0  0
 26 29  1  0  0  0
 27 28  2  0  0  0
 27 31  1  0  0  0
 29 30  1  0  0  0
 30130  1  0  0  0
 31 32  1  0  0  0
 32 33  1  0  0  0
 32 35  1  0  0  0
 33 34  2  0  0  0
 33 45  1  0  0  0
 35 36  1  0  0  0
 36 37  4  0  0  0
 36 38  4  0  0  0
 37 39  4  0  0  0
 38 40  4  0  0  0
 38 41  4  0  0  0
 39 40  4  0  0  0
 40 42  4  0  0  0
 41 43  4  0  0  0
 42 44  4  0  0  0
 43 44  4  0  0  0
 45 46  1  0  0  0
 46 47  1  0  0  0
 46 49  1  0  0  0
 47 48  2  0  0  0
 47 56  1  0  0  0
 49 50  1  0  0  0
 50 51  1  0  0  0
 51 52  1  0  0  0
 52 53  1  0  0  0
 53 54  1  0  0  0
 53 55  2  0  0  0
 56 57  1  0  0  0
 57 58  1  0  0  0
 57 60  1  0  0  0
 58 59  2  0  0  0
 58 64  1  0  0  0
 60 61  1  0  0  0
 60 62  1  0  0  0
 61 63  1  0  0  0
 64 65  1  0  0  0
 65 66  1  0  0  0
 65 68  1  0  0  0
 66 67  2  0  0  0
 66 72  1  0  0  0
 68 69  1  0  0  0
 68 70  1  0  0  0
 69 71  1  0  0  0
 72 73  1  0  0  0
 73 74  1  0  0  0
 73 76  1  0  0  0
 74 75  2  0  0  0
 74 77  1  0  0  0
 77 78  1  0  0  0
 78 79  1  0  0  0
 78 81  1  0  0  0
 79 80  2  0  0  0
 79 83  1  0  0  0
 81 82  1  0  0  0
 83 84  1  0  0  0
 84 85  1  0  0  0
 84 87  1  0  0  0
 85 86  2  0  0  0
 85 93  1  0  0  0
 87 88  1  0  0  0
 88 89  4  0  0  0
 88 90  4  0  0  0
 89 91  4  0  0  0
 90 92  4  0  0  0
 91 92  4  0  0  0
 93 94  1  0  0  0
 94 95  1  0  0  0
 94 97  1  0  0  0
 95 96  2  0  0  0
 95100  1  0  0  0
 97 98  1  0  0  0
 97 99  1  0  0  0
100101  1  0  0  0
101102  1  0  0  0
101104  1  0  0  0
102103  2  0  0  0
102114  1  0  0  0
104105  1  0  0  0
105106  4  0  0  0
105107  4  0  0  0
106108  4  0  0  0
107109  4  0  0  0
107110  4  0  0  0
108109  4  0  0  0
109111  4  0  0  0
110112  4  0  0  0
111113  4  0  0  0
112113  4  0  0  0
114115  1  0  0  0
115116  1  0  0  0
115118  1  0  0  0
116117  2  0  0  0
116125  1  0  0  0
118119  1  0  0  0
119120  4  0  0  0
119121  4  0  0  0
120122  4  0  0  0
121123  4  0  0  0
122124  4  0  0  0
123124  4  0  0  0
125126  1  0  0  0
126127  1  0  0  0
126129  1  0  0  0
127128  2  0  0  0
127131  1  0  0  0
129130  1  0  0  0
131132  1  0  0  0
132133  1  0  0  0
132135  1  0  0  0
133134  2  0  0  0
133136  1  0  0  0
136137  1  0  0  0
137138  1  0  0  0
137140  1  0  0  0
138139  2  0  0  0
138145  1  0  0  0
140141  1  0  0  0
141142  1  0  0  0
142143  1  0  0  0
142144  2  0  0  0
145146  1  0  0  0
146147  1  0  0  0
146149  1  0  0  0
147148  2  0  0  0
147154  1  0  0  0
149150  1  0  0  0
150151  1  0  0  0
151152  1  0  0  0
151153  2  0  0  0
  1155  1  0  0  0
  1156  1  0  0  0
  1157  1  0  0  0
  2158  1  0  0  0
  5159  1  0  0  0
  6160  1  0  0  0
  6161  1  0  0  0
  6162  1  0  0  0
  7163  1  0  0  0
  7164  1  0  0  0
  7165  1  0  0  0
  8166  1  0  0  0
  9167  1  0  0  0
 12168  1  0  0  0
 12169  1  0  0  0
 14170  1  0  0  0
 16171  1  0  0  0
 17172  1  0  0  0
 20173  1  0  0  0
 20174  1  0  0  0
 21175  1  0  0  0
 21176  1  0  0  0
 24177  1  0  0  0
 25178  1  0  0  0
 26179  1  0  0  0
 29180  1  0  0  0
 29181  1  0  0  0
 31182  1  0  0  0
 32183  1  0  0  0
 35184  1  0  0  0
 35185  1  0  0  0
 37186  1  0  0  0
 41187  1  0  0  0
 42188  1  0  0  0
 43189  1  0  0  0
 44190  1  0  0  0
 45191  1  0  0  0
 46192  1  0  0  0
 49193  1  0  0  0
 49194  1  0  0  0
 50195  1  0  0  0
 50196  1  0  0  0
 51197  1  0  0  0
 51198  1  0  0  0
 52199  1  0  0  0
 54200  1  0  0  0
 54201  1  0  0  0
 55202  1  0  0  0
 56203  1  0  0  0
 57204  1  0  0  0
 60205  1  0  0  0
 61206  1  0  0  0
 61207  1  0  0  0
 62208  1  0  0  0
 62209  1  0  0  0
 62210  1  0  0  0
 63211  1  0  0  0
 63212  1  0  0  0
 63213  1  0  0  0
 64214  1  0  0  0
 65215  1  0  0  0
 68216  1  0  0  0
 69217  1  0  0  0
 69218  1  0  0  0
 70219  1  0  0  0
 70220  1  0  0  0
 70221  1  0  0  0
 71222  1  0  0  0
 71223  1  0  0  0
 71224  1  0  0  0
 72225  1  0  0  0
 73226  1  0  0  0
 76227  1  0  0  0
 76228  1  0  0  0
 76229  1  0  0  0
 77230  1  0  0  0
 78231  1  0  0  0
 81232  1  0  0  0
 81233  1  0  0  0
 82234  1  0  0  0
 83235  1  0  0  0
 84236  1  0  0  0
 87237  1  0  0  0
 87238  1  0  0  0
 90239  1  0  0  0
 91240  1  0  0  0
 93241  1  0  0  0
 94242  1  0  0  0
 97243  1  0  0  0
 98244  1  0  0  0
 99245  1  0  0  0
 99246  1  0  0  0
 99247  1  0  0  0
100248  1  0  0  0
101249  1  0  0  0
104250  1  0  0  0
104251  1  0  0  0
106252  1  0  0  0
110253  1  0  0  0
111254  1  0  0  0
112255  1  0  0  0
113256  1  0  0  0
114257  1  0  0  0
115258  1  0  0  0
118259  1  0  0  0
118260  1  0  0  0
120261  1  0  0  0
121262  1  0  0  0
122263  1  0  0  0
123264  1  0  0  0
124265  1  0  0  0
125266  1  0  0  0
126267  1  0  0  0
129268  1  0  0  0
129269  1  0  0  0
131270  1  0  0  0
132271  1  0  0  0
135272  1  0  0  0
135273  1  0  0  0
135274  1  0  0  0
136275  1  0  0  0
137276  1  0  0  0
140277  1  0  0  0
140278  1  0  0  0
141279  1  0  0  0
141280  1  0  0  0
143281  1  0  0  0
145282  1  0  0  0
146283  1  0  0  0
149284  1  0  0  0
149285  1  0  0  0
150286  1  0  0  0
150287  1  0  0  0
152288  1  0  0  0
154289  1  0  0  0
M  END
$$$$
