3qnd_ligand
  -I-interpret- 

 40 40  0  0  0  0  0  0  0  0999 V2000
   36.0910    4.9630  -19.9490 C   0  0  0  0  0
   35.7190    3.5640  -20.4050 C   0  0  0  0  0
   34.4880    3.0670  -19.6340 C   0  0  0  0  0
   33.2080    3.7490  -20.1130 C   0  0  0  0  0
   33.0390    3.5420  -21.6140 C   0  0  0  0  0
   34.2770    4.0890  -22.3350 C   0  0  0  0  0
   34.2320    3.9000  -23.8550 C   0  0  0  0  0
   35.4770    4.4760  -24.5390 C   0  0  0  0  0
   35.2980    4.5770  -26.0520 C   0  0  0  0  0
   30.6670    3.6170  -22.3050 C   0  0  0  0  0
   29.5870    4.5230  -22.8140 C   0  0  0  0  0
   31.8430    4.2150  -22.0970 N   0  0  0  0  0
   36.3290    5.8450  -20.8060 O   0  0  0  0  0
   36.1570    5.1910  -18.7180 O   0  0  0  0  0
   36.8280    2.7060  -20.1210 O   0  0  0  0  0
   32.0770    3.2410  -19.3980 O   0  0  0  0  0
   35.4850    3.5010  -21.8240 O   0  0  0  0  0
   34.1030    2.5070  -24.1790 O   0  0  0  0  0
   35.7810    5.7740  -24.0060 O   0  0  0  0  0
   34.4720    5.7050  -26.3760 O   0  0  0  0  0
   30.4560    2.4310  -22.1000 O   0  0  0  0  0
   34.6269    3.3000  -18.5783 H   0  0  0  0  0
   34.3886    1.9944  -19.8005 H   0  0  0  0  0
   33.2800    4.8189  -19.9174 H   0  0  0  0  0
   32.9318    2.4765  -21.8175 H   0  0  0  0  0
   34.2725    5.1604  -22.1346 H   0  0  0  0  0
   33.3631    4.4443  -24.2249 H   0  0  0  0  0
   36.3023    3.7924  -24.3396 H   0  0  0  0  0
   34.8213    3.6675  -26.4176 H   0  0  0  0  0
   36.2743    4.7019  -26.5204 H   0  0  0  0  0
   29.2349    4.1598  -23.7795 H   0  0  0  0  0
   28.7594    4.5339  -22.1047 H   0  0  0  0  0
   29.9840    5.5319  -22.9266 H   0  0  0  0  0
   31.9071    5.2144  -22.2905 H   0  0  0  0  0
   35.9402    4.3911  -18.2335 H   0  0  0  0  0
   37.0122    2.7242  -19.1790 H   0  0  0  0  0
   32.2051    3.3818  -18.4571 H   0  0  0  0  0
   33.3224    2.1505  -23.7487 H   0  0  0  0  0
   36.5617    6.1230  -24.4423 H   0  0  0  0  0
   34.3659    5.7594  -27.3286 H   0  0  0  0  0
  2  1  1  0  0  0
  1 13  2  0  0  0
  1 14  1  0  0  0
  3  2  1  0  0  0
  2 15  1  0  0  0
 17  2  1  0  0  0
  4  3  1  0  0  0
  5  4  1  0  0  0
  4 16  1  0  0  0
  5  6  1  0  0  0
 12  5  1  0  0  0
  6  7  1  0  0  0
  6 17  1  0  0  0
  7  8  1  0  0  0
  7 18  1  0  0  0
  8  9  1  0  0  0
  8 19  1  0  0  0
  9 20  1  0  0  0
 10 11  1  0  0  0
 10 12  1  0  0  0
 10 21  2  0  0  0
  3 22  1  0  0  0
  3 23  1  0  0  0
  4 24  1  0  0  0
  5 25  1  0  0  0
  6 26  1  0  0  0
  7 27  1  0  0  0
  8 28  1  0  0  0
  9 29  1  0  0  0
  9 30  1  0  0  0
 11 31  1  0  0  0
 11 32  1  0  0  0
 11 33  1  0  0  0
 12 34  1  0  0  0
 14 35  1  0  0  0
 15 36  1  0  0  0
 16 37  1  0  0  0
 18 38  1  0  0  0
 19 39  1  0  0  0
 20 40  1  0  0  0
M  END
$$$$
