6f4w_ligand
  -I-interpret- 

 31 33  0  0  0  0  0  0  0  0999 V2000
  -11.6020   -7.5900   17.2090 N   0  0  0  0  0
  -11.5630   -7.5620   15.8370 C   0  0  0  0  0
  -10.4300   -7.1440   15.1920 N   0  0  0  0  0
   -9.3490   -6.7390   15.9270 C   0  0  0  0  0
   -9.3890   -6.7580   17.2690 C   0  0  0  0  0
  -10.5280   -7.1910   17.9180 C   0  0  0  0  0
  -10.9850   -7.3610   19.2540 N   0  0  0  0  0
   -8.1860   -6.3020   17.7570 N   0  0  0  0  0
   -7.3870   -6.0060   16.6840 N   0  0  0  0  0
   -8.0940   -6.2600   15.5610 C   0  0  0  0  0
   -7.6670   -6.0880   14.2500 C   0  0  0  0  0
   -6.3650   -5.3080   14.1580 C   0  0  0  0  0
   -6.3010   -4.6660   12.8940 O   0  0  0  0  0
   -5.3160   -6.4190   14.2470 C   0  0  0  0  0
   -4.1530   -6.1620   13.4930 O   0  0  0  0  0
   -6.0350   -7.6900   13.7830 C   0  0  0  0  0
   -7.4390   -7.3360   13.6660 O   0  0  0  0  0
   -5.8660   -8.8870   14.6900 C   0  0  0  0  0
   -6.9640   -9.7810   14.5960 O   0  0  0  0  0
  -12.4346   -7.8727   15.2609 H   0  0  0  0  0
  -11.9267   -7.7110   19.4302 H   0  0  0  0  0
  -10.3710   -7.1330   20.0359 H   0  0  0  0  0
   -8.4521   -5.5320   13.7376 H   0  0  0  0  0
   -6.2414   -4.5352   14.9166 H   0  0  0  0  0
   -5.4809   -4.1712   12.8288 H   0  0  0  0  0
   -4.9409   -6.5085   15.2665 H   0  0  0  0  0
   -3.5401   -6.8942   13.5926 H   0  0  0  0  0
   -5.5931   -8.0123   12.8402 H   0  0  0  0  0
   -5.8024   -8.5306   15.7181 H   0  0  0  0  0
   -4.9644   -9.4200   14.3882 H   0  0  0  0  0
   -6.8202  -10.5256   15.1846 H   0  0  0  0  0
  1  2  4  0  0  0
  1  6  4  0  0  0
  2  3  4  0  0  0
  3  4  4  0  0  0
  4  5  4  0  0  0
  4 10  4  0  0  0
  5  6  4  0  0  0
  5  8  4  0  0  0
  6  7  1  0  0  0
  8  9  4  0  0  0
  9 10  4  0  0  0
 10 11  1  0  0  0
 11 12  1  0  0  0
 11 17  1  0  0  0
 12 13  1  0  0  0
 12 14  1  0  0  0
 14 15  1  0  0  0
 14 16  1  0  0  0
 16 17  1  0  0  0
 16 18  1  0  0  0
 18 19  1  0  0  0
  2 20  1  0  0  0
  7 21  1  0  0  0
  7 22  1  0  0  0
 11 23  1  0  0  0
 12 24  1  0  0  0
 13 25  1  0  0  0
 14 26  1  0  0  0
 15 27  1  0  0  0
 16 28  1  0  0  0
 18 29  1  0  0  0
 18 30  1  0  0  0
 19 31  1  0  0  0
M  END
$$$$
