1lf3_ligand
  -I-interpret- 

104110  0  0  0  0  0  0  0  0999 V2000
   16.4630    3.5060   26.2240 C   0  0  0  0  0
   16.6440    2.1420   25.5490 C   0  0  0  0  0
   17.4620    1.1940   26.3370 C   0  0  0  0  0
   18.7850    1.5160   26.7320 C   0  0  0  0  0
   16.9270   -0.0350   26.7130 C   0  0  0  0  0
   19.5410    0.6120   27.4770 C   0  0  0  0  0
   17.7030   -0.9480   27.4690 C   0  0  0  0  0
   19.0050   -0.6170   27.8480 C   0  0  0  0  0
   15.8470    3.2740   27.4810 N   0  0  0  0  0
   15.5730    4.4430   25.3760 C   0  0  0  0  0
   15.1520    5.6260   26.2430 C   0  0  0  0  0
   15.2530    6.7580   25.3480 N   0  0  0  0  0
   14.3600    3.7610   24.9360 O   0  0  0  0  0
   13.9810    7.1610   24.7140 C   0  0  0  0  0
   12.8890    7.8540   25.4830 C   0  0  0  0  0
   16.5070    7.3490   25.2200 C   0  0  0  0  0
   16.6400    8.5230   24.2760 C   0  0  0  0  0
   17.5090    6.9460   25.8470 O   0  0  0  0  0
   18.0540    8.8160   23.8970 C   0  0  0  0  0
   16.3630    3.5190   28.6840 C   0  0  0  0  0
   17.5010    4.0060   28.9210 O   0  0  0  0  0
   18.0360   14.0790   20.7740 C   0  0  0  0  0
   18.1650   12.6610   20.6020 C   0  0  0  0  0
   18.0910   11.8500   21.7750 C   0  0  0  0  0
   17.9010   12.4110   23.0450 C   0  0  0  0  0
   17.7690   13.8100   23.2520 C   0  0  0  0  0
   17.8360   14.6480   22.1080 C   0  0  0  0  0
   18.1660   10.4640   21.9540 C   0  0  0  0  0
   18.0300   10.1560   23.2990 N   0  0  0  0  0
   17.8710   11.3790   23.9420 C   0  0  0  0  0
   17.7190   11.5270   25.1660 O   0  0  0  0  0
   18.3340    9.6180   21.0330 O   0  0  0  0  0
   13.5390    8.4290   27.8240 C   0  0  0  0  0
   14.0010    9.3490   28.8450 C   0  0  0  0  0
   14.2970   10.6790   28.4880 C   0  0  0  0  0
   14.1440   11.1080   27.1360 C   0  0  0  0  0
   13.6790   10.1710   26.1190 C   0  0  0  0  0
   13.3760    8.8300   26.4710 C   0  0  0  0  0
   14.7260   11.6960   29.2300 O   0  0  0  0  0
   14.8470   12.7640   28.3590 C   0  0  0  0  0
   14.4950   12.4250   27.0710 O   0  0  0  0  0
   13.7290    2.3970   31.7360 C   0  0  0  0  0
   14.5570    1.4270   31.0820 C   0  0  0  0  0
   15.4230    1.8130   30.0800 C   0  0  0  0  0
   15.4930    3.1690   29.6790 C   0  0  0  0  0
   14.6670    4.1540   30.2950 C   0  0  0  0  0
   13.7780    3.7790   31.3220 C   0  0  0  0  0
   13.1010    1.9350   32.8860 O   0  0  0  0  0
   14.5910    0.0730   31.3870 O   0  0  0  0  0
   13.0330    4.8670   31.8280 O   0  0  0  0  0
   13.6030    5.9800   32.4780 C   0  0  0  0  0
   14.2230   -0.9430   30.4990 C   0  0  0  0  0
   14.0770    2.1030   34.0090 C   0  0  0  0  0
   18.5030    2.5280   34.4360 C   0  0  0  0  0
   17.8860    1.2940   34.6080 C   0  0  0  0  0
   16.4830    1.1740   34.4730 C   0  0  0  0  0
   15.6580    2.2760   34.1650 C   0  0  0  0  0
   16.3070    3.5460   33.9900 C   0  0  0  0  0
   17.7210    3.6710   34.1240 C   0  0  0  0  0
   17.4322    3.9921   26.3361 H   0  0  0  0  0
   17.1601    2.3113   24.6040 H   0  0  0  0  0
   15.6539    1.7010   25.4334 H   0  0  0  0  0
   19.2144    2.4777   26.4511 H   0  0  0  0  0
   15.9085   -0.2955   26.4250 H   0  0  0  0  0
   20.5585    0.8698   27.7707 H   0  0  0  0  0
   17.2821   -1.9117   27.7555 H   0  0  0  0  0
   19.5996   -1.3190   28.4326 H   0  0  0  0  0
   14.9077    2.8768   27.4610 H   0  0  0  0  0
   16.1419    4.7624   24.5028 H   0  0  0  0  0
   15.7785    5.7376   27.1279 H   0  0  0  0  0
   14.1486    5.5065   26.6518 H   0  0  0  0  0
   14.5976    3.0102   24.3870 H   0  0  0  0  0
   13.5278    6.2127   24.4251 H   0  0  0  0  0
   14.2867    7.9046   23.9780 H   0  0  0  0  0
   12.3429    7.0859   26.0307 H   0  0  0  0  0
   12.2833    8.4012   24.7607 H   0  0  0  0  0
   16.2456    9.4024   24.7851 H   0  0  0  0  0
   16.0979    8.2758   23.3632 H   0  0  0  0  0
   18.4424    8.0741   23.1992 H   0  0  0  0  0
   18.7158    8.7765   24.7622 H   0  0  0  0  0
   18.0872   14.7369   19.9064 H   0  0  0  0  0
   18.3135   12.2204   19.6162 H   0  0  0  0  0
   17.6221   14.2238   24.2496 H   0  0  0  0  0
   17.7374   15.7273   22.2242 H   0  0  0  0  0
   13.3102    7.4003   28.1026 H   0  0  0  0  0
   14.1178    9.0155   29.8761 H   0  0  0  0  0
   13.5641   10.5016   25.0867 H   0  0  0  0  0
   15.8896   13.0820   28.3539 H   0  0  0  0  0
   14.1783   13.5557   28.6969 H   0  0  0  0  0
   16.0564    1.0705   29.5947 H   0  0  0  0  0
   14.7229    5.1938   29.9727 H   0  0  0  0  0
   14.1396    5.6452   33.3657 H   0  0  0  0  0
   14.2952    6.4797   31.8003 H   0  0  0  0  0
   12.8135    6.6729   32.7689 H   0  0  0  0  0
   13.1818   -0.8082   30.2060 H   0  0  0  0  0
   14.8592   -0.8992   29.6150 H   0  0  0  0  0
   14.3422   -1.9106   30.9864 H   0  0  0  0  0
   13.9973    1.0985   34.4246 H   0  0  0  0  0
   13.7888    3.1118   34.3045 H   0  0  0  0  0
   19.5843    2.6176   34.5404 H   0  0  0  0  0
   18.4855    0.4158   34.8477 H   0  0  0  0  0
   16.0232    0.1955   34.6119 H   0  0  0  0  0
   15.7100    4.4262   33.7515 H   0  0  0  0  0
   18.1998    4.6406   33.9874 H   0  0  0  0  0
  1  2  1  0  0  0
  9  1  1  0  0  0
  1 10  1  0  0  0
  2  3  1  0  0  0
  3  4  4  0  0  0
  3  5  4  0  0  0
  4  6  4  0  0  0
  5  7  4  0  0  0
  6  8  4  0  0  0
  7  8  4  0  0  0
 20  9  1  0  0  0
 10 11  1  0  0  0
 10 13  1  0  0  0
 11 12  1  0  0  0
 12 14  1  0  0  0
 12 16  1  0  0  0
 14 15  1  0  0  0
 15 38  1  0  0  0
 16 17  1  0  0  0
 16 18  2  0  0  0
 17 19  1  0  0  0
 19 29  1  0  0  0
 20 21  2  0  0  0
 45 20  1  0  0  0
 23 22  4  0  0  0
 27 22  4  0  0  0
 24 23  4  0  0  0
 25 24  4  0  0  0
 28 24  1  0  0  0
 25 26  4  0  0  0
 30 25  1  0  0  0
 26 27  4  0  0  0
 29 28  1  0  0  0
 28 32  2  0  0  0
 29 30  1  0  0  0
 30 31  2  0  0  0
 33 34  4  0  0  0
 38 33  4  0  0  0
 34 35  4  0  0  0
 36 35  4  0  0  0
 35 39  1  0  0  0
 37 36  4  0  0  0
 36 41  1  0  0  0
 38 37  4  0  0  0
 40 39  1  0  0  0
 41 40  1  0  0  0
 42 43  4  0  0  0
 42 47  4  0  0  0
 48 42  1  0  0  0
 43 44  4  0  0  0
 43 49  1  0  0  0
 44 45  4  0  0  0
 46 45  4  0  0  0
 47 46  4  0  0  0
 47 50  1  0  0  0
 53 48  1  0  0  0
 49 52  1  0  0  0
 50 51  1  0  0  0
 57 53  1  0  0  0
 55 54  4  0  0  0
 54 59  4  0  0  0
 56 55  4  0  0  0
 56 57  4  0  0  0
 57 58  4  0  0  0
 58 59  4  0  0  0
  1 60  1  0  0  0
  2 61  1  0  0  0
  2 62  1  0  0  0
  4 63  1  0  0  0
  5 64  1  0  0  0
  6 65  1  0  0  0
  7 66  1  0  0  0
  8 67  1  0  0  0
  9 68  1  0  0  0
 10 69  1  0  0  0
 11 70  1  0  0  0
 11 71  1  0  0  0
 13 72  1  0  0  0
 14 73  1  0  0  0
 14 74  1  0  0  0
 15 75  1  0  0  0
 15 76  1  0  0  0
 17 77  1  0  0  0
 17 78  1  0  0  0
 19 79  1  0  0  0
 19 80  1  0  0  0
 22 81  1  0  0  0
 23 82  1  0  0  0
 26 83  1  0  0  0
 27 84  1  0  0  0
 33 85  1  0  0  0
 34 86  1  0  0  0
 37 87  1  0  0  0
 40 88  1  0  0  0
 40 89  1  0  0  0
 44 90  1  0  0  0
 46 91  1  0  0  0
 51 92  1  0  0  0
 51 93  1  0  0  0
 51 94  1  0  0  0
 52 95  1  0  0  0
 52 96  1  0  0  0
 52 97  1  0  0  0
 53 98  1  0  0  0
 53 99  1  0  0  0
 54100  1  0  0  0
 55101  1  0  0  0
 56102  1  0  0  0
 58103  1  0  0  0
 59104  1  0  0  0
M  END
$$$$
