1qbo_ligand
  -I-interpret- 

 64 68  0  0  0  0  0  0  0  0999 V2000
   19.9720    2.2570   54.3110 N   0  0  0  0  0
   20.0620    1.5510   55.3560 C   0  0  0  0  0
   18.9850    0.7930   55.7530 N   0  0  0  0  0
   21.1670    1.5710   56.1090 C   0  0  0  0  0
   22.2750    2.3240   55.6880 C   0  0  0  0  0
   23.4470    2.3680   56.4640 C   0  0  0  0  0
   24.4830    3.1160   56.0120 C   0  0  0  0  0
   25.6730    3.1150   56.7850 C   0  0  0  0  0
   25.7470    2.3730   57.9730 C   0  0  0  0  0
   24.6480    1.6250   58.4160 C   0  0  0  0  0
   23.5150    1.6290   57.6640 C   0  0  0  0  0
   22.4050    0.8770   58.0950 C   0  0  0  0  0
   21.2260    0.8620   57.3340 C   0  0  0  0  0
   26.7860    3.8890   56.3190 C   0  0  0  0  0
   28.0440    3.2560   56.7410 N   0  0  0  0  0
   28.9560    3.6620   57.8740 C   0  0  0  0  0
   28.7270    4.7860   58.7280 C   0  0  0  0  0
   30.0210    2.8670   57.9880 N   0  0  0  0  0
   29.9120    1.9710   57.0550 C   0  0  0  0  0
   30.7690    0.9040   56.7730 C   0  0  0  0  0
   30.5030    0.0380   55.7080 C   0  0  0  0  0
   29.3430    0.2150   54.9280 C   0  0  0  0  0
   28.4660    1.2800   55.2080 C   0  0  0  0  0
   28.7530    2.1720   56.2730 C   0  0  0  0  0
   29.2120   -0.7000   53.9230 O   0  0  0  0  0
   30.3250   -1.5990   53.9140 C   0  0  0  0  0
   31.4760   -1.0950   53.0590 C   0  0  0  0  0
   31.4740   -1.5830   51.6030 C   0  0  0  0  0
   31.2110   -3.0350   51.5630 N   0  0  0  0  0
   29.9460   -3.4930   52.1910 C   0  0  0  0  0
   29.8670   -3.0210   53.6270 C   0  0  0  0  0
   32.0730   -3.8860   50.9870 C   0  0  0  0  0
   31.8250   -5.3090   50.9520 N   0  0  0  0  0
   33.2880   -3.3880   50.4050 C   0  0  0  0  0
   19.1066    2.2608   53.7711 H   0  0  0  0  0
   18.1242    0.8040   55.2059 H   0  0  0  0  0
   19.0472    0.2199   56.5945 H   0  0  0  0  0
   22.2262    2.8794   54.7514 H   0  0  0  0  0
   24.4052    3.6950   55.0918 H   0  0  0  0  0
   26.6675    2.3783   58.5568 H   0  0  0  0  0
   24.7001    1.0529   59.3423 H   0  0  0  0  0
   22.4617    0.3055   59.0214 H   0  0  0  0  0
   20.3569    0.3056   57.6850 H   0  0  0  0  0
   26.7286    4.8927   56.7401 H   0  0  0  0  0
   26.7570    3.9431   55.2307 H   0  0  0  0  0
   28.6997    5.6962   58.1290 H   0  0  0  0  0
   27.7752    4.6605   59.2442 H   0  0  0  0  0
   29.5322    4.8549   59.4595 H   0  0  0  0  0
   31.6538    0.7452   57.3895 H   0  0  0  0  0
   31.1933   -0.7744   55.4810 H   0  0  0  0  0
   27.5673    1.4191   54.6071 H   0  0  0  0  0
   30.7569   -1.6328   54.9142 H   0  0  0  0  0
   32.3917   -1.4730   53.5138 H   0  0  0  0  0
   31.3873   -0.0092   53.0245 H   0  0  0  0  0
   32.4460   -1.3802   51.1535 H   0  0  0  0  0
   30.6947   -1.0601   51.0486 H   0  0  0  0  0
   29.9158   -4.5824   52.1738 H   0  0  0  0  0
   29.1044   -3.0797   51.6352 H   0  0  0  0  0
   28.8102   -3.0521   53.8923 H   0  0  0  0  0
   30.5387   -3.6689   54.1901 H   0  0  0  0  0
   30.9769   -5.6894   51.3721 H   0  0  0  0  0
   34.1426   -3.8330   50.9148 H   0  0  0  0  0
   33.3170   -3.6505   49.3475 H   0  0  0  0  0
   33.3232   -2.3039   50.5126 H   0  0  0  0  0
  1  2  2  0  0  0
  2  4  1  0  0  0
  2  3  1  0  0  0
  4 13  4  0  0  0
  4  5  4  0  0  0
  5  6  4  0  0  0
  6 11  4  0  0  0
  6  7  4  0  0  0
  7  8  4  0  0  0
  8 14  1  0  0  0
  8  9  4  0  0  0
  9 10  4  0  0  0
 10 11  4  0  0  0
 11 12  4  0  0  0
 12 13  4  0  0  0
 14 15  1  0  0  0
 15 24  4  0  0  0
 15 16  4  0  0  0
 16 18  4  0  0  0
 16 17  1  0  0  0
 18 19  4  0  0  0
 19 24  4  0  0  0
 19 20  4  0  0  0
 20 21  4  0  0  0
 21 22  4  0  0  0
 22 25  1  0  0  0
 22 23  4  0  0  0
 23 24  4  0  0  0
 25 26  1  0  0  0
 26 31  1  0  0  0
 26 27  1  0  0  0
 27 28  1  0  0  0
 28 29  1  0  0  0
 29 32  1  0  0  0
 29 30  1  0  0  0
 30 31  1  0  0  0
 32 34  1  0  0  0
 32 33  2  0  0  0
  1 35  1  0  0  0
  3 36  1  0  0  0
  3 37  1  0  0  0
  5 38  1  0  0  0
  7 39  1  0  0  0
  9 40  1  0  0  0
 10 41  1  0  0  0
 12 42  1  0  0  0
 13 43  1  0  0  0
 14 44  1  0  0  0
 14 45  1  0  0  0
 17 46  1  0  0  0
 17 47  1  0  0  0
 17 48  1  0  0  0
 20 49  1  0  0  0
 21 50  1  0  0  0
 23 51  1  0  0  0
 26 52  1  0  0  0
 27 53  1  0  0  0
 27 54  1  0  0  0
 28 55  1  0  0  0
 28 56  1  0  0  0
 30 57  1  0  0  0
 30 58  1  0  0  0
 31 59  1  0  0  0
 31 60  1  0  0  0
 33 61  1  0  0  0
 34 62  1  0  0  0
 34 63  1  0  0  0
 34 64  1  0  0  0
M  END
$$$$
