5ajv_ligand
  -I-interpret- 

 43 45  0  0  0  0  0  0  0  0999 V2000
   42.4090  -38.9230   13.1090 C   0  0  0  0  0
   41.9540  -40.0670   12.5760 C   0  0  0  0  0
   42.5430  -41.2190   12.2310 C   0  0  0  0  0
   43.9090  -41.5440   12.3670 C   0  0  0  0  0
   45.0700  -41.8750   12.4710 N   0  0  0  0  0
   41.6500  -42.0410   11.7240 C   0  0  0  0  0
   41.8410  -43.2690   11.2720 N   0  0  0  0  0
   40.4660  -41.4230   11.7300 N   0  0  0  0  0
   40.6530  -40.1950   12.2620 C   0  0  0  0  0
   39.7890  -39.1830   12.4940 C   0  0  0  0  0
   40.2030  -37.9820   13.0510 C   0  0  0  0  0
   41.5470  -37.8550   13.3630 C   0  0  0  0  0
   42.0230  -36.7090   13.9150 O   0  0  0  0  0
   41.5300  -36.3620   15.1360 C   0  0  0  0  0
   41.0460  -37.2600   16.0840 C   0  0  0  0  0
   40.5650  -36.8190   17.3210 C   0  0  0  0  0
   41.5400  -35.0300   15.4560 C   0  0  0  0  0
   41.0750  -34.5930   16.6880 C   0  0  0  0  0
   40.5630  -35.4630   17.6480 C   0  0  0  0  0
   40.1530  -34.8950   18.8030 N   0  0  0  0  0
   40.1010  -35.5650   19.9760 C   0  0  0  0  0
   40.3730  -36.7550   20.1390 O   0  0  0  0  0
   39.7750  -34.7150   21.2130 C   0  0  0  0  0
   38.6520  -35.2900   22.0070 N   0  3  0  0  0
   41.1010  -34.6880   21.9680 C   0  0  0  0  0
   41.1200  -33.4180   22.6010 O   0  0  0  0  0
   43.4682  -38.8261   13.3474 H   0  0  0  0  0
   42.7737  -43.6813   11.2942 H   0  0  0  0  0
   41.0556  -43.8039   10.9012 H   0  0  0  0  0
   38.7379  -39.3136   12.2365 H   0  0  0  0  0
   39.4991  -37.1705   13.2359 H   0  0  0  0  0
   41.0420  -38.3263   15.8578 H   0  0  0  0  0
   40.1862  -37.5454   18.0400 H   0  0  0  0  0
   41.9175  -34.3053   14.7346 H   0  0  0  0  0
   41.1117  -33.5272   16.9136 H   0  0  0  0  0
   39.8695  -33.9153   18.7895 H   0  0  0  0  0
   39.4187  -33.7135   20.9718 H   0  0  0  0  0
   38.4700  -34.6959   22.8159 H   0  0  0  0  0
   37.8159  -35.3393   21.4249 H   0  0  0  0  0
   38.9044  -36.2269   22.3216 H   0  0  0  0  0
   41.9538  -34.8275   21.3036 H   0  0  0  0  0
   41.1807  -35.5047   22.6855 H   0  0  0  0  0
   41.9333  -33.3237   23.1022 H   0  0  0  0  0
  1  2  4  0  0  0
  1 12  4  0  0  0
  2  3  4  0  0  0
  2  9  4  0  0  0
  3  4  1  0  0  0
  3  6  4  0  0  0
  4  5  3  0  0  0
  6  7  1  0  0  0
  6  8  4  0  0  0
  8  9  4  0  0  0
  9 10  4  0  0  0
 10 11  4  0  0  0
 11 12  4  0  0  0
 12 13  1  0  0  0
 13 14  1  0  0  0
 14 15  4  0  0  0
 14 17  4  0  0  0
 15 16  4  0  0  0
 16 19  4  0  0  0
 17 18  4  0  0  0
 18 19  4  0  0  0
 19 20  1  0  0  0
 20 21  1  0  0  0
 21 22  2  0  0  0
 21 23  1  0  0  0
 23 24  1  0  0  0
 23 25  1  0  0  0
 25 26  1  0  0  0
  1 27  1  0  0  0
  7 28  1  0  0  0
  7 29  1  0  0  0
 10 30  1  0  0  0
 11 31  1  0  0  0
 15 32  1  0  0  0
 16 33  1  0  0  0
 17 34  1  0  0  0
 18 35  1  0  0  0
 20 36  1  0  0  0
 23 37  1  0  0  0
 24 38  1  0  0  0
 24 39  1  0  0  0
 24 40  1  0  0  0
 25 41  1  0  0  0
 25 42  1  0  0  0
 26 43  1  0  0  0
M  END
$$$$
