3sh0_ligand
  -I-interpret- 

 53 53  0  0  0  0  0  0  0  0999 V2000
  -14.0800    7.2360    7.3220 C   0  0  0  0  0
  -14.7430    9.0750    8.6530 O   0  0  0  0  0
  -15.0880    8.0680    7.7800 C   0  0  0  0  0
  -13.4540    5.3530    5.9450 O   0  0  0  0  0
  -16.3990    7.8860    7.3450 C   0  0  0  0  0
  -11.8400    6.5600    7.7770 O   0  0  0  0  0
  -16.7450    6.8610    6.4490 C   0  0  0  0  0
  -12.4480    8.5960    8.4660 O   0  0  0  0  0
  -15.7340    6.0070    5.9970 C   0  0  0  0  0
  -14.4100    6.2000    6.4380 C   0  0  0  0  0
  -13.8590    4.4070    4.9300 C   0  0  0  0  0
  -12.6070    3.8850    4.2660 C   0  0  0  0  0
  -12.9480    2.9140    3.1620 C   0  0  0  0  0
  -11.7410    2.0560    2.8690 C   0  0  0  0  0
  -12.1360    1.0480    1.8050 C   0  0  0  0  0
  -10.8460    0.5430    1.1440 C   0  0  0  0  0
  -11.0630   -0.7130    0.2890 C   0  0  0  0  0
  -12.2430   -0.5430   -0.6570 C   0  0  0  0  0
  -11.9930   -0.0720   -2.0860 C   0  0  0  0  0
  -11.6680   -1.2560   -2.9810 C   0  0  0  0  0
  -12.6470   -1.5990   -4.1140 C   0  0  0  0  0
  -12.1770   -2.9220   -4.7300 C   0  0  0  0  0
  -12.6990    7.4930    7.8640 C   0  0  0  0  0
  -15.5280    9.5738    8.8908 H   0  0  0  0  0
  -17.1769    8.5568    7.7096 H   0  0  0  0  0
  -17.7747    6.7345    6.1147 H   0  0  0  0  0
  -13.2192    9.1660    8.4220 H   0  0  0  0  0
  -15.9691    5.1964    5.3072 H   0  0  0  0  0
  -14.5051    4.8897    4.1967 H   0  0  0  0  0
  -14.4219    3.5877    5.3771 H   0  0  0  0  0
  -12.0032    3.3691    5.0126 H   0  0  0  0  0
  -12.0609    4.7254    3.8375 H   0  0  0  0  0
  -13.2336    3.4638    2.2652 H   0  0  0  0  0
  -13.7802    2.2825    3.4730 H   0  0  0  0  0
  -11.4127    1.5431    3.7730 H   0  0  0  0  0
  -10.9142    2.6732    2.5174 H   0  0  0  0  0
  -12.7869    1.5121    1.0640 H   0  0  0  0  0
  -12.6848    0.2187    2.2514 H   0  0  0  0  0
  -10.1440    0.2875    1.9377 H   0  0  0  0  0
  -10.4779    1.3319    0.4881 H   0  0  0  0  0
  -11.2694   -1.5525    0.9529 H   0  0  0  0  0
  -10.1655   -0.8873   -0.3046 H   0  0  0  0  0
  -12.8491    0.2433   -0.2071 H   0  0  0  0  0
  -12.6607   -1.5442   -0.7633 H   0  0  0  0  0
  -11.1509    0.6200   -2.0908 H   0  0  0  0  0
  -12.8896    0.4220   -2.4603 H   0  0  0  0  0
  -11.6743   -2.1246   -2.3226 H   0  0  0  0  0
  -10.7339   -0.9934   -3.4776 H   0  0  0  0  0
  -12.6600   -0.8082   -4.8641 H   0  0  0  0  0
  -13.6628   -1.6926   -3.7299 H   0  0  0  0  0
  -11.1656   -2.8015   -5.1183 H   0  0  0  0  0
  -12.1841   -3.6997   -3.9663 H   0  0  0  0  0
  -12.8483   -3.2020   -5.5418 H   0  0  0  0  0
  1  3  4  0  0  0
  1 10  4  0  0  0
  1 23  1  0  0  0
  3  2  1  0  0  0
  3  5  4  0  0  0
 10  4  1  0  0  0
  4 11  1  0  0  0
  5  7  4  0  0  0
 23  6  2  0  0  0
  7  9  4  0  0  0
 23  8  1  0  0  0
  9 10  4  0  0  0
 11 12  1  0  0  0
 12 13  1  0  0  0
 13 14  1  0  0  0
 14 15  1  0  0  0
 15 16  1  0  0  0
 16 17  1  0  0  0
 17 18  1  0  0  0
 18 19  1  0  0  0
 19 20  1  0  0  0
 20 21  1  0  0  0
 21 22  1  0  0  0
  2 24  1  0  0  0
  5 25  1  0  0  0
  7 26  1  0  0  0
  8 27  1  0  0  0
  9 28  1  0  0  0
 11 29  1  0  0  0
 11 30  1  0  0  0
 12 31  1  0  0  0
 12 32  1  0  0  0
 13 33  1  0  0  0
 13 34  1  0  0  0
 14 35  1  0  0  0
 14 36  1  0  0  0
 15 37  1  0  0  0
 15 38  1  0  0  0
 16 39  1  0  0  0
 16 40  1  0  0  0
 17 41  1  0  0  0
 17 42  1  0  0  0
 18 43  1  0  0  0
 18 44  1  0  0  0
 19 45  1  0  0  0
 19 46  1  0  0  0
 20 47  1  0  0  0
 20 48  1  0  0  0
 21 49  1  0  0  0
 21 50  1  0  0  0
 22 51  1  0  0  0
 22 52  1  0  0  0
 22 53  1  0  0  0
M  END
$$$$
