3wkb_ligand
  -I-interpret- 

 32 34  0  0  0  0  0  0  0  0999 V2000
  -18.5290   -3.7500   53.8850 C   0  0  0  0  0
  -17.3040   -3.3290   53.3710 C   0  0  0  0  0
  -18.5970   -4.9460   54.5750 C   0  0  0  0  0
  -13.3450   -5.3240   59.1270 C   0  0  0  0  0
  -13.3780   -4.5940   57.9480 C   0  0  0  0  0
  -16.1380   -4.0660   53.5160 C   0  0  0  0  0
  -17.4360   -5.6860   54.7360 C   0  0  0  0  0
  -13.8300   -6.6230   59.0920 C   0  0  0  0  0
  -13.8800   -5.1400   56.7650 C   0  0  0  0  0
  -16.2150   -5.2730   54.2100 C   0  0  0  0  0
  -14.3280   -7.1460   57.8910 C   0  0  0  0  0
  -14.3840   -6.4420   56.6980 C   0  0  0  0  0
  -15.5600   -8.9860   56.8250 C   0  0  0  0  0
  -15.8610   -8.1590   55.5670 C   0  0  0  0  0
  -14.9760   -6.1230   54.3450 C   0  0  0  0  0
  -14.8130   -8.4530   57.8620 N   0  0  0  0  0
  -14.8820   -7.0710   55.4770 N   0  0  0  0  0
  -15.9530  -10.1270   56.9960 O   0  0  0  0  0
  -19.4235   -3.1431   53.7446 H   0  0  0  0  0
  -17.2604   -2.3820   52.8331 H   0  0  0  0  0
  -19.5435   -5.2996   54.9838 H   0  0  0  0  0
  -12.9522   -4.8925   60.0476 H   0  0  0  0  0
  -13.0034   -3.5704   57.9450 H   0  0  0  0  0
  -15.1935   -3.7136   53.1015 H   0  0  0  0  0
  -17.4805   -6.6220   55.2927 H   0  0  0  0  0
  -13.8238   -7.2342   59.9945 H   0  0  0  0  0
  -13.8788   -4.5295   55.8620 H   0  0  0  0  0
  -16.8687   -7.7476   55.6256 H   0  0  0  0  0
  -15.7947   -8.7920   54.6821 H   0  0  0  0  0
  -14.1629   -5.4142   54.5018 H   0  0  0  0  0
  -14.9631   -6.7475   53.4517 H   0  0  0  0  0
  -14.6037   -9.0564   58.6573 H   0  0  0  0  0
  2  1  4  0  0  0
  3  1  4  0  0  0
  6  2  4  0  0  0
  7  3  4  0  0  0
  5  4  4  0  0  0
  8  4  4  0  0  0
  9  5  4  0  0  0
 10  6  4  0  0  0
 10  7  4  0  0  0
 11  8  4  0  0  0
 12  9  4  0  0  0
 15 10  1  0  0  0
 12 11  4  0  0  0
 11 16  1  0  0  0
 17 12  1  0  0  0
 14 13  1  0  0  0
 13 16  1  0  0  0
 13 18  2  0  0  0
 17 14  1  0  0  0
 15 17  1  0  0  0
  1 19  1  0  0  0
  2 20  1  0  0  0
  3 21  1  0  0  0
  4 22  1  0  0  0
  5 23  1  0  0  0
  6 24  1  0  0  0
  7 25  1  0  0  0
  8 26  1  0  0  0
  9 27  1  0  0  0
 14 28  1  0  0  0
 14 29  1  0  0  0
 15 30  1  0  0  0
 15 31  1  0  0  0
 16 32  1  0  0  0
M  END
$$$$
