2i0y_ligand
  -I-interpret- 

 46 48  0  0  0  0  0  0  0  0999 V2000
    4.8210   29.4920    6.6940 C   0  0  0  0  0
    4.0660   30.6670    7.0190 C   0  0  0  0  0
    4.0100   31.1710    8.3450 C   0  0  0  0  0
    6.3080   28.5200    3.3060 C   0  0  0  0  0
    6.2000   29.3000    4.6260 C   0  0  0  0  0
    3.6200   28.7700    4.6020 C   0  0  0  0  0
    3.8570   28.0410    3.2600 C   0  0  0  0  0
    5.0380   28.6280    2.4680 C   0  0  0  0  0
    5.2240   27.8740    1.1540 C   0  0  0  0  0
    4.6580   31.0470   10.8010 C   0  0  0  0  0
    7.0690   26.7940    8.1310 C   0  0  0  0  0
    7.4480   25.6140    7.3570 C   0  0  0  0  0
    8.2850   24.5520    7.6490 C   0  0  0  0  0
    7.0100   23.9000    4.3000 C   0  0  0  0  0
    4.7120   30.5160    9.3960 C   0  0  0  0  0
    5.4680   29.3420    9.0980 C   0  0  0  0  0
    5.5300   28.8160    7.7630 C   0  0  0  0  0
    4.8900   29.1020    5.3310 N   0  0  0  0  0
    3.3930   30.6960   11.3640 O   0  0  0  0  0
    6.1970   27.6130    7.4300 N   0  0  0  0  0
    7.4780   26.9850    9.2800 O   0  0  0  0  0
    8.2660   23.6880    6.5170 C   0  0  0  0  0
    7.4180   24.2790    5.6030 C   0  0  0  0  0
    6.9180   25.4400    6.0940 O   0  0  0  0  0
    6.6830   23.6010    3.2280 N   0  0  0  0  0
    3.5222   31.1854    6.2293 H   0  0  0  0  0
    3.4255   32.0656    8.5598 H   0  0  0  0  0
    6.4683   27.4687    3.5452 H   0  0  0  0  0
    7.1318   28.9410    2.7295 H   0  0  0  0  0
    6.2881   30.3602    4.3889 H   0  0  0  0  0
    6.9867   28.9367    5.2872 H   0  0  0  0  0
    3.0387   28.1043    5.2400 H   0  0  0  0  0
    3.1122   29.7089    4.3813 H   0  0  0  0  0
    2.9580   28.1534    2.6540 H   0  0  0  0  0
    4.0864   26.9985    3.4807 H   0  0  0  0  0
    4.8315   29.6744    2.2432 H   0  0  0  0  0
    5.4240   26.8234    1.3646 H   0  0  0  0  0
    4.3168   27.9597    0.5558 H   0  0  0  0  0
    6.0636   28.3023    0.6065 H   0  0  0  0  0
    4.7779   32.1304   10.7964 H   0  0  0  0  0
    5.4643   30.6166   11.3949 H   0  0  0  0  0
    8.8506   24.4047    8.5691 H   0  0  0  0  0
    6.0079   28.8358    9.8982 H   0  0  0  0  0
    3.3410   31.0280   12.2633 H   0  0  0  0  0
    5.9962   27.2826    6.4861 H   0  0  0  0  0
    8.8102   22.7512    6.3971 H   0  0  0  0  0
  1  2  4  0  0  0
 17  1  4  0  0  0
  1 18  1  0  0  0
  2  3  4  0  0  0
 15  3  4  0  0  0
  5  4  1  0  0  0
  4  8  1  0  0  0
 18  5  1  0  0  0
  6  7  1  0  0  0
 18  6  1  0  0  0
  7  8  1  0  0  0
  8  9  1  0  0  0
 15 10  1  0  0  0
 10 19  1  0  0  0
 12 11  1  0  0  0
 11 20  1  0  0  0
 11 21  2  0  0  0
 13 12  4  0  0  0
 12 24  4  0  0  0
 22 13  4  0  0  0
 23 14  1  0  0  0
 14 25  3  0  0  0
 16 15  4  0  0  0
 17 16  4  0  0  0
 20 17  1  0  0  0
 22 23  4  0  0  0
 23 24  4  0  0  0
  2 26  1  0  0  0
  3 27  1  0  0  0
  4 28  1  0  0  0
  4 29  1  0  0  0
  5 30  1  0  0  0
  5 31  1  0  0  0
  6 32  1  0  0  0
  6 33  1  0  0  0
  7 34  1  0  0  0
  7 35  1  0  0  0
  8 36  1  0  0  0
  9 37  1  0  0  0
  9 38  1  0  0  0
  9 39  1  0  0  0
 10 40  1  0  0  0
 10 41  1  0  0  0
 13 42  1  0  0  0
 16 43  1  0  0  0
 19 44  1  0  0  0
 20 45  1  0  0  0
 22 46  1  0  0  0
M  END
$$$$
