6phz_ligand
  -I-interpret- 

 40 39  0  0  0  0  0  0  0  0999 V2000
   15.6140   46.4180   28.8740 C   0  0  0  0  0
   15.3080   47.3070   30.0730 C   0  0  0  0  0
   16.6090   47.6470   30.8430 C   0  0  0  0  0
   16.8750   50.0690   31.6610 C   0  0  0  0  0
   15.7090   51.0940   31.6190 C   0  0  0  0  0
   14.7510   50.9660   32.8340 C   0  0  0  0  0
   14.7810   52.2120   33.7630 C   0  0  0  0  0
   13.4770   52.3880   34.5650 C   0  0  0  0  0
   13.5900   53.1350   35.9490 C   0  0  0  0  0
   12.1110   53.1060   36.5230 C   0  0  0  0  0
   11.6910   51.8890   36.9240 F   0  0  0  0  0
   11.2150   53.4990   35.6180 F   0  0  0  0  0
   11.9740   53.9540   37.5540 F   0  0  0  0  0
   16.3470   48.6400   31.9650 N   0  3  0  0  0
   14.9260   45.0770   29.0060 N   0  3  0  0  0
   14.4240   52.4930   36.8590 O   0  0  0  0  0
   13.9510   54.4810   35.8030 O   0  0  0  0  0
   16.6907   46.2559   28.8238 H   0  0  0  0  0
   15.2519   46.9102   27.9714 H   0  0  0  0  0
   14.6288   46.7781   30.7417 H   0  0  0  0  0
   14.8531   48.2327   29.7204 H   0  0  0  0  0
   17.3177   48.0927   30.1450 H   0  0  0  0  0
   17.0032   46.7289   31.2786 H   0  0  0  0  0
   17.5697   50.3607   32.4487 H   0  0  0  0  0
   17.3692   50.0606   30.6895 H   0  0  0  0  0
   15.1296   50.9035   30.7156 H   0  0  0  0  0
   16.1427   52.0938   31.6399 H   0  0  0  0  0
   15.0717   50.1055   33.4212 H   0  0  0  0  0
   13.7367   50.8629   32.4484 H   0  0  0  0  0
   14.9094   53.0940   33.1356 H   0  0  0  0  0
   15.5960   52.0792   34.4745 H   0  0  0  0  0
   13.1289   51.3812   34.7955 H   0  0  0  0  0
   12.8247   53.0030   33.9450 H   0  0  0  0  0
   16.8351   48.3021   32.7945 H   0  0  0  0  0
   15.3365   48.7055   32.0876 H   0  0  0  0  0
   15.1461   44.5018   28.1929 H   0  0  0  0  0
   15.2524   44.6106   29.8523 H   0  0  0  0  0
   13.9173   45.2177   29.0614 H   0  0  0  0  0
   14.1580   51.5744   36.9422 H   0  0  0  0  0
   13.3629   54.9022   35.1718 H   0  0  0  0  0
  2  1  1  0  0  0
  1 15  1  0  0  0
  3  2  1  0  0  0
 14  3  1  0  0  0
  4  5  1  0  0  0
  4 14  1  0  0  0
  5  6  1  0  0  0
  6  7  1  0  0  0
  7  8  1  0  0  0
  8  9  1  0  0  0
  9 10  1  0  0  0
  9 16  1  0  0  0
  9 17  1  0  0  0
 10 11  1  0  0  0
 10 12  1  0  0  0
 10 13  1  0  0  0
  1 18  1  0  0  0
  1 19  1  0  0  0
  2 20  1  0  0  0
  2 21  1  0  0  0
  3 22  1  0  0  0
  3 23  1  0  0  0
  4 24  1  0  0  0
  4 25  1  0  0  0
  5 26  1  0  0  0
  5 27  1  0  0  0
  6 28  1  0  0  0
  6 29  1  0  0  0
  7 30  1  0  0  0
  7 31  1  0  0  0
  8 32  1  0  0  0
  8 33  1  0  0  0
 14 34  1  0  0  0
 14 35  1  0  0  0
 15 36  1  0  0  0
 15 37  1  0  0  0
 15 38  1  0  0  0
 16 39  1  0  0  0
 17 40  1  0  0  0
M  END
$$$$
