### 
### Created by X-TOOL on Mon Sep 10 21:13:00 2018
### 

@<TRIPOS>MOLECULE
3ghe_ligand
  255   258     1     0     0
SMALL
GAST_HUCK


@<TRIPOS>ATOM
      1 N          55.5410   -9.0920   42.1260 N.4       1 ARG         0.2379
      2 CA         54.0540   -8.9660   42.0800 C.3       1 ARG         0.0651
      3 C          53.5920   -8.2820   40.7950 C.2       1 ARG         0.2267
      4 O          53.6560   -7.0570   40.6740 O.2       1 ARG        -0.3907
      5 CB         53.5480   -8.1710   43.2890 C.3       1 ARG         0.0110
      6 CG         52.0300   -8.0320   43.3520 C.3       1 ARG        -0.0125
      7 CD         51.6030   -7.1870   44.5440 C.3       1 ARG         0.0629
      8 NE         50.1530   -7.1800   44.7450 N.pl3     1 ARG        -0.2723
      9 CZ         49.4250   -8.2620   45.0130 C.cat     1 ARG         0.2882
     10 NH1        50.0020   -9.4510   45.1120 N.pl3     1 ARG        -0.2849
     11 NH2        48.1150   -8.1580   45.1930 N.pl3     1 ARG        -0.2849
     12 N          53.1200   -9.0820   39.8440 N.am      1 LYS        -0.2610
     13 CA         52.6390   -8.5730   38.5630 C.3       1 LYS         0.1311
     14 C          51.1650   -8.1850   38.6800 C.2       1 LYS         0.2039
     15 O          50.3330   -8.9800   39.1130 O.2       1 LYS        -0.3944
     16 CB         52.8290   -9.6420   37.4860 C.3       1 LYS        -0.0122
     17 CG         52.4520   -9.2070   36.0880 C.3       1 LYS        -0.0440
     18 CD         52.8060  -10.2880   35.0770 C.3       1 LYS        -0.0124
     19 CE         52.4470   -9.8580   33.6630 C.3       1 LYS        -0.0354
     20 NZ         52.8570  -10.8710   32.6480 N.4       1 LYS         0.2185
     21 N          50.8490   -6.9560   38.2930 N.am      1 ARG        -0.2637
     22 CA         49.4830   -6.4430   38.3710 C.3       1 ARG         0.1311
     23 C          48.8640   -6.3580   36.9770 C.2       1 ARG         0.2039
     24 O          49.3960   -5.6790   36.1070 O.2       1 ARG        -0.3944
     25 CB         49.5110   -5.0570   39.0190 C.3       1 ARG        -0.0092
     26 CG         50.2680   -5.0290   40.3470 C.3       1 ARG        -0.0156
     27 CD         50.8050   -3.6410   40.6840 C.3       1 ARG         0.0627
     28 NE         51.4020   -3.5990   42.0190 N.pl3     1 ARG        -0.2723
     29 CZ         50.7040   -3.5170   43.1500 C.cat     1 ARG         0.2882
     30 NH1        49.3770   -3.4590   43.1160 N.pl3     1 ARG        -0.2849
     31 NH2        51.3310   -3.5050   44.3190 N.pl3     1 ARG        -0.2849
     32 N          47.7420   -7.0380   36.7640 N.am      1 ILE        -0.2635
     33 CA         47.0910   -7.0250   35.4540 C.3       1 ILE         0.1335
     34 C          45.7350   -6.3210   35.4670 C.2       1 ILE         0.2043
     35 O          44.7890   -6.7860   36.1020 O.2       1 ILE        -0.3944
     36 CB         46.9170   -8.4570   34.9310 C.3       1 ILE        -0.0037
     37 CG1        48.2880   -9.1180   34.8060 C.3       1 ILE        -0.0491
     38 CG2        46.2210   -8.4450   33.5890 C.3       1 ILE        -0.0582
     39 CD1        48.2280  -10.6140   34.6500 C.3       1 ILE        -0.0648
     40 N          45.6580   -5.2000   34.7540 N.am      1 HIS        -0.2625
     41 CA         44.4400   -4.3920   34.6690 C.3       1 HIS         0.1369
     42 C          43.8190   -4.4500   33.2800 C.2       1 HIS         0.2054
     43 O          44.3590   -3.8910   32.3270 O.2       1 HIS        -0.3942
     44 CB         44.7530   -2.9320   34.9920 C.3       1 HIS         0.0145
     45 CG         43.5460   -2.0490   35.0460 C.2       1 HIS        -0.0027
     46 ND1        42.9740   -1.6430   36.2320 N.2       1 HIS        -0.3252
     47 CD2        42.8030   -1.4930   34.0610 C.2       1 HIS         0.0291
     48 CE1        41.9310   -0.8730   35.9760 C.2       1 HIS         0.0907
     49 NE2        41.8050   -0.7660   34.6660 N.pl3     1 HIS        -0.2752
     50 N          42.6750   -5.1150   33.1740 N.am      1 ILE        -0.2634
     51 CA         41.9820   -5.2370   31.8990 C.3       1 ILE         0.1335
     52 C          40.5490   -4.7560   32.0180 C.2       1 ILE         0.2040
     53 O          39.7920   -5.2250   32.8690 O.2       1 ILE        -0.3944
     54 CB         41.9560   -6.7020   31.4000 C.3       1 ILE        -0.0037
     55 CG1        43.3770   -7.1680   31.0810 C.3       1 ILE        -0.0491
     56 CG2        41.0540   -6.8210   30.1680 C.3       1 ILE        -0.0582
     57 CD1        43.4580   -8.6270   30.6900 C.3       1 ILE        -0.0648
     58 N          40.1860   -3.8200   31.1510 N.am      1 GLY        -0.2664
     59 CA         38.8400   -3.2840   31.1410 C.3       1 GLY         0.1203
     60 C          38.5910   -2.6410   29.7940 C.2       1 GLY         0.2032
     61 O          39.5200   -2.5060   28.9990 O.2       1 GLY        -0.3945
     62 N          37.3500   -2.2380   29.4910 N.am      1 PRO        -0.2501
     63 CA         37.1020   -1.6120   28.1880 C.3       1 PRO         0.1338
     64 C          38.0220   -0.4080   27.9390 C.2       1 PRO         0.2039
     65 O          38.1470    0.4770   28.7940 O.2       1 PRO        -0.3944
     66 CB         35.6320   -1.2000   28.2800 C.3       1 PRO        -0.0104
     67 CG         35.0470   -2.2250   29.1980 C.3       1 PRO        -0.0281
     68 CD         36.1010   -2.3600   30.2660 C.3       1 PRO         0.0369
     69 N          38.6710   -0.3840   26.7780 N.am      1 GLY        -0.2664
     70 CA         39.5300    0.7360   26.4410 C.3       1 GLY         0.1201
     71 C          40.9200    0.8230   27.0460 C.2       1 GLY         0.2007
     72 O          41.6990    1.7010   26.6580 O.2       1 GLY        -0.3947
     73 N          41.2480   -0.0490   27.9960 N.am      1 ARG        -0.2640
     74 CA         42.5850   -0.0110   28.5810 C.3       1 ARG         0.1311
     75 C          43.0460   -1.3530   29.1160 C.2       1 ARG         0.2039
     76 O          42.2620   -2.1310   29.6570 O.2       1 ARG        -0.3944
     77 CB         42.6740    1.0350   29.6960 C.3       1 ARG        -0.0092
     78 CG         42.1200    0.5960   31.0400 C.3       1 ARG        -0.0156
     79 CD         40.6140    0.5390   31.0500 C.3       1 ARG         0.0627
     80 NE         40.1170    0.2960   32.3990 N.pl3     1 ARG        -0.2723
     81 CZ         38.8320    0.1700   32.7180 C.cat     1 ARG         0.2882
     82 NH1        37.8930    0.2660   31.7830 N.pl3     1 ARG        -0.2849
     83 NH2        38.4860   -0.0590   33.9760 N.pl3     1 ARG        -0.2849
     84 N          44.3340   -1.6160   28.9550 N.am      1 ALA        -0.2640
     85 CA         44.9280   -2.8560   29.4150 C.3       1 ALA         0.1282
     86 C          46.3890   -2.5820   29.6940 C.2       1 ALA         0.2037
     87 O          47.0740   -1.9850   28.8700 O.2       1 ALA        -0.3944
     88 CB         44.7880   -3.9300   28.3510 C.3       1 ALA        -0.0244
     89 N          46.8670   -3.0120   30.8560 N.am      1 PHE        -0.2619
     90 CA         48.2620   -2.7900   31.2190 C.3       1 PHE         0.1404
     91 C          48.6500   -3.5770   32.4630 C.2       1 PHE         0.2061
     92 O          47.7880   -4.1010   33.1670 O.2       1 PHE        -0.3942
     93 CB         48.5010   -1.2970   31.4650 C.3       1 PHE         0.0214
     94 CG         47.6940   -0.7270   32.6010 C.ar      1 PHE        -0.0386
     95 CD1        47.9480   -1.1090   33.9160 C.ar      1 PHE        -0.0601
     96 CD2        46.6840    0.1960   32.3550 C.ar      1 PHE        -0.0601
     97 CE1        47.2080   -0.5800   34.9730 C.ar      1 PHE        -0.0686
     98 CE2        45.9340    0.7340   33.4040 C.ar      1 PHE        -0.0686
     99 CZ         46.1980    0.3460   34.7170 C.ar      1 PHE        -0.0687
    100 N          49.9470   -3.6580   32.7380 N.am      1 TYR        -0.2620
    101 CA         50.3980   -4.3680   33.9240 C.3       1 TYR         0.1390
    102 C          51.3810   -3.5400   34.7520 C.2       1 TYR         0.2057
    103 O          52.5330   -3.3450   34.3670 O.2       1 TYR        -0.3942
    104 CB         51.0050   -5.7270   33.5460 C.3       1 TYR         0.0163
    105 CG         52.3690   -5.6780   32.9030 C.ar      1 TYR        -0.0493
    106 CD1        52.5910   -4.9480   31.7390 C.ar      1 TYR        -0.0685
    107 CD2        53.4380   -6.3880   33.4530 C.ar      1 TYR        -0.0685
    108 CE1        53.8480   -4.9270   31.1330 C.ar      1 TYR        -0.0398
    109 CE2        54.6950   -6.3760   32.8580 C.ar      1 TYR        -0.0398
    110 CZ         54.8930   -5.6440   31.6980 C.ar      1 TYR         0.0805
    111 OH         56.1340   -5.6360   31.1040 O.3       1 TYR        -0.3376
    112 N          50.8990   -3.0470   35.8920 N.am      1 ALA        -0.2639
    113 CA         51.6960   -2.2260   36.8010 C.3       1 ALA         0.1282
    114 C          52.7310   -3.0500   37.5710 C.2       1 ALA         0.2038
    115 O          52.4310   -4.1310   38.0790 O.2       1 ALA        -0.3944
    116 CB         50.7740   -1.4930   37.7790 C.3       1 ALA        -0.0244
    117 N          53.9500   -2.5210   37.6520 N.am      1 THR        -0.2625
    118 CA         55.0550   -3.1830   38.3480 C.3       1 THR         0.1382
    119 C          54.7280   -3.4550   39.8170 C.2       1 THR         0.1270
    120 O          55.1460   -4.5270   40.3050 O.2       1 THR        -0.3724
    121 CB         56.3490   -2.3260   38.2710 C.3       1 THR         0.0911
    122 OG1        57.4070   -2.9830   38.9800 O.3       1 THR        -0.3873
    123 CG2        56.1170   -0.9440   38.8780 C.3       1 THR        -0.0345
    124 H1         55.8133   -9.5461   42.9837 H         1 ARG         0.2015
    125 H2         55.9574   -8.1750   42.0845 H         1 ARG         0.2015
    126 H3         55.8562   -9.6401   41.3410 H         1 ARG         0.2015
    127 H4         53.6198   -9.9761   42.1143 H         1 ARG         0.1098
    128 H5         53.9857   -7.1627   43.2472 H         1 ARG         0.0347
    129 H6         53.8865   -8.6801   44.2035 H         1 ARG         0.0347
    130 H7         51.5816   -9.0324   43.4425 H         1 ARG         0.0302
    131 H8         51.6749   -7.5533   42.4275 H         1 ARG         0.0302
    132 H9         51.9399   -6.1528   44.3802 H         1 ARG         0.0689
    133 H10        52.0812   -7.5894   45.4492 H         1 ARG         0.0689
    134 H11        49.6628   -6.2769   44.6743 H         1 ARG         0.2642
    135 H12        49.4328  -10.2840   45.3196 H         1 ARG         0.2615
    136 H13        51.0196   -9.5421   44.9814 H         1 ARG         0.2615
    137 H14        47.6563   -7.2388   45.1184 H         1 ARG         0.2615
    138 H15        47.5565   -8.9964   45.4074 H         1 ARG         0.2615
    139 H16        53.0935  -10.0674   40.0120 H         1 LYS         0.1884
    140 H17        53.2214   -7.6812   38.2881 H         1 LYS         0.0800
    141 H18        52.2093  -10.5107   37.7529 H         1 LYS         0.0312
    142 H19        53.8889   -9.9360   37.4788 H         1 LYS         0.0312
    143 H20        52.9968   -8.2850   35.8370 H         1 LYS         0.0269
    144 H21        51.3695   -9.0156   36.0485 H         1 LYS         0.0269
    145 H22        52.2522  -11.2057   35.3243 H         1 LYS         0.0317
    146 H23        53.8867  -10.4868   35.1280 H         1 LYS         0.0317
    147 H24        52.9551   -8.9079   33.4413 H         1 LYS         0.0813
    148 H25        51.3581   -9.7147   33.6014 H         1 LYS         0.0813
    149 H26        52.6014  -10.5475   31.7282 H         1 LYS         0.1994
    150 H27        52.3917  -11.7447   32.8382 H         1 LYS         0.1994
    151 H28        53.8550  -11.0054   32.6915 H         1 LYS         0.1994
    152 H29        51.5693   -6.3611   37.9362 H         1 ARG         0.1883
    153 H30        48.8770   -7.1208   38.9901 H         1 ARG         0.0800
    154 H31        48.4750   -4.7346   39.2002 H         1 ARG         0.0313
    155 H32        49.9971   -4.3560   38.3246 H         1 ARG         0.0313
    156 H33        51.1141   -5.7293   40.2857 H         1 ARG         0.0301
    157 H34        49.5857   -5.3475   41.1489 H         1 ARG         0.0301
    158 H35        49.9765   -2.9187   40.6416 H         1 ARG         0.0689
    159 H36        51.5699   -3.3656   39.9431 H         1 ARG         0.0689
    160 H37        52.4290   -3.6352   42.0885 H         1 ARG         0.2642
    161 H38        48.8416   -3.3956   43.9936 H         1 ARG         0.2615
    162 H39        48.8837   -3.4774   42.2120 H         1 ARG         0.2615
    163 H40        52.3595   -3.5497   44.3522 H         1 ARG         0.2615
    164 H41        50.7893   -3.4510   45.1934 H         1 ARG         0.2615
    165 H42        47.3369   -7.5663   37.5102 H         1 ILE         0.1883
    166 H43        47.7475   -6.4795   34.7602 H         1 ILE         0.0803
    167 H44        46.3053   -9.0285   35.6446 H         1 ILE         0.0345
    168 H45        48.8687   -8.8865   35.7111 H         1 ILE         0.0267
    169 H46        48.7971   -8.6975   33.9262 H         1 ILE         0.0267
    170 H47        45.2356   -7.9670   33.6913 H         1 ILE         0.0235
    171 H48        46.0923   -9.4779   33.2334 H         1 ILE         0.0235
    172 H49        46.8286   -7.8812   32.8658 H         1 ILE         0.0235
    173 H50        49.2488  -11.0152   34.5666 H         1 ILE         0.0230
    174 H51        47.6599  -10.8655   33.7423 H         1 ILE         0.0230
    175 H52        47.7315  -11.0545   35.5272 H         1 ILE         0.0230
    176 H53        46.4686   -4.8958   34.2537 H         1 HIS         0.1885
    177 H54        43.7138   -4.7769   35.4001 H         1 HIS         0.0817
    178 H55        45.4312   -2.5440   34.2177 H         1 HIS         0.0420
    179 H56        45.2537   -2.8938   35.9707 H         1 HIS         0.0420
    180 H57        42.9652   -1.6012   32.9896 H         1 HIS         0.0729
    181 H58        41.2856   -0.4064   36.7187 H         1 HIS         0.1199
    182 H59        41.0773   -0.2257   34.1768 H         1 HIS         0.2361
    183 H60        42.2803   -5.5417   33.9878 H         1 ILE         0.1883
    184 H61        42.5086   -4.6178   31.1579 H         1 ILE         0.0803
    185 H62        41.5473   -7.3406   32.1970 H         1 ILE         0.0345
    186 H63        44.0036   -7.0105   31.9713 H         1 ILE         0.0267
    187 H64        43.7639   -6.5621   30.2484 H         1 ILE         0.0267
    188 H65        40.0394   -6.4806   30.4222 H         1 ILE         0.0235
    189 H66        41.0173   -7.8704   29.8404 H         1 ILE         0.0235
    190 H67        41.4574   -6.1974   29.3566 H         1 ILE         0.0235
    191 H68        44.5040   -8.8916   30.4756 H         1 ILE         0.0230
    192 H69        42.8447   -8.8010   29.7936 H         1 ILE         0.0230
    193 H70        43.0844   -9.2494   31.5164 H         1 ILE         0.0230
    194 H71        40.8547   -3.4775   30.4911 H         1 GLY         0.1881
    195 H72        38.7338   -2.5320   31.9367 H         1 GLY         0.0763
    196 H73        38.1158   -4.0957   31.3045 H         1 GLY         0.0763
    197 H74        37.2478   -2.3408   27.3771 H         1 PRO         0.0802
    198 H75        35.1500   -1.2346   27.2918 H         1 PRO         0.0313
    199 H76        35.5313   -0.1892   28.7020 H         1 PRO         0.0313
    200 H77        34.8884   -3.1799   28.6755 H         1 PRO         0.0287
    201 H78        34.0943   -1.8773   29.6239 H         1 PRO         0.0287
    202 H79        36.0158   -1.5576   31.0135 H         1 PRO         0.0524
    203 H80        36.0371   -3.3368   30.7677 H         1 PRO         0.0524
    204 H81        38.5664   -1.1419   26.1340 H         1 GLY         0.1881
    205 H82        38.9946    1.6500   26.7376 H         1 GLY         0.0763
    206 H83        39.6572    0.7238   25.3485 H         1 GLY         0.0763
    207 H84        40.5821   -0.7269   28.3076 H         1 ARG         0.1883
    208 H85        43.2808    0.2845   27.7819 H         1 ARG         0.0800
    209 H86        42.1156    1.9258   29.3724 H         1 ARG         0.0313
    210 H87        43.7336    1.2964   29.8337 H         1 ARG         0.0313
    211 H88        42.4515    1.3094   31.8088 H         1 ARG         0.0301
    212 H89        42.5128   -0.4044   31.2743 H         1 ARG         0.0301
    213 H90        40.2789   -0.2744   30.3897 H         1 ARG         0.0689
    214 H91        40.2139    1.4963   30.6847 H         1 ARG         0.0689
    215 H92        40.8091    0.2164   33.1576 H         1 ARG         0.2642
    216 H93        36.9000    0.1672   32.0383 H         1 ARG         0.2615
    217 H94        38.1580    0.4392   30.8029 H         1 ARG         0.2615
    218 H95        39.2108   -0.1341   34.7040 H         1 ARG         0.2615
    219 H96        37.4922   -0.1619   34.2262 H         1 ARG         0.2615
    220 H97        44.9143   -0.9389   28.5025 H         1 ALA         0.1883
    221 H98        44.4285   -3.1902   30.3363 H         1 ALA         0.0797
    222 H99        45.2420   -4.8648   28.7117 H         1 ALA         0.0277
    223 H100       45.2986   -3.6050   27.4325 H         1 ALA         0.0277
    224 H101       43.7221   -4.0985   28.1380 H         1 ALA         0.0277
    225 H102       46.2627   -3.4942   31.4902 H         1 PHE         0.1885
    226 H103       48.8969   -3.1202   30.3836 H         1 PHE         0.0823
    227 H104       48.2412   -0.7492   30.5472 H         1 PHE         0.0474
    228 H105       49.5675   -1.1499   31.6904 H         1 PHE         0.0474
    229 H106       48.7327   -1.8283   34.1209 H         1 PHE         0.0557
    230 H107       46.4756    0.5023   31.3363 H         1 PHE         0.0557
    231 H108       47.4176   -0.8881   35.9910 H         1 PHE         0.0599
    232 H109       45.1483    1.4517   33.1974 H         1 PHE         0.0599
    233 H110       45.6207    0.7624   35.5346 H         1 PHE         0.0559
    234 H111       50.6143   -3.2300   32.1284 H         1 TYR         0.1885
    235 H112       49.5152   -4.5581   34.5521 H         1 TYR         0.0821
    236 H113       50.3176   -6.2205   32.8432 H         1 TYR         0.0453
    237 H114       51.0853   -6.3283   34.4636 H         1 TYR         0.0453
    238 H115       51.7755   -4.3874   31.2966 H         1 TYR         0.0530
    239 H116       53.2853   -6.9596   34.3613 H         1 TYR         0.0530
    240 H117       54.0070   -4.3541   30.2266 H         1 TYR         0.0525
    241 H118       55.5132   -6.9346   33.2980 H         1 TYR         0.0525
    242 H119       56.1074   -5.0930   30.3249 H         1 TYR         0.2458
    243 H120       49.9503   -3.2476   36.1363 H         1 ALA         0.1883
    244 H121       52.2349   -1.4776   36.2014 H         1 ALA         0.0797
    245 H122       51.3784   -0.8767   38.4608 H         1 ALA         0.0277
    246 H123       50.1989   -2.2278   38.3615 H         1 ALA         0.0277
    247 H124       50.0823   -0.8479   37.2174 H         1 ALA         0.0277
    248 H125       54.1178   -1.6350   37.2197 H         1 THR         0.1885
    249 H126       55.2416   -4.1461   37.8503 H         1 THR         0.0816
    250 H127       54.1555   -2.7451   40.4122 H         1 THR         0.1374
    251 H128       56.6380   -2.2100   37.2160 H         1 THR         0.0640
    252 H129       57.1560   -3.0940   39.8895 H         1 THR         0.2101
    253 H130       57.0437   -0.3549   38.8133 H         1 THR         0.0257
    254 H131       55.8236   -1.0513   39.9327 H         1 THR         0.0257
    255 H132       55.3167   -0.4303   38.3252 H         1 THR         0.0257
@<TRIPOS>BOND
     1    1    2 1  
     2    2    3 1  
     3    2    5 1  
     4    3    4 2  
     5    3   12 am 
     6    5    6 1  
     7    6    7 1  
     8    7    8 1  
     9    8    9 ar 
    10    9   10 ar 
    11    9   11 ar 
    12   12   13 1  
    13   13   14 1  
    14   13   16 1  
    15   14   15 2  
    16   14   21 am 
    17   16   17 1  
    18   17   18 1  
    19   18   19 1  
    20   19   20 1  
    21   21   22 1  
    22   22   23 1  
    23   22   25 1  
    24   23   24 2  
    25   23   32 am 
    26   25   26 1  
    27   26   27 1  
    28   27   28 1  
    29   28   29 ar 
    30   29   30 ar 
    31   29   31 ar 
    32   32   33 1  
    33   33   34 1  
    34   33   36 1  
    35   34   35 2  
    36   34   40 am 
    37   36   37 1  
    38   36   38 1  
    39   37   39 1  
    40   40   41 1  
    41   41   42 1  
    42   41   44 1  
    43   42   43 2  
    44   42   50 am 
    45   44   45 1  
    46   45   46 1  
    47   45   47 2  
    48   46   48 2  
    49   47   49 1  
    50   48   49 1  
    51   50   51 1  
    52   51   52 1  
    53   51   54 1  
    54   52   53 2  
    55   52   58 am 
    56   54   55 1  
    57   54   56 1  
    58   55   57 1  
    59   58   59 1  
    60   59   60 1  
    61   60   61 2  
    62   60   62 am 
    63   62   63 1  
    64   62   68 1  
    65   63   64 1  
    66   63   66 1  
    67   64   65 2  
    68   64   69 am 
    69   66   67 1  
    70   67   68 1  
    71   69   70 1  
    72   70   71 1  
    73   71   72 2  
    74   71   73 am 
    75   73   74 1  
    76   74   75 1  
    77   74   77 1  
    78   75   76 2  
    79   75   84 am 
    80   77   78 1  
    81   78   79 1  
    82   79   80 1  
    83   80   81 ar 
    84   81   82 ar 
    85   81   83 ar 
    86   84   85 1  
    87   85   86 1  
    88   85   88 1  
    89   86   87 2  
    90   86   89 am 
    91   89   90 1  
    92   90   91 1  
    93   90   93 1  
    94   91   92 2  
    95   91  100 am 
    96   93   94 1  
    97   94   95 ar 
    98   94   96 ar 
    99   95   97 ar 
   100   96   98 ar 
   101   97   99 ar 
   102   98   99 ar 
   103  100  101 1  
   104  101  102 1  
   105  101  104 1  
   106  102  103 2  
   107  102  112 am 
   108  104  105 1  
   109  105  106 ar 
   110  105  107 ar 
   111  106  108 ar 
   112  107  109 ar 
   113  108  110 ar 
   114  109  110 ar 
   115  110  111 1  
   116  112  113 1  
   117  113  114 1  
   118  113  116 1  
   119  114  115 2  
   120  114  117 am 
   121  117  118 1  
   122  118  119 1  
   123  118  121 1  
   124  119  120 2  
   125  121  122 1  
   126  121  123 1  
   127    1  124 1  
   128    1  125 1  
   129    1  126 1  
   130    2  127 1  
   131    5  128 1  
   132    5  129 1  
   133    6  130 1  
   134    6  131 1  
   135    7  132 1  
   136    7  133 1  
   137    8  134 1  
   138   10  135 1  
   139   10  136 1  
   140   11  137 1  
   141   11  138 1  
   142   12  139 1  
   143   13  140 1  
   144   16  141 1  
   145   16  142 1  
   146   17  143 1  
   147   17  144 1  
   148   18  145 1  
   149   18  146 1  
   150   19  147 1  
   151   19  148 1  
   152   20  149 1  
   153   20  150 1  
   154   20  151 1  
   155   21  152 1  
   156   22  153 1  
   157   25  154 1  
   158   25  155 1  
   159   26  156 1  
   160   26  157 1  
   161   27  158 1  
   162   27  159 1  
   163   28  160 1  
   164   30  161 1  
   165   30  162 1  
   166   31  163 1  
   167   31  164 1  
   168   32  165 1  
   169   33  166 1  
   170   36  167 1  
   171   37  168 1  
   172   37  169 1  
   173   38  170 1  
   174   38  171 1  
   175   38  172 1  
   176   39  173 1  
   177   39  174 1  
   178   39  175 1  
   179   40  176 1  
   180   41  177 1  
   181   44  178 1  
   182   44  179 1  
   183   47  180 1  
   184   48  181 1  
   185   49  182 1  
   186   50  183 1  
   187   51  184 1  
   188   54  185 1  
   189   55  186 1  
   190   55  187 1  
   191   56  188 1  
   192   56  189 1  
   193   56  190 1  
   194   57  191 1  
   195   57  192 1  
   196   57  193 1  
   197   58  194 1  
   198   59  195 1  
   199   59  196 1  
   200   63  197 1  
   201   66  198 1  
   202   66  199 1  
   203   67  200 1  
   204   67  201 1  
   205   68  202 1  
   206   68  203 1  
   207   69  204 1  
   208   70  205 1  
   209   70  206 1  
   210   73  207 1  
   211   74  208 1  
   212   77  209 1  
   213   77  210 1  
   214   78  211 1  
   215   78  212 1  
   216   79  213 1  
   217   79  214 1  
   218   80  215 1  
   219   82  216 1  
   220   82  217 1  
   221   83  218 1  
   222   83  219 1  
   223   84  220 1  
   224   85  221 1  
   225   88  222 1  
   226   88  223 1  
   227   88  224 1  
   228   89  225 1  
   229   90  226 1  
   230   93  227 1  
   231   93  228 1  
   232   95  229 1  
   233   96  230 1  
   234   97  231 1  
   235   98  232 1  
   236   99  233 1  
   237  100  234 1  
   238  101  235 1  
   239  104  236 1  
   240  104  237 1  
   241  106  238 1  
   242  107  239 1  
   243  108  240 1  
   244  109  241 1  
   245  111  242 1  
   246  112  243 1  
   247  113  244 1  
   248  116  245 1  
   249  116  246 1  
   250  116  247 1  
   251  117  248 1  
   252  118  249 1  
   253  119  250 1  
   254  121  251 1  
   255  122  252 1  
   256  123  253 1  
   257  123  254 1  
   258  123  255 1  
@<TRIPOS>SUBSTRUCTURE
     1 ARG         1

