3ghe_ligand
  -I-interpret- 

251254  0  0  0  0  0  0  0  0999 V2000
   55.5410   -9.0920   42.1260 N   0  3  0  0  0
   54.0540   -8.9660   42.0800 C   0  0  0  0  0
   53.5920   -8.2820   40.7950 C   0  0  0  0  0
   53.6560   -7.0570   40.6740 O   0  0  0  0  0
   53.5480   -8.1710   43.2890 C   0  0  0  0  0
   52.0300   -8.0320   43.3520 C   0  0  0  0  0
   51.6030   -7.1870   44.5440 C   0  0  0  0  0
   50.1530   -7.1800   44.7450 N   0  0  0  0  0
   49.4250   -8.2620   45.0130 C   0  0  0  0  0
   50.0020   -9.4510   45.1120 N   0  0  0  0  0
   48.1150   -8.1580   45.1930 N   0  0  0  0  0
   53.1200   -9.0820   39.8440 N   0  0  0  0  0
   52.6390   -8.5730   38.5630 C   0  0  0  0  0
   51.1650   -8.1850   38.6800 C   0  0  0  0  0
   50.3330   -8.9800   39.1130 O   0  0  0  0  0
   52.8290   -9.6420   37.4860 C   0  0  0  0  0
   52.4520   -9.2070   36.0880 C   0  0  0  0  0
   52.8060  -10.2880   35.0770 C   0  0  0  0  0
   52.4470   -9.8580   33.6630 C   0  0  0  0  0
   52.8570  -10.8710   32.6480 N   0  3  0  0  0
   50.8490   -6.9560   38.2930 N   0  0  0  0  0
   49.4830   -6.4430   38.3710 C   0  0  0  0  0
   48.8640   -6.3580   36.9770 C   0  0  0  0  0
   49.3960   -5.6790   36.1070 O   0  0  0  0  0
   49.5110   -5.0570   39.0190 C   0  0  0  0  0
   50.2680   -5.0290   40.3470 C   0  0  0  0  0
   50.8050   -3.6410   40.6840 C   0  0  0  0  0
   51.4020   -3.5990   42.0190 N   0  0  0  0  0
   50.7040   -3.5170   43.1500 C   0  0  0  0  0
   49.3770   -3.4590   43.1160 N   0  0  0  0  0
   51.3310   -3.5050   44.3190 N   0  0  0  0  0
   47.7420   -7.0380   36.7640 N   0  0  0  0  0
   47.0910   -7.0250   35.4540 C   0  0  0  0  0
   45.7350   -6.3210   35.4670 C   0  0  0  0  0
   44.7890   -6.7860   36.1020 O   0  0  0  0  0
   46.9170   -8.4570   34.9310 C   0  0  0  0  0
   48.2880   -9.1180   34.8060 C   0  0  0  0  0
   46.2210   -8.4450   33.5890 C   0  0  0  0  0
   48.2280  -10.6140   34.6500 C   0  0  0  0  0
   45.6580   -5.2000   34.7540 N   0  0  0  0  0
   44.4400   -4.3920   34.6690 C   0  0  0  0  0
   43.8190   -4.4500   33.2800 C   0  0  0  0  0
   44.3590   -3.8910   32.3270 O   0  0  0  0  0
   44.7530   -2.9320   34.9920 C   0  0  0  0  0
   43.5460   -2.0490   35.0460 C   0  0  0  0  0
   42.9740   -1.6430   36.2320 N   0  0  0  0  0
   42.8030   -1.4930   34.0610 C   0  0  0  0  0
   41.9310   -0.8730   35.9760 C   0  0  0  0  0
   41.8050   -0.7660   34.6660 N   0  0  0  0  0
   42.6750   -5.1150   33.1740 N   0  0  0  0  0
   41.9820   -5.2370   31.8990 C   0  0  0  0  0
   40.5490   -4.7560   32.0180 C   0  0  0  0  0
   39.7920   -5.2250   32.8690 O   0  0  0  0  0
   41.9560   -6.7020   31.4000 C   0  0  0  0  0
   43.3770   -7.1680   31.0810 C   0  0  0  0  0
   41.0540   -6.8210   30.1680 C   0  0  0  0  0
   43.4580   -8.6270   30.6900 C   0  0  0  0  0
   40.1860   -3.8200   31.1510 N   0  0  0  0  0
   38.8400   -3.2840   31.1410 C   0  0  0  0  0
   38.5910   -2.6410   29.7940 C   0  0  0  0  0
   39.5200   -2.5060   28.9990 O   0  0  0  0  0
   37.3500   -2.2380   29.4910 N   0  0  0  0  0
   37.1020   -1.6120   28.1880 C   0  0  0  0  0
   38.0220   -0.4080   27.9390 C   0  0  0  0  0
   38.1470    0.4770   28.7940 O   0  0  0  0  0
   35.6320   -1.2000   28.2800 C   0  0  0  0  0
   35.0470   -2.2250   29.1980 C   0  0  0  0  0
   36.1010   -2.3600   30.2660 C   0  0  0  0  0
   38.6710   -0.3840   26.7780 N   0  0  0  0  0
   39.5300    0.7360   26.4410 C   0  0  0  0  0
   40.9200    0.8230   27.0460 C   0  0  0  0  0
   41.6990    1.7010   26.6580 O   0  0  0  0  0
   41.2480   -0.0490   27.9960 N   0  0  0  0  0
   42.5850   -0.0110   28.5810 C   0  0  0  0  0
   43.0460   -1.3530   29.1160 C   0  0  0  0  0
   42.2620   -2.1310   29.6570 O   0  0  0  0  0
   42.6740    1.0350   29.6960 C   0  0  0  0  0
   42.1200    0.5960   31.0400 C   0  0  0  0  0
   40.6140    0.5390   31.0500 C   0  0  0  0  0
   40.1170    0.2960   32.3990 N   0  0  0  0  0
   38.8320    0.1700   32.7180 C   0  0  0  0  0
   37.8930    0.2660   31.7830 N   0  0  0  0  0
   38.4860   -0.0590   33.9760 N   0  0  0  0  0
   44.3340   -1.6160   28.9550 N   0  0  0  0  0
   44.9280   -2.8560   29.4150 C   0  0  0  0  0
   46.3890   -2.5820   29.6940 C   0  0  0  0  0
   47.0740   -1.9850   28.8700 O   0  0  0  0  0
   44.7880   -3.9300   28.3510 C   0  0  0  0  0
   46.8670   -3.0120   30.8560 N   0  0  0  0  0
   48.2620   -2.7900   31.2190 C   0  0  0  0  0
   48.6500   -3.5770   32.4630 C   0  0  0  0  0
   47.7880   -4.1010   33.1670 O   0  0  0  0  0
   48.5010   -1.2970   31.4650 C   0  0  0  0  0
   47.6940   -0.7270   32.6010 C   0  0  0  0  0
   47.9480   -1.1090   33.9160 C   0  0  0  0  0
   46.6840    0.1960   32.3550 C   0  0  0  0  0
   47.2080   -0.5800   34.9730 C   0  0  0  0  0
   45.9340    0.7340   33.4040 C   0  0  0  0  0
   46.1980    0.3460   34.7170 C   0  0  0  0  0
   49.9470   -3.6580   32.7380 N   0  0  0  0  0
   50.3980   -4.3680   33.9240 C   0  0  0  0  0
   51.3810   -3.5400   34.7520 C   0  0  0  0  0
   52.5330   -3.3450   34.3670 O   0  0  0  0  0
   51.0050   -5.7270   33.5460 C   0  0  0  0  0
   52.3690   -5.6780   32.9030 C   0  0  0  0  0
   52.5910   -4.9480   31.7390 C   0  0  0  0  0
   53.4380   -6.3880   33.4530 C   0  0  0  0  0
   53.8480   -4.9270   31.1330 C   0  0  0  0  0
   54.6950   -6.3760   32.8580 C   0  0  0  0  0
   54.8930   -5.6440   31.6980 C   0  0  0  0  0
   56.1340   -5.6360   31.1040 O   0  0  0  0  0
   50.8990   -3.0470   35.8920 N   0  0  0  0  0
   51.6960   -2.2260   36.8010 C   0  0  0  0  0
   52.7310   -3.0500   37.5710 C   0  0  0  0  0
   52.4310   -4.1310   38.0790 O   0  0  0  0  0
   50.7740   -1.4930   37.7790 C   0  0  0  0  0
   53.9500   -2.5210   37.6520 N   0  0  0  0  0
   55.0550   -3.1830   38.3480 C   0  0  0  0  0
   54.7280   -3.4550   39.8170 C   0  0  0  0  0
   55.1460   -4.5270   40.3050 O   0  0  0  0  0
   56.3490   -2.3260   38.2710 C   0  0  0  0  0
   57.4070   -2.9830   38.9800 O   0  0  0  0  0
   56.1170   -0.9440   38.8780 C   0  0  0  0  0
   55.8613   -9.6227   41.3160 H   0  0  0  0  0
   55.9604   -8.1623   42.1123 H   0  0  0  0  0
   55.8137   -9.5768   42.9810 H   0  0  0  0  0
   53.6390   -9.9736   42.1050 H   0  0  0  0  0
   53.9609   -7.1654   43.2094 H   0  0  0  0  0
   53.8598   -8.7106   44.1832 H   0  0  0  0  0
   51.5939   -9.0255   43.4560 H   0  0  0  0  0
   51.6873   -7.5442   42.4394 H   0  0  0  0  0
   51.9186   -6.1608   44.3555 H   0  0  0  0  0
   52.0614   -7.6133   45.4363 H   0  0  0  0  0
   49.6676   -6.2857   44.6750 H   0  0  0  0  0
   51.0097   -9.5412   44.9826 H   0  0  0  0  0
   47.5619   -8.9883   45.4053 H   0  0  0  0  0
   47.6607   -7.2477   45.1191 H   0  0  0  0  0
   53.0929  -10.0871   40.0154 H   0  0  0  0  0
   53.2090   -7.6867   38.2842 H   0  0  0  0  0
   52.1741  -10.4735   37.7463 H   0  0  0  0  0
   53.8911   -9.8860   37.4660 H   0  0  0  0  0
   53.0012   -8.2985   35.8406 H   0  0  0  0  0
   51.3775   -9.0276   36.0516 H   0  0  0  0  0
   52.2430  -11.1892   35.3200 H   0  0  0  0  0
   53.8798  -10.4692   35.1233 H   0  0  0  0  0
   52.9722   -8.9277   33.4466 H   0  0  0  0  0
   51.3648   -9.7398   33.6078 H   0  0  0  0  0
   52.5978  -10.5426   31.7177 H   0  0  0  0  0
   53.8670  -11.0062   32.6930 H   0  0  0  0  0
   52.3856  -11.7546   32.8415 H   0  0  0  0  0
   51.5837   -6.3493   37.9291 H   0  0  0  0  0
   48.8756   -7.1195   38.9723 H   0  0  0  0  0
   48.4802   -4.7651   39.2199 H   0  0  0  0  0
   50.0220   -4.3816   38.3329 H   0  0  0  0  0
   51.1172   -5.7074   40.2645 H   0  0  0  0  0
   49.5749   -5.3222   41.1355 H   0  0  0  0  0
   49.9738   -2.9364   40.6580 H   0  0  0  0  0
   51.5750   -3.3854   39.9561 H   0  0  0  0  0
   52.4190   -3.6349   42.0879 H   0  0  0  0  0
   48.8464   -3.4056   43.9855 H   0  0  0  0  0
   48.8889   -3.4678   42.2204 H   0  0  0  0  0
   52.3490   -3.5586   44.3523 H   0  0  0  0  0
   47.3288   -7.5768   37.5251 H   0  0  0  0  0
   47.7452   -6.4585   34.7913 H   0  0  0  0  0
   46.3033   -9.0234   35.6315 H   0  0  0  0  0
   48.8354   -8.9083   35.7250 H   0  0  0  0  0
   48.7626   -8.7162   33.9108 H   0  0  0  0  0
   45.2396   -7.9824   33.6942 H   0  0  0  0  0
   46.8180   -7.8756   32.8766 H   0  0  0  0  0
   46.1053   -9.4684   33.2320 H   0  0  0  0  0
   47.7358  -11.0493   35.5197 H   0  0  0  0  0
   47.6648  -10.8619   33.7503 H   0  0  0  0  0
   49.2400  -11.0103   34.5674 H   0  0  0  0  0
   46.4848   -4.8897   34.2437 H   0  0  0  0  0
   43.7338   -4.8026   35.3907 H   0  0  0  0  0
   45.3945   -2.5548   34.1956 H   0  0  0  0  0
   45.2139   -2.9107   35.9795 H   0  0  0  0  0
   42.9653   -1.6013   32.9886 H   0  0  0  0  0
   41.2850   -0.4059   36.7194 H   0  0  0  0  0
   42.2724   -5.5502   34.0040 H   0  0  0  0  0
   42.5305   -4.6214   31.1861 H   0  0  0  0  0
   41.5507   -7.3420   32.1837 H   0  0  0  0  0
   43.9759   -7.0359   31.9821 H   0  0  0  0  0
   43.7327   -6.5810   30.2343 H   0  0  0  0  0
   40.0416   -6.5129   30.4294 H   0  0  0  0  0
   41.4374   -6.1787   29.3752 H   0  0  0  0  0
   41.0433   -7.8558   29.8257 H   0  0  0  0  0
   43.0875   -9.2426   31.5097 H   0  0  0  0  0
   42.8499   -8.7981   29.8018 H   0  0  0  0  0
   44.4948   -8.8879   30.4778 H   0  0  0  0  0
   40.8681   -3.4706   30.4779 H   0  0  0  0  0
   38.7276   -2.5442   31.9336 H   0  0  0  0  0
   38.1191   -4.0837   31.3112 H   0  0  0  0  0
   37.3074   -2.2791   27.3508 H   0  0  0  0  0
   35.1401   -1.1767   27.3076 H   0  0  0  0  0
   35.5027   -0.1825   28.6488 H   0  0  0  0  0
   34.8293   -3.1679   28.6963 H   0  0  0  0  0
   34.0757   -1.9317   29.5963 H   0  0  0  0  0
   36.0107   -1.6133   31.0549 H   0  0  0  0  0
   36.0308   -3.2946   30.8225 H   0  0  0  0  0
   38.5643   -1.1570   26.1211 H   0  0  0  0  0
   39.0063    1.6111   26.8257 H   0  0  0  0  0
   39.7012    0.6397   25.3688 H   0  0  0  0  0
   40.5688   -0.7404   28.3139 H   0  0  0  0  0
   43.2510    0.2632   27.7629 H   0  0  0  0  0
   42.0756    1.8873   29.3741 H   0  0  0  0  0
   43.7334    1.2423   29.8468 H   0  0  0  0  0
   42.4348    1.3233   31.7883 H   0  0  0  0  0
   42.4967   -0.4052   31.2492 H   0  0  0  0  0
   40.2876   -0.2746   30.4021 H   0  0  0  0  0
   40.2227    1.4930   30.6966 H   0  0  0  0  0
   40.8024    0.2172   33.1503 H   0  0  0  0  0
   36.9100    0.1634   32.0350 H   0  0  0  0  0
   38.1551    0.4423   30.8131 H   0  0  0  0  0
   39.2040   -0.1381   34.6961 H   0  0  0  0  0
   44.9259   -0.9253   28.4935 H   0  0  0  0  0
   44.4268   -3.2114   30.3153 H   0  0  0  0  0
   43.7314   -4.0959   28.1409 H   0  0  0  0  0
   45.2943   -3.6067   27.4414 H   0  0  0  0  0
   45.2382   -4.8557   28.7095 H   0  0  0  0  0
   46.2506   -3.5038   31.5029 H   0  0  0  0  0
   48.8813   -3.1367   30.3917 H   0  0  0  0  0
   48.2032   -0.7683   30.5595 H   0  0  0  0  0
   49.5531   -1.1761   31.7231 H   0  0  0  0  0
   48.7370   -1.8323   34.1221 H   0  0  0  0  0
   46.4745    0.5040   31.3306 H   0  0  0  0  0
   47.4188   -0.8898   35.9966 H   0  0  0  0  0
   45.1440    1.4557   33.1963 H   0  0  0  0  0
   45.6175    0.7647   35.5391 H   0  0  0  0  0
   50.6276   -3.2215   32.1162 H   0  0  0  0  0
   49.5226   -4.5423   34.5496 H   0  0  0  0  0
   50.3333   -6.1716   32.8117 H   0  0  0  0  0
   51.1221   -6.2824   34.4766 H   0  0  0  0  0
   51.7710   -4.3843   31.2941 H   0  0  0  0  0
   53.2844   -6.9628   34.3663 H   0  0  0  0  0
   54.0078   -4.3510   30.2216 H   0  0  0  0  0
   55.5177   -6.9377   33.3004 H   0  0  0  0  0
   56.7371   -6.1777   31.6182 H   0  0  0  0  0
   49.9313   -3.2516   36.1412 H   0  0  0  0  0
   52.2443   -1.5034   36.1965 H   0  0  0  0  0
   50.0892   -0.8542   37.2213 H   0  0  0  0  0
   50.2047   -2.2221   38.3555 H   0  0  0  0  0
   51.3740   -0.8827   38.4540 H   0  0  0  0  0
   54.1212   -1.6173   37.2110 H   0  0  0  0  0
   55.2119   -4.1370   37.8447 H   0  0  0  0  0
   54.1550   -2.7445   40.4128 H   0  0  0  0  0
   56.6233   -2.2091   37.2226 H   0  0  0  0  0
   58.2038   -2.4499   38.9295 H   0  0  0  0  0
   55.3238   -0.4361   38.3294 H   0  0  0  0  0
   55.8263   -1.0517   39.9230 H   0  0  0  0  0
   57.0359   -0.3613   38.8133 H   0  0  0  0  0
  1  2  1  0  0  0
  2  3  1  0  0  0
  2  5  1  0  0  0
  3  4  2  0  0  0
  3 12  1  0  0  0
  5  6  1  0  0  0
  6  7  1  0  0  0
  7  8  1  0  0  0
  8  9  1  0  0  0
  9 10  2  0  0  0
  9 11  1  0  0  0
 12 13  1  0  0  0
 13 14  1  0  0  0
 13 16  1  0  0  0
 14 15  2  0  0  0
 14 21  1  0  0  0
 16 17  1  0  0  0
 17 18  1  0  0  0
 18 19  1  0  0  0
 19 20  1  0  0  0
 21 22  1  0  0  0
 22 23  1  0  0  0
 22 25  1  0  0  0
 23 24  2  0  0  0
 23 32  1  0  0  0
 25 26  1  0  0  0
 26 27  1  0  0  0
 27 28  1  0  0  0
 28 29  1  0  0  0
 29 30  1  0  0  0
 29 31  2  0  0  0
 32 33  1  0  0  0
 33 34  1  0  0  0
 33 36  1  0  0  0
 34 35  2  0  0  0
 34 40  1  0  0  0
 36 37  1  0  0  0
 36 38  1  0  0  0
 37 39  1  0  0  0
 40 41  1  0  0  0
 41 42  1  0  0  0
 41 44  1  0  0  0
 42 43  2  0  0  0
 42 50  1  0  0  0
 44 45  1  0  0  0
 45 46  4  0  0  0
 45 47  4  0  0  0
 46 48  4  0  0  0
 47 49  4  0  0  0
 48 49  4  0  0  0
 50 51  1  0  0  0
 51 52  1  0  0  0
 51 54  1  0  0  0
 52 53  2  0  0  0
 52 58  1  0  0  0
 54 55  1  0  0  0
 54 56  1  0  0  0
 55 57  1  0  0  0
 58 59  1  0  0  0
 59 60  1  0  0  0
 60 61  2  0  0  0
 60 62  1  0  0  0
 62 63  1  0  0  0
 62 68  1  0  0  0
 63 64  1  0  0  0
 63 66  1  0  0  0
 64 65  2  0  0  0
 64 69  1  0  0  0
 66 67  1  0  0  0
 67 68  1  0  0  0
 69 70  1  0  0  0
 70 71  1  0  0  0
 71 72  2  0  0  0
 71 73  1  0  0  0
 73 74  1  0  0  0
 74 75  1  0  0  0
 74 77  1  0  0  0
 75 76  2  0  0  0
 75 84  1  0  0  0
 77 78  1  0  0  0
 78 79  1  0  0  0
 79 80  1  0  0  0
 80 81  1  0  0  0
 81 82  1  0  0  0
 81 83  2  0  0  0
 84 85  1  0  0  0
 85 86  1  0  0  0
 85 88  1  0  0  0
 86 87  2  0  0  0
 86 89  1  0  0  0
 89 90  1  0  0  0
 90 91  1  0  0  0
 90 93  1  0  0  0
 91 92  2  0  0  0
 91100  1  0  0  0
 93 94  1  0  0  0
 94 95  4  0  0  0
 94 96  4  0  0  0
 95 97  4  0  0  0
 96 98  4  0  0  0
 97 99  4  0  0  0
 98 99  4  0  0  0
100101  1  0  0  0
101102  1  0  0  0
101104  1  0  0  0
102103  2  0  0  0
102112  1  0  0  0
104105  1  0  0  0
105106  4  0  0  0
105107  4  0  0  0
106108  4  0  0  0
107109  4  0  0  0
108110  4  0  0  0
109110  4  0  0  0
110111  1  0  0  0
112113  1  0  0  0
113114  1  0  0  0
113116  1  0  0  0
114115  2  0  0  0
114117  1  0  0  0
117118  1  0  0  0
118119  1  0  0  0
118121  1  0  0  0
119120  2  0  0  0
121122  1  0  0  0
121123  1  0  0  0
  1124  1  0  0  0
  1125  1  0  0  0
  1126  1  0  0  0
  2127  1  0  0  0
  5128  1  0  0  0
  5129  1  0  0  0
  6130  1  0  0  0
  6131  1  0  0  0
  7132  1  0  0  0
  7133  1  0  0  0
  8134  1  0  0  0
 10135  1  0  0  0
 11136  1  0  0  0
 11137  1  0  0  0
 12138  1  0  0  0
 13139  1  0  0  0
 16140  1  0  0  0
 16141  1  0  0  0
 17142  1  0  0  0
 17143  1  0  0  0
 18144  1  0  0  0
 18145  1  0  0  0
 19146  1  0  0  0
 19147  1  0  0  0
 20148  1  0  0  0
 20149  1  0  0  0
 20150  1  0  0  0
 21151  1  0  0  0
 22152  1  0  0  0
 25153  1  0  0  0
 25154  1  0  0  0
 26155  1  0  0  0
 26156  1  0  0  0
 27157  1  0  0  0
 27158  1  0  0  0
 28159  1  0  0  0
 30160  1  0  0  0
 30161  1  0  0  0
 31162  1  0  0  0
 32163  1  0  0  0
 33164  1  0  0  0
 36165  1  0  0  0
 37166  1  0  0  0
 37167  1  0  0  0
 38168  1  0  0  0
 38169  1  0  0  0
 38170  1  0  0  0
 39171  1  0  0  0
 39172  1  0  0  0
 39173  1  0  0  0
 40174  1  0  0  0
 41175  1  0  0  0
 44176  1  0  0  0
 44177  1  0  0  0
 47178  1  0  0  0
 48179  1  0  0  0
 50180  1  0  0  0
 51181  1  0  0  0
 54182  1  0  0  0
 55183  1  0  0  0
 55184  1  0  0  0
 56185  1  0  0  0
 56186  1  0  0  0
 56187  1  0  0  0
 57188  1  0  0  0
 57189  1  0  0  0
 57190  1  0  0  0
 58191  1  0  0  0
 59192  1  0  0  0
 59193  1  0  0  0
 63194  1  0  0  0
 66195  1  0  0  0
 66196  1  0  0  0
 67197  1  0  0  0
 67198  1  0  0  0
 68199  1  0  0  0
 68200  1  0  0  0
 69201  1  0  0  0
 70202  1  0  0  0
 70203  1  0  0  0
 73204  1  0  0  0
 74205  1  0  0  0
 77206  1  0  0  0
 77207  1  0  0  0
 78208  1  0  0  0
 78209  1  0  0  0
 79210  1  0  0  0
 79211  1  0  0  0
 80212  1  0  0  0
 82213  1  0  0  0
 82214  1  0  0  0
 83215  1  0  0  0
 84216  1  0  0  0
 85217  1  0  0  0
 88218  1  0  0  0
 88219  1  0  0  0
 88220  1  0  0  0
 89221  1  0  0  0
 90222  1  0  0  0
 93223  1  0  0  0
 93224  1  0  0  0
 95225  1  0  0  0
 96226  1  0  0  0
 97227  1  0  0  0
 98228  1  0  0  0
 99229  1  0  0  0
100230  1  0  0  0
101231  1  0  0  0
104232  1  0  0  0
104233  1  0  0  0
106234  1  0  0  0
107235  1  0  0  0
108236  1  0  0  0
109237  1  0  0  0
111238  1  0  0  0
112239  1  0  0  0
113240  1  0  0  0
116241  1  0  0  0
116242  1  0  0  0
116243  1  0  0  0
117244  1  0  0  0
118245  1  0  0  0
119246  1  0  0  0
121247  1  0  0  0
122248  1  0  0  0
123249  1  0  0  0
123250  1  0  0  0
123251  1  0  0  0
M  END
$$$$
