6d6u_ligand
  -I-interpret- 

 36 38  0  0  0  0  0  0  0  0999 V2000
  124.1460  170.3170  156.9210 C   0  0  0  0  0
  123.8090  170.8810  155.5870 C   0  0  0  0  0
  122.7320  170.1040  153.6450 C   0  0  0  0  0
  121.6000  169.3580  153.0870 C   0  0  0  0  0
  120.6430  168.5670  153.6270 C   0  0  0  0  0
  120.2500  168.0710  154.9570 C   0  0  0  0  0
  119.6730  165.7460  154.3600 C   0  0  0  0  0
  118.6450  166.2350  153.4110 C   0  0  0  0  0
  118.7310  167.3470  152.6010 C   0  0  0  0  0
  120.3900  168.7420  151.4650 C   0  0  0  0  0
  117.7020  167.7020  151.7490 C   0  0  0  0  0
  116.5750  166.9330  151.7020 C   0  0  0  0  0
  116.5070  165.8410  152.5050 C   0  0  0  0  0
  117.4900  165.4630  153.3460 C   0  0  0  0  0
  121.4110  166.1160  155.9810 C   0  0  0  0  0
  115.3860  165.0810  152.4600 F   0  0  0  0  0
  120.4000  166.6320  155.0550 N   0  0  0  0  0
  119.8640  168.1790  152.5770 N   0  0  0  0  0
  121.4330  169.4620  151.7230 N   0  0  0  0  0
  122.9270  169.9150  154.9400 O   0  0  0  0  0
  123.4110  170.8320  152.9830 O   0  0  0  0  0
  119.8080  164.5470  154.4590 O   0  0  0  0  0
  123.2310  170.1773  157.4967 H   0  0  0  0  0
  124.6460  169.3570  156.7924 H   0  0  0  0  0
  124.8071  171.0047  157.4483 H   0  0  0  0  0
  124.7088  171.0462  154.9944 H   0  0  0  0  0
  123.3210  171.8507  155.6851 H   0  0  0  0  0
  119.2018  168.3203  155.1219 H   0  0  0  0  0
  120.8946  168.5363  155.7027 H   0  0  0  0  0
  119.9808  168.6043  150.4641 H   0  0  0  0  0
  117.7897  168.5881  151.1203 H   0  0  0  0  0
  115.7508  167.1895  151.0365 H   0  0  0  0  0
  117.3820  164.5706  153.9625 H   0  0  0  0  0
  120.9282  165.4923  156.7333 H   0  0  0  0  0
  122.1391  165.5226  155.4281 H   0  0  0  0  0
  121.9153  166.9505  156.4682 H   0  0  0  0  0
  2  1  1  0  0  0
 20  2  1  0  0  0
  4  3  1  0  0  0
  3 20  1  0  0  0
  3 21  2  0  0  0
  5  4  4  0  0  0
  4 19  4  0  0  0
  6  5  1  0  0  0
  5 18  4  0  0  0
 17  6  1  0  0  0
  7  8  1  0  0  0
  7 17  1  0  0  0
  7 22  2  0  0  0
  8  9  4  0  0  0
  8 14  4  0  0  0
  9 11  4  0  0  0
  9 18  1  0  0  0
 18 10  4  0  0  0
 10 19  4  0  0  0
 11 12  4  0  0  0
 12 13  4  0  0  0
 13 14  4  0  0  0
 13 16  1  0  0  0
 17 15  1  0  0  0
  1 23  1  0  0  0
  1 24  1  0  0  0
  1 25  1  0  0  0
  2 26  1  0  0  0
  2 27  1  0  0  0
  6 28  1  0  0  0
  6 29  1  0  0  0
 10 30  1  0  0  0
 11 31  1  0  0  0
 12 32  1  0  0  0
 14 33  1  0  0  0
 15 34  1  0  0  0
 15 35  1  0  0  0
 15 36  1  0  0  0
M  END
$$$$
