3qaq_ligand
  -I-interpret- 

 41 44  0  0  0  0  0  0  0  0999 V2000
   20.3970   14.0490   23.0470 N   0  0  0  0  0
   20.2340   12.1550   24.3750 N   0  0  0  0  0
   22.1760   15.7900   21.6010 C   0  0  0  0  0
   23.2830   16.2140   20.8610 C   0  0  0  0  0
   23.7070   14.2600   21.6470 C   0  0  0  0  0
   21.0600   16.6290   21.7100 C   0  0  0  0  0
   21.0540   17.8810   21.0840 C   0  0  0  0  0
   23.2800   17.4610   20.2380 C   0  0  0  0  0
   25.6350   12.8340   21.7330 C   0  0  0  0  0
   27.6630   12.9220   20.4020 C   0  0  0  0  0
   27.6600   11.7850   22.5250 C   0  0  0  0  0
   15.0740   14.6290   24.1580 N   0  0  0  0  0
   16.2130   14.5800   23.9760 C   0  0  0  0  0
   17.6660   14.6930   23.6930 C   0  0  0  0  0
   18.3610   13.4400   24.0530 N   0  0  0  0  0
   19.6590   13.2290   23.8190 C   0  0  0  0  0
   21.5120   11.9010   24.1730 C   0  0  0  0  0
   22.2390   12.7000   23.4180 N   0  0  0  0  0
   21.7020   13.7880   22.8390 C   0  0  0  0  0
   22.4770   14.5750   22.0710 N   0  0  0  0  0
   22.1670   18.2940   20.3490 C   0  0  0  0  0
   24.1990   15.2530   20.9100 N   0  0  0  0  0
   24.3370   13.1060   21.9270 N   0  0  0  0  0
   26.3140   12.1020   22.7020 C   0  0  0  0  0
   26.3160   13.2310   20.5790 C   0  0  0  0  0
   28.3360   12.1950   21.3780 C   0  0  0  0  0
   28.3210   11.0800   23.4800 O   0  0  0  0  0
   20.1922   16.3057   22.2849 H   0  0  0  0  0
   20.1835   18.5313   21.1700 H   0  0  0  0  0
   24.1479   17.7852   19.6638 H   0  0  0  0  0
   28.1865   13.2483   19.5034 H   0  0  0  0  0
   18.0798   15.5103   24.2837 H   0  0  0  0  0
   17.8062   14.8831   22.6289 H   0  0  0  0  0
   17.8229   12.6992   24.5026 H   0  0  0  0  0
   21.9698   11.0253   24.6330 H   0  0  0  0  0
   22.1660   19.2688   19.8613 H   0  0  0  0  0
   23.7685   12.3604   22.3286 H   0  0  0  0  0
   25.7923   11.7756   23.6017 H   0  0  0  0  0
   25.7864   13.7897   19.8073 H   0  0  0  0  0
   29.3891   11.9468   21.2459 H   0  0  0  0  0
   29.2313   10.9472   23.2056 H   0  0  0  0  0
  1 16  4  0  0  0
 19  1  4  0  0  0
 16  2  4  0  0  0
 17  2  4  0  0  0
  3  4  4  0  0  0
  3  6  4  0  0  0
 20  3  4  0  0  0
  4  8  4  0  0  0
 22  4  4  0  0  0
 20  5  4  0  0  0
  5 22  4  0  0  0
  5 23  1  0  0  0
  6  7  4  0  0  0
  7 21  4  0  0  0
  8 21  4  0  0  0
 23  9  1  0  0  0
  9 24  4  0  0  0
  9 25  4  0  0  0
 25 10  4  0  0  0
 10 26  4  0  0  0
 24 11  4  0  0  0
 11 26  4  0  0  0
 11 27  1  0  0  0
 13 12  3  0  0  0
 14 13  1  0  0  0
 15 14  1  0  0  0
 16 15  1  0  0  0
 18 17  4  0  0  0
 19 18  4  0  0  0
 19 20  1  0  0  0
  6 28  1  0  0  0
  7 29  1  0  0  0
  8 30  1  0  0  0
 10 31  1  0  0  0
 14 32  1  0  0  0
 14 33  1  0  0  0
 15 34  1  0  0  0
 17 35  1  0  0  0
 21 36  1  0  0  0
 23 37  1  0  0  0
 24 38  1  0  0  0
 25 39  1  0  0  0
 26 40  1  0  0  0
 27 41  1  0  0  0
M  END
$$$$
