1ttm_ligand
  -I-interpret- 

 36 38  0  0  0  0  0  0  0  0999 V2000
   20.5690   26.4520   19.2310 S   0  0  0  0  0
   21.3150   26.3360   20.6850 O   0  0  0  0  0
   19.0570   27.0450   19.3460 O   0  0  0  0  0
   21.2820   27.4270   18.5820 O   0  0  0  0  0
   20.7390   25.0690   18.3140 N   0  0  0  0  0
   21.7450   28.6190   19.0710 C   0  0  0  0  0
   23.0690   28.7160   19.4890 C   0  0  0  0  0
   23.5700   29.9610   19.9990 C   0  0  0  0  0
   22.6950   31.1240   20.0790 C   0  0  0  0  0
   21.2990   30.9990   19.6420 C   0  0  0  0  0
   20.8240   29.7470   19.1310 C   0  0  0  0  0
   23.2110   32.5060   20.6320 C   0  0  0  0  0
   22.3350   33.5890   20.7000 C   0  0  0  0  0
   20.8620   33.4090   20.2290 C   0  0  0  0  0
   24.7000   32.6450   21.0920 C   0  0  0  0  0
   22.7580   35.0200   21.2470 C   0  0  0  0  0
   20.0950   34.3550   20.2900 O   0  0  0  0  0
   20.2490   31.9870   19.6280 O   0  0  0  0  0
   23.7850   35.0700   22.4410 C   0  0  0  0  0
   23.9120   33.7640   23.2780 C   0  0  0  0  0
   24.8480   32.7150   22.6220 C   0  0  0  0  0
   21.2637   24.2750   18.6810 H   0  0  0  0  0
   20.3183   25.0173   17.3862 H   0  0  0  0  0
   23.7249   27.8475   19.4292 H   0  0  0  0  0
   24.6067   30.0367   20.3270 H   0  0  0  0  0
   19.7931   29.6404   18.7935 H   0  0  0  0  0
   25.0924   33.5730   20.6761 H   0  0  0  0  0
   25.2401   31.7643   20.7446 H   0  0  0  0  0
   21.8418   35.4696   21.6299 H   0  0  0  0  0
   23.2539   35.5172   20.4133 H   0  0  0  0  0
   23.4268   35.8404   23.1239 H   0  0  0  0  0
   24.7647   35.2489   21.9979 H   0  0  0  0  0
   22.9191   33.3212   23.3567 H   0  0  0  0  0
   24.3362   34.0292   24.2464 H   0  0  0  0  0
   25.8754   33.0051   22.8420 H   0  0  0  0  0
   24.5831   31.7375   23.0250 H   0  0  0  0  0
  1  2  2  0  0  0
  1  3  2  0  0  0
  1  4  1  0  0  0
  1  5  1  0  0  0
  4  6  1  0  0  0
  6  7  4  0  0  0
  6 11  4  0  0  0
  7  8  4  0  0  0
  8  9  4  0  0  0
  9 10  4  0  0  0
  9 12  1  0  0  0
 10 11  4  0  0  0
 10 18  1  0  0  0
 12 13  2  0  0  0
 12 15  1  0  0  0
 13 14  1  0  0  0
 13 16  1  0  0  0
 14 17  2  0  0  0
 14 18  1  0  0  0
 15 21  1  0  0  0
 16 19  1  0  0  0
 19 20  1  0  0  0
 20 21  1  0  0  0
  5 22  1  0  0  0
  5 23  1  0  0  0
  7 24  1  0  0  0
  8 25  1  0  0  0
 11 26  1  0  0  0
 15 27  1  0  0  0
 15 28  1  0  0  0
 16 29  1  0  0  0
 16 30  1  0  0  0
 19 31  1  0  0  0
 19 32  1  0  0  0
 20 33  1  0  0  0
 20 34  1  0  0  0
 21 35  1  0  0  0
 21 36  1  0  0  0
M  END
$$$$
