2yk1_ligand
  -I-interpret- 

 27 28  0  0  0  0  0  0  0  0999 V2000
  -20.4710    5.1740   -0.2320 N   0  0  0  0  0
  -20.2640    3.8980    0.0490 C   0  0  0  0  0
  -21.3020    3.0360    0.3630 C   0  0  0  0  0
  -22.6140    3.5480    0.3990 C   0  0  0  0  0
  -22.8070    4.8910    0.1100 C   0  0  0  0  0
  -21.7010    5.6960   -0.2000 C   0  0  0  0  0
  -21.9710    0.8160    1.4390 N   0  3  0  0  0
  -20.9690    1.5820    0.6460 C   0  0  0  0  0
  -20.9020    0.7260   -0.6510 C   0  0  0  0  0
  -20.7680   -0.6920   -0.0430 C   0  0  0  0  0
  -21.4880   -0.5700    1.3220 C   0  0  0  0  0
  -21.8490    1.1890    2.8630 C   0  0  0  0  0
  -19.2445    3.5127    0.0330 H   0  0  0  0  0
  -23.4575    2.9041    0.6480 H   0  0  0  0  0
  -23.8101    5.3173    0.1237 H   0  0  0  0  0
  -21.8456    6.7545   -0.4163 H   0  0  0  0  0
  -22.9298    0.9706    1.1271 H   0  0  0  0  0
  -20.0296    1.7002    1.1860 H   0  0  0  0  0
  -20.0918    1.0009   -1.3264 H   0  0  0  0  0
  -21.7595    0.8493   -1.3124 H   0  0  0  0  0
  -19.7292   -1.0060    0.0594 H   0  0  0  0  0
  -21.2055   -1.4619   -0.6785 H   0  0  0  0  0
  -22.3198   -1.2720    1.3806 H   0  0  0  0  0
  -20.8056   -0.8082    2.1379 H   0  0  0  0  0
  -20.8446    0.9527    3.2144 H   0  0  0  0  0
  -22.0322    2.2577    2.9743 H   0  0  0  0  0
  -22.5804    0.6308    3.4474 H   0  0  0  0  0
  1  2  4  0  0  0
  1  6  4  0  0  0
  2  3  4  0  0  0
  3  4  4  0  0  0
  3  8  1  0  0  0
  4  5  4  0  0  0
  5  6  4  0  0  0
  8  7  1  0  0  0
  7 11  1  0  0  0
  7 12  1  0  0  0
  8  9  1  0  0  0
  9 10  1  0  0  0
 10 11  1  0  0  0
  2 13  1  0  0  0
  4 14  1  0  0  0
  5 15  1  0  0  0
  6 16  1  0  0  0
  7 17  1  0  0  0
  8 18  1  0  0  0
  9 19  1  0  0  0
  9 20  1  0  0  0
 10 21  1  0  0  0
 10 22  1  0  0  0
 11 23  1  0  0  0
 11 24  1  0  0  0
 12 25  1  0  0  0
 12 26  1  0  0  0
 12 27  1  0  0  0
M  END
$$$$
