3dyo_ligand
  -I-interpret- 

 33 33  0  0  0  0  0  0  0  0999 V2000
  -14.8210  -27.7140  -26.1910 C   0  0  0  0  0
  -13.5350  -27.6170  -25.3470 C   0  0  0  0  0
  -13.6890  -26.5310  -24.4510 O   0  0  0  0  0
  -12.3510  -27.3010  -26.2590 C   0  0  0  0  0
  -11.1170  -27.2710  -25.4980 O   0  0  0  0  0
  -12.2400  -28.3790  -27.3770 C   0  0  0  0  0
  -11.8970  -29.6950  -26.8530 O   0  0  0  0  0
  -13.5720  -28.4290  -28.1200 C   0  0  0  0  0
  -14.6340  -28.6850  -27.1940 O   0  0  0  0  0
  -13.7230  -29.5560  -29.1410 C   0  0  0  0  0
  -12.6630  -29.4020  -30.0910 O   0  0  0  0  0
  -16.2210  -28.4060  -25.2540 S   0  0  0  0  0
  -17.7130  -27.9100  -26.2430 C   0  0  0  0  0
  -18.9700  -28.1900  -25.4700 C   0  0  0  0  0
  -17.7440  -28.4970  -27.6630 C   0  0  0  0  0
  -15.0205  -26.7019  -26.5430 H   0  0  0  0  0
  -13.3619  -28.5551  -24.8196 H   0  0  0  0  0
  -14.4289  -26.7041  -23.8643 H   0  0  0  0  0
  -12.5150  -26.3219  -26.7090 H   0  0  0  0  0
  -11.1839  -26.6067  -24.8082 H   0  0  0  0  0
  -11.4303  -28.1010  -28.0517 H   0  0  0  0  0
  -11.0578  -29.6449  -26.3895 H   0  0  0  0  0
  -13.6074  -27.4651  -28.6277 H   0  0  0  0  0
  -14.6940  -29.5038  -29.6335 H   0  0  0  0  0
  -13.6667  -30.5293  -28.6535 H   0  0  0  0  0
  -12.7242  -30.0953  -30.7522 H   0  0  0  0  0
  -17.6437  -26.8338  -26.4016 H   0  0  0  0  0
  -19.0287  -29.2555  -25.2478 H   0  0  0  0  0
  -18.9561  -27.6236  -24.5388 H   0  0  0  0  0
  -19.8342  -27.8934  -26.0644 H   0  0  0  0  0
  -16.8655  -28.1601  -28.2133 H   0  0  0  0  0
  -17.7426  -29.5855  -27.6049 H   0  0  0  0  0
  -18.6458  -28.1603  -28.1743 H   0  0  0  0  0
  1  2  1  0  0  0
  1  9  1  0  0  0
  1 12  1  0  0  0
  2  3  1  0  0  0
  2  4  1  0  0  0
  4  5  1  0  0  0
  4  6  1  0  0  0
  6  7  1  0  0  0
  6  8  1  0  0  0
  8  9  1  0  0  0
  8 10  1  0  0  0
 10 11  1  0  0  0
 12 13  1  0  0  0
 13 14  1  0  0  0
 13 15  1  0  0  0
  1 16  1  0  0  0
  2 17  1  0  0  0
  3 18  1  0  0  0
  4 19  1  0  0  0
  5 20  1  0  0  0
  6 21  1  0  0  0
  7 22  1  0  0  0
  8 23  1  0  0  0
 10 24  1  0  0  0
 10 25  1  0  0  0
 11 26  1  0  0  0
 13 27  1  0  0  0
 14 28  1  0  0  0
 14 29  1  0  0  0
 14 30  1  0  0  0
 15 31  1  0  0  0
 15 32  1  0  0  0
 15 33  1  0  0  0
M  END
$$$$
