### 
### Created by X-TOOL on Mon Aug  2 16:11:53 2021
### 

@<TRIPOS>MOLECULE
6abk_ligand
   42    41     1     0     0
SMALL
GAST_HUCK


@<TRIPOS>ATOM
      1 CE        125.3900   32.4980   14.3200 C.3       1 9VF         0.0328
      2 CB        122.9950   33.2640   17.4060 C.3       1 9VF         0.0025
      3 C1        128.0120   34.1750   11.8530 C.3       1 9VF        -0.0681
      4 C3        130.6060   33.4840   10.7120 C.3       1 9VF        -0.0681
      5 C4        129.1890   31.1110   11.4480 C.3       1 9VF        -0.0681
      6 C5        129.9630   32.7760   13.8120 C.3       1 9VF         0.1048
      7 C7        127.6840   31.8570   14.3420 C.2       1 9VF         0.3195
      8 CG        125.0450   32.7510   15.7840 C.3       1 9VF        -0.0325
      9 CD        123.5370   32.6460   16.0960 C.3       1 9VF        -0.0445
     10 CA        123.2210   34.7780   17.6140 C.3       1 9VF         0.0283
     11 C         122.0700   35.8460   17.5390 C.2       1 9VF         0.0844
     12 NZ        126.7540   32.9240   14.1300 N.am      1 9VF        -0.2625
     13 N         123.9170   35.0380   18.8360 N.4       1 9VF         0.2327
     14 O6        129.0890   31.9400   14.6100 O.3       1 9VF        -0.2613
     15 O8        127.1720   30.7940   14.3100 O.2       1 9VF        -0.3775
     16 OXT       122.3490   37.0200   18.1800 O.co2     1 9VF        -0.5643
     17 O         120.8530   35.7640   16.8770 O.co2     1 9VF        -0.5643
     18 SI        129.3840   32.8840   12.0190 Si        1 9VF         0.0000
     19 H1        124.7191   33.0766   13.6681 H         1 9VF         0.0519
     20 H2        125.2928   31.4271   14.0883 H         1 9VF         0.0519
     21 H3        123.4757   32.7386   18.2444 H         1 9VF         0.0339
     22 H4        121.9103   33.0837   17.4339 H         1 9VF         0.0339
     23 H5        127.6836   34.2283   10.8045 H         1 9VF         0.0227
     24 H6        128.3930   35.1576   12.1682 H         1 9VF         0.0227
     25 H7        127.1614   33.8901   12.4896 H         1 9VF         0.0227
     26 H8        131.4787   32.8147   10.6913 H         1 9VF         0.0227
     27 H9        130.9329   34.5053   10.9570 H         1 9VF         0.0227
     28 H10       130.1187   33.4817    9.7258 H         1 9VF         0.0227
     29 H11       128.4880   30.5864   12.1139 H         1 9VF         0.0227
     30 H12       130.1666   30.6075   11.4748 H         1 9VF         0.0227
     31 H13       128.7978   31.0977   10.4200 H         1 9VF         0.0227
     32 H14       130.9780   32.3526   13.8335 H         1 9VF         0.0638
     33 H15       129.9786   33.7880   14.2427 H         1 9VF         0.0638
     34 H16       125.3846   33.7628   16.0505 H         1 9VF         0.0285
     35 H17       125.5786   32.0113   16.3989 H         1 9VF         0.0285
     36 H18       123.0022   33.1309   15.2660 H         1 9VF         0.0269
     37 H19       123.2867   31.5751   16.1177 H         1 9VF         0.0269
     38 H20       123.9016   35.0500   16.7938 H         1 9VF         0.1024
     39 H21       127.0191   33.8551   13.8796 H         1 9VF         0.1867
     40 H22       124.0488   36.0316   18.9427 H         1 9VF         0.2010
     41 H23       124.8148   34.5803   18.8153 H         1 9VF         0.2010
     42 H24       123.3779   34.6854   19.6113 H         1 9VF         0.2010
@<TRIPOS>BOND
     1    8    1 1  
     2    1   12 1  
     3    9    2 1  
     4    2   10 1  
     5   18    3 1  
     6   18    4 1  
     7   18    5 1  
     8   14    6 1  
     9    6   18 1  
    10   12    7 am 
    11    7   14 1  
    12    7   15 2  
    13    8    9 1  
    14   10   11 1  
    15   10   13 1  
    16   11   16 ar 
    17   11   17 ar 
    18    1   19 1  
    19    1   20 1  
    20    2   21 1  
    21    2   22 1  
    22    3   23 1  
    23    3   24 1  
    24    3   25 1  
    25    4   26 1  
    26    4   27 1  
    27    4   28 1  
    28    5   29 1  
    29    5   30 1  
    30    5   31 1  
    31    6   32 1  
    32    6   33 1  
    33    8   34 1  
    34    8   35 1  
    35    9   36 1  
    36    9   37 1  
    37   10   38 1  
    38   12   39 1  
    39   13   40 1  
    40   13   41 1  
    41   13   42 1  
@<TRIPOS>SUBSTRUCTURE
     1 9VF         1

