6abk_ligand
  -I-interpret- 

 43 42  0  0  0  0  0  0  0  0999 V2000
  125.3900   32.4980   14.3200 C   0  0  0  0  0
  122.9950   33.2640   17.4060 C   0  0  0  0  0
  128.0120   34.1750   11.8530 C   0  0  0  0  0
  130.6060   33.4840   10.7120 C   0  0  0  0  0
  129.1890   31.1110   11.4480 C   0  0  0  0  0
  129.9630   32.7760   13.8120 C   0  0  0  0  0
  127.6840   31.8570   14.3420 C   0  0  0  0  0
  125.0450   32.7510   15.7840 C   0  0  0  0  0
  123.5370   32.6460   16.0960 C   0  0  0  0  0
  123.2210   34.7780   17.6140 C   0  0  0  0  0
  122.0700   35.8460   17.5390 C   0  0  0  0  0
  126.7540   32.9240   14.1300 N   0  0  0  0  0
  123.9170   35.0380   18.8360 N   0  3  0  0  0
  129.0890   31.9400   14.6100 O   0  0  0  0  0
  127.1720   30.7940   14.3100 O   0  0  0  0  0
  122.3490   37.0200   18.1800 O   0  0  0  0  0
  120.8530   35.7640   16.8770 O   0  0  0  0  0
  129.3840   32.8840   12.0190 Si  0  0  0  0  0
  124.7178   33.0509   13.6638 H   0  0  0  0  0
  125.2774   31.4422   14.0736 H   0  0  0  0  0
  123.5343   32.7691   18.2137 H   0  0  0  0  0
  121.9142   33.1262   17.3749 H   0  0  0  0  0
  127.1698   33.8915   12.4843 H   0  0  0  0  0
  128.3907   35.1481   12.1657 H   0  0  0  0  0
  127.6875   34.2268   10.8137 H   0  0  0  0  0
  130.9349   34.4932   10.9600 H   0  0  0  0  0
  131.4668   32.8157   10.6872 H   0  0  0  0  0
  130.1196   33.4884    9.7365 H   0  0  0  0  0
  130.1473   30.5977   11.5271 H   0  0  0  0  0
  128.4529   30.6076   12.0748 H   0  0  0  0  0
  128.8537   31.0994   10.4109 H   0  0  0  0  0
  130.9611   32.3380   13.8240 H   0  0  0  0  0
  129.9568   33.7805   14.2352 H   0  0  0  0  0
  125.3555   33.7689   16.0198 H   0  0  0  0  0
  125.5528   31.9881   16.3741 H   0  0  0  0  0
  123.0467   33.2050   15.2990 H   0  0  0  0  0
  123.3444   31.5773   16.1900 H   0  0  0  0  0
  123.7637   34.9426   16.6831 H   0  0  0  0  0
  127.0244   33.8738   13.8746 H   0  0  0  0  0
  124.6811   34.3703   18.9394 H   0  0  0  0  0
  124.2927   35.9861   18.8168 H   0  0  0  0  0
  123.2719   34.9424   19.6203 H   0  0  0  0  0
  120.7701   34.8994   16.4681 H   0  0  0  0  0
  8  1  1  0  0  0
  1 12  1  0  0  0
  9  2  1  0  0  0
  2 10  1  0  0  0
 18  3  1  0  0  0
 18  4  1  0  0  0
 18  5  1  0  0  0
 14  6  1  0  0  0
  6 18  1  0  0  0
 12  7  1  0  0  0
  7 14  1  0  0  0
  7 15  2  0  0  0
  8  9  1  0  0  0
 10 11  1  0  0  0
 10 13  1  0  0  0
 11 16  2  0  0  0
 11 17  1  0  0  0
  1 19  1  0  0  0
  1 20  1  0  0  0
  2 21  1  0  0  0
  2 22  1  0  0  0
  3 23  1  0  0  0
  3 24  1  0  0  0
  3 25  1  0  0  0
  4 26  1  0  0  0
  4 27  1  0  0  0
  4 28  1  0  0  0
  5 29  1  0  0  0
  5 30  1  0  0  0
  5 31  1  0  0  0
  6 32  1  0  0  0
  6 33  1  0  0  0
  8 34  1  0  0  0
  8 35  1  0  0  0
  9 36  1  0  0  0
  9 37  1  0  0  0
 10 38  1  0  0  0
 12 39  1  0  0  0
 13 40  1  0  0  0
 13 41  1  0  0  0
 13 42  1  0  0  0
 17 43  1  0  0  0
M  END
$$$$
