4r95_ligand
  -I-interpret- 

 73 77  0  0  0  0  0  0  0  0999 V2000
   21.3380   11.7380   23.0900 C   0  0  0  0  0
   20.9030   10.6280   22.1760 C   0  0  0  0  0
   21.4700    9.4480   22.8160 N   0  0  0  0  0
   22.1390    9.8000   23.9510 C   0  0  0  0  0
   22.1050   11.1720   24.0620 N   0  0  0  0  0
   21.0220   12.9110   22.9660 O   0  0  0  0  0
   19.3770   10.5070   22.1260 C   0  0  0  0  0
   22.9690   10.9790   20.6360 C   0  0  0  0  0
   18.6690   10.5140   23.4920 C   0  0  0  0  0
   17.2140   10.0460   23.4640 C   0  0  0  0  0
   23.4430   11.9660   19.5680 C   0  0  0  0  0
   24.9760   11.9940   19.4670 C   0  0  0  0  0
   25.5390   10.5770   19.3110 C   0  0  0  0  0
   25.1080    9.7230   20.4790 C   0  0  0  0  0
   23.5890    9.6090   20.4540 C   0  0  0  0  0
   16.7230    9.8380   24.8950 C   0  0  0  0  0
   15.2640    9.3730   24.9340 C   0  0  0  0  0
   14.3440   10.3500   24.2250 C   0  0  0  0  0
   14.8200   10.5830   22.7960 C   0  0  0  0  0
   16.2880   11.0260   22.7520 C   0  0  0  0  0
   22.7120    9.0230   24.8110 N   0  0  0  0  0
   25.3630   12.6800   18.2420 N   0  0  0  0  0
   21.4520   10.8610   20.7590 C   0  0  0  0  0
   22.5260   11.9090   25.2370 C   0  0  0  0  0
   25.8070   14.0180   18.3560 C   0  0  0  0  0
   25.6750   14.7340   19.5300 C   0  0  0  0  0
   26.1120   16.0390   19.5820 C   0  0  0  0  0
   26.3590   14.5650   17.2630 N   0  0  0  0  0
   26.7870   15.8340   17.3090 C   0  0  0  0  0
   26.6710   16.6030   18.4580 C   0  0  0  0  0
   27.1000   17.9150   18.5010 C   0  0  0  0  0
   27.6620   18.4880   17.3790 C   0  0  0  0  0
   27.7960   17.7380   16.2260 C   0  0  0  0  0
   27.3620   16.4240   16.1990 C   0  0  0  0  0
   21.3794    8.4946   22.4650 H   0  0  0  0  0
   19.1562    9.5438   21.6661 H   0  0  0  0  0
   19.0134   11.3791   21.5826 H   0  0  0  0  0
   23.3185   11.4074   21.5754 H   0  0  0  0  0
   18.6619   11.5473   23.8388 H   0  0  0  0  0
   19.2120    9.8193   24.1328 H   0  0  0  0  0
   17.1876    9.1120   22.9027 H   0  0  0  0  0
   23.0969   12.9628   19.8414 H   0  0  0  0  0
   23.0394   11.6527   18.6052 H   0  0  0  0  0
   25.3507   12.4788   20.3685 H   0  0  0  0  0
   26.6276   10.6234   19.2812 H   0  0  0  0  0
   25.1620   10.1395   18.3866 H   0  0  0  0  0
   25.4333   10.1778   21.4146 H   0  0  0  0  0
   25.5583    8.7332   20.4045 H   0  0  0  0  0
   23.2742    9.1952   19.4960 H   0  0  0  0  0
   23.2631    8.9554   21.2631 H   0  0  0  0  0
   16.7937   10.7889   25.4231 H   0  0  0  0  0
   17.3400    9.0695   25.3606 H   0  0  0  0  0
   14.9535    9.3038   25.9765 H   0  0  0  0  0
   15.1970    8.4097   24.4284 H   0  0  0  0  0
   14.3510   11.2988   24.7616 H   0  0  0  0  0
   13.3359    9.9362   24.2012 H   0  0  0  0  0
   14.2100   11.3714   22.3551 H   0  0  0  0  0
   14.7273    9.6464   22.2462 H   0  0  0  0  0
   16.5927   11.0784   21.7068 H   0  0  0  0  0
   16.3644   11.9889   23.2570 H   0  0  0  0  0
   23.1737    9.4204   25.6291 H   0  0  0  0  0
   25.3156   12.2133   17.3363 H   0  0  0  0  0
   21.0442   11.8159   20.4274 H   0  0  0  0  0
   21.1659    9.9871   20.1738 H   0  0  0  0  0
   21.9214   11.6044   26.0913 H   0  0  0  0  0
   23.5760   11.6981   25.4397 H   0  0  0  0  0
   22.3960   12.9767   25.0605 H   0  0  0  0  0
   25.2281   14.2694   20.4090 H   0  0  0  0  0
   26.0164   16.6173   20.5010 H   0  0  0  0  0
   26.9950   18.4954   19.4177 H   0  0  0  0  0
   27.9979   19.5247   17.4017 H   0  0  0  0  0
   28.2440   18.1818   15.3369 H   0  0  0  0  0
   27.4759   15.8427   15.2840 H   0  0  0  0  0
  2  1  1  0  0  0
  1  5  1  0  0  0
  1  6  2  0  0  0
  2  3  1  0  0  0
  2  7  1  0  0  0
 23  2  1  0  0  0
  3  4  1  0  0  0
  4  5  4  0  0  0
  4 21  2  0  0  0
  5 24  1  0  0  0
  7  9  1  0  0  0
  8 11  1  0  0  0
  8 15  1  0  0  0
  8 23  1  0  0  0
  9 10  1  0  0  0
 10 16  1  0  0  0
 10 20  1  0  0  0
 11 12  1  0  0  0
 12 13  1  0  0  0
 12 22  1  0  0  0
 13 14  1  0  0  0
 14 15  1  0  0  0
 16 17  1  0  0  0
 17 18  1  0  0  0
 18 19  1  0  0  0
 19 20  1  0  0  0
 22 25  1  0  0  0
 25 26  4  0  0  0
 25 28  4  0  0  0
 26 27  4  0  0  0
 27 30  4  0  0  0
 28 29  4  0  0  0
 29 30  4  0  0  0
 29 34  4  0  0  0
 30 31  4  0  0  0
 31 32  4  0  0  0
 32 33  4  0  0  0
 33 34  4  0  0  0
  3 35  1  0  0  0
  7 36  1  0  0  0
  7 37  1  0  0  0
  8 38  1  0  0  0
  9 39  1  0  0  0
  9 40  1  0  0  0
 10 41  1  0  0  0
 11 42  1  0  0  0
 11 43  1  0  0  0
 12 44  1  0  0  0
 13 45  1  0  0  0
 13 46  1  0  0  0
 14 47  1  0  0  0
 14 48  1  0  0  0
 15 49  1  0  0  0
 15 50  1  0  0  0
 16 51  1  0  0  0
 16 52  1  0  0  0
 17 53  1  0  0  0
 17 54  1  0  0  0
 18 55  1  0  0  0
 18 56  1  0  0  0
 19 57  1  0  0  0
 19 58  1  0  0  0
 20 59  1  0  0  0
 20 60  1  0  0  0
 21 61  1  0  0  0
 22 62  1  0  0  0
 23 63  1  0  0  0
 23 64  1  0  0  0
 24 65  1  0  0  0
 24 66  1  0  0  0
 24 67  1  0  0  0
 26 68  1  0  0  0
 27 69  1  0  0  0
 31 70  1  0  0  0
 32 71  1  0  0  0
 33 72  1  0  0  0
 34 73  1  0  0  0
M  END
$$$$
