2a14_ligand
  -I-interpret- 

 47 49  0  0  0  0  0  0  0  0999 V2000
   18.6650   40.4080    7.5850 N   0  3  0  0  0
   19.8600   39.6850    8.1230 C   0  0  0  0  0
   21.0470   40.6200    8.4200 C   0  0  0  0  0
   20.8660   41.6720    9.5290 C   0  0  0  0  0
   22.4720   42.3730   10.0020 S   0  0  0  0  0
   19.4580   38.7810    9.3020 C   0  0  0  0  0
   18.2580   38.5000    9.4550 O   0  0  0  0  0
   20.3010   38.3090   10.0770 O   0  0  0  0  0
   22.2510   44.1150    9.5370 C   0  0  0  0  0
   22.3030   44.3790    8.0350 C   0  0  0  0  0
   22.0280   45.7600    7.8240 O   0  0  0  0  0
   23.6620   44.1040    7.3730 C   0  0  0  0  0
   23.4900   43.1180    6.3710 O   0  0  0  0  0
   24.0720   45.4500    6.7810 C   0  0  0  0  0
   24.7760   45.3980    5.5510 O   0  0  0  0  0
   22.6970   46.0970    6.6240 C   0  0  0  0  0
   22.7210   47.5470    6.4220 N   0  0  0  0  0
   23.5110   48.4940    7.0180 C   0  0  0  0  0
   23.1790   49.7030    6.5120 N   0  0  0  0  0
   22.1770   49.5520    5.6150 C   0  0  0  0  0
   21.4630   50.4500    4.8180 C   0  0  0  0  0
   21.7140   51.7710    4.8460 N   0  0  0  0  0
   20.4740   49.9560    4.0020 N   0  0  0  0  0
   20.1930   48.6000    3.9460 C   0  0  0  0  0
   20.9050   47.7190    4.7350 N   0  0  0  0  0
   21.8770   48.1910    5.5540 C   0  0  0  0  0
   18.9503   41.0011    6.8057 H   0  0  0  0  0
   17.9752   39.7293    7.2625 H   0  0  0  0  0
   18.2580   40.9846    8.3214 H   0  0  0  0  0
   20.2374   39.0278    7.3396 H   0  0  0  0  0
   21.2096   41.1865    7.5031 H   0  0  0  0  0
   21.8527   39.9703    8.7618 H   0  0  0  0  0
   20.4153   41.1964   10.4001 H   0  0  0  0  0
   20.2241   42.4716    9.1592 H   0  0  0  0  0
   17.7385   38.9413    8.7791 H   0  0  0  0  0
   23.0718   44.6727    9.9880 H   0  0  0  0  0
   21.2605   44.4140    9.8799 H   0  0  0  0  0
   21.5786   43.6980    7.5883 H   0  0  0  0  0
   24.4221   43.7282    8.0579 H   0  0  0  0  0
   24.3346   42.9392    5.9512 H   0  0  0  0  0
   24.7919   45.9800    7.4046 H   0  0  0  0  0
   24.9861   46.2903    5.2659 H   0  0  0  0  0
   22.2051   45.7326    5.7222 H   0  0  0  0  0
   24.2761   48.3053    7.7711 H   0  0  0  0  0
   22.4408   52.1391    5.4597 H   0  0  0  0  0
   21.1776   52.4047    4.2535 H   0  0  0  0  0
   19.4123   48.2304    3.2811 H   0  0  0  0  0
  1  2  1  0  0  0
  2  3  1  0  0  0
  2  6  1  0  0  0
  3  4  1  0  0  0
  4  5  1  0  0  0
  5  9  1  0  0  0
  6  7  1  0  0  0
  6  8  2  0  0  0
  9 10  1  0  0  0
 10 11  1  0  0  0
 10 12  1  0  0  0
 11 16  1  0  0  0
 12 13  1  0  0  0
 12 14  1  0  0  0
 14 15  1  0  0  0
 14 16  1  0  0  0
 16 17  1  0  0  0
 17 18  4  0  0  0
 17 26  4  0  0  0
 18 19  4  0  0  0
 19 20  4  0  0  0
 20 21  4  0  0  0
 20 26  4  0  0  0
 21 22  1  0  0  0
 21 23  4  0  0  0
 23 24  4  0  0  0
 24 25  4  0  0  0
 25 26  4  0  0  0
  1 27  1  0  0  0
  1 28  1  0  0  0
  1 29  1  0  0  0
  2 30  1  0  0  0
  3 31  1  0  0  0
  3 32  1  0  0  0
  4 33  1  0  0  0
  4 34  1  0  0  0
  7 35  1  0  0  0
  9 36  1  0  0  0
  9 37  1  0  0  0
 10 38  1  0  0  0
 12 39  1  0  0  0
 13 40  1  0  0  0
 14 41  1  0  0  0
 15 42  1  0  0  0
 16 43  1  0  0  0
 18 44  1  0  0  0
 22 45  1  0  0  0
 22 46  1  0  0  0
 24 47  1  0  0  0
M  END
$$$$
