3ibn_ligand
  -I-interpret- 

 44 43  0  0  0  0  0  0  0  0999 V2000
   -4.9460    1.8050   14.4600 C   0  0  0  0  0
   -5.3180   -0.5460   16.0850 N   0  0  0  0  0
   -7.1370    1.0470   16.4420 O   0  0  0  0  0
   -5.7620    0.8380   16.7080 S   0  0  0  0  0
   -4.3150    3.0270   13.9130 C   0  0  0  0  0
   -2.0740   12.5430   10.5550 N   0  0  0  0  0
   -5.2890    0.8990   18.0460 O   0  0  0  0  0
   -2.4700   13.1470   11.9690 S   0  0  0  0  0
   -5.1070    4.2790   14.1520 C   0  0  0  0  0
   -4.9990    1.9510   15.9130 O   0  0  0  0  0
   -4.4740    5.5070   13.5580 C   0  0  0  0  0
   -2.4550   11.9550   12.9930 O   0  0  0  0  0
   -3.1600    5.8790   14.1790 C   0  0  0  0  0
   -1.4450   14.0450   12.3870 O   0  0  0  0  0
   -2.5190    7.0420   13.5440 C   0  0  0  0  0
   -3.8210   13.5980   11.9070 O   0  0  0  0  0
   -1.2880    7.5110   14.2610 C   0  0  0  0  0
   -0.7140    8.7900   13.7140 C   0  0  0  0  0
   -1.6160    9.9720   13.8960 C   0  0  0  0  0
   -1.2730   11.1070   13.0280 C   0  0  0  0  0
   -4.3680    0.9223   14.1864 H   0  0  0  0  0
   -5.9491    1.6789   14.0527 H   0  0  0  0  0
   -5.9967   -1.1226   15.5877 H   0  0  0  0  0
   -4.3529   -0.8621   16.1805 H   0  0  0  0  0
   -4.2345    2.8952   12.8340 H   0  0  0  0  0
   -3.3555    3.1493   14.4156 H   0  0  0  0  0
   -1.2012   12.8226   10.1073 H   0  0  0  0  0
   -2.6924   11.8754   10.0943 H   0  0  0  0  0
   -5.1682    4.4290   15.2299 H   0  0  0  0  0
   -6.0799    4.1484   13.6782 H   0  0  0  0  0
   -5.1585    6.3378   13.7289 H   0  0  0  0  0
   -4.2854    5.2959   12.5054 H   0  0  0  0  0
   -2.4886    5.0288   14.0592 H   0  0  0  0  0
   -3.3514    6.1383   15.2203 H   0  0  0  0  0
   -3.2383    7.8608   13.5574 H   0  0  0  0  0
   -2.2197    6.7435   12.5393 H   0  0  0  0  0
   -0.5290    6.7379   14.1418 H   0  0  0  0  0
   -1.5682    7.6986   15.2975 H   0  0  0  0  0
   -0.5651    8.6519   12.6431 H   0  0  0  0  0
    0.2092    8.9944   14.2563 H   0  0  0  0  0
   -1.5155   10.3060   14.9287 H   0  0  0  0  0
   -2.6272    9.6562   13.6396 H   0  0  0  0  0
   -0.4084   11.6497   13.4101 H   0  0  0  0  0
   -0.9978   10.7710   12.0283 H   0  0  0  0  0
  5  1  1  0  0  0
  1 10  1  0  0  0
  4  2  1  0  0  0
  4  3  2  0  0  0
  4  7  2  0  0  0
 10  4  1  0  0  0
  9  5  1  0  0  0
  8  6  1  0  0  0
 12  8  1  0  0  0
  8 14  2  0  0  0
  8 16  2  0  0  0
 11  9  1  0  0  0
 13 11  1  0  0  0
 20 12  1  0  0  0
 15 13  1  0  0  0
 17 15  1  0  0  0
 18 17  1  0  0  0
 19 18  1  0  0  0
 19 20  1  0  0  0
  1 21  1  0  0  0
  1 22  1  0  0  0
  2 23  1  0  0  0
  2 24  1  0  0  0
  5 25  1  0  0  0
  5 26  1  0  0  0
  6 27  1  0  0  0
  6 28  1  0  0  0
  9 29  1  0  0  0
  9 30  1  0  0  0
 11 31  1  0  0  0
 11 32  1  0  0  0
 13 33  1  0  0  0
 13 34  1  0  0  0
 15 35  1  0  0  0
 15 36  1  0  0  0
 17 37  1  0  0  0
 17 38  1  0  0  0
 18 39  1  0  0  0
 18 40  1  0  0  0
 19 41  1  0  0  0
 19 42  1  0  0  0
 20 43  1  0  0  0
 20 44  1  0  0  0
M  END
$$$$
