3n35_ligand
  -I-interpret- 

 30 30  0  0  0  0  0  0  0  0999 V2000
  -38.1420  -30.9680   -4.4990 O   0  0  0  0  0
  -39.5710  -31.0370   -4.4820 C   0  0  0  0  0
  -40.0240  -31.3780   -5.8100 O   0  0  0  0  0
  -40.1010  -29.6570   -4.0580 C   0  0  0  0  0
  -41.5460  -29.6860   -4.2150 N   0  0  0  0  0
  -39.5820  -28.5810   -5.0160 C   0  0  0  0  0
  -39.9420  -27.2920   -4.5340 O   0  0  0  0  0
  -38.0600  -28.6610   -5.1530 C   0  0  0  0  0
  -37.4800  -28.3160   -3.8900 O   0  0  0  0  0
  -37.6370  -30.0810   -5.5030 C   0  0  0  0  0
  -36.1230  -30.2210   -5.5580 C   0  0  0  0  0
  -35.8420  -31.0310   -6.6930 O   0  0  0  0  0
  -42.3660  -29.1980   -3.2660 C   0  0  0  0  0
  -41.9580  -28.7050   -2.2260 O   0  0  0  0  0
  -43.8370  -29.2930   -3.5500 C   0  0  0  0  0
  -39.9332  -31.7919   -3.7841 H   0  0  0  0  0
  -39.6812  -32.2415   -6.0519 H   0  0  0  0  0
  -39.7870  -29.4399   -3.0370 H   0  0  0  0  0
  -41.9474  -30.0852   -5.0635 H   0  0  0  0  0
  -40.0321  -28.7501   -5.9942 H   0  0  0  0  0
  -40.8966  -27.2392   -4.4471 H   0  0  0  0  0
  -37.7294  -27.9827   -5.9396 H   0  0  0  0  0
  -37.7376  -27.4217   -3.6544 H   0  0  0  0  0
  -38.0378  -30.3242   -6.4870 H   0  0  0  0  0
  -35.7363  -30.6745   -4.6454 H   0  0  0  0  0
  -35.6404  -29.2471   -5.6403 H   0  0  0  0  0
  -34.8928  -31.1502   -6.7726 H   0  0  0  0  0
  -44.3168  -29.8941   -2.7776 H   0  0  0  0  0
  -44.2701  -28.2928   -3.5551 H   0  0  0  0  0
  -43.9885  -29.7608   -4.5228 H   0  0  0  0  0
  1  2  1  0  0  0
  1 10  1  0  0  0
  2  3  1  0  0  0
  2  4  1  0  0  0
  4  5  1  0  0  0
  4  6  1  0  0  0
  5 13  1  0  0  0
  6  7  1  0  0  0
  6  8  1  0  0  0
  8  9  1  0  0  0
  8 10  1  0  0  0
 10 11  1  0  0  0
 11 12  1  0  0  0
 13 14  2  0  0  0
 13 15  1  0  0  0
  2 16  1  0  0  0
  3 17  1  0  0  0
  4 18  1  0  0  0
  5 19  1  0  0  0
  6 20  1  0  0  0
  7 21  1  0  0  0
  8 22  1  0  0  0
  9 23  1  0  0  0
 10 24  1  0  0  0
 11 25  1  0  0  0
 11 26  1  0  0  0
 12 27  1  0  0  0
 15 28  1  0  0  0
 15 29  1  0  0  0
 15 30  1  0  0  0
M  END
$$$$
