3o8h_ligand
  -I-interpret- 

 58 62  0  0  0  0  0  0  0  0999 V2000
   28.0540   82.1680    7.4520 C   0  0  0  0  0
   27.2350   82.9970    8.2180 C   0  0  0  0  0
   25.9040   82.6300    8.5020 C   0  0  0  0  0
   24.6180   83.8490    9.6750 I   0  0  0  0  0
   25.3820   81.4300    8.0250 C   0  0  0  0  0
   26.2030   80.6000    7.2680 C   0  0  0  0  0
   27.5150   80.9710    6.9840 C   0  0  0  0  0
   28.4690   79.9030    6.0280 S   0  0  0  0  0
   27.6110   78.9090    5.3390 O   0  0  0  0  0
   29.1270   80.7600    4.9980 O   0  0  0  0  0
   29.5920   79.1080    6.9720 N   0  0  0  0  0
   28.9240   78.2280    7.9430 C   0  0  0  0  0
   29.9390   77.6250    8.9170 C   0  0  0  0  0
   29.8280   76.4810    9.5560 C   0  0  0  0  0
   31.0940   78.1370    9.3240 N   0  0  0  0  0
   31.6430   77.3740   10.1170 N   0  0  0  0  0
   30.9270   76.3990   10.2960 N   0  0  0  0  0
   31.2630   75.2630   11.1590 C   0  0  0  0  0
   32.0750   74.2450   10.3470 C   0  0  0  0  0
   32.3400   74.4860    9.1550 O   0  0  0  0  0
   32.4690   73.0740   10.9200 N   0  0  0  0  0
   33.2680   72.1130   10.1070 C   0  0  0  0  0
   33.2430   70.6690   10.6330 C   0  0  0  0  0
   32.1400   72.7990   12.3710 C   0  0  0  0  0
   32.2430   71.3060   12.7750 C   0  0  0  0  0
   33.4370   70.6120   12.1370 C   0  0  0  0  0
   33.4820   69.1730   12.6070 C   0  0  0  0  0
   33.4450   68.0780   11.8410 N   0  0  0  0  0
   33.5820   68.8120   13.9170 O   0  0  0  0  0
   33.5880   67.3910   13.9060 N   0  0  0  0  0
   33.5000   66.9830   12.6320 C   0  0  0  0  0
   33.4440   65.6450   12.2000 C   0  0  0  0  0
   33.6620   65.1600   10.9830 C   0  0  0  0  0
   33.5020   63.8210   10.8530 C   0  0  0  0  0
   33.1420   63.1210   11.9420 C   0  0  0  0  0
   33.0030   64.2680   13.1630 S   0  0  0  0  0
   29.0832   82.4474    7.2264 H   0  0  0  0  0
   27.6282   83.9386    8.6011 H   0  0  0  0  0
   24.3516   81.1470    8.2403 H   0  0  0  0  0
   25.8163   79.6519    6.8943 H   0  0  0  0  0
   30.6026   79.2172    6.8873 H   0  0  0  0  0
   28.4308   77.4193    7.4036 H   0  0  0  0  0
   28.1993   78.8140    8.5083 H   0  0  0  0  0
   29.0135   75.7595    9.4921 H   0  0  0  0  0
   30.3490   74.7964   11.5264 H   0  0  0  0  0
   31.8501   75.6079   12.0102 H   0  0  0  0  0
   34.3045   72.4489   10.1391 H   0  0  0  0  0
   32.8334   72.0986    9.1075 H   0  0  0  0  0
   34.0578   70.1192   10.1619 H   0  0  0  0  0
   32.2711   70.2357   10.3968 H   0  0  0  0  0
   31.1056   73.1040   12.5292 H   0  0  0  0  0
   32.8650   73.3457   12.9740 H   0  0  0  0  0
   31.3388   70.8018   12.4340 H   0  0  0  0  0
   32.3642   71.2576   13.8572 H   0  0  0  0  0
   34.3735   71.0960   12.4142 H   0  0  0  0  0
   33.9500   65.7959   10.1459 H   0  0  0  0  0
   33.6604   63.3267    9.8945 H   0  0  0  0  0
   32.9766   62.0463   12.0171 H   0  0  0  0  0
  1  2  4  0  0  0
  1  7  4  0  0  0
  2  3  4  0  0  0
  3  4  1  0  0  0
  3  5  4  0  0  0
  5  6  4  0  0  0
  6  7  4  0  0  0
  7  8  1  0  0  0
  8  9  2  0  0  0
  8 10  2  0  0  0
  8 11  1  0  0  0
 11 12  1  0  0  0
 12 13  1  0  0  0
 13 14  4  0  0  0
 13 15  4  0  0  0
 14 17  4  0  0  0
 15 16  4  0  0  0
 16 17  4  0  0  0
 17 18  1  0  0  0
 18 19  1  0  0  0
 19 20  2  0  0  0
 19 21  1  0  0  0
 21 22  1  0  0  0
 21 24  1  0  0  0
 22 23  1  0  0  0
 23 26  1  0  0  0
 24 25  1  0  0  0
 25 26  1  0  0  0
 26 27  1  0  0  0
 27 28  4  0  0  0
 27 29  4  0  0  0
 28 31  4  0  0  0
 29 30  4  0  0  0
 30 31  4  0  0  0
 31 32  1  0  0  0
 32 33  4  0  0  0
 32 36  4  0  0  0
 33 34  4  0  0  0
 34 35  4  0  0  0
 35 36  4  0  0  0
  1 37  1  0  0  0
  2 38  1  0  0  0
  5 39  1  0  0  0
  6 40  1  0  0  0
 11 41  1  0  0  0
 12 42  1  0  0  0
 12 43  1  0  0  0
 14 44  1  0  0  0
 18 45  1  0  0  0
 18 46  1  0  0  0
 22 47  1  0  0  0
 22 48  1  0  0  0
 23 49  1  0  0  0
 23 50  1  0  0  0
 24 51  1  0  0  0
 24 52  1  0  0  0
 25 53  1  0  0  0
 25 54  1  0  0  0
 26 55  1  0  0  0
 33 56  1  0  0  0
 34 57  1  0  0  0
 35 58  1  0  0  0
M  END
$$$$
