### 
### Created by X-TOOL on Mon Sep 10 21:13:15 2018
### 

@<TRIPOS>MOLECULE
4ezq_ligand
  123   126     1     0     0
SMALL
GAST_HUCK


@<TRIPOS>ATOM
      1 N         -14.8360  -31.5080   -3.4630 N.4       1 PRO         0.2461
      2 CA        -14.1370  -32.2420   -4.4900 C.3       1 PRO         0.0671
      3 C         -12.9510  -31.4350   -4.9550 C.2       1 PRO         0.2293
      4 O         -12.9700  -30.2010   -4.8310 O.2       1 PRO        -0.3905
      5 CB        -15.1570  -32.3250   -5.6270 C.3       1 PRO         0.0127
      6 CG        -16.4690  -32.1760   -4.9740 C.3       1 PRO        -0.0053
      7 CD        -16.2350  -31.2520   -3.8150 C.3       1 PRO        -0.0313
      8 N         -11.9210  -32.1120   -5.4880 N.am      1 PRO        -0.2471
      9 CA        -10.7400  -31.4950   -6.0530 C.3       1 PRO         0.1339
     10 C         -11.0430  -30.4010   -7.0970 C.2       1 PRO         0.2041
     11 O         -12.0760  -30.4310   -7.7350 O.2       1 PRO        -0.3944
     12 CB        -10.0000  -32.6710   -6.6900 C.3       1 PRO        -0.0104
     13 CG        -10.4110  -33.8400   -5.8700 C.3       1 PRO        -0.0281
     14 CD        -11.8410  -33.5790   -5.5410 C.3       1 PRO         0.0371
     15 N         -10.1350  -29.4280   -7.2150 N.am      1 ARG        -0.2637
     16 CA        -10.2790  -28.3190   -8.1310 C.3       1 ARG         0.1313
     17 C          -9.8400  -28.8980   -9.4430 C.2       1 ARG         0.2064
     18 O          -9.0650  -29.8560   -9.4470 O.2       1 ARG        -0.3942
     19 CB         -9.2900  -27.2250   -7.7150 C.3       1 ARG        -0.0092
     20 CG         -9.6020  -26.5510   -6.3790 C.3       1 ARG        -0.0156
     21 CD        -11.0550  -26.1220   -6.3630 C.3       1 ARG         0.0627
     22 NE        -11.4780  -25.5770   -5.0610 N.pl3     1 ARG        -0.2723
     23 CZ        -11.9000  -26.2870   -4.0120 C.cat     1 ARG         0.2882
     24 NH1       -12.2450  -25.6650   -2.9000 N.pl3     1 ARG        -0.2849
     25 NH2       -11.9980  -27.6020   -4.0600 N.pl3     1 ARG        -0.2849
     26 N         -10.2840  -28.3130  -10.5590 N.am      1 PRO        -0.2498
     27 CA         -9.8840  -28.8320  -11.8700 C.3       1 PRO         0.1338
     28 C          -8.4040  -28.6260  -12.0700 C.2       1 PRO         0.2041
     29 O          -7.8190  -27.7290  -11.4820 O.2       1 PRO        -0.3944
     30 CB        -10.6550  -27.9550  -12.8350 C.3       1 PRO        -0.0104
     31 CG        -11.8810  -27.5920  -12.0590 C.3       1 PRO        -0.0281
     32 CD        -11.3680  -27.3240  -10.6810 C.3       1 PRO         0.0369
     33 N          -7.7940  -29.4940  -12.8540 N.am      1 ILE        -0.2635
     34 CA         -6.4410  -29.3330  -13.1920 C.3       1 ILE         0.1335
     35 C          -6.4340  -29.0300  -14.6560 C.2       1 ILE         0.2043
     36 O          -7.1970  -29.5720  -15.4060 O.2       1 ILE        -0.3944
     37 CB         -5.6230  -30.5620  -12.8280 C.3       1 ILE        -0.0037
     38 CG1        -4.1390  -30.1590  -12.7680 C.3       1 ILE        -0.0491
     39 CG2        -5.8770  -31.6580  -13.8230 C.3       1 ILE        -0.0582
     40 CD1        -3.2430  -31.0480  -11.9120 C.3       1 ILE        -0.0648
     41 N          -5.5750  -28.1000  -15.0290 N.am      1 TYR        -0.2621
     42 CA         -5.5750  -27.5010  -16.3340 C.3       1 TYR         0.1390
     43 C          -4.3400  -27.8860  -17.0670 C.2       1 TYR         0.2053
     44 O          -3.2530  -27.6130  -16.5920 O.2       1 TYR        -0.3942
     45 CB         -5.5370  -25.9920  -16.1590 C.3       1 TYR         0.0163
     46 CG         -5.4020  -25.3020  -17.4620 C.ar      1 TYR        -0.0493
     47 CD1        -4.3900  -24.3900  -17.6730 C.ar      1 TYR        -0.0685
     48 CD2        -6.2840  -25.5980  -18.5080 C.ar      1 TYR        -0.0685
     49 CE1        -4.2560  -23.7570  -18.8950 C.ar      1 TYR        -0.0398
     50 CE2        -6.1690  -24.9780  -19.7310 C.ar      1 TYR        -0.0398
     51 CZ         -5.1490  -24.0610  -19.9160 C.ar      1 TYR         0.0805
     52 OH         -5.0280  -23.4510  -21.1300 O.3       1 TYR        -0.3376
     53 N          -4.4840  -28.4440  -18.2530 N.am      1 ASN        -0.2672
     54 CA         -3.3530  -29.0940  -18.9350 C.3       1 ASN         0.1110
     55 C          -2.4290  -28.2150  -19.8120 C.2       1 ASN         0.0624
     56 O          -2.8600  -27.2544  -20.5042 O.co2     1 ASN        -0.5665
     57 CB         -3.8670  -30.3210  -19.7030 C.3       1 ASN         0.0718
     58 CG         -4.9830  -31.0600  -18.9530 C.2       1 ASN         0.1774
     59 OD1        -5.9090  -31.6110  -19.5680 O.2       1 ASN        -0.3971
     60 ND2        -4.9100  -31.0590  -17.6160 N.am      1 ASN        -0.3007
     61 O          -1.1954  -28.4705  -19.8347 O.co2     1 ASN        -0.5665
     62 H1        -14.3707  -30.6250   -3.3222 H         1 PRO         0.2035
     63 H2        -14.8095  -32.0418   -2.6084 H         1 PRO         0.2035
     64 H3        -13.8230  -33.2377   -4.1436 H         1 PRO         0.1099
     65 H4        -15.0878  -33.2965   -6.1383 H         1 PRO         0.0347
     66 H5        -14.9927  -31.5157   -6.3536 H         1 PRO         0.0347
     67 H6        -16.8360  -33.1510   -4.6208 H         1 PRO         0.0320
     68 H7        -17.1990  -31.7404   -5.6721 H         1 PRO         0.0320
     69 H8        -16.3822  -30.2027   -4.1106 H         1 PRO         0.0814
     70 H9        -16.9039  -31.4939   -2.9759 H         1 PRO         0.0814
     71 H10       -10.1331  -31.0488   -5.2514 H         1 PRO         0.0802
     72 H11        -8.9114  -32.5215   -6.6399 H         1 PRO         0.0313
     73 H12       -10.3042  -32.8027   -7.7389 H         1 PRO         0.0313
     74 H13        -9.8064  -33.9041   -4.9533 H         1 PRO         0.0287
     75 H14       -10.3078  -34.7730   -6.4434 H         1 PRO         0.0287
     76 H15       -12.5033  -33.9806   -6.3221 H         1 PRO         0.0524
     77 H16       -12.1079  -34.0223   -4.5703 H         1 PRO         0.0524
     78 H17        -9.3164  -29.4689   -6.6421 H         1 ARG         0.1883
     79 H18       -11.3090  -27.9346   -8.1676 H         1 ARG         0.0800
     80 H19        -9.2881  -26.4507   -8.4963 H         1 ARG         0.0313
     81 H20        -8.2897  -27.6772   -7.6444 H         1 ARG         0.0313
     82 H21        -8.9569  -25.6690   -6.2527 H         1 ARG         0.0301
     83 H22        -9.4190  -27.2598   -5.5580 H         1 ARG         0.0301
     84 H23       -11.6813  -26.9952   -6.5981 H         1 ARG         0.0689
     85 H24       -11.2010  -25.3485   -7.1313 H         1 ARG         0.0689
     86 H25       -11.4451  -24.5535   -4.9498 H         1 ARG         0.2642
     87 H26       -12.5714  -26.2066   -2.0870 H         1 ARG         0.2615
     88 H27       -12.1878  -24.6380   -2.8453 H         1 ARG         0.2615
     89 H28       -11.7340  -28.1071   -4.9179 H         1 ARG         0.2615
     90 H29       -12.3385  -28.1233   -3.2395 H         1 ARG         0.2615
     91 H30       -10.1441  -29.8945  -11.9856 H         1 PRO         0.0802
     92 H31       -10.9159  -28.5083  -13.7492 H         1 PRO         0.0313
     93 H32       -10.0767  -27.0581  -13.1017 H         1 PRO         0.0313
     94 H33       -12.6012  -28.4234  -12.0536 H         1 PRO         0.0287
     95 H34       -12.3593  -26.6952  -12.4798 H         1 PRO         0.0287
     96 H35       -10.9840  -26.2972  -10.5904 H         1 PRO         0.0524
     97 H36       -12.1488  -27.4916   -9.9245 H         1 PRO         0.0524
     98 H37        -8.3022  -30.2772  -13.2123 H         1 ILE         0.1883
     99 H38        -6.0250  -28.4749  -12.6438 H         1 ILE         0.0803
    100 H39        -5.9309  -30.9185  -11.8340 H         1 ILE         0.0345
    101 H40        -4.0830  -29.1367  -12.3658 H         1 ILE         0.0267
    102 H41        -3.7443  -30.1712  -13.7947 H         1 ILE         0.0267
    103 H42        -6.9481  -31.9082  -13.8273 H         1 ILE         0.0235
    104 H43        -5.2937  -32.5482  -13.5449 H         1 ILE         0.0235
    105 H44        -5.5753  -31.3203  -14.8255 H         1 ILE         0.0235
    106 H45        -2.2115  -30.6673  -11.9431 H         1 ILE         0.0230
    107 H46        -3.2662  -32.0762  -12.3022 H         1 ILE         0.0230
    108 H47        -3.6049  -31.0417  -10.8733 H         1 ILE         0.0230
    109 H48        -4.8883  -27.7967  -14.3683 H         1 TYR         0.1885
    110 H49        -6.4691  -27.8087  -16.8960 H         1 TYR         0.0821
    111 H50        -4.6799  -25.7266  -15.5227 H         1 TYR         0.0453
    112 H51        -6.4686  -25.6639  -15.6748 H         1 TYR         0.0453
    113 H52        -3.6928  -24.1670  -16.8735 H         1 TYR         0.0530
    114 H53        -7.0704  -26.3276  -18.3520 H         1 TYR         0.0530
    115 H54        -3.4650  -23.0332  -19.0547 H         1 TYR         0.0525
    116 H55        -6.8628  -25.2031  -20.5329 H         1 TYR         0.0525
    117 H56        -4.2905  -22.8525  -21.1103 H         1 TYR         0.2458
    118 H57        -5.3794  -28.4252  -18.6980 H         1 ASN         0.1877
    119 H58        -2.7048  -29.4728  -18.1311 H         1 ASN         0.0752
    120 H59        -3.0284  -31.0152  -19.8603 H         1 ASN         0.0544
    121 H60        -4.2564  -29.9897  -20.6770 H         1 ASN         0.0544
    122 H61        -5.6110  -31.5255  -17.0766 H         1 ASN         0.1814
    123 H62        -4.1545  -30.5917  -17.1569 H         1 ASN         0.1814
@<TRIPOS>BOND
     1    1    2 1  
     2    1    7 1  
     3    2    3 1  
     4    2    5 1  
     5    3    4 2  
     6    3    8 am 
     7    5    6 1  
     8    6    7 1  
     9    8    9 1  
    10    8   14 1  
    11    9   10 1  
    12    9   12 1  
    13   10   11 2  
    14   10   15 am 
    15   12   13 1  
    16   13   14 1  
    17   15   16 1  
    18   16   17 1  
    19   16   19 1  
    20   17   18 2  
    21   17   26 am 
    22   19   20 1  
    23   20   21 1  
    24   21   22 1  
    25   22   23 ar 
    26   23   24 ar 
    27   23   25 ar 
    28   26   27 1  
    29   26   32 1  
    30   27   28 1  
    31   27   30 1  
    32   28   29 2  
    33   28   33 am 
    34   30   31 1  
    35   31   32 1  
    36   33   34 1  
    37   34   35 1  
    38   34   37 1  
    39   35   36 2  
    40   35   41 am 
    41   37   38 1  
    42   37   39 1  
    43   38   40 1  
    44   41   42 1  
    45   42   43 1  
    46   42   45 1  
    47   43   44 2  
    48   43   53 am 
    49   45   46 1  
    50   46   47 ar 
    51   46   48 ar 
    52   47   49 ar 
    53   48   50 ar 
    54   49   51 ar 
    55   50   51 ar 
    56   51   52 1  
    57   53   54 1  
    58   54   55 1  
    59   54   57 1  
    60   55   56 ar 
    61   57   58 1  
    62   58   59 2  
    63   58   60 am 
    64   55   61 ar 
    65    1   62 1  
    66    1   63 1  
    67    2   64 1  
    68    5   65 1  
    69    5   66 1  
    70    6   67 1  
    71    6   68 1  
    72    7   69 1  
    73    7   70 1  
    74    9   71 1  
    75   12   72 1  
    76   12   73 1  
    77   13   74 1  
    78   13   75 1  
    79   14   76 1  
    80   14   77 1  
    81   15   78 1  
    82   16   79 1  
    83   19   80 1  
    84   19   81 1  
    85   20   82 1  
    86   20   83 1  
    87   21   84 1  
    88   21   85 1  
    89   22   86 1  
    90   24   87 1  
    91   24   88 1  
    92   25   89 1  
    93   25   90 1  
    94   27   91 1  
    95   30   92 1  
    96   30   93 1  
    97   31   94 1  
    98   31   95 1  
    99   32   96 1  
   100   32   97 1  
   101   33   98 1  
   102   34   99 1  
   103   37  100 1  
   104   38  101 1  
   105   38  102 1  
   106   39  103 1  
   107   39  104 1  
   108   39  105 1  
   109   40  106 1  
   110   40  107 1  
   111   40  108 1  
   112   41  109 1  
   113   42  110 1  
   114   45  111 1  
   115   45  112 1  
   116   47  113 1  
   117   48  114 1  
   118   49  115 1  
   119   50  116 1  
   120   52  117 1  
   121   53  118 1  
   122   54  119 1  
   123   57  120 1  
   124   57  121 1  
   125   60  122 1  
   126   60  123 1  
@<TRIPOS>SUBSTRUCTURE
     1 PRO         1

