4ezq_ligand
  -I-interpret- 

123126  0  0  0  0  0  0  0  0999 V2000
  -14.8360  -31.5080   -3.4630 N   0  3  0  0  0
  -14.1370  -32.2420   -4.4900 C   0  0  0  0  0
  -12.9510  -31.4350   -4.9550 C   0  0  0  0  0
  -12.9700  -30.2010   -4.8310 O   0  0  0  0  0
  -15.1570  -32.3250   -5.6270 C   0  0  0  0  0
  -16.4690  -32.1760   -4.9740 C   0  0  0  0  0
  -16.2350  -31.2520   -3.8150 C   0  0  0  0  0
  -11.9210  -32.1120   -5.4880 N   0  0  0  0  0
  -10.7400  -31.4950   -6.0530 C   0  0  0  0  0
  -11.0430  -30.4010   -7.0970 C   0  0  0  0  0
  -12.0760  -30.4310   -7.7350 O   0  0  0  0  0
  -10.0000  -32.6710   -6.6900 C   0  0  0  0  0
  -10.4110  -33.8400   -5.8700 C   0  0  0  0  0
  -11.8410  -33.5790   -5.5410 C   0  0  0  0  0
  -10.1350  -29.4280   -7.2150 N   0  0  0  0  0
  -10.2790  -28.3190   -8.1310 C   0  0  0  0  0
   -9.8400  -28.8980   -9.4430 C   0  0  0  0  0
   -9.0650  -29.8560   -9.4470 O   0  0  0  0  0
   -9.2900  -27.2250   -7.7150 C   0  0  0  0  0
   -9.6020  -26.5510   -6.3790 C   0  0  0  0  0
  -11.0550  -26.1220   -6.3630 C   0  0  0  0  0
  -11.4780  -25.5770   -5.0610 N   0  0  0  0  0
  -11.9000  -26.2870   -4.0120 C   0  0  0  0  0
  -12.2450  -25.6650   -2.9000 N   0  0  0  0  0
  -11.9980  -27.6020   -4.0600 N   0  0  0  0  0
  -10.2840  -28.3130  -10.5590 N   0  0  0  0  0
   -9.8840  -28.8320  -11.8700 C   0  0  0  0  0
   -8.4040  -28.6260  -12.0700 C   0  0  0  0  0
   -7.8190  -27.7290  -11.4820 O   0  0  0  0  0
  -10.6550  -27.9550  -12.8350 C   0  0  0  0  0
  -11.8810  -27.5920  -12.0590 C   0  0  0  0  0
  -11.3680  -27.3240  -10.6810 C   0  0  0  0  0
   -7.7940  -29.4940  -12.8540 N   0  0  0  0  0
   -6.4410  -29.3330  -13.1920 C   0  0  0  0  0
   -6.4340  -29.0300  -14.6560 C   0  0  0  0  0
   -7.1970  -29.5720  -15.4060 O   0  0  0  0  0
   -5.6230  -30.5620  -12.8280 C   0  0  0  0  0
   -4.1390  -30.1590  -12.7680 C   0  0  0  0  0
   -5.8770  -31.6580  -13.8230 C   0  0  0  0  0
   -3.2430  -31.0480  -11.9120 C   0  0  0  0  0
   -5.5750  -28.1000  -15.0290 N   0  0  0  0  0
   -5.5750  -27.5010  -16.3340 C   0  0  0  0  0
   -4.3400  -27.8860  -17.0670 C   0  0  0  0  0
   -3.2530  -27.6130  -16.5920 O   0  0  0  0  0
   -5.5370  -25.9920  -16.1590 C   0  0  0  0  0
   -5.4020  -25.3020  -17.4620 C   0  0  0  0  0
   -4.3900  -24.3900  -17.6730 C   0  0  0  0  0
   -6.2840  -25.5980  -18.5080 C   0  0  0  0  0
   -4.2560  -23.7570  -18.8950 C   0  0  0  0  0
   -6.1690  -24.9780  -19.7310 C   0  0  0  0  0
   -5.1490  -24.0610  -19.9160 C   0  0  0  0  0
   -5.0280  -23.4510  -21.1300 O   0  0  0  0  0
   -4.4840  -28.4440  -18.2530 N   0  0  0  0  0
   -3.3530  -29.0940  -18.9350 C   0  0  0  0  0
   -2.4290  -28.2150  -19.8120 C   0  0  0  0  0
   -2.8600  -27.2544  -20.5042 O   0  0  0  0  0
   -3.8670  -30.3210  -19.7030 C   0  0  0  0  0
   -4.9830  -31.0600  -18.9530 C   0  0  0  0  0
   -5.9090  -31.6110  -19.5680 O   0  0  0  0  0
   -4.9100  -31.0590  -17.6160 N   0  0  0  0  0
   -1.1954  -28.4705  -19.8347 O   0  0  0  0  0
  -14.3701  -30.6083   -3.3450 H   0  0  0  0  0
  -14.8220  -32.0671   -2.6100 H   0  0  0  0  0
  -13.7782  -33.2154   -4.1557 H   0  0  0  0  0
  -15.0808  -33.2670   -6.1700 H   0  0  0  0  0
  -14.9892  -31.5524   -6.3773 H   0  0  0  0  0
  -16.8641  -33.1374   -4.6459 H   0  0  0  0  0
  -17.2146  -31.7755   -5.6608 H   0  0  0  0  0
  -16.4224  -30.2076   -4.0643 H   0  0  0  0  0
  -16.9184  -31.4348   -2.9857 H   0  0  0  0  0
  -10.1671  -30.9676   -5.2903 H   0  0  0  0  0
   -8.9195  -32.5271   -6.6925 H   0  0  0  0  0
  -10.2513  -32.7960   -7.7433 H   0  0  0  0  0
   -9.7983  -33.9475   -4.9749 H   0  0  0  0  0
  -10.2793  -34.7810   -6.4042 H   0  0  0  0  0
  -12.5228  -34.0075   -6.2756 H   0  0  0  0  0
  -12.1457  -34.0473   -4.6051 H   0  0  0  0  0
   -9.3000  -29.4697   -6.6306 H   0  0  0  0  0
  -11.2824  -27.8943   -8.1603 H   0  0  0  0  0
   -9.3375  -26.4490   -8.4790 H   0  0  0  0  0
   -8.3165  -27.7034   -7.6078 H   0  0  0  0  0
   -8.9620  -25.6779   -6.2521 H   0  0  0  0  0
   -9.4192  -27.2521   -5.5647 H   0  0  0  0  0
  -11.6641  -27.0021   -6.5691 H   0  0  0  0  0
  -11.1783  -25.3364   -7.1085 H   0  0  0  0  0
  -11.4454  -24.5635   -4.9509 H   0  0  0  0  0
  -12.5797  -26.2004   -2.0990 H   0  0  0  0  0
  -12.1769  -24.6489   -2.8418 H   0  0  0  0  0
  -11.7483  -28.1012   -4.9137 H   0  0  0  0  0
  -10.0828  -29.8965  -11.9942 H   0  0  0  0  0
  -10.8845  -28.4611  -13.7727 H   0  0  0  0  0
  -10.0867  -27.0824  -13.1572 H   0  0  0  0  0
  -12.6304  -28.3833  -12.0750 H   0  0  0  0  0
  -12.3992  -26.7316  -12.4824 H   0  0  0  0  0
  -11.0328  -26.2968  -10.5378 H   0  0  0  0  0
  -12.1316  -27.4237   -9.9096 H   0  0  0  0  0
   -8.3123  -30.2928  -13.2195 H   0  0  0  0  0
   -5.9689  -28.5255  -12.6325 H   0  0  0  0  0
   -5.9143  -30.9475  -11.8509 H   0  0  0  0  0
   -4.1078  -29.1667  -12.3180 H   0  0  0  0  0
   -3.7595  -30.2305  -13.7873 H   0  0  0  0  0
   -6.9362  -31.9152  -13.8158 H   0  0  0  0  0
   -5.5914  -31.3170  -14.8181 H   0  0  0  0  0
   -5.2871  -32.5344  -13.5547 H   0  0  0  0  0
   -3.6027  -31.0409  -10.8831 H   0  0  0  0  0
   -3.2669  -32.0665  -12.2996 H   0  0  0  0  0
   -2.2212  -30.6698  -11.9436 H   0  0  0  0  0
   -4.8746  -27.7906  -14.3551 H   0  0  0  0  0
   -6.4584  -27.8282  -16.8823 H   0  0  0  0  0
   -4.6768  -25.7362  -15.5404 H   0  0  0  0  0
   -6.4693  -25.6734  -15.6928 H   0  0  0  0  0
   -3.6889  -24.1658  -16.8690 H   0  0  0  0  0
   -7.0748  -26.3316  -18.3511 H   0  0  0  0  0
   -3.4606  -23.0292  -19.0556 H   0  0  0  0  0
   -6.8667  -25.2043  -20.5373 H   0  0  0  0  0
   -5.7172  -23.7700  -21.7173 H   0  0  0  0  0
   -5.3973  -28.4249  -18.7069 H   0  0  0  0  0
   -2.6764  -29.3758  -18.1282 H   0  0  0  0  0
   -3.8101  -27.1793  -20.3889 H   0  0  0  0  0
   -3.0332  -31.0115  -19.8297 H   0  0  0  0  0
   -4.2727  -29.9762  -20.6541 H   0  0  0  0  0
   -5.6326  -31.5229  -17.0654 H   0  0  0  0  0
   -4.1318  -30.5944  -17.1481 H   0  0  0  0  0
  1  2  1  0  0  0
  1  7  1  0  0  0
  2  3  1  0  0  0
  2  5  1  0  0  0
  3  4  2  0  0  0
  3  8  1  0  0  0
  5  6  1  0  0  0
  6  7  1  0  0  0
  8  9  1  0  0  0
  8 14  1  0  0  0
  9 10  1  0  0  0
  9 12  1  0  0  0
 10 11  2  0  0  0
 10 15  1  0  0  0
 12 13  1  0  0  0
 13 14  1  0  0  0
 15 16  1  0  0  0
 16 17  1  0  0  0
 16 19  1  0  0  0
 17 18  2  0  0  0
 17 26  1  0  0  0
 19 20  1  0  0  0
 20 21  1  0  0  0
 21 22  1  0  0  0
 22 23  1  0  0  0
 23 24  1  0  0  0
 23 25  2  0  0  0
 26 27  1  0  0  0
 26 32  1  0  0  0
 27 28  1  0  0  0
 27 30  1  0  0  0
 28 29  2  0  0  0
 28 33  1  0  0  0
 30 31  1  0  0  0
 31 32  1  0  0  0
 33 34  1  0  0  0
 34 35  1  0  0  0
 34 37  1  0  0  0
 35 36  2  0  0  0
 35 41  1  0  0  0
 37 38  1  0  0  0
 37 39  1  0  0  0
 38 40  1  0  0  0
 41 42  1  0  0  0
 42 43  1  0  0  0
 42 45  1  0  0  0
 43 44  2  0  0  0
 43 53  1  0  0  0
 45 46  1  0  0  0
 46 47  4  0  0  0
 46 48  4  0  0  0
 47 49  4  0  0  0
 48 50  4  0  0  0
 49 51  4  0  0  0
 50 51  4  0  0  0
 51 52  1  0  0  0
 53 54  1  0  0  0
 54 55  1  0  0  0
 54 57  1  0  0  0
 55 56  1  0  0  0
 57 58  1  0  0  0
 58 59  2  0  0  0
 58 60  1  0  0  0
 55 61  2  0  0  0
  1 62  1  0  0  0
  1 63  1  0  0  0
  2 64  1  0  0  0
  5 65  1  0  0  0
  5 66  1  0  0  0
  6 67  1  0  0  0
  6 68  1  0  0  0
  7 69  1  0  0  0
  7 70  1  0  0  0
  9 71  1  0  0  0
 12 72  1  0  0  0
 12 73  1  0  0  0
 13 74  1  0  0  0
 13 75  1  0  0  0
 14 76  1  0  0  0
 14 77  1  0  0  0
 15 78  1  0  0  0
 16 79  1  0  0  0
 19 80  1  0  0  0
 19 81  1  0  0  0
 20 82  1  0  0  0
 20 83  1  0  0  0
 21 84  1  0  0  0
 21 85  1  0  0  0
 22 86  1  0  0  0
 24 87  1  0  0  0
 24 88  1  0  0  0
 25 89  1  0  0  0
 27 90  1  0  0  0
 30 91  1  0  0  0
 30 92  1  0  0  0
 31 93  1  0  0  0
 31 94  1  0  0  0
 32 95  1  0  0  0
 32 96  1  0  0  0
 33 97  1  0  0  0
 34 98  1  0  0  0
 37 99  1  0  0  0
 38100  1  0  0  0
 38101  1  0  0  0
 39102  1  0  0  0
 39103  1  0  0  0
 39104  1  0  0  0
 40105  1  0  0  0
 40106  1  0  0  0
 40107  1  0  0  0
 41108  1  0  0  0
 42109  1  0  0  0
 45110  1  0  0  0
 45111  1  0  0  0
 47112  1  0  0  0
 48113  1  0  0  0
 49114  1  0  0  0
 50115  1  0  0  0
 52116  1  0  0  0
 53117  1  0  0  0
 54118  1  0  0  0
 56119  1  0  0  0
 57120  1  0  0  0
 57121  1  0  0  0
 60122  1  0  0  0
 60123  1  0  0  0
M  END
$$$$
