5opr_ligand
  -I-interpret- 

 55 58  0  0  0  0  0  0  0  0999 V2000
   -3.5200   -8.9590   19.3240 O   0  0  0  0  0
    4.8330   -7.2160   15.0620 C   0  0  0  0  0
    6.1710   -5.3960   16.2120 N   0  0  0  0  0
    6.1600   -6.4130   15.1010 C   0  0  0  0  0
    6.7790   -3.8270   17.5120 N   0  0  0  0  0
    6.0800   -5.5990   13.8120 C   0  0  0  0  0
    7.1930   -4.6330   16.5470 N   0  0  0  0  0
    5.1100   -5.0550   16.9390 C   0  0  0  0  0
    4.1520   -1.6440   20.3140 N   0  0  0  0  0
    5.5250   -4.1050   17.8380 C   0  0  0  0  0
    6.2500   -1.6930   19.4550 N   0  0  0  0  0
    4.6410   -3.4250   18.8080 C   0  0  0  0  0
   -3.1130   -6.3040   20.0200 N   0  3  0  0  0
    3.3490   -3.8870   18.9370 C   0  0  0  0  0
    2.4630   -3.1980   19.7730 C   0  0  0  0  0
    2.8920   -2.0840   20.4540 C   0  0  0  0  0
    5.0190   -2.2680   19.5230 C   0  0  0  0  0
    1.0570   -3.6440   19.9530 C   0  0  0  0  0
    0.5840   -4.8170   19.3200 C   0  0  0  0  0
   -0.7430   -5.2310   19.5160 C   0  0  0  0  0
   -1.6020   -4.4720   20.3040 C   0  0  0  0  0
   -1.1340   -3.3000   20.8990 C   0  0  0  0  0
    0.1770   -2.8860   20.7250 C   0  0  0  0  0
   -3.0520   -4.9130   20.5000 C   0  0  0  0  0
   -3.0220   -7.3450   21.0470 C   0  0  0  0  0
   -2.5300   -8.5890   20.3190 C   0  0  0  0  0
   -3.7090   -7.9460   18.3090 C   0  0  0  0  0
   -4.0800   -6.6060   18.9540 C   0  0  0  0  0
    3.9912   -6.5237   15.0462 H   0  0  0  0  0
    4.8116   -7.8366   14.1662 H   0  0  0  0  0
    4.7672   -7.8498   15.9463 H   0  0  0  0  0
    7.0190   -7.0721   15.2268 H   0  0  0  0  0
    5.1684   -5.0014   13.8172 H   0  0  0  0  0
    6.9467   -4.9414   13.7447 H   0  0  0  0  0
    6.0679   -6.2750   12.9570 H   0  0  0  0  0
    4.1010   -5.4550   16.8392 H   0  0  0  0  0
    6.4477   -0.8465   19.9887 H   0  0  0  0  0
    6.9753   -2.1083   18.8703 H   0  0  0  0  0
   -2.2183   -6.3502   19.5323 H   0  0  0  0  0
    3.0223   -4.7753   18.3963 H   0  0  0  0  0
    2.2038   -1.5541   21.1126 H   0  0  0  0  0
    1.2486   -5.3985   18.6811 H   0  0  0  0  0
   -1.1009   -6.1490   19.0498 H   0  0  0  0  0
   -1.8096   -2.7011   21.5098 H   0  0  0  0  0
    0.5218   -1.9642   21.1934 H   0  0  0  0  0
   -3.3524   -4.8393   21.5452 H   0  0  0  0  0
   -3.7407   -4.2718   19.9499 H   0  0  0  0  0
   -3.9844   -7.5174   21.5288 H   0  0  0  0  0
   -2.3440   -7.0568   21.8503 H   0  0  0  0  0
   -1.5741   -8.3852   19.8364 H   0  0  0  0  0
   -2.3903   -9.4052   21.0278 H   0  0  0  0  0
   -4.5156   -8.2555   17.6444 H   0  0  0  0  0
   -2.7810   -7.8261   17.7500 H   0  0  0  0  0
   -4.0567   -5.8171   18.2022 H   0  0  0  0  0
   -5.0839   -6.6658   19.3744 H   0  0  0  0  0
 26  1  1  0  0  0
  1 27  1  0  0  0
  4  2  1  0  0  0
  3  4  1  0  0  0
  3  7  4  0  0  0
  8  3  4  0  0  0
  4  6  1  0  0  0
  5  7  4  0  0  0
 10  5  4  0  0  0
 10  8  4  0  0  0
 16  9  4  0  0  0
  9 17  4  0  0  0
 12 10  1  0  0  0
 17 11  1  0  0  0
 14 12  4  0  0  0
 12 17  4  0  0  0
 13 24  1  0  0  0
 25 13  1  0  0  0
 13 28  1  0  0  0
 15 14  4  0  0  0
 15 16  4  0  0  0
 18 15  1  0  0  0
 19 18  4  0  0  0
 23 18  4  0  0  0
 20 19  4  0  0  0
 21 20  4  0  0  0
 21 22  4  0  0  0
 24 21  1  0  0  0
 22 23  4  0  0  0
 25 26  1  0  0  0
 27 28  1  0  0  0
  2 29  1  0  0  0
  2 30  1  0  0  0
  2 31  1  0  0  0
  4 32  1  0  0  0
  6 33  1  0  0  0
  6 34  1  0  0  0
  6 35  1  0  0  0
  8 36  1  0  0  0
 11 37  1  0  0  0
 11 38  1  0  0  0
 13 39  1  0  0  0
 14 40  1  0  0  0
 16 41  1  0  0  0
 19 42  1  0  0  0
 20 43  1  0  0  0
 22 44  1  0  0  0
 23 45  1  0  0  0
 24 46  1  0  0  0
 24 47  1  0  0  0
 25 48  1  0  0  0
 25 49  1  0  0  0
 26 50  1  0  0  0
 26 51  1  0  0  0
 27 52  1  0  0  0
 27 53  1  0  0  0
 28 54  1  0  0  0
 28 55  1  0  0  0
M  END
$$$$
