### 
### Created by X-TOOL on Mon Sep 10 21:13:15 2018
### 

@<TRIPOS>MOLECULE
4n5t_ligand
  247   252     1     0     0
SMALL
GAST_HUCK


@<TRIPOS>ATOM
      1 C           5.4730   30.8430  -19.5980 C.2       1 ACE         0.1751
      2 O           4.2780   31.1270  -19.6390 O.2       1 ACE        -0.3972
      3 CH3         6.5330   31.8860  -19.9060 C.3       1 ACE         0.0258
      4 N           5.9080   29.6280  -19.2850 N.am      1 LEU        -0.2658
      5 CA          4.9960   28.5240  -19.0160 C.3       1 LEU         0.1311
      6 C           4.6190   28.4700  -17.5350 C.2       1 LEU         0.2040
      7 O           5.0960   29.2710  -16.7350 O.2       1 LEU        -0.3944
      8 CB          5.6500   27.2040  -19.4250 C.3       1 LEU        -0.0101
      9 CG          6.1210   27.1280  -20.8800 C.3       1 LEU        -0.0425
     10 CD1         6.8030   25.7910  -21.1390 C.3       1 LEU        -0.0625
     11 CD2         4.9270   27.3110  -21.8010 C.3       1 LEU        -0.0625
     12 N           3.7550   27.5270  -17.1790 N.am      1 THR        -0.2613
     13 CA          3.4190   27.3080  -15.7770 C.3       1 THR         0.1565
     14 C           4.4680   26.4010  -15.1540 C.2       1 THR         0.2066
     15 O           5.1830   25.6900  -15.8630 O.2       1 THR        -0.3943
     16 CB          2.0450   26.6330  -15.6160 C.3       1 THR         0.0924
     17 OG1         2.0890   25.3110  -16.1640 O.3       1 THR        -0.3874
     18 CG2         0.9670   27.4480  -16.3330 C.3       1 THR        -0.0346
     19 N           4.5700   26.4180  -13.8270 N.am      1 PHE        -0.2619
     20 CA          5.5330   25.5460  -13.1750 C.3       1 PHE         0.1402
     21 C           5.2900   24.0820  -13.5380 C.2       1 PHE         0.2030
     22 O           6.2350   23.3400  -13.8180 O.2       1 PHE        -0.3945
     23 CB          5.4860   25.7100  -11.6490 C.3       1 PHE         0.0214
     24 CG          6.3140   24.6920  -10.9250 C.ar      1 PHE        -0.0386
     25 CD1         7.7010   24.7880  -10.9240 C.ar      1 PHE        -0.0601
     26 CD2         5.7200   23.5880  -10.3320 C.ar      1 PHE        -0.0601
     27 CE1         8.4830   23.7990  -10.3510 C.ar      1 PHE        -0.0686
     28 CE2         6.4970   22.5910   -9.7540 C.ar      1 PHE        -0.0686
     29 CZ          7.8840   22.6950   -9.7670 C.ar      1 PHE        -0.0687
     30 OAD         4.9390   20.9020  -15.4160 O.2       1 0EH        -0.3419
     31 CAE         4.3440   21.9660  -15.2630 C.2       1 0EH         0.2263
     32 CAF         3.6720   22.3030  -13.9390 C.3       1 0EH         0.1302
     33 CAA         2.1580   22.1730  -14.0900 C.3       1 0EH        -0.0320
     34 CAB         4.1210   21.4180  -12.7730 C.3       1 0EH        -0.0201
     35 NAC         4.0240   23.6630  -13.5380 N.am      1 0EH        -0.2741
     36 CAO         3.6140   19.9630  -12.8170 C.3       1 0EH        -0.0516
     37 CAP         4.1890   19.1670  -11.6280 C.3       1 0EH        -0.0530
     38 CAQ         3.5310   17.7810  -11.5230 C.3       1 0EH        -0.0515
     39 CAR         3.9810   16.8760  -12.6760 C.3       1 0EH        -0.0464
     40 CAS         5.4880   16.6030  -12.5830 C.3       1 0EH        -0.0365
     41 CAT         5.9310   15.6600  -13.6750 C.2       1 0EH        -0.0987
     42 N           4.2420   22.8800  -16.2210 N.am      1 GLU        -0.2628
     43 CA          4.7610   22.6170  -17.5600 C.3       1 GLU         0.1326
     44 C           6.2850   22.5490  -17.5740 C.2       1 GLU         0.2043
     45 O           6.8580   21.6850  -18.2320 O.2       1 GLU        -0.3944
     46 CB          4.2600   23.6780  -18.5370 C.3       1 GLU        -0.0007
     47 CG          2.7520   23.5960  -18.7430 C.3       1 GLU         0.0044
     48 CD          2.1970   24.7140  -19.5950 C.2       1 GLU         0.0350
     49 OE1         2.5730   25.8850  -19.3790 O.co2     1 GLU        -0.5690
     50 OE2         1.3700   24.4190  -20.4850 O.co2     1 GLU        -0.5690
     51 N           6.9410   23.4400  -16.8360 N.am      1 TYR        -0.2621
     52 CA          8.3990   23.3780  -16.7390 C.3       1 TYR         0.1390
     53 C           8.8820   22.0940  -16.0840 C.2       1 TYR         0.2058
     54 O           9.8400   21.4720  -16.5520 O.2       1 TYR        -0.3942
     55 CB          8.9460   24.5690  -15.9550 C.3       1 TYR         0.0163
     56 CG          8.9520   25.8490  -16.7410 C.ar      1 TYR        -0.0493
     57 CD1         8.2860   26.9740  -16.2790 C.ar      1 TYR        -0.0685
     58 CD2         9.6280   25.9360  -17.9530 C.ar      1 TYR        -0.0685
     59 CE1         8.2910   28.1470  -16.9980 C.ar      1 TYR        -0.0398
     60 CE2         9.6360   27.1070  -18.6780 C.ar      1 TYR        -0.0398
     61 CZ          8.9670   28.2070  -18.1980 C.ar      1 TYR         0.0805
     62 OH          8.9630   29.3750  -18.9260 O.3       1 TYR        -0.3376
     63 N           8.2340   21.6930  -14.9950 N.am      1 TRP        -0.2625
     64 CA          8.6870   20.5000  -14.2970 C.3       1 TRP         0.1352
     65 C           8.4310   19.2510  -15.1310 C.2       1 TRP         0.2052
     66 O           9.2250   18.3120  -15.1180 O.2       1 TRP        -0.3942
     67 CB          7.9940   20.3590  -12.9440 C.3       1 TRP         0.0042
     68 CG          8.7370   19.4330  -12.0390 C.2       1 TRP        -0.0418
     69 CD1         8.5150   18.0960  -11.8640 C.2       1 TRP         0.0167
     70 CD2         9.8590   19.7660  -11.2130 C.ar      1 TRP        -0.0214
     71 NE1         9.4350   17.5800  -10.9800 N.pl3     1 TRP        -0.2890
     72 CE2        10.2680   18.5870  -10.5650 C.ar      1 TRP         0.0603
     73 CE3        10.5550   20.9540  -10.9580 C.ar      1 TRP        -0.0747
     74 CZ2        11.3410   18.5550   -9.6770 C.ar      1 TRP        -0.0443
     75 CZ3        11.6250   20.9200  -10.0730 C.ar      1 TRP        -0.0792
     76 CH2        12.0040   19.7290   -9.4440 C.ar      1 TRP        -0.0768
     77 N           7.3210   19.2430  -15.8610 N.am      1 ALA        -0.2639
     78 CA          6.9950   18.1050  -16.7130 C.3       1 ALA         0.1282
     79 C           8.1030   17.8860  -17.7440 C.2       1 ALA         0.2036
     80 O           8.4540   16.7450  -18.0580 O.2       1 ALA        -0.3944
     81 CB          5.6690   18.3430  -17.4150 C.3       1 ALA        -0.0244
     82 N           8.6520   18.9790  -18.2630 N.am      1 GLN        -0.2636
     83 CA          9.7600   18.9010  -19.2170 C.3       1 GLN         0.1330
     84 C          10.9900   18.3070  -18.5520 C.2       1 GLN         0.2040
     85 O          11.7100   17.5030  -19.1450 O.2       1 GLN        -0.3944
     86 CB         10.1260   20.2890  -19.7420 C.3       1 GLN         0.0045
     87 CG          9.0650   20.9670  -20.5770 C.3       1 GLN         0.0412
     88 CD          9.5370   22.3060  -21.1130 C.2       1 GLN         0.1737
     89 OE1         9.0410   22.7960  -22.1280 O.2       1 GLN        -0.3973
     90 NE2        10.5070   22.9060  -20.4300 N.am      1 GLN        -0.3009
     91 N          11.2340   18.7210  -17.3160 N.am      1 2JH        -0.2637
     92 CA         12.4020   18.2690  -16.5800 C.3       1 2JH         0.1309
     93 CB         12.5630   19.0990  -15.3060 C.3       1 2JH        -0.0096
     94 C1         12.2570   16.7880  -16.2380 C.2       1 2JH         0.2010
     95 O          13.2090   16.0170  -16.3680 O.2       1 2JH        -0.3947
     96 CG         13.8650   18.9290  -14.5230 C.3       1 2JH        -0.0368
     97 CD1        14.1230   19.7790  -13.3080 C.3       1 2JH        -0.0500
     98 CD2        13.9970   17.6590  -13.7130 C.3       1 2JH        -0.0500
     99 CE         14.2840   18.5000  -12.4280 C.3       1 2JH        -0.0525
    100 C          11.0020   14.1040  -16.6890 C.2       1 MK8         0.2264
    101 N          11.0590   16.3960  -15.8160 N.am      1 MK8        -0.2743
    102 O          11.6330   13.0510  -16.5850 O.2       1 MK8        -0.3419
    103 CA         10.7760   15.0050  -15.4780 C.3       1 MK8         0.1304
    104 CB          9.2910   15.0190  -15.1090 C.3       1 MK8        -0.0186
    105 CD          7.2180   13.7000  -14.5300 C.3       1 MK8        -0.0365
    106 CE          6.7840   14.6520  -13.4470 C.2       1 MK8        -0.0987
    107 CG          8.7500   13.6600  -14.6430 C.3       1 MK8        -0.0449
    108 CB1        11.6580   14.5550  -14.3140 C.3       1 MK8        -0.0320
    109 N          10.4880   14.5290  -17.8380 N.am      1 SER        -0.2607
    110 CA         10.5970   13.7480  -19.0640 C.3       1 SER         0.1541
    111 C          12.0520   13.5700  -19.4790 C.2       1 SER         0.2063
    112 O          12.4060   12.5740  -20.1140 O.2       1 SER        -0.3943
    113 CB          9.8230   14.4290  -20.1960 C.3       1 SER         0.0845
    114 OG          8.4300   14.4280  -19.9350 O.3       1 SER        -0.3903
    115 N          12.8920   14.5380  -19.1230 N.am      1 ALA        -0.2639
    116 CA         14.3040   14.4870  -19.4830 C.3       1 ALA         0.1282
    117 C          15.0400   13.4780  -18.6100 C.2       1 ALA         0.2031
    118 O          15.7240   12.5900  -19.1150 O.2       1 ALA        -0.3944
    119 CB         14.9310   15.8670  -19.3330 C.3       1 ALA        -0.0244
    120 N          14.8920   13.6160  -17.2970 N.am      1 ALA        -0.2698
    121 CA         15.5520   12.7190  -16.3570 C.3       1 ALA         0.0916
    122 C          14.9300   11.3280  -16.4200 C.2       1 ALA         0.0598
    123 O          15.6600   10.3750  -16.7680 O.co2     1 ALA        -0.5666
    124 CB         15.4460   13.2760  -14.9430 C.3       1 ALA        -0.0300
    125 OXT        13.7220   11.2080  -16.1250 O.co2     1 ALA        -0.5666
    126 H1          7.5310   31.4326  -19.8143 H         1 ACE         0.0467
    127 H2          6.4430   32.7211  -19.1958 H         1 ACE         0.0467
    128 H3          6.3929   32.2596  -20.9310 H         1 ACE         0.0467
    129 H4          6.8933   29.4655  -19.2322 H         1 LEU         0.1882
    130 H5          4.0809   28.6696  -19.6088 H         1 LEU         0.0800
    131 H6          4.9190   26.3983  -19.2624 H         1 LEU         0.0315
    132 H7          6.5238   27.0428  -18.7765 H         1 LEU         0.0315
    133 H8          6.8435   27.9361  -21.0670 H         1 LEU         0.0298
    134 H9          7.1373   25.7467  -22.1860 H         1 LEU         0.0232
    135 H10         6.0927   24.9736  -20.9460 H         1 LEU         0.0232
    136 H11         7.6716   25.6872  -20.4721 H         1 LEU         0.0232
    137 H12         4.4513   28.2815  -21.5962 H         1 LEU         0.0232
    138 H13         4.2016   26.5029  -21.6259 H         1 LEU         0.0232
    139 H14         5.2634   27.2813  -22.8479 H         1 LEU         0.0232
    140 H15         3.3284   26.9586  -17.8825 H         1 THR         0.1884
    141 H16         3.4085   28.2766  -15.2558 H         1 THR         0.0826
    142 H17         1.7979   26.5728  -14.5458 H         1 THR         0.0639
    143 H18         1.2392   24.8988  -16.0623 H         1 THR         0.2101
    144 H19        -0.0084   26.9545  -16.2097 H         1 THR         0.0257
    145 H20         1.2105   27.5166  -17.4035 H         1 THR         0.0257
    146 H21         0.9236   28.4588  -15.9013 H         1 THR         0.0257
    147 H22         3.9897   27.0248  -13.2838 H         1 PHE         0.1885
    148 H23         6.5377   25.8274  -13.5234 H         1 PHE         0.0823
    149 H24         4.4416   25.6120  -11.3179 H         1 PHE         0.0474
    150 H25         5.8596   26.7123  -11.3925 H         1 PHE         0.0474
    151 H26         8.1772   25.6494  -11.3783 H         1 PHE         0.0557
    152 H27         4.6395   23.5018  -10.3192 H         1 PHE         0.0557
    153 H28         9.5632   23.8888  -10.3595 H         1 PHE         0.0599
    154 H29         6.0221   21.7324   -9.2931 H         1 PHE         0.0599
    155 H30         8.4930   21.9162   -9.3224 H         1 PHE         0.0559
    156 H31         1.6719   22.4164  -13.1337 H         1 0EH         0.0242
    157 H32         1.9054   21.1418  -14.3777 H         1 0EH         0.0242
    158 H33         1.8061   22.8672  -14.8673 H         1 0EH         0.0242
    159 H34         3.7597   21.8756  -11.8403 H         1 0EH         0.0277
    160 H35         5.2207   21.3946  -12.7680 H         1 0EH         0.0277
    161 H36         3.3000   24.2932  -13.2575 H         1 0EH         0.1839
    162 H37         3.9352   19.4938  -13.7586 H         1 0EH         0.0265
    163 H38         2.5154   19.9583  -12.7610 H         1 0EH         0.0265
    164 H39         4.0033   19.7247  -10.6982 H         1 0EH         0.0265
    165 H40         5.2725   19.0410  -11.7698 H         1 0EH         0.0265
    166 H41         2.4378   17.8969  -11.5611 H         1 0EH         0.0267
    167 H42         3.8175   17.3172  -10.5676 H         1 0EH         0.0267
    168 H43         3.7606   17.3713  -13.6331 H         1 0EH         0.0285
    169 H44         3.4357   15.9222  -12.6225 H         1 0EH         0.0285
    170 H45         5.7132   16.1530  -11.6049 H         1 0EH         0.0388
    171 H46         6.0334   17.5529  -12.6839 H         1 0EH         0.0388
    172 H47         5.5442   15.8037  -14.6828 H         1 0EH         0.0450
    173 H48         3.8052   23.7575  -16.0232 H         1 GLU         0.1889
    174 H49         4.3764   21.6398  -17.8872 H         1 GLU         0.0803
    175 H50         4.7595   23.5328  -19.5062 H         1 GLU         0.0330
    176 H51         4.5109   24.6729  -18.1406 H         1 GLU         0.0330
    177 H52         2.2637   23.6340  -17.7581 H         1 GLU         0.0433
    178 H53         2.5191   22.6382  -19.2311 H         1 GLU         0.0433
    179 H54         6.4373   24.1524  -16.3474 H         1 TYR         0.1885
    180 H55         8.8056   23.4166  -17.7603 H         1 TYR         0.0821
    181 H56         9.9784   24.3418  -15.6510 H         1 TYR         0.0453
    182 H57         8.3233   24.7127  -15.0597 H         1 TYR         0.0453
    183 H58         7.7529   26.9286  -15.3363 H         1 TYR         0.0530
    184 H59        10.1566   25.0692  -18.3329 H         1 TYR         0.0530
    185 H60         7.7667   29.0186  -16.6233 H         1 TYR         0.0525
    186 H61        10.1669   27.1605  -19.6216 H         1 TYR         0.0525
    187 H62         8.5691   29.2158  -19.7758 H         1 TYR         0.2458
    188 H63         7.4438   22.2058  -14.6593 H         1 TRP         0.1884
    189 H64         9.7699   20.5912  -14.1269 H         1 TRP         0.0815
    190 H65         6.9791   19.9653  -13.1022 H         1 TRP         0.0397
    191 H66         7.9332   21.3494  -12.4693 H         1 TRP         0.0397
    192 H67         7.7271   17.5238  -12.3516 H         1 TRP         0.0795
    193 H68         9.4891   16.5965  -10.6789 H         1 TRP         0.2216
    194 H69        10.2650   21.8802  -11.4408 H         1 TRP         0.0540
    195 H70        11.6395   17.6343   -9.1888 H         1 TRP         0.0541
    196 H71        12.1753   21.8308   -9.8663 H         1 TRP         0.0510
    197 H72        12.8420   19.7366   -8.7564 H         1 TRP         0.0530
    198 H73         6.7013   20.0270  -15.8259 H         1 ALA         0.1883
    199 H74         6.9092   17.2048  -16.0866 H         1 ALA         0.0797
    200 H75         5.4326   17.4797  -18.0544 H         1 ALA         0.0277
    201 H76         5.7394   19.2495  -18.0341 H         1 ALA         0.0277
    202 H77         4.8749   18.4720  -16.6648 H         1 ALA         0.0277
    203 H78         8.3001   19.8761  -17.9957 H         1 GLN         0.1883
    204 H79         9.4575   18.2627  -20.0602 H         1 GLN         0.0801
    205 H80        11.0315   20.1906  -20.3587 H         1 GLN         0.0337
    206 H81        10.3399   20.9335  -18.8767 H         1 GLN         0.0337
    207 H82         8.1719   21.1277  -19.9553 H         1 GLN         0.0504
    208 H83         8.8090   20.3148  -21.4250 H         1 GLN         0.0504
    209 H84        10.8595   23.7908  -20.7347 H         1 GLN         0.1814
    210 H85        10.8841   22.4725  -19.6115 H         1 GLN         0.1814
    211 H86        10.5992   19.3592  -16.8805 H         1 2JH         0.1883
    212 H87        13.2953   18.4033  -17.2077 H         1 2JH         0.0800
    213 H88        11.7345   18.8355  -14.6321 H         1 2JH         0.0315
    214 H89        12.4827   20.1590  -15.5889 H         1 2JH         0.0315
    215 H90        14.6808   19.0316  -15.2537 H         1 2JH         0.0303
    216 H91        13.2737   20.4157  -13.0196 H         1 2JH         0.0268
    217 H92        15.0340   20.3917  -13.3766 H         1 2JH         0.0268
    218 H93        14.8331   17.0148  -14.0228 H         1 2JH         0.0268
    219 H94        13.0742   17.0626  -13.6613 H         1 2JH         0.0268
    220 H95        13.5315   18.3931  -11.6328 H         1 2JH         0.0265
    221 H96        15.2889   18.3594  -12.0033 H         1 2JH         0.0265
    222 H97        10.3299   17.0747  -15.7275 H         1 MK8         0.1839
    223 H98         8.7179   15.3345  -15.9933 H         1 MK8         0.0279
    224 H99         9.1432   15.7467  -14.2975 H         1 MK8         0.0279
    225 H100        6.7945   14.0295  -15.4902 H         1 MK8         0.0388
    226 H101        6.8479   12.6917  -14.2928 H         1 MK8         0.0388
    227 H102        7.1781   14.5162  -12.4409 H         1 MK8         0.0450
    228 H103        9.1791   13.4175  -13.6596 H         1 MK8         0.0284
    229 H104        9.0391   12.8868  -15.3700 H         1 MK8         0.0284
    230 H105       11.4351   13.5060  -14.0693 H         1 MK8         0.0242
    231 H106       11.4573   15.1868  -13.4362 H         1 MK8         0.0242
    232 H107       12.7164   14.6482  -14.5986 H         1 MK8         0.0242
    233 H108       10.0133   15.4088  -17.8625 H         1 SER         0.1890
    234 H109       10.1600   12.7548  -18.8836 H         1 SER         0.0825
    235 H110       10.0126   13.8898  -21.1358 H         1 SER         0.0606
    236 H111       10.1694   15.4685  -20.2933 H         1 SER         0.0606
    237 H112        8.2602   14.8960  -19.1259 H         1 SER         0.2097
    238 H113       12.5481   15.3164  -18.5978 H         1 ALA         0.1883
    239 H114       14.3890   14.1721  -20.5335 H         1 ALA         0.0797
    240 H115       15.9953   15.8179  -19.6067 H         1 ALA         0.0277
    241 H116       14.8359   16.2015  -18.2894 H         1 ALA         0.0277
    242 H117       14.4148   16.5782  -19.9946 H         1 ALA         0.0277
    243 H118       14.3142   14.3526  -16.9455 H         1 ALA         0.1875
    244 H119       16.6151   12.6426  -16.6290 H         1 ALA         0.0723
    245 H120       15.9466   12.5926  -14.2413 H         1 ALA         0.0270
    246 H121       14.3860   13.3740  -14.6660 H         1 ALA         0.0270
    247 H122       15.9289   14.2634  -14.9007 H         1 ALA         0.0270
@<TRIPOS>BOND
     1    1    2 2  
     2    1    3 1  
     3    4    1 am 
     4    5    4 1  
     5    6    5 1  
     6    5    8 1  
     7    6    7 2  
     8   12    6 am 
     9    8    9 1  
    10    9   10 1  
    11    9   11 1  
    12   13   12 1  
    13   14   13 1  
    14   13   16 1  
    15   14   15 2  
    16   19   14 am 
    17   16   17 1  
    18   16   18 1  
    19   20   19 1  
    20   21   20 1  
    21   20   23 1  
    22   21   22 2  
    23   35   21 am 
    24   23   24 1  
    25   24   25 ar 
    26   24   26 ar 
    27   25   27 ar 
    28   26   28 ar 
    29   27   29 ar 
    30   28   29 ar 
    31   31   30 2  
    32   31   32 1  
    33   42   31 am 
    34   32   33 1  
    35   32   34 1  
    36   32   35 1  
    37   34   36 1  
    38   36   37 1  
    39   37   38 1  
    40   38   39 1  
    41   39   40 1  
    42   40   41 1  
    43   41  106 2  
    44   43   42 1  
    45   44   43 1  
    46   43   46 1  
    47   44   45 2  
    48   51   44 am 
    49   46   47 1  
    50   47   48 1  
    51   48   49 ar 
    52   48   50 ar 
    53   52   51 1  
    54   53   52 1  
    55   52   55 1  
    56   53   54 2  
    57   63   53 am 
    58   55   56 1  
    59   56   57 ar 
    60   56   58 ar 
    61   57   59 ar 
    62   58   60 ar 
    63   59   61 ar 
    64   60   61 ar 
    65   61   62 1  
    66   64   63 1  
    67   65   64 1  
    68   64   67 1  
    69   65   66 2  
    70   77   65 am 
    71   67   68 1  
    72   68   69 2  
    73   68   70 1  
    74   69   71 1  
    75   70   72 ar 
    76   70   73 ar 
    77   72   71 1  
    78   72   74 ar 
    79   73   75 ar 
    80   74   76 ar 
    81   75   76 ar 
    82   78   77 1  
    83   79   78 1  
    84   78   81 1  
    85   79   80 2  
    86   82   79 am 
    87   83   82 1  
    88   84   83 1  
    89   83   86 1  
    90   84   85 2  
    91   91   84 am 
    92   86   87 1  
    93   87   88 1  
    94   88   89 2  
    95   88   90 am 
    96   92   91 1  
    97   92   93 1  
    98   94   92 1  
    99   93   96 1  
   100   94   95 2  
   101  101   94 am 
   102   96   97 1  
   103   96   98 1  
   104   97   99 1  
   105   98   99 1  
   106  100  102 2  
   107  103  100 1  
   108  100  109 am 
   109  101  103 1  
   110  103  104 1  
   111  103  108 1  
   112  104  107 1  
   113  106  105 1  
   114  105  107 1  
   115  109  110 1  
   116  110  111 1  
   117  110  113 1  
   118  111  112 2  
   119  111  115 am 
   120  113  114 1  
   121  115  116 1  
   122  116  117 1  
   123  116  119 1  
   124  117  118 2  
   125  117  120 am 
   126  120  121 1  
   127  121  122 1  
   128  121  124 1  
   129  122  123 ar 
   130  122  125 ar 
   131    3  126 1  
   132    3  127 1  
   133    3  128 1  
   134    4  129 1  
   135    5  130 1  
   136    8  131 1  
   137    8  132 1  
   138    9  133 1  
   139   10  134 1  
   140   10  135 1  
   141   10  136 1  
   142   11  137 1  
   143   11  138 1  
   144   11  139 1  
   145   12  140 1  
   146   13  141 1  
   147   16  142 1  
   148   17  143 1  
   149   18  144 1  
   150   18  145 1  
   151   18  146 1  
   152   19  147 1  
   153   20  148 1  
   154   23  149 1  
   155   23  150 1  
   156   25  151 1  
   157   26  152 1  
   158   27  153 1  
   159   28  154 1  
   160   29  155 1  
   161   33  156 1  
   162   33  157 1  
   163   33  158 1  
   164   34  159 1  
   165   34  160 1  
   166   35  161 1  
   167   36  162 1  
   168   36  163 1  
   169   37  164 1  
   170   37  165 1  
   171   38  166 1  
   172   38  167 1  
   173   39  168 1  
   174   39  169 1  
   175   40  170 1  
   176   40  171 1  
   177   41  172 1  
   178   42  173 1  
   179   43  174 1  
   180   46  175 1  
   181   46  176 1  
   182   47  177 1  
   183   47  178 1  
   184   51  179 1  
   185   52  180 1  
   186   55  181 1  
   187   55  182 1  
   188   57  183 1  
   189   58  184 1  
   190   59  185 1  
   191   60  186 1  
   192   62  187 1  
   193   63  188 1  
   194   64  189 1  
   195   67  190 1  
   196   67  191 1  
   197   69  192 1  
   198   71  193 1  
   199   73  194 1  
   200   74  195 1  
   201   75  196 1  
   202   76  197 1  
   203   77  198 1  
   204   78  199 1  
   205   81  200 1  
   206   81  201 1  
   207   81  202 1  
   208   82  203 1  
   209   83  204 1  
   210   86  205 1  
   211   86  206 1  
   212   87  207 1  
   213   87  208 1  
   214   90  209 1  
   215   90  210 1  
   216   91  211 1  
   217   92  212 1  
   218   93  213 1  
   219   93  214 1  
   220   96  215 1  
   221   97  216 1  
   222   97  217 1  
   223   98  218 1  
   224   98  219 1  
   225   99  220 1  
   226   99  221 1  
   227  101  222 1  
   228  104  223 1  
   229  104  224 1  
   230  105  225 1  
   231  105  226 1  
   232  106  227 1  
   233  107  228 1  
   234  107  229 1  
   235  108  230 1  
   236  108  231 1  
   237  108  232 1  
   238  109  233 1  
   239  110  234 1  
   240  113  235 1  
   241  113  236 1  
   242  114  237 1  
   243  115  238 1  
   244  116  239 1  
   245  119  240 1  
   246  119  241 1  
   247  119  242 1  
   248  120  243 1  
   249  121  244 1  
   250  124  245 1  
   251  124  246 1  
   252  124  247 1  
@<TRIPOS>SUBSTRUCTURE
     1 ACE         1

