4n5t_ligand
  -I-interpret- 

248253  0  0  0  0  0  0  0  0999 V2000
    5.4730   30.8430  -19.5980 C   0  0  0  0  0
    4.2780   31.1270  -19.6390 O   0  0  0  0  0
    6.5330   31.8860  -19.9060 C   0  0  0  0  0
    5.9080   29.6280  -19.2850 N   0  0  0  0  0
    4.9960   28.5240  -19.0160 C   0  0  0  0  0
    4.6190   28.4700  -17.5350 C   0  0  0  0  0
    5.0960   29.2710  -16.7350 O   0  0  0  0  0
    5.6500   27.2040  -19.4250 C   0  0  0  0  0
    6.1210   27.1280  -20.8800 C   0  0  0  0  0
    6.8030   25.7910  -21.1390 C   0  0  0  0  0
    4.9270   27.3110  -21.8010 C   0  0  0  0  0
    3.7550   27.5270  -17.1790 N   0  0  0  0  0
    3.4190   27.3080  -15.7770 C   0  0  0  0  0
    4.4680   26.4010  -15.1540 C   0  0  0  0  0
    5.1830   25.6900  -15.8630 O   0  0  0  0  0
    2.0450   26.6330  -15.6160 C   0  0  0  0  0
    2.0890   25.3110  -16.1640 O   0  0  0  0  0
    0.9670   27.4480  -16.3330 C   0  0  0  0  0
    4.5700   26.4180  -13.8270 N   0  0  0  0  0
    5.5330   25.5460  -13.1750 C   0  0  0  0  0
    5.2900   24.0820  -13.5380 C   0  0  0  0  0
    6.2350   23.3400  -13.8180 O   0  0  0  0  0
    5.4860   25.7100  -11.6490 C   0  0  0  0  0
    6.3140   24.6920  -10.9250 C   0  0  0  0  0
    7.7010   24.7880  -10.9240 C   0  0  0  0  0
    5.7200   23.5880  -10.3320 C   0  0  0  0  0
    8.4830   23.7990  -10.3510 C   0  0  0  0  0
    6.4970   22.5910   -9.7540 C   0  0  0  0  0
    7.8840   22.6950   -9.7670 C   0  0  0  0  0
    4.9390   20.9020  -15.4160 O   0  0  0  0  0
    4.3440   21.9660  -15.2630 C   0  0  0  0  0
    3.6720   22.3030  -13.9390 C   0  0  0  0  0
    2.1580   22.1730  -14.0900 C   0  0  0  0  0
    4.1210   21.4180  -12.7730 C   0  0  0  0  0
    4.0240   23.6630  -13.5380 N   0  0  0  0  0
    3.6140   19.9630  -12.8170 C   0  0  0  0  0
    4.1890   19.1670  -11.6280 C   0  0  0  0  0
    3.5310   17.7810  -11.5230 C   0  0  0  0  0
    3.9810   16.8760  -12.6760 C   0  0  0  0  0
    5.4880   16.6030  -12.5830 C   0  0  0  0  0
    5.9310   15.6600  -13.6750 C   0  0  0  0  0
    4.2420   22.8800  -16.2210 N   0  0  0  0  0
    4.7610   22.6170  -17.5600 C   0  0  0  0  0
    6.2850   22.5490  -17.5740 C   0  0  0  0  0
    6.8580   21.6850  -18.2320 O   0  0  0  0  0
    4.2600   23.6780  -18.5370 C   0  0  0  0  0
    2.7520   23.5960  -18.7430 C   0  0  0  0  0
    2.1970   24.7140  -19.5950 C   0  0  0  0  0
    2.5730   25.8850  -19.3790 O   0  0  0  0  0
    1.3700   24.4190  -20.4850 O   0  0  0  0  0
    6.9410   23.4400  -16.8360 N   0  0  0  0  0
    8.3990   23.3780  -16.7390 C   0  0  0  0  0
    8.8820   22.0940  -16.0840 C   0  0  0  0  0
    9.8400   21.4720  -16.5520 O   0  0  0  0  0
    8.9460   24.5690  -15.9550 C   0  0  0  0  0
    8.9520   25.8490  -16.7410 C   0  0  0  0  0
    8.2860   26.9740  -16.2790 C   0  0  0  0  0
    9.6280   25.9360  -17.9530 C   0  0  0  0  0
    8.2910   28.1470  -16.9980 C   0  0  0  0  0
    9.6360   27.1070  -18.6780 C   0  0  0  0  0
    8.9670   28.2070  -18.1980 C   0  0  0  0  0
    8.9630   29.3750  -18.9260 O   0  0  0  0  0
    8.2340   21.6930  -14.9950 N   0  0  0  0  0
    8.6870   20.5000  -14.2970 C   0  0  0  0  0
    8.4310   19.2510  -15.1310 C   0  0  0  0  0
    9.2250   18.3120  -15.1180 O   0  0  0  0  0
    7.9940   20.3590  -12.9440 C   0  0  0  0  0
    8.7370   19.4330  -12.0390 C   0  0  0  0  0
    8.5150   18.0960  -11.8640 C   0  0  0  0  0
    9.8590   19.7660  -11.2130 C   0  0  0  0  0
    9.4350   17.5800  -10.9800 N   0  0  0  0  0
   10.2680   18.5870  -10.5650 C   0  0  0  0  0
   10.5550   20.9540  -10.9580 C   0  0  0  0  0
   11.3410   18.5550   -9.6770 C   0  0  0  0  0
   11.6250   20.9200  -10.0730 C   0  0  0  0  0
   12.0040   19.7290   -9.4440 C   0  0  0  0  0
    7.3210   19.2430  -15.8610 N   0  0  0  0  0
    6.9950   18.1050  -16.7130 C   0  0  0  0  0
    8.1030   17.8860  -17.7440 C   0  0  0  0  0
    8.4540   16.7450  -18.0580 O   0  0  0  0  0
    5.6690   18.3430  -17.4150 C   0  0  0  0  0
    8.6520   18.9790  -18.2630 N   0  0  0  0  0
    9.7600   18.9010  -19.2170 C   0  0  0  0  0
   10.9900   18.3070  -18.5520 C   0  0  0  0  0
   11.7100   17.5030  -19.1450 O   0  0  0  0  0
   10.1260   20.2890  -19.7420 C   0  0  0  0  0
    9.0650   20.9670  -20.5770 C   0  0  0  0  0
    9.5370   22.3060  -21.1130 C   0  0  0  0  0
    9.0410   22.7960  -22.1280 O   0  0  0  0  0
   10.5070   22.9060  -20.4300 N   0  0  0  0  0
   11.2340   18.7210  -17.3160 N   0  0  0  0  0
   12.4020   18.2690  -16.5800 C   0  0  0  0  0
   12.5630   19.0990  -15.3060 C   0  0  0  0  0
   12.2570   16.7880  -16.2380 C   0  0  0  0  0
   13.2090   16.0170  -16.3680 O   0  0  0  0  0
   13.8650   18.9290  -14.5230 C   0  0  0  0  0
   14.1230   19.7790  -13.3080 C   0  0  0  0  0
   13.9970   17.6590  -13.7130 C   0  0  0  0  0
   14.2840   18.5000  -12.4280 C   0  0  0  0  0
   11.0020   14.1040  -16.6890 C   0  0  0  0  0
   11.0590   16.3960  -15.8160 N   0  0  0  0  0
   11.6330   13.0510  -16.5850 O   0  0  0  0  0
   10.7760   15.0050  -15.4780 C   0  0  0  0  0
    9.2910   15.0190  -15.1090 C   0  0  0  0  0
    7.2180   13.7000  -14.5300 C   0  0  0  0  0
    6.7840   14.6520  -13.4470 C   0  0  0  0  0
    8.7500   13.6600  -14.6430 C   0  0  0  0  0
   11.6580   14.5550  -14.3140 C   0  0  0  0  0
   10.4880   14.5290  -17.8380 N   0  0  0  0  0
   10.5970   13.7480  -19.0640 C   0  0  0  0  0
   12.0520   13.5700  -19.4790 C   0  0  0  0  0
   12.4060   12.5740  -20.1140 O   0  0  0  0  0
    9.8230   14.4290  -20.1960 C   0  0  0  0  0
    8.4300   14.4280  -19.9350 O   0  0  0  0  0
   12.8920   14.5380  -19.1230 N   0  0  0  0  0
   14.3040   14.4870  -19.4830 C   0  0  0  0  0
   15.0400   13.4780  -18.6100 C   0  0  0  0  0
   15.7240   12.5900  -19.1150 O   0  0  0  0  0
   14.9310   15.8670  -19.3330 C   0  0  0  0  0
   14.8920   13.6160  -17.2970 N   0  0  0  0  0
   15.5520   12.7190  -16.3570 C   0  0  0  0  0
   14.9300   11.3280  -16.4200 C   0  0  0  0  0
   15.6600   10.3750  -16.7680 O   0  0  0  0  0
   15.4460   13.2760  -14.9430 C   0  0  0  0  0
   13.7220   11.2080  -16.1250 O   0  0  0  0  0
    6.3930   32.2554  -20.9219 H   0  0  0  0  0
    6.4427   32.7129  -19.2016 H   0  0  0  0  0
    7.5214   31.4356  -19.8148 H   0  0  0  0  0
    6.9130   29.4623  -19.2312 H   0  0  0  0  0
    4.0876   28.6827  -19.5971 H   0  0  0  0  0
    4.8925   26.4299  -19.3021 H   0  0  0  0  0
    6.5385   27.0911  -18.8038 H   0  0  0  0  0
    6.8440   27.9202  -21.0746 H   0  0  0  0  0
    7.6634   25.6893  -20.4776 H   0  0  0  0  0
    6.0982   24.9819  -20.9474 H   0  0  0  0  0
    7.1337   25.7483  -22.1767 H   0  0  0  0  0
    4.1982   26.5233  -21.6099 H   0  0  0  0  0
    4.4708   28.2830  -21.6136 H   0  0  0  0  0
    5.2582   27.2575  -22.8381 H   0  0  0  0  0
    3.3199   26.9472  -17.8966 H   0  0  0  0  0
    3.3884   28.2805  -15.2857 H   0  0  0  0  0
    1.8022   26.5798  -14.5547 H   0  0  0  0  0
    1.2302   24.8945  -16.0612 H   0  0  0  0  0
    0.9251   28.4493  -15.9043 H   0  0  0  0  0
    1.2094   27.5153  -17.3936 H   0  0  0  0  0
    0.0011   26.9581  -16.2102 H   0  0  0  0  0
    3.9781   27.0370  -13.2730 H   0  0  0  0  0
    6.5209   25.8376  -13.5316 H   0  0  0  0  0
    4.4508   25.5817  -11.3329 H   0  0  0  0  0
    5.8857   26.6951  -11.4084 H   0  0  0  0  0
    8.1798   25.6541  -11.3808 H   0  0  0  0  0
    4.6335   23.5014  -10.3191 H   0  0  0  0  0
    9.5692   23.8893  -10.3596 H   0  0  0  0  0
    6.0195   21.7277   -9.2906 H   0  0  0  0  0
    8.4963   21.9119   -9.3200 H   0  0  0  0  0
    1.8106   22.8613  -14.8605 H   0  0  0  0  0
    1.9090   21.1508  -14.3751 H   0  0  0  0  0
    1.6775   22.4144  -13.1419 H   0  0  0  0  0
    3.7111   21.8640  -11.8668 H   0  0  0  0  0
    5.2090   21.3708  -12.8180 H   0  0  0  0  0
    3.2856   24.3058  -13.2519 H   0  0  0  0  0
    3.9374   19.4989  -13.7487 H   0  0  0  0  0
    2.5257   19.9608  -12.7568 H   0  0  0  0  0
    3.9907   19.7188  -10.7091 H   0  0  0  0  0
    5.2601   19.0349  -11.7808 H   0  0  0  0  0
    2.4487   17.9011  -11.5722 H   0  0  0  0  0
    3.8270   17.3219  -10.5797 H   0  0  0  0  0
    3.7675   17.3731  -13.6223 H   0  0  0  0  0
    3.4438   15.9295  -12.6155 H   0  0  0  0  0
    5.7034   16.1472  -11.6166 H   0  0  0  0  0
    6.0233   17.5459  -12.6947 H   0  0  0  0  0
    5.5438   15.8038  -14.6837 H   0  0  0  0  0
    3.7964   23.7751  -16.0192 H   0  0  0  0  0
    4.3906   21.6415  -17.8749 H   0  0  0  0  0
    4.7454   23.5127  -19.4989 H   0  0  0  0  0
    4.4954   24.6594  -18.1253 H   0  0  0  0  0
    2.2833   23.6690  -17.7616 H   0  0  0  0  0
    2.5426   22.6580  -19.2572 H   0  0  0  0  0
    1.2221   23.4705  -20.4811 H   0  0  0  0  0
    6.4272   24.1667  -16.3376 H   0  0  0  0  0
    8.7732   23.4041  -17.7624 H   0  0  0  0  0
    9.9785   24.3415  -15.6900 H   0  0  0  0  0
    8.2995   24.7177  -15.0901 H   0  0  0  0  0
    7.7499   26.9283  -15.3310 H   0  0  0  0  0
   10.1595   25.0644  -18.3350 H   0  0  0  0  0
    7.7638   29.0234  -16.6212 H   0  0  0  0  0
   10.1698   27.1608  -19.6268 H   0  0  0  0  0
    9.4749   29.2521  -19.7288 H   0  0  0  0  0
    7.4280   22.2160  -14.6526 H   0  0  0  0  0
    9.7597   20.6057  -14.1349 H   0  0  0  0  0
    6.9964   19.9519  -13.1091 H   0  0  0  0  0
    7.9543   21.3415  -12.4737 H   0  0  0  0  0
    7.7264   17.5233  -12.3521 H   0  0  0  0  0
   10.2634   21.8853  -11.4435 H   0  0  0  0  0
   11.6412   17.6292   -9.1861 H   0  0  0  0  0
   12.1783   21.8358   -9.8652 H   0  0  0  0  0
   12.8466   19.7366   -8.7526 H   0  0  0  0  0
    6.6889   20.0427  -15.8252 H   0  0  0  0  0
    6.9105   17.2129  -16.0924 H   0  0  0  0  0
    4.8831   18.4707  -16.6706 H   0  0  0  0  0
    5.7400   19.2415  -18.0280 H   0  0  0  0  0
    5.4358   17.4870  -18.0483 H   0  0  0  0  0
    8.2931   19.8940  -17.9904 H   0  0  0  0  0
    9.4359   18.2688  -20.0437 H   0  0  0  0  0
   10.9940   20.1583  -20.3882 H   0  0  0  0  0
   10.2845   20.9204  -18.8678 H   0  0  0  0  0
    8.1924   21.1394  -19.9469 H   0  0  0  0  0
    8.8331   20.3220  -21.4245 H   0  0  0  0  0
   10.8682   23.8074  -20.7421 H   0  0  0  0  0
   10.8900   22.4650  -19.5938 H   0  0  0  0  0
   10.5865   19.3720  -16.8718 H   0  0  0  0  0
   13.2912   18.3989  -17.1968 H   0  0  0  0  0
   11.7689   18.7702  -14.6357 H   0  0  0  0  0
   12.5436   20.1407  -15.6264 H   0  0  0  0  0
   14.4902   19.1019  -15.3990 H   0  0  0  0  0
   13.4011   20.5437  -13.0214 H   0  0  0  0  0
   14.9193   20.5230  -13.3293 H   0  0  0  0  0
   14.7009   16.8873  -14.0248 H   0  0  0  0  0
   13.1881   16.9284  -13.7138 H   0  0  0  0  0
   13.7021   18.3609  -11.5169 H   0  0  0  0  0
   15.1785   18.3326  -11.8281 H   0  0  0  0  0
   10.3153   17.0882  -15.7258 H   0  0  0  0  0
    8.7377   15.2966  -16.0062 H   0  0  0  0  0
    9.1706   15.7162  -14.2799 H   0  0  0  0  0
    6.8051   14.0383  -15.4803 H   0  0  0  0  0
    6.8584   12.7010  -14.2834 H   0  0  0  0  0
    7.1784   14.5161  -12.4400 H   0  0  0  0  0
    9.1711   13.4280  -13.6648 H   0  0  0  0  0
    9.0315   12.8987  -15.3705 H   0  0  0  0  0
   11.4089   13.5280  -14.0470 H   0  0  0  0  0
   12.7054   14.6108  -14.6107 H   0  0  0  0  0
   11.4866   15.2063  -13.4570 H   0  0  0  0  0
   10.0038   15.4264  -17.8630 H   0  0  0  0  0
   10.1701   12.7641  -18.8695 H   0  0  0  0  0
   10.0047   13.8817  -21.1210 H   0  0  0  0  0
   10.1616   15.4618  -20.2776 H   0  0  0  0  0
    7.9697   14.8598  -20.6584 H   0  0  0  0  0
   12.5413   15.3320  -18.5873 H   0  0  0  0  0
   14.3875   14.1713  -20.5229 H   0  0  0  0  0
   14.4186   16.5707  -19.9890 H   0  0  0  0  0
   14.8361   16.1973  -18.2986 H   0  0  0  0  0
   15.9855   15.8170  -19.6045 H   0  0  0  0  0
   14.3027   14.3673  -16.9384 H   0  0  0  0  0
   16.6042   12.6409  -16.6305 H   0  0  0  0  0
   16.5458   10.7000  -16.9451 H   0  0  0  0  0
   15.9248   14.2544  -14.9024 H   0  0  0  0  0
   14.3952   13.3727  -14.6698 H   0  0  0  0  0
   15.9424   12.5981  -14.2487 H   0  0  0  0  0
  1  2  2  0  0  0
  1  3  1  0  0  0
  4  1  1  0  0  0
  5  4  1  0  0  0
  6  5  1  0  0  0
  5  8  1  0  0  0
  6  7  2  0  0  0
 12  6  1  0  0  0
  8  9  1  0  0  0
  9 10  1  0  0  0
  9 11  1  0  0  0
 13 12  1  0  0  0
 14 13  1  0  0  0
 13 16  1  0  0  0
 14 15  2  0  0  0
 19 14  1  0  0  0
 16 17  1  0  0  0
 16 18  1  0  0  0
 20 19  1  0  0  0
 21 20  1  0  0  0
 20 23  1  0  0  0
 21 22  2  0  0  0
 35 21  1  0  0  0
 23 24  1  0  0  0
 24 25  4  0  0  0
 24 26  4  0  0  0
 25 27  4  0  0  0
 26 28  4  0  0  0
 27 29  4  0  0  0
 28 29  4  0  0  0
 31 30  2  0  0  0
 31 32  1  0  0  0
 42 31  1  0  0  0
 32 33  1  0  0  0
 32 34  1  0  0  0
 32 35  1  0  0  0
 34 36  1  0  0  0
 36 37  1  0  0  0
 37 38  1  0  0  0
 38 39  1  0  0  0
 39 40  1  0  0  0
 40 41  1  0  0  0
 41106  2  0  0  0
 43 42  1  0  0  0
 44 43  1  0  0  0
 43 46  1  0  0  0
 44 45  2  0  0  0
 51 44  1  0  0  0
 46 47  1  0  0  0
 47 48  1  0  0  0
 48 49  2  0  0  0
 48 50  1  0  0  0
 52 51  1  0  0  0
 53 52  1  0  0  0
 52 55  1  0  0  0
 53 54  2  0  0  0
 63 53  1  0  0  0
 55 56  1  0  0  0
 56 57  4  0  0  0
 56 58  4  0  0  0
 57 59  4  0  0  0
 58 60  4  0  0  0
 59 61  4  0  0  0
 60 61  4  0  0  0
 61 62  1  0  0  0
 64 63  1  0  0  0
 65 64  1  0  0  0
 64 67  1  0  0  0
 65 66  2  0  0  0
 77 65  1  0  0  0
 67 68  1  0  0  0
 68 69  4  0  0  0
 68 70  4  0  0  0
 69 71  4  0  0  0
 70 72  4  0  0  0
 70 73  4  0  0  0
 72 71  4  0  0  0
 72 74  4  0  0  0
 73 75  4  0  0  0
 74 76  4  0  0  0
 75 76  4  0  0  0
 78 77  1  0  0  0
 79 78  1  0  0  0
 78 81  1  0  0  0
 79 80  2  0  0  0
 82 79  1  0  0  0
 83 82  1  0  0  0
 84 83  1  0  0  0
 83 86  1  0  0  0
 84 85  2  0  0  0
 91 84  1  0  0  0
 86 87  1  0  0  0
 87 88  1  0  0  0
 88 89  2  0  0  0
 88 90  1  0  0  0
 92 91  1  0  0  0
 92 93  1  0  0  0
 94 92  1  0  0  0
 93 96  1  0  0  0
 94 95  2  0  0  0
101 94  1  0  0  0
 96 97  1  0  0  0
 96 98  1  0  0  0
 97 99  1  0  0  0
 98 99  1  0  0  0
100102  2  0  0  0
103100  1  0  0  0
100109  1  0  0  0
101103  1  0  0  0
103104  1  0  0  0
103108  1  0  0  0
104107  1  0  0  0
106105  1  0  0  0
105107  1  0  0  0
109110  1  0  0  0
110111  1  0  0  0
110113  1  0  0  0
111112  2  0  0  0
111115  1  0  0  0
113114  1  0  0  0
115116  1  0  0  0
116117  1  0  0  0
116119  1  0  0  0
117118  2  0  0  0
117120  1  0  0  0
120121  1  0  0  0
121122  1  0  0  0
121124  1  0  0  0
122123  1  0  0  0
122125  2  0  0  0
  3126  1  0  0  0
  3127  1  0  0  0
  3128  1  0  0  0
  4129  1  0  0  0
  5130  1  0  0  0
  8131  1  0  0  0
  8132  1  0  0  0
  9133  1  0  0  0
 10134  1  0  0  0
 10135  1  0  0  0
 10136  1  0  0  0
 11137  1  0  0  0
 11138  1  0  0  0
 11139  1  0  0  0
 12140  1  0  0  0
 13141  1  0  0  0
 16142  1  0  0  0
 17143  1  0  0  0
 18144  1  0  0  0
 18145  1  0  0  0
 18146  1  0  0  0
 19147  1  0  0  0
 20148  1  0  0  0
 23149  1  0  0  0
 23150  1  0  0  0
 25151  1  0  0  0
 26152  1  0  0  0
 27153  1  0  0  0
 28154  1  0  0  0
 29155  1  0  0  0
 33156  1  0  0  0
 33157  1  0  0  0
 33158  1  0  0  0
 34159  1  0  0  0
 34160  1  0  0  0
 35161  1  0  0  0
 36162  1  0  0  0
 36163  1  0  0  0
 37164  1  0  0  0
 37165  1  0  0  0
 38166  1  0  0  0
 38167  1  0  0  0
 39168  1  0  0  0
 39169  1  0  0  0
 40170  1  0  0  0
 40171  1  0  0  0
 41172  1  0  0  0
 42173  1  0  0  0
 43174  1  0  0  0
 46175  1  0  0  0
 46176  1  0  0  0
 47177  1  0  0  0
 47178  1  0  0  0
 50179  1  0  0  0
 51180  1  0  0  0
 52181  1  0  0  0
 55182  1  0  0  0
 55183  1  0  0  0
 57184  1  0  0  0
 58185  1  0  0  0
 59186  1  0  0  0
 60187  1  0  0  0
 62188  1  0  0  0
 63189  1  0  0  0
 64190  1  0  0  0
 67191  1  0  0  0
 67192  1  0  0  0
 69193  1  0  0  0
 73194  1  0  0  0
 74195  1  0  0  0
 75196  1  0  0  0
 76197  1  0  0  0
 77198  1  0  0  0
 78199  1  0  0  0
 81200  1  0  0  0
 81201  1  0  0  0
 81202  1  0  0  0
 82203  1  0  0  0
 83204  1  0  0  0
 86205  1  0  0  0
 86206  1  0  0  0
 87207  1  0  0  0
 87208  1  0  0  0
 90209  1  0  0  0
 90210  1  0  0  0
 91211  1  0  0  0
 92212  1  0  0  0
 93213  1  0  0  0
 93214  1  0  0  0
 96215  1  0  0  0
 97216  1  0  0  0
 97217  1  0  0  0
 98218  1  0  0  0
 98219  1  0  0  0
 99220  1  0  0  0
 99221  1  0  0  0
101222  1  0  0  0
104223  1  0  0  0
104224  1  0  0  0
105225  1  0  0  0
105226  1  0  0  0
106227  1  0  0  0
107228  1  0  0  0
107229  1  0  0  0
108230  1  0  0  0
108231  1  0  0  0
108232  1  0  0  0
109233  1  0  0  0
110234  1  0  0  0
113235  1  0  0  0
113236  1  0  0  0
114237  1  0  0  0
115238  1  0  0  0
116239  1  0  0  0
119240  1  0  0  0
119241  1  0  0  0
119242  1  0  0  0
120243  1  0  0  0
121244  1  0  0  0
123245  1  0  0  0
124246  1  0  0  0
124247  1  0  0  0
124248  1  0  0  0
M  END
$$$$
