4hbn_ligand
  -I-interpret- 

 34 37  0  0  0  0  0  0  0  0999 V2000
  -26.2400   -4.7880   44.7490 P   0  0  0  0  0
  -26.3260   -5.3780   46.1410 O   0  0  0  0  0
  -24.8340   -4.3430   44.4090 O   0  0  0  0  0
  -26.7390   -5.8510   43.6510 O   0  0  0  0  0
  -28.1170   -6.0420   43.3580 C   0  0  0  0  0
  -28.6530   -4.6390   43.1590 C   0  0  0  0  0
  -30.0320   -4.6220   42.8360 O   0  0  0  0  0
  -28.5980   -3.8790   44.4650 C   0  0  0  0  0
  -27.2450   -3.5320   44.6750 O   0  0  0  0  0
  -29.5370   -2.7220   44.2140 C   0  0  0  0  0
  -28.8350   -1.6760   43.5420 O   0  0  0  0  0
  -30.5390   -3.3660   43.2670 C   0  0  0  0  0
  -31.7600   -3.6720   44.0250 N   0  0  0  0  0
  -31.8650   -4.5560   45.0250 C   0  0  0  0  0
  -33.1330   -4.5890   45.5020 N   0  0  0  0  0
  -33.8590   -3.7110   44.7820 C   0  0  0  0  0
  -35.2700   -3.2470   44.7620 C   0  0  0  0  0
  -36.1780   -3.7590   45.6300 N   0  0  0  0  0
  -35.6130   -2.3210   43.8360 N   0  0  0  0  0
  -34.7030   -1.8440   42.9580 C   0  0  0  0  0
  -33.4090   -2.2140   42.9100 N   0  0  0  0  0
  -32.9420   -3.1200   43.7940 C   0  0  0  0  0
  -27.2304   -5.6471   46.3180 H   0  0  0  0  0
  -28.6375   -6.5716   44.1559 H   0  0  0  0  0
  -28.2674   -6.6682   42.4786 H   0  0  0  0  0
  -28.0461   -4.2110   42.3611 H   0  0  0  0  0
  -28.9064   -4.4017   45.3704 H   0  0  0  0  0
  -29.9760   -2.2814   45.1091 H   0  0  0  0  0
  -29.4326   -0.9417   43.3832 H   0  0  0  0  0
  -30.7240   -2.6945   42.4285 H   0  0  0  0  0
  -31.0440   -5.1650   45.4032 H   0  0  0  0  0
  -35.8943   -4.4694   46.3047 H   0  0  0  0  0
  -37.1444   -3.4336   45.6080 H   0  0  0  0  0
  -35.0422   -1.1035   42.2336 H   0  0  0  0  0
  1  2  1  0  0  0
  1  3  2  0  0  0
  1  4  1  0  0  0
  1  9  1  0  0  0
  4  5  1  0  0  0
  5  6  1  0  0  0
  6  7  1  0  0  0
  6  8  1  0  0  0
  7 12  1  0  0  0
  8  9  1  0  0  0
  8 10  1  0  0  0
 10 11  1  0  0  0
 10 12  1  0  0  0
 12 13  1  0  0  0
 13 14  4  0  0  0
 13 22  4  0  0  0
 14 15  4  0  0  0
 15 16  4  0  0  0
 16 17  4  0  0  0
 16 22  4  0  0  0
 17 18  1  0  0  0
 17 19  4  0  0  0
 19 20  4  0  0  0
 20 21  4  0  0  0
 21 22  4  0  0  0
  2 23  1  0  0  0
  5 24  1  0  0  0
  5 25  1  0  0  0
  6 26  1  0  0  0
  8 27  1  0  0  0
 10 28  1  0  0  0
 11 29  1  0  0  0
 12 30  1  0  0  0
 14 31  1  0  0  0
 18 32  1  0  0  0
 18 33  1  0  0  0
 20 34  1  0  0  0
M  END
$$$$
