### 
### Created by X-TOOL on Mon Sep 10 21:13:16 2018
### 

@<TRIPOS>MOLECULE
4hbn_ligand
   33    36     1     0     0
SMALL
GAST_HUCK


@<TRIPOS>ATOM
      1 P         -26.2400   -4.7880   44.7490 P.3       1 CMP         0.2557
      2 O1P       -26.3260   -5.3780   46.1410 O.co2     1 CMP        -0.6177
      3 O2P       -24.8340   -4.3430   44.4090 O.co2     1 CMP        -0.6177
      4 O5'       -26.7390   -5.8510   43.6510 O.3       1 CMP        -0.2514
      5 C5'       -28.1170   -6.0420   43.3580 C.3       1 CMP         0.1128
      6 C4'       -28.6530   -4.6390   43.1590 C.3       1 CMP         0.1242
      7 O4'       -30.0320   -4.6220   42.8360 O.3       1 CMP        -0.3360
      8 C3'       -28.5980   -3.8790   44.4650 C.3       1 CMP         0.1540
      9 O3'       -27.2450   -3.5320   44.6750 O.3       1 CMP        -0.2453
     10 C2'       -29.5370   -2.7220   44.2140 C.3       1 CMP         0.1439
     11 O2'       -28.8350   -1.6760   43.5420 O.3       1 CMP        -0.3832
     12 C1'       -30.5390   -3.3660   43.2670 C.3       1 CMP         0.2014
     13 N9        -31.7600   -3.6720   44.0250 N.pl3     1 CMP        -0.1919
     14 C8        -31.8650   -4.5560   45.0250 C.2       1 CMP         0.1123
     15 N7        -33.1330   -4.5890   45.5020 N.2       1 CMP        -0.2958
     16 C5        -33.8590   -3.7110   44.7820 C.ar      1 CMP         0.1045
     17 C6        -35.2700   -3.2470   44.7620 C.ar      1 CMP         0.1298
     18 N6        -36.1780   -3.7590   45.6300 N.pl3     1 CMP        -0.3152
     19 N1        -35.6130   -2.3210   43.8360 N.ar      1 CMP        -0.2698
     20 C2        -34.7030   -1.8440   42.9580 C.ar      1 CMP         0.0533
     21 N3        -33.4090   -2.2140   42.9100 N.ar      1 CMP        -0.2714
     22 C4        -32.9420   -3.1200   43.7940 C.ar      1 CMP         0.1613
     23 H1        -28.6284   -6.5398   44.1950 H         1 CMP         0.0647
     24 H2        -28.2421   -6.6406   42.4437 H         1 CMP         0.0647
     25 H3        -28.0660   -4.1326   42.3786 H         1 CMP         0.0655
     26 H4        -28.9569   -4.4834   45.3111 H         1 CMP         0.0712
     27 H5        -30.0067   -2.3492   45.1362 H         1 CMP         0.0680
     28 H6        -28.1101   -1.3846   44.0824 H         1 CMP         0.2101
     29 H7        -30.7496   -2.7052   42.4132 H         1 CMP         0.0996
     30 H8        -31.0447   -5.1645   45.4029 H         1 CMP         0.1349
     31 H9        -37.1539   -3.4304   45.6078 H         1 CMP         0.1820
     32 H10       -35.8915   -4.4764   46.3113 H         1 CMP         0.1820
     33 H11       -35.0403   -1.1076   42.2376 H         1 CMP         0.0996
@<TRIPOS>BOND
     1    1    2 ar 
     2    1    3 ar 
     3    1    4 1  
     4    1    9 1  
     5    4    5 1  
     6    5    6 1  
     7    6    7 1  
     8    6    8 1  
     9    7   12 1  
    10    8    9 1  
    11    8   10 1  
    12   10   11 1  
    13   10   12 1  
    14   12   13 1  
    15   13   14 1  
    16   13   22 1  
    17   14   15 2  
    18   15   16 1  
    19   16   17 ar 
    20   16   22 ar 
    21   17   18 1  
    22   17   19 ar 
    23   19   20 ar 
    24   20   21 ar 
    25   21   22 ar 
    26    5   23 1  
    27    5   24 1  
    28    6   25 1  
    29    8   26 1  
    30   10   27 1  
    31   11   28 1  
    32   12   29 1  
    33   14   30 1  
    34   18   31 1  
    35   18   32 1  
    36   20   33 1  
@<TRIPOS>SUBSTRUCTURE
     1 CMP         1

