4j7d_ligand
  -I-interpret- 

 66 69  0  0  0  0  0  0  0  0999 V2000
   -3.6590    5.0320   -0.0450 N   0  0  0  0  0
   -3.6580    3.9110   -0.9980 C   0  0  0  0  0
   -3.3860    4.3980   -2.4300 C   0  0  0  0  0
   -4.9880    3.1850   -0.8960 C   0  0  0  0  0
   -2.4760    3.0490   -0.4440 C   0  0  0  0  0
   -1.1680    3.4380   -1.1490 C   0  0  0  0  0
   -2.6900    1.5520   -0.5410 C   0  0  0  0  0
   -2.3950    3.4760    0.9400 N   0  0  0  0  0
   -2.9390    4.6290    1.0710 C   0  0  0  0  0
   -2.8130    5.4880    2.2450 C   0  0  0  0  0
   -5.8050    3.4010    0.2150 C   0  0  0  0  0
   -6.9910    2.6890    0.3690 C   0  0  0  0  0
   -7.3620    1.7580   -0.5970 C   0  0  0  0  0
   -8.8080    0.8030   -0.3710 Cl  0  0  0  0  0
   -6.5820    1.5720   -1.7410 C   0  0  0  0  0
   -5.3940    2.2870   -1.8890 C   0  0  0  0  0
   -2.0930    0.8250   -1.5810 C   0  0  0  0  0
   -2.2740   -0.5550   -1.6660 C   0  0  0  0  0
   -3.0610   -1.2050   -0.7160 C   0  0  0  0  0
   -3.3300   -2.9320   -0.8420 Cl  0  0  0  0  0
   -3.6470   -0.4900    0.3280 C   0  0  0  0  0
   -3.4610    0.8860    0.4140 C   0  0  0  0  0
   -1.6540    5.4150    3.0170 C   0  0  0  0  0
   -1.4880    6.2330    4.1250 C   0  0  0  0  0
   -2.4820    7.1360    4.4860 C   0  0  0  0  0
   -2.2720    7.9980    5.7110 C   0  0  0  0  0
   -2.1300    7.0920    6.9410 C   0  0  0  0  0
   -3.4670    8.9340    5.9050 C   0  0  0  0  0
   -3.6660    7.2240    3.7220 C   0  0  0  0  0
   -3.8120    6.3860    2.6090 C   0  0  0  0  0
   -4.9660    6.4250    1.8320 O   0  0  0  0  0
   -5.9840    7.2990    2.2980 C   0  0  0  0  0
   -7.1880    7.2400    1.3440 C   0  0  0  0  0
   -0.9920    8.8310    5.5510 C   0  0  0  0  0
   -4.1066    5.9386   -0.1797 H   0  0  0  0  0
   -2.4827    5.0079   -2.4396 H   0  0  0  0  0
   -3.2520    3.5376   -3.0857 H   0  0  0  0  0
   -4.2311    4.9927   -2.7768 H   0  0  0  0  0
   -1.0372    4.5190   -1.0988 H   0  0  0  0  0
   -0.3302    2.9460   -0.6549 H   0  0  0  0  0
   -1.2116    3.1241   -2.1919 H   0  0  0  0  0
   -5.5119    4.1329    0.9677 H   0  0  0  0  0
   -7.6245    2.8592    1.2395 H   0  0  0  0  0
   -6.9003    0.8720   -2.5135 H   0  0  0  0  0
   -4.7811    2.1461   -2.7793 H   0  0  0  0  0
   -1.4856    1.3402   -2.3252 H   0  0  0  0  0
   -1.8035   -1.1217   -2.4695 H   0  0  0  0  0
   -4.2491   -1.0078    1.0746 H   0  0  0  0  0
   -3.9186    1.4461    1.2295 H   0  0  0  0  0
   -0.8700    4.7075    2.7469 H   0  0  0  0  0
   -0.5741    6.1676    4.7154 H   0  0  0  0  0
   -3.0362    6.4980    7.0597 H   0  0  0  0  0
   -1.2750    6.4296    6.8060 H   0  0  0  0  0
   -1.9783    7.7070    7.8281 H   0  0  0  0  0
   -3.5712    9.5745    5.0292 H   0  0  0  0  0
   -4.3733    8.3422    6.0338 H   0  0  0  0  0
   -3.3048    9.5497    6.7897 H   0  0  0  0  0
   -4.4510    7.9301    3.9928 H   0  0  0  0  0
   -5.5990    8.3181    2.3338 H   0  0  0  0  0
   -6.2966    6.9925    3.2962 H   0  0  0  0  0
   -6.8745    7.5464    0.3460 H   0  0  0  0  0
   -7.5722    6.2206    1.3085 H   0  0  0  0  0
   -7.9679    7.9113    1.7034 H   0  0  0  0  0
   -0.1386    8.1638    5.4296 H   0  0  0  0  0
   -1.0832    9.4698    4.6725 H   0  0  0  0  0
   -0.8487    9.4486    6.4377 H   0  0  0  0  0
  1  2  1  0  0  0
  1  9  1  0  0  0
  2  3  1  0  0  0
  2  4  1  0  0  0
  2  5  1  0  0  0
  4 11  4  0  0  0
  4 16  4  0  0  0
  5  6  1  0  0  0
  5  7  1  0  0  0
  5  8  1  0  0  0
  7 17  4  0  0  0
  7 22  4  0  0  0
  8  9  2  0  0  0
  9 10  1  0  0  0
 10 23  4  0  0  0
 10 30  4  0  0  0
 11 12  4  0  0  0
 12 13  4  0  0  0
 13 14  1  0  0  0
 13 15  4  0  0  0
 15 16  4  0  0  0
 17 18  4  0  0  0
 18 19  4  0  0  0
 19 20  1  0  0  0
 19 21  4  0  0  0
 21 22  4  0  0  0
 23 24  4  0  0  0
 24 25  4  0  0  0
 25 26  1  0  0  0
 25 29  4  0  0  0
 26 27  1  0  0  0
 26 28  1  0  0  0
 26 34  1  0  0  0
 29 30  4  0  0  0
 30 31  1  0  0  0
 31 32  1  0  0  0
 32 33  1  0  0  0
  1 35  1  0  0  0
  3 36  1  0  0  0
  3 37  1  0  0  0
  3 38  1  0  0  0
  6 39  1  0  0  0
  6 40  1  0  0  0
  6 41  1  0  0  0
 11 42  1  0  0  0
 12 43  1  0  0  0
 15 44  1  0  0  0
 16 45  1  0  0  0
 17 46  1  0  0  0
 18 47  1  0  0  0
 21 48  1  0  0  0
 22 49  1  0  0  0
 23 50  1  0  0  0
 24 51  1  0  0  0
 27 52  1  0  0  0
 27 53  1  0  0  0
 27 54  1  0  0  0
 28 55  1  0  0  0
 28 56  1  0  0  0
 28 57  1  0  0  0
 29 58  1  0  0  0
 32 59  1  0  0  0
 32 60  1  0  0  0
 33 61  1  0  0  0
 33 62  1  0  0  0
 33 63  1  0  0  0
 34 64  1  0  0  0
 34 65  1  0  0  0
 34 66  1  0  0  0
M  END
$$$$
