3zmh_ligand
  -I-interpret- 

 38 39  0  0  0  0  0  0  0  0999 V2000
   -9.3550    9.4660  -49.0620 O   0  0  0  0  0
   -9.9230    8.6400  -48.3530 C   0  0  0  0  0
   -9.9900    8.8760  -46.9950 O   0  0  0  0  0
   -9.0750    9.7390  -46.4100 C   0  0  0  0  0
   -9.7280   11.0550  -46.2470 C   0  0  0  0  0
  -10.4230   10.8250  -44.9430 C   0  0  0  0  0
   -9.3600   10.1470  -44.1130 C   0  0  0  0  0
   -8.6690    9.2340  -45.0700 C   0  0  0  0  0
  -10.4520    7.4330  -48.9160 N   0  0  0  0  0
  -10.4180    7.4640  -50.3510 C   0  0  0  0  0
  -11.7960    7.2000  -50.8670 C   0  0  0  0  0
  -12.7330    8.1680  -50.2290 C   0  0  0  0  0
  -12.4980    9.3770  -50.2980 O   0  0  0  0  0
   -9.4640    6.4380  -50.8730 C   0  0  0  0  0
   -9.8120    5.6680  -51.9780 C   0  0  0  0  0
   -8.9360    4.7110  -52.4720 C   0  0  0  0  0
   -7.6970    4.5200  -51.8690 C   0  0  0  0  0
   -7.3360    5.2960  -50.7740 C   0  0  0  0  0
   -8.2180    6.2430  -50.2780 C   0  0  0  0  0
   -8.1886    9.8150  -47.0398 H   0  0  0  0  0
  -10.3844   11.3424  -47.0683 H   0  0  0  0  0
   -9.0465   11.9057  -46.2559 H   0  0  0  0  0
  -11.3283   10.2265  -45.0444 H   0  0  0  0  0
  -10.7919   11.7455  -44.4905 H   0  0  0  0  0
   -9.7837    9.6078  -43.2657 H   0  0  0  0  0
   -8.6735   10.8634  -43.6619 H   0  0  0  0  0
   -7.5871    9.2401  -44.9375 H   0  0  0  0  0
   -8.9489    8.1912  -44.9202 H   0  0  0  0  0
  -10.8078    6.6507  -48.3666 H   0  0  0  0  0
  -10.0778    8.4429  -50.6888 H   0  0  0  0  0
  -12.0943    6.1796  -50.6266 H   0  0  0  0  0
  -11.8172    7.3201  -51.9502 H   0  0  0  0  0
  -13.6194    7.8101  -49.7053 H   0  0  0  0  0
  -10.7787    5.8170  -52.4591 H   0  0  0  0  0
   -9.2197    4.1078  -53.3344 H   0  0  0  0  0
   -7.0119    3.7646  -52.2539 H   0  0  0  0  0
   -6.3609    5.1601  -50.3061 H   0  0  0  0  0
   -7.9345    6.8423  -49.4128 H   0  0  0  0  0
  1  2  2  0  0  0
  2  3  1  0  0  0
  2  9  1  0  0  0
  3  4  1  0  0  0
  4  5  1  0  0  0
  4  8  1  0  0  0
  5  6  1  0  0  0
  6  7  1  0  0  0
  7  8  1  0  0  0
  9 10  1  0  0  0
 10 11  1  0  0  0
 10 14  1  0  0  0
 11 12  1  0  0  0
 12 13  2  0  0  0
 14 15  4  0  0  0
 14 19  4  0  0  0
 15 16  4  0  0  0
 16 17  4  0  0  0
 17 18  4  0  0  0
 18 19  4  0  0  0
  4 20  1  0  0  0
  5 21  1  0  0  0
  5 22  1  0  0  0
  6 23  1  0  0  0
  6 24  1  0  0  0
  7 25  1  0  0  0
  7 26  1  0  0  0
  8 27  1  0  0  0
  8 28  1  0  0  0
  9 29  1  0  0  0
 10 30  1  0  0  0
 11 31  1  0  0  0
 11 32  1  0  0  0
 12 33  1  0  0  0
 15 34  1  0  0  0
 16 35  1  0  0  0
 17 36  1  0  0  0
 18 37  1  0  0  0
 19 38  1  0  0  0
M  END
$$$$
