4kz7_ligand
  -I-interpret- 

 28 29  0  0  0  0  0  0  0  0999 V2000
   26.1980    7.4910   16.1790 C   0  0  0  0  0
   24.6800    7.4960   15.9710 C   0  0  0  0  0
   23.9810    8.5430   16.8470 C   0  0  0  0  0
   24.2770    7.5940   14.4130 C   0  0  0  0  0
   24.7550    8.8040   13.6770 C   0  0  0  0  0
   22.7740    7.2960   14.4520 C   0  0  0  0  0
   22.6470    6.2130   15.5970 C   0  0  0  0  0
   24.1000    6.0400   16.0700 C   0  0  0  0  0
   24.3630    5.3090   17.4040 C   0  0  0  0  0
   23.6600    5.6380   18.3760 O   0  0  0  0  0
   25.2490    4.4300   17.4000 O   0  0  0  0  0
   24.7760    5.3780   14.9820 O   0  0  0  0  0
   24.9140    6.2900   13.9690 C   0  0  0  0  0
   25.4170    5.9640   12.9250 O   0  0  0  0  0
   26.4270    7.0867   17.1650 H   0  0  0  0  0
   26.6663    6.8723   15.4135 H   0  0  0  0  0
   26.5768    8.5104   16.1060 H   0  0  0  0  0
   22.9304    8.6087   16.5641 H   0  0  0  0  0
   24.0590    8.2495   17.8939 H   0  0  0  0  0
   24.4586    9.5123   16.7035 H   0  0  0  0  0
   25.8302    8.9130   13.8191 H   0  0  0  0  0
   24.5372    8.6913   12.6150 H   0  0  0  0  0
   24.2450    9.6870   14.0621 H   0  0  0  0  0
   22.3917    6.9413   13.4948 H   0  0  0  0  0
   22.1750    8.1854   14.6476 H   0  0  0  0  0
   22.2013    5.2808   15.2499 H   0  0  0  0  0
   21.9752    6.5212   16.3981 H   0  0  0  0  0
   25.6395    4.3748   16.5247 H   0  0  0  0  0
  1  2  1  0  0  0
  2  3  1  0  0  0
  2  4  1  0  0  0
  2  8  1  0  0  0
  4  5  1  0  0  0
  4  6  1  0  0  0
  4 13  1  0  0  0
  6  7  1  0  0  0
  7  8  1  0  0  0
  8  9  1  0  0  0
  8 12  1  0  0  0
  9 10  2  0  0  0
  9 11  1  0  0  0
 12 13  1  0  0  0
 13 14  2  0  0  0
  1 15  1  0  0  0
  1 16  1  0  0  0
  1 17  1  0  0  0
  3 18  1  0  0  0
  3 19  1  0  0  0
  3 20  1  0  0  0
  5 21  1  0  0  0
  5 22  1  0  0  0
  5 23  1  0  0  0
  6 24  1  0  0  0
  6 25  1  0  0  0
  7 26  1  0  0  0
  7 27  1  0  0  0
 11 28  1  0  0  0
M  END
$$$$
