1y0l_ligand
  -I-interpret- 

 38 39  0  0  0  0  0  0  0  0999 V2000
   19.5170   87.8010   41.9100 N   0  0  0  0  0
   20.9480   88.0010   42.0070 C   0  0  0  0  0
   21.5000   88.6390   41.0400 N   0  0  0  0  0
   20.5170   89.6430   38.8940 C   0  0  0  0  0
   19.3020   89.8230   38.1630 C   0  0  0  0  0
   18.0440   89.3080   38.7000 C   0  0  0  0  0
   18.0250   88.6240   39.9460 C   0  0  0  0  0
   20.4760   88.9440   40.1580 C   0  0  0  0  0
   19.2520   88.4450   40.6710 C   0  0  0  0  0
   19.4010   90.5710   36.8170 C   0  0  0  0  0
   16.6870   89.4570   37.9790 C   0  0  0  0  0
   21.7100   87.5220   43.0950 N   0  0  0  0  0
   18.5970   87.1100   42.8440 C   0  0  0  0  0
   17.9990   88.0270   43.9220 C   0  0  0  0  0
   18.3940   87.6030   45.3440 C   0  0  0  0  0
   17.7340   86.2770   45.7950 C   0  0  0  0  0
   16.8770   86.4180   47.0600 C   0  0  0  0  0
   15.7960   85.7900   47.1170 O   0  0  0  0  0
   17.2780   87.1510   48.0050 O   0  0  0  0  0
   21.4597   90.0270   38.5041 H   0  0  0  0  0
   17.0878   88.2388   40.3476 H   0  0  0  0  0
   19.7932   91.5735   36.9879 H   0  0  0  0  0
   20.0689   90.0272   36.1489 H   0  0  0  0  0
   18.4107   90.6387   36.3667 H   0  0  0  0  0
   16.4629   90.5152   37.8442 H   0  0  0  0  0
   16.7384   88.9683   37.0060 H   0  0  0  0  0
   15.9050   88.9923   38.5795 H   0  0  0  0  0
   21.2540   87.0130   43.8522 H   0  0  0  0  0
   22.7165   87.6850   43.1237 H   0  0  0  0  0
   19.1738   86.3404   43.3569 H   0  0  0  0  0
   17.7677   86.7208   42.2533 H   0  0  0  0  0
   16.9132   87.9712   43.8449 H   0  0  0  0  0
   18.3802   89.0343   43.7544 H   0  0  0  0  0
   18.0594   88.3853   46.0253 H   0  0  0  0  0
   19.4736   87.4532   45.3546 H   0  0  0  0  0
   18.5349   85.5725   46.0192 H   0  0  0  0  0
   17.0772   85.9479   44.9898 H   0  0  0  0  0
   18.1222   87.5423   47.7689 H   0  0  0  0  0
  2  1  4  0  0  0
  1  9  4  0  0  0
  1 13  1  0  0  0
  3  2  4  0  0  0
  2 12  1  0  0  0
  8  3  4  0  0  0
  4  5  4  0  0  0
  4  8  4  0  0  0
  5  6  4  0  0  0
  5 10  1  0  0  0
  6  7  4  0  0  0
  6 11  1  0  0  0
  7  9  4  0  0  0
  8  9  4  0  0  0
 13 14  1  0  0  0
 14 15  1  0  0  0
 15 16  1  0  0  0
 16 17  1  0  0  0
 17 18  2  0  0  0
 17 19  1  0  0  0
  4 20  1  0  0  0
  7 21  1  0  0  0
 10 22  1  0  0  0
 10 23  1  0  0  0
 10 24  1  0  0  0
 11 25  1  0  0  0
 11 26  1  0  0  0
 11 27  1  0  0  0
 12 28  1  0  0  0
 12 29  1  0  0  0
 13 30  1  0  0  0
 13 31  1  0  0  0
 14 32  1  0  0  0
 14 33  1  0  0  0
 15 34  1  0  0  0
 15 35  1  0  0  0
 16 36  1  0  0  0
 16 37  1  0  0  0
 19 38  1  0  0  0
M  END
$$$$
