3ejt_ligand
  -I-interpret- 

 56 58  0  0  0  0  0  0  0  0999 V2000
   31.6620   68.1280    5.5310 O   0  0  0  0  0
   31.2180   66.9840    6.2620 C   0  0  0  0  0
   31.5400   67.1860    7.7460 C   0  0  0  0  0
   30.9670   66.0770    8.5610 N   0  3  0  0  0
   31.5310   66.3360    9.9100 C   0  0  0  0  0
   32.9870   66.7810    9.6160 C   0  0  0  0  0
   33.8760   65.6690    9.8450 O   0  0  0  0  0
   33.0060   67.2790    8.1520 C   0  0  0  0  0
   33.8650   66.4510    7.3280 O   0  0  0  0  0
   29.6980   66.8210    6.0820 C   0  0  0  0  0
   29.0960   65.7580    7.0170 C   0  0  0  0  0
   29.4700   66.0340    8.4830 C   0  0  0  0  0
   28.9000   64.9820    9.4540 C   0  0  0  0  0
   27.3750   64.8140    9.4710 C   0  0  0  0  0
   26.6520   65.9430   10.1830 C   0  0  0  0  0
   26.7780   66.1430   11.5640 C   0  0  0  0  0
   26.0880   67.1910   12.1890 C   0  0  0  0  0
   25.2410   68.0560   11.4820 C   0  0  0  0  0
   24.4990   69.1990   12.1570 C   0  0  0  0  0
   24.9130   70.5210   11.5070 C   0  0  0  0  0
   24.8300   69.2840   13.6470 C   0  0  0  0  0
   22.9930   69.0090   11.9880 C   0  0  0  0  0
   25.0610   67.8600    9.9950 C   0  0  0  0  0
   25.8210   66.7540    9.4220 C   0  0  0  0  0
   32.6100   68.2299    5.6431 H   0  0  0  0  0
   31.7222   66.0902    5.8945 H   0  0  0  0  0
   31.0986   68.1649    7.9330 H   0  0  0  0  0
   31.2129   65.1421    8.2355 H   0  0  0  0  0
   31.4851   65.4598   10.5567 H   0  0  0  0  0
   30.9675   67.0895   10.4602 H   0  0  0  0  0
   33.3258   67.5850   10.2694 H   0  0  0  0  0
   33.8233   65.4030   10.7659 H   0  0  0  0  0
   33.4086   68.2850    8.0339 H   0  0  0  0  0
   33.8579   66.7820    6.4269 H   0  0  0  0  0
   29.5162   66.5032    5.0553 H   0  0  0  0  0
   29.2300   67.7765    6.3187 H   0  0  0  0  0
   29.4900   64.7817    6.7345 H   0  0  0  0  0
   28.0104   65.7855    6.9230 H   0  0  0  0  0
   29.0315   66.9830    8.7916 H   0  0  0  0  0
   29.1763   65.3159   10.4541 H   0  0  0  0  0
   29.3039   64.0233    9.1286 H   0  0  0  0  0
   27.1520   63.8914   10.0070 H   0  0  0  0  0
   27.0337   64.8065    8.4358 H   0  0  0  0  0
   27.4138   65.4824   12.1535 H   0  0  0  0  0
   26.2143   67.3384   13.2616 H   0  0  0  0  0
   25.9875   70.6615   11.6247 H   0  0  0  0  0
   24.6624   70.4971   10.4465 H   0  0  0  0  0
   24.3829   71.3428   11.9885 H   0  0  0  0  0
   24.5443   68.3522   14.1351 H   0  0  0  0  0
   25.9005   69.4474   13.7713 H   0  0  0  0  0
   24.2804   70.1128   14.0933 H   0  0  0  0  0
   22.7467   68.9956   10.9263 H   0  0  0  0  0
   22.6938   68.0651   12.4437 H   0  0  0  0  0
   22.4676   69.8312   12.4738 H   0  0  0  0  0
   24.4117   68.4973    9.3947 H   0  0  0  0  0
   25.7327   66.5566    8.3537 H   0  0  0  0  0
  1  2  1  0  0  0
  2  3  1  0  0  0
  2 10  1  0  0  0
  3  4  1  0  0  0
  3  8  1  0  0  0
  4  5  1  0  0  0
  4 12  1  0  0  0
  5  6  1  0  0  0
  6  7  1  0  0  0
  6  8  1  0  0  0
  8  9  1  0  0  0
 10 11  1  0  0  0
 11 12  1  0  0  0
 12 13  1  0  0  0
 13 14  1  0  0  0
 14 15  1  0  0  0
 15 16  4  0  0  0
 15 24  4  0  0  0
 16 17  4  0  0  0
 17 18  4  0  0  0
 18 19  1  0  0  0
 18 23  4  0  0  0
 19 20  1  0  0  0
 19 21  1  0  0  0
 19 22  1  0  0  0
 23 24  4  0  0  0
  1 25  1  0  0  0
  2 26  1  0  0  0
  3 27  1  0  0  0
  4 28  1  0  0  0
  5 29  1  0  0  0
  5 30  1  0  0  0
  6 31  1  0  0  0
  7 32  1  0  0  0
  8 33  1  0  0  0
  9 34  1  0  0  0
 10 35  1  0  0  0
 10 36  1  0  0  0
 11 37  1  0  0  0
 11 38  1  0  0  0
 12 39  1  0  0  0
 13 40  1  0  0  0
 13 41  1  0  0  0
 14 42  1  0  0  0
 14 43  1  0  0  0
 16 44  1  0  0  0
 17 45  1  0  0  0
 20 46  1  0  0  0
 20 47  1  0  0  0
 20 48  1  0  0  0
 21 49  1  0  0  0
 21 50  1  0  0  0
 21 51  1  0  0  0
 22 52  1  0  0  0
 22 53  1  0  0  0
 22 54  1  0  0  0
 23 55  1  0  0  0
 24 56  1  0  0  0
M  END
$$$$
