### 
### Created by X-TOOL on Sun Sep  9 21:53:17 2018
### 

@<TRIPOS>MOLECULE
5c2e_ligand
   46    48     1     0     0
SMALL
GAST_HUCK


@<TRIPOS>ATOM
      1 C3         -9.0610   -2.4360   18.3300 C.ar      1 NON         0.1186
      2 C5         -9.1310   -2.7960   15.8360 C.3       1 NON        -0.0295
      3 N6        -10.2340   -1.6610   18.1960 N.pl3     1 NON        -0.2975
      4 C7        -10.6270   -0.9470   19.4020 C.3       1 NON         0.0628
      5 C9         -8.2280    2.0300   20.1150 C.2       1 NON         0.0778
      6 C11       -10.0570    1.0870   20.9030 C.2       1 NON        -0.0193
      7 C12        -7.0950    2.9620   19.9720 C.3       1 NON         0.0016
      8 C13       -11.1530    1.0220   21.8810 C.3       1 NON        -0.0413
      9 C15        -5.2870   -4.4560   22.3240 C.3       1 NON         0.0252
     10 N17        -5.9600   -6.4270   23.5320 N.ar      1 NON        -0.2980
     11 C18        -6.8320   -7.0600   24.3300 C.ar      1 NON         0.0028
     12 C20        -8.2670   -5.1890   24.4950 C.ar      1 NON        -0.0489
     13 C21        -7.3900   -4.5080   23.6770 C.ar      1 NON        -0.0323
     14 C          -7.3580   -3.7220   17.3500 C.ar      1 NON         0.1099
     15 N          -6.7490   -3.9290   18.5210 N.ar      1 NON        -0.2547
     16 O          -6.8380   -3.4760   20.8380 O.3       1 NON        -0.2830
     17 S          -8.4300    0.7450   18.9980 S.3       1 NON        -0.0120
     18 CL         -6.5520   -4.4640   16.0200 Cl        1 NON        -0.0438
     19 C1         -7.3620   -3.3560   19.5630 C.ar      1 NON         0.2199
     20 N2         -8.4790   -2.6230   19.5260 N.ar      1 NON        -0.2408
     21 C4         -8.5140   -2.9870   17.1850 C.ar      1 NON         0.0274
     22 C8         -9.8420    0.2380   19.8350 C.2       1 NON         0.0379
     23 N10        -9.1450    2.0980   21.0530 N.2       1 NON        -0.3328
     24 C14        -5.7790   -4.4260   20.8930 C.3       1 NON         0.0888
     25 C16        -6.2590   -5.1590   23.2170 C.ar      1 NON         0.0307
     26 C19        -7.9850   -6.4960   24.8330 C.ar      1 NON        -0.0410
     27 H1        -10.0391   -2.1826   15.9317 H         1 NON         0.0361
     28 H2         -9.3936   -3.7759   15.4108 H         1 NON         0.0361
     29 H3         -8.4142   -2.2889   15.1734 H         1 NON         0.0361
     30 H4        -10.7677   -1.6056   17.3168 H         1 NON         0.1845
     31 H5        -10.5955   -1.6720   20.2286 H         1 NON         0.0656
     32 H6        -11.6625   -0.6079   19.2509 H         1 NON         0.0656
     33 H7         -7.1337    3.7122   20.7755 H         1 NON         0.0468
     34 H8         -7.1559    3.4663   18.9963 H         1 NON         0.0468
     35 H9         -6.1499    2.4031   20.0375 H         1 NON         0.0468
     36 H10       -11.0441    1.8397   22.6086 H         1 NON         0.0328
     37 H11       -11.1185    0.0564   22.4068 H         1 NON         0.0328
     38 H12       -12.1163    1.1213   21.3593 H         1 NON         0.0328
     39 H13        -5.1555   -3.4234   22.6797 H         1 NON         0.0482
     40 H14        -4.3216   -4.9821   22.3603 H         1 NON         0.0482
     41 H15        -6.6151   -8.0876   24.5985 H         1 NON         0.0803
     42 H16        -9.1631   -4.7050   24.8661 H         1 NON         0.0719
     43 H17        -7.5838   -3.4784   23.3987 H         1 NON         0.0651
     44 H18        -6.1473   -5.4199   20.5990 H         1 NON         0.0650
     45 H19        -4.9640   -4.1229   20.2193 H         1 NON         0.0650
     46 H20        -8.6499   -7.0627   25.4748 H         1 NON         0.0652
@<TRIPOS>BOND
     1    1    3 1  
     2    1   20 ar 
     3   21    1 ar 
     4   21    2 1  
     5    3    4 1  
     6    4   22 1  
     7    5    7 1  
     8    5   17 1  
     9   23    5 2  
    10    6    8 1  
    11   22    6 2  
    12    6   23 1  
    13   24    9 1  
    14    9   25 1  
    15   10   11 ar 
    16   25   10 ar 
    17   11   26 ar 
    18   13   12 ar 
    19   12   26 ar 
    20   25   13 ar 
    21   15   14 ar 
    22   14   18 1  
    23   14   21 ar 
    24   19   15 ar 
    25   16   19 1  
    26   16   24 1  
    27   17   22 1  
    28   19   20 ar 
    29    2   27 1  
    30    2   28 1  
    31    2   29 1  
    32    3   30 1  
    33    4   31 1  
    34    4   32 1  
    35    7   33 1  
    36    7   34 1  
    37    7   35 1  
    38    8   36 1  
    39    8   37 1  
    40    8   38 1  
    41    9   39 1  
    42    9   40 1  
    43   11   41 1  
    44   12   42 1  
    45   13   43 1  
    46   24   44 1  
    47   24   45 1  
    48   26   46 1  
@<TRIPOS>SUBSTRUCTURE
     1 NON         1

