5c2e_ligand
  -I-interpret- 

 46 48  0  0  0  0  0  0  0  0999 V2000
   -9.0610   -2.4360   18.3300 C   0  0  0  0  0
   -9.1310   -2.7960   15.8360 C   0  0  0  0  0
  -10.2340   -1.6610   18.1960 N   0  0  0  0  0
  -10.6270   -0.9470   19.4020 C   0  0  0  0  0
   -8.2280    2.0300   20.1150 C   0  0  0  0  0
  -10.0570    1.0870   20.9030 C   0  0  0  0  0
   -7.0950    2.9620   19.9720 C   0  0  0  0  0
  -11.1530    1.0220   21.8810 C   0  0  0  0  0
   -5.2870   -4.4560   22.3240 C   0  0  0  0  0
   -5.9600   -6.4270   23.5320 N   0  0  0  0  0
   -6.8320   -7.0600   24.3300 C   0  0  0  0  0
   -8.2670   -5.1890   24.4950 C   0  0  0  0  0
   -7.3900   -4.5080   23.6770 C   0  0  0  0  0
   -7.3580   -3.7220   17.3500 C   0  0  0  0  0
   -6.7490   -3.9290   18.5210 N   0  0  0  0  0
   -6.8380   -3.4760   20.8380 O   0  0  0  0  0
   -8.4300    0.7450   18.9980 S   0  0  0  0  0
   -6.5520   -4.4640   16.0200 Cl  0  0  0  0  0
   -7.3620   -3.3560   19.5630 C   0  0  0  0  0
   -8.4790   -2.6230   19.5260 N   0  0  0  0  0
   -8.5140   -2.9870   17.1850 C   0  0  0  0  0
   -9.8420    0.2380   19.8350 C   0  0  0  0  0
   -9.1450    2.0980   21.0530 N   0  0  0  0  0
   -5.7790   -4.4260   20.8930 C   0  0  0  0  0
   -6.2590   -5.1590   23.2170 C   0  0  0  0  0
   -7.9850   -6.4960   24.8330 C   0  0  0  0  0
  -10.1430   -3.2009   15.8401 H   0  0  0  0  0
   -9.1648   -1.7322   15.6007 H   0  0  0  0  0
   -8.5332   -3.3162   15.0875 H   0  0  0  0  0
  -10.7625   -1.6061   17.3254 H   0  0  0  0  0
  -10.5032   -1.6716   20.2068 H   0  0  0  0  0
  -11.6209   -0.5570   19.1827 H   0  0  0  0  0
   -6.1592    2.4069   20.0371 H   0  0  0  0  0
   -7.1565    3.4610   19.0049 H   0  0  0  0  0
   -7.1345    3.7048   20.7687 H   0  0  0  0  0
  -12.1069    1.1205   21.3629 H   0  0  0  0  0
  -11.1178    0.0648   22.4012 H   0  0  0  0  0
  -11.0440    1.8327   22.6014 H   0  0  0  0  0
   -5.1733   -3.4299   22.6738 H   0  0  0  0  0
   -4.3380   -4.9913   22.3539 H   0  0  0  0  0
   -6.6139   -8.0933   24.6000 H   0  0  0  0  0
   -9.1681   -4.7023   24.8682 H   0  0  0  0  0
   -7.5848   -3.4727   23.3971 H   0  0  0  0  0
   -6.1278   -5.4113   20.5839 H   0  0  0  0  0
   -4.9738   -4.1464   20.2136 H   0  0  0  0  0
   -8.6535   -7.0658   25.4783 H   0  0  0  0  0
  1  3  1  0  0  0
  1 20  4  0  0  0
 21  1  4  0  0  0
 21  2  1  0  0  0
  3  4  1  0  0  0
  4 22  1  0  0  0
  5  7  1  0  0  0
  5 17  4  0  0  0
 23  5  4  0  0  0
  6  8  1  0  0  0
 22  6  4  0  0  0
  6 23  4  0  0  0
 24  9  1  0  0  0
  9 25  1  0  0  0
 10 11  4  0  0  0
 25 10  4  0  0  0
 11 26  4  0  0  0
 13 12  4  0  0  0
 12 26  4  0  0  0
 25 13  4  0  0  0
 15 14  4  0  0  0
 14 18  1  0  0  0
 14 21  4  0  0  0
 19 15  4  0  0  0
 16 19  1  0  0  0
 16 24  1  0  0  0
 17 22  4  0  0  0
 19 20  4  0  0  0
  2 27  1  0  0  0
  2 28  1  0  0  0
  2 29  1  0  0  0
  3 30  1  0  0  0
  4 31  1  0  0  0
  4 32  1  0  0  0
  7 33  1  0  0  0
  7 34  1  0  0  0
  7 35  1  0  0  0
  8 36  1  0  0  0
  8 37  1  0  0  0
  8 38  1  0  0  0
  9 39  1  0  0  0
  9 40  1  0  0  0
 11 41  1  0  0  0
 12 42  1  0  0  0
 13 43  1  0  0  0
 24 44  1  0  0  0
 24 45  1  0  0  0
 26 46  1  0  0  0
M  END
$$$$
