4zsg_ligand
  -I-interpret- 

 35 36  0  0  0  0  0  0  0  0999 V2000
   -2.8720  -38.8030   -2.6390 C   0  0  0  0  0
   -3.7090  -39.6410   -1.7020 C   0  0  0  0  0
   -3.4410  -37.0950   -4.3000 C   0  0  0  0  0
   -3.8270  -33.6160   -8.2720 C   0  0  0  0  0
   -3.6340  -33.0040   -9.4960 C   0  0  0  0  0
   -2.7870  -33.5850  -10.4120 C   0  0  0  0  0
   -2.1460  -34.7710  -10.1460 C   0  0  0  0  0
   -2.3440  -35.3860   -8.9270 C   0  0  0  0  0
   -2.4990  -32.7880  -11.9270 Cl  0  0  0  0  0
   -3.1880  -34.8140   -7.9790 C   0  0  0  0  0
   -3.3680  -35.5110   -6.7590 N   0  0  0  0  0
   -4.1260  -35.1470   -5.6850 C   0  0  0  0  0
   -4.8880  -34.0680   -5.5690 N   0  0  0  0  0
   -5.4050  -34.2130   -4.3000 C   0  0  0  0  0
   -6.2620  -33.3180   -3.8010 N   0  0  0  0  0
   -5.0010  -35.2850   -3.6430 N   0  0  0  0  0
   -4.1410  -35.8860   -4.5490 N   0  0  0  0  0
   -2.7140  -37.5750   -5.1600 O   0  0  0  0  0
   -3.6260  -37.6270   -3.0810 N   0  0  0  0  0
   -1.5700  -38.3700   -2.0120 C   0  0  0  0  0
   -2.6312  -39.4288   -3.4984 H   0  0  0  0  0
   -3.9834  -39.0457   -0.8311 H   0  0  0  0  0
   -4.6112  -39.9695   -2.2181 H   0  0  0  0  0
   -3.1344  -40.5106   -1.3829 H   0  0  0  0  0
   -4.4836  -33.1565   -7.5332 H   0  0  0  0  0
   -4.1467  -32.0718   -9.7332 H   0  0  0  0  0
   -1.4884  -35.2209  -10.8898 H   0  0  0  0  0
   -1.8368  -36.3249   -8.7049 H   0  0  0  0  0
   -2.8682  -36.3960   -6.6729 H   0  0  0  0  0
   -6.5425  -32.5131   -4.3612 H   0  0  0  0  0
   -6.6358  -33.4395   -2.8598 H   0  0  0  0  0
   -4.3058  -37.2035   -2.4494 H   0  0  0  0  0
   -0.9811  -37.8183   -2.7448 H   0  0  0  0  0
   -1.7765  -37.7303   -1.1539 H   0  0  0  0  0
   -1.0150  -39.2496   -1.6859 H   0  0  0  0  0
  1  2  1  0  0  0
 19  1  1  0  0  0
  1 20  1  0  0  0
 17  3  1  0  0  0
  3 18  2  0  0  0
  3 19  1  0  0  0
  4  5  4  0  0  0
 10  4  4  0  0  0
  5  6  4  0  0  0
  7  6  4  0  0  0
  6  9  1  0  0  0
  8  7  4  0  0  0
 10  8  4  0  0  0
 11 10  1  0  0  0
 12 11  1  0  0  0
 12 13  4  0  0  0
 12 17  4  0  0  0
 13 14  4  0  0  0
 14 15  1  0  0  0
 14 16  4  0  0  0
 16 17  4  0  0  0
  1 21  1  0  0  0
  2 22  1  0  0  0
  2 23  1  0  0  0
  2 24  1  0  0  0
  4 25  1  0  0  0
  5 26  1  0  0  0
  7 27  1  0  0  0
  8 28  1  0  0  0
 11 29  1  0  0  0
 15 30  1  0  0  0
 15 31  1  0  0  0
 19 32  1  0  0  0
 20 33  1  0  0  0
 20 34  1  0  0  0
 20 35  1  0  0  0
M  END
$$$$
