5qaf_ligand
  -I-interpret- 

 25 26  0  0  0  0  0  0  0  0999 V2000
  -11.4930  -17.6640   26.4960 C   0  0  0  0  0
  -10.8410  -17.6940   27.5700 O   0  0  0  0  0
  -11.7560  -18.9720   25.7960 C   0  0  0  0  0
  -14.4380  -24.4230   27.9770 C   0  0  0  0  0
  -15.2350  -23.4850   27.3830 C   0  0  0  0  0
  -14.6320  -22.4540   26.6890 C   0  0  0  0  0
  -12.3570  -20.0250   26.4760 C   0  0  0  0  0
  -12.6000  -21.2480   25.8520 C   0  0  0  0  0
  -12.2240  -21.3930   24.5150 C   0  0  0  0  0
  -11.6290  -20.3490   23.8300 C   0  0  0  0  0
  -11.3950  -19.1440   24.4640 C   0  0  0  0  0
  -13.2430  -22.3630   26.5910 C   0  0  0  0  0
  -12.4800  -23.3460   27.2160 C   0  0  0  0  0
  -13.0730  -24.3820   27.9140 C   0  0  0  0  0
  -15.0270  -25.4410   28.6600 F   0  0  0  0  0
  -11.9380  -16.6180   25.9630 O   0  0  0  0  0
  -10.6091  -18.6023   27.7770 H   0  0  0  0  0
  -16.3207  -23.5489   27.4552 H   0  0  0  0  0
  -15.2527  -21.6975   26.2090 H   0  0  0  0  0
  -12.6443  -19.8918   27.5190 H   0  0  0  0  0
  -12.4015  -22.3400   24.0052 H   0  0  0  0  0
  -11.3436  -20.4775   22.7859 H   0  0  0  0  0
  -10.9258  -18.3253   23.9184 H   0  0  0  0  0
  -11.3928  -23.2978   27.1537 H   0  0  0  0  0
  -12.4677  -25.1463   28.4014 H   0  0  0  0  0
  1  2  1  0  0  0
  3  1  1  0  0  0
  1 16  2  0  0  0
  7  3  4  0  0  0
  3 11  4  0  0  0
  5  4  4  0  0  0
  4 14  4  0  0  0
  4 15  1  0  0  0
  6  5  4  0  0  0
 12  6  4  0  0  0
  8  7  4  0  0  0
  8  9  4  0  0  0
  8 12  1  0  0  0
  9 10  4  0  0  0
 10 11  4  0  0  0
 12 13  4  0  0  0
 13 14  4  0  0  0
  2 17  1  0  0  0
  5 18  1  0  0  0
  6 19  1  0  0  0
  7 20  1  0  0  0
  9 21  1  0  0  0
 10 22  1  0  0  0
 11 23  1  0  0  0
 13 24  1  0  0  0
 14 25  1  0  0  0
M  END
$$$$
