5ugb_ligand
  -I-interpret- 

 71 75  0  0  0  0  0  0  0  0999 V2000
    4.4040  -50.8020  -20.3420 C   0  0  0  0  0
    2.9740  -50.8360  -19.8530 C   0  0  0  0  0
    2.1920  -50.0450  -20.9230 C   0  0  0  0  0
    3.1810  -48.9740  -21.3360 C   0  0  0  0  0
    0.8920  -51.8940  -22.0200 C   0  0  0  0  0
   -1.5350  -53.3390  -16.9540 C   0  0  0  0  0
   -0.3280  -51.7770  -15.4540 C   0  0  0  0  0
   -0.5860  -49.9570  -13.8780 C   0  0  0  0  0
   -0.5040  -49.7120  -12.3630 C   0  0  0  0  0
    1.0780  -49.6710  -10.4220 C   0  0  0  0  0
    1.3520  -51.4820  -13.7460 C   0  0  0  0  0
    6.9730  -49.3430  -20.7720 C   0  0  0  0  0
    5.6470  -48.7280  -21.1930 C   0  0  0  0  0
    5.6220  -47.6030  -21.7150 O   0  0  0  0  0
    4.4960  -49.4830  -20.9610 N   0  0  0  0  0
    1.8350  -50.8560  -22.1060 N   0  0  0  0  0
    0.3130  -52.1380  -20.8140 N   0  0  0  0  0
   -0.6070  -53.1200  -20.6040 C   0  0  0  0  0
   -1.1910  -53.3460  -19.3530 N   0  0  0  0  0
   -0.8820  -52.7940  -18.0910 C   0  0  0  0  0
   -1.2620  -52.8390  -15.6620 C   0  0  0  0  0
    0.3240  -51.2270  -16.6030 C   0  0  0  0  0
    0.0480  -51.7270  -17.8800 C   0  0  0  0  0
   -0.0860  -51.3290  -14.1340 N   0  0  0  0  0
    0.9480  -49.8950  -11.8990 N   0  3  0  0  0
    1.4880  -51.2760  -12.2460 C   0  0  0  0  0
   -0.9600  -53.9110  -21.7100 C   0  0  0  0  0
   -1.8270  -54.9470  -21.8220 N   0  0  0  0  0
   -1.7570  -55.2930  -23.0900 C   0  0  0  0  0
   -0.8820  -54.5290  -23.8190 N   0  0  0  0  0
   -0.6680  -54.7400  -25.2630 C   0  0  0  0  0
    0.3420  -55.8270  -25.5630 C   0  0  0  0  0
   -0.2720  -53.4720  -26.0440 C   0  0  0  0  0
   -0.3350  -53.6110  -22.9290 C   0  0  0  0  0
    0.5910  -52.6230  -23.1440 N   0  0  0  0  0
    4.6389  -51.6138  -21.0305 H   0  0  0  0  0
    5.1315  -50.9505  -19.5440 H   0  0  0  0  0
    2.8677  -50.4012  -18.8592 H   0  0  0  0  0
    2.6015  -51.8540  -19.7386 H   0  0  0  0  0
    1.2433  -49.6788  -20.5306 H   0  0  0  0  0
    2.9674  -48.0253  -20.8437 H   0  0  0  0  0
    3.1237  -48.7720  -22.4056 H   0  0  0  0  0
   -2.2527  -54.1497  -17.0795 H   0  0  0  0  0
    0.0160  -49.2248  -14.4161 H   0  0  0  0  0
   -1.6138  -49.8542  -14.2261 H   0  0  0  0  0
   -1.1463  -50.4224  -11.8426 H   0  0  0  0  0
   -0.8344  -48.6979  -12.1384 H   0  0  0  0  0
    0.7604  -48.6567  -10.1803 H   0  0  0  0  0
    0.4499  -50.3861   -9.8907 H   0  0  0  0  0
    2.1178  -49.8080  -10.1252 H   0  0  0  0  0
    1.9545  -50.7425  -14.2735 H   0  0  0  0  0
    1.6989  -52.4806  -14.0116 H   0  0  0  0  0
    7.6191  -49.4426  -21.6442 H   0  0  0  0  0
    7.4527  -48.6994  -20.0346 H   0  0  0  0  0
    6.7941  -50.3261  -20.3366 H   0  0  0  0  0
    2.2816  -50.6584  -23.0015 H   0  0  0  0  0
   -1.9612  -54.0148  -19.3527 H   0  0  0  0  0
   -1.7751  -53.2727  -14.8037 H   0  0  0  0  0
    1.0398  -50.4138  -16.4825 H   0  0  0  0  0
    0.5564  -51.2909  -18.7399 H   0  0  0  0  0
    1.5001  -49.1965  -12.3968 H   0  0  0  0  0
    2.5351  -51.3513  -11.9528 H   0  0  0  0  0
    0.9249  -52.0414  -11.7120 H   0  0  0  0  0
   -2.3387  -56.1086  -23.5195 H   0  0  0  0  0
   -1.6528  -55.0533  -25.6094 H   0  0  0  0  0
    1.3026  -55.5602  -25.1225 H   0  0  0  0  0
   -0.0042  -56.7698  -25.1394 H   0  0  0  0  0
    0.4522  -55.9309  -26.6424 H   0  0  0  0  0
   -1.0602  -52.7255  -25.9461 H   0  0  0  0  0
    0.6591  -53.0742  -25.6404 H   0  0  0  0  0
   -0.1357  -53.7225  -27.0960 H   0  0  0  0  0
  2  1  1  0  0  0
 15  1  1  0  0  0
  3  2  1  0  0  0
  3  4  1  0  0  0
 16  3  1  0  0  0
  4 15  1  0  0  0
  5 16  1  0  0  0
 17  5  4  0  0  0
  5 35  4  0  0  0
 20  6  4  0  0  0
  6 21  4  0  0  0
 21  7  4  0  0  0
  7 22  4  0  0  0
  7 24  1  0  0  0
  8  9  1  0  0  0
 24  8  1  0  0  0
  9 25  1  0  0  0
 25 10  1  0  0  0
 24 11  1  0  0  0
 11 26  1  0  0  0
 13 12  1  0  0  0
 13 14  2  0  0  0
 15 13  1  0  0  0
 18 17  4  0  0  0
 19 18  1  0  0  0
 18 27  4  0  0  0
 19 20  1  0  0  0
 20 23  4  0  0  0
 22 23  4  0  0  0
 25 26  1  0  0  0
 27 28  4  0  0  0
 27 34  4  0  0  0
 28 29  4  0  0  0
 29 30  4  0  0  0
 30 31  1  0  0  0
 30 34  4  0  0  0
 31 32  1  0  0  0
 31 33  1  0  0  0
 34 35  4  0  0  0
  1 36  1  0  0  0
  1 37  1  0  0  0
  2 38  1  0  0  0
  2 39  1  0  0  0
  3 40  1  0  0  0
  4 41  1  0  0  0
  4 42  1  0  0  0
  6 43  1  0  0  0
  8 44  1  0  0  0
  8 45  1  0  0  0
  9 46  1  0  0  0
  9 47  1  0  0  0
 10 48  1  0  0  0
 10 49  1  0  0  0
 10 50  1  0  0  0
 11 51  1  0  0  0
 11 52  1  0  0  0
 12 53  1  0  0  0
 12 54  1  0  0  0
 12 55  1  0  0  0
 16 56  1  0  0  0
 19 57  1  0  0  0
 21 58  1  0  0  0
 22 59  1  0  0  0
 23 60  1  0  0  0
 25 61  1  0  0  0
 26 62  1  0  0  0
 26 63  1  0  0  0
 29 64  1  0  0  0
 31 65  1  0  0  0
 32 66  1  0  0  0
 32 67  1  0  0  0
 32 68  1  0  0  0
 33 69  1  0  0  0
 33 70  1  0  0  0
 33 71  1  0  0  0
M  END
$$$$
