6bh2_ligand
  -I-interpret- 

 42 44  0  0  0  0  0  0  0  0999 V2000
  -20.6660   20.2870    1.8100 C   0  0  0  0  0
  -21.6470   18.9230    7.5620 C   0  0  0  0  0
  -21.1960   20.1770    3.1100 C   0  0  0  0  0
  -22.0610   19.0560    3.0780 C   0  0  0  0  0
  -22.9450   18.4190    4.1210 C   0  0  0  0  0
  -21.5970   19.3810    6.0740 C   0  0  0  0  0
  -18.3830   20.5460    0.8000 C   0  0  0  0  0
  -20.3060   21.9910   -0.0070 C   0  0  0  0  0
  -23.1670   18.6520    7.8070 C   0  0  0  0  0
  -23.5360   18.0130    6.4760 C   0  0  0  0  0
  -24.2730   20.3250    9.2330 C   0  0  0  0  0
  -19.6860   21.2630    1.2070 C   0  0  0  0  0
  -25.0420   21.6220    9.2780 C   0  0  0  0  0
  -24.8060   22.5350   10.4850 C   0  0  0  0  0
  -26.1070   21.7330   10.3740 C   0  0  0  0  0
  -22.6890   18.6070    5.4330 N   0  0  0  0  0
  -23.9210   19.8830    8.0200 N   0  0  0  0  0
  -22.0250   18.5820    1.8200 N   0  0  0  0  0
  -21.1800   19.3230    1.0650 N   0  0  0  0  0
  -23.8670   17.7640    3.7530 O   0  0  0  0  0
  -23.9790   19.7000   10.2510 O   0  0  0  0  0
  -21.2397   19.6696    8.2437 H   0  0  0  0  0
  -21.0295   18.0448    7.7507 H   0  0  0  0  0
  -20.9844   20.8209    3.9637 H   0  0  0  0  0
  -20.6273   19.1936    5.6128 H   0  0  0  0  0
  -21.7297   20.4574    5.9648 H   0  0  0  0  0
  -18.6001   19.8149    0.0213 H   0  0  0  0  0
  -17.6691   21.2786    0.4235 H   0  0  0  0  0
  -17.9620   20.0395    1.6685 H   0  0  0  0  0
  -19.5991   22.7288   -0.3864 H   0  0  0  0  0
  -20.5302   21.2652   -0.7887 H   0  0  0  0  0
  -21.2245   22.4907    0.3008 H   0  0  0  0  0
  -23.3803   18.0543    8.6932 H   0  0  0  0  0
  -24.5877   18.1920    6.2525 H   0  0  0  0  0
  -23.3770   16.9356    6.5201 H   0  0  0  0  0
  -19.4464   22.0096    1.9642 H   0  0  0  0  0
  -25.0191   21.7623    8.1973 H   0  0  0  0  0
  -24.4917   23.5591   10.6862 H   0  0  0  0  0
  -24.0269   22.7311   11.2217 H   0  0  0  0  0
  -26.7163   21.0734   10.9920 H   0  0  0  0  0
  -27.1808   21.9011   10.4568 H   0  0  0  0  0
  -24.1928   20.4330    7.2051 H   0  0  0  0  0
  3  1  4  0  0  0
  1 12  1  0  0  0
  1 19  4  0  0  0
  2  6  1  0  0  0
  9  2  1  0  0  0
  4  3  4  0  0  0
  5  4  1  0  0  0
  4 18  4  0  0  0
 16  5  1  0  0  0
  5 20  2  0  0  0
 16  6  1  0  0  0
 12  7  1  0  0  0
 12  8  1  0  0  0
  9 10  1  0  0  0
 17  9  1  0  0  0
 10 16  1  0  0  0
 11 13  1  0  0  0
 11 17  1  0  0  0
 11 21  2  0  0  0
 13 14  1  0  0  0
 13 15  1  0  0  0
 14 15  1  0  0  0
 18 19  4  0  0  0
  2 22  1  0  0  0
  2 23  1  0  0  0
  3 24  1  0  0  0
  6 25  1  0  0  0
  6 26  1  0  0  0
  7 27  1  0  0  0
  7 28  1  0  0  0
  7 29  1  0  0  0
  8 30  1  0  0  0
  8 31  1  0  0  0
  8 32  1  0  0  0
  9 33  1  0  0  0
 10 34  1  0  0  0
 10 35  1  0  0  0
 12 36  1  0  0  0
 13 37  1  0  0  0
 14 38  1  0  0  0
 14 39  1  0  0  0
 15 40  1  0  0  0
 15 41  1  0  0  0
 17 42  1  0  0  0
M  END
$$$$
