1wss_ligand
  -I-interpret- 

 78 79  0  0  0  0  0  0  0  0999 V2000
   35.6350    6.9440    9.8530 C   0  0  0  0  0
   34.8950    7.3560   10.7500 O   0  0  0  0  0
   35.4600    7.2150    8.5260 N   0  0  0  0  0
   34.3770    8.1620    8.2570 C   0  0  0  0  0
   34.3420    8.7070    6.8330 C   0  0  0  0  0
   35.7170    9.1260    6.3340 C   0  0  0  0  0
   33.0670    7.4660    8.6220 C   0  0  0  0  0
   32.9150    6.2610    8.4110 O   0  0  0  0  0
   32.1530    8.2830    9.1740 N   0  0  0  0  0
   30.7850    7.8120    9.3680 C   0  0  0  0  0
   31.2230    6.5300   11.4540 C   0  0  0  0  0
   31.0710    6.3040   12.8190 C   0  0  0  0  0
   30.1680    7.0620   13.5950 C   0  0  0  0  0
   29.3760    8.0410   12.9440 C   0  0  0  0  0
   29.5480    8.2900   11.5610 C   0  0  0  0  0
   30.4880    7.5400   10.8150 C   0  0  0  0  0
   30.0880    6.8150   15.0720 C   0  0  0  0  0
   30.7370    5.7890   15.6480 N   0  0  0  0  0
   35.7020    9.6530    4.9350 C   0  0  0  0  0
   35.5980    8.8570    3.8740 N   0  0  0  0  0
   35.8490   10.9690    4.7870 N   0  0  0  0  0
   37.9540    7.0460   10.7650 C   0  0  0  0  0
   39.1810    6.3040   11.2910 C   0  0  0  0  0
   36.5420    5.0920   11.2670 N   0  0  0  0  0
   36.8590    6.0720   10.2120 C   0  0  0  0  0
   38.3460    8.1880    9.7960 C   0  0  0  0  0
   35.6830    3.6380   10.8750 S   0  0  0  0  0
   35.8400    2.8040   12.0080 O   0  0  0  0  0
   36.2380    3.2460    9.6320 O   0  0  0  0  0
   33.9860    4.0530   10.6240 C   0  0  0  0  0
   39.8250    5.4620   10.1910 C   0  0  0  0  0
   33.1190    2.9000   10.2910 C   0  0  0  0  0
   33.1420    2.3650    8.9960 C   0  0  0  0  0
   32.3720    1.2360    8.6800 C   0  0  0  0  0
   31.5960    0.6220    9.6860 C   0  0  0  0  0
   31.5630    1.1520   10.9870 C   0  0  0  0  0
   32.3150    2.3060   11.2810 C   0  0  0  0  0
   29.3430    7.5940   15.8580 N   0  0  0  0  0
   32.3730    0.7070    7.3180 C   0  0  0  0  0
   31.7120   -0.3020    7.0750 O   0  0  0  0  0
   33.0290    1.2970    6.4610 O   0  0  0  0  0
   36.0306    6.7967    7.7912 H   0  0  0  0  0
   34.5445    9.0503    8.8660 H   0  0  0  0  0
   33.6996    9.5876    6.8262 H   0  0  0  0  0
   33.9744    7.9158    6.1796 H   0  0  0  0  0
   36.3557    8.2429    6.3469 H   0  0  0  0  0
   36.0742    9.9251    6.9836 H   0  0  0  0  0
   32.4143    9.2278    9.4560 H   0  0  0  0  0
   30.6609    6.8825    8.8124 H   0  0  0  0  0
   30.1032    8.5872    9.0184 H   0  0  0  0  0
   31.9174    5.9185   10.8778 H   0  0  0  0  0
   31.6624    5.5244   13.2993 H   0  0  0  0  0
   28.6329    8.6033   13.5095 H   0  0  0  0  0
   28.9549    9.0613   11.0696 H   0  0  0  0  0
   30.6496    5.6292   16.6516 H   0  0  0  0  0
   31.3170    5.1700   15.0816 H   0  0  0  0  0
   35.6305    9.2527    2.9344 H   0  0  0  0  0
   35.8829   11.3765    3.8525 H   0  0  0  0  0
   35.9277   11.5689    5.6082 H   0  0  0  0  0
   37.4770    7.5397   11.6117 H   0  0  0  0  0
   38.8698    5.6433   12.1001 H   0  0  0  0  0
   39.9084    7.0360   11.6421 H   0  0  0  0  0
   36.8287    5.2699   12.2296 H   0  0  0  0  0
   37.1842    5.5215    9.3292 H   0  0  0  0  0
   38.9822    8.9031   10.3176 H   0  0  0  0  0
   38.8862    7.7719    8.9457 H   0  0  0  0  0
   37.4446    8.6903    9.4449 H   0  0  0  0  0
   33.9456    4.7392    9.7781 H   0  0  0  0  0
   33.6167    4.4719   11.5601 H   0  0  0  0  0
   39.1038    4.7310    9.8255 H   0  0  0  0  0
   40.1331    6.1113    9.3716 H   0  0  0  0  0
   40.6959    4.9450   10.5938 H   0  0  0  0  0
   33.7623    2.8292    8.2293 H   0  0  0  0  0
   31.0170   -0.2713    9.4518 H   0  0  0  0  0
   30.9615    0.6749   11.7608 H   0  0  0  0  0
   32.2739    2.7407   12.2797 H   0  0  0  0  0
   28.8176    8.3704   15.4561 H   0  0  0  0  0
   31.2799   -0.6012    7.8783 H   0  0  0  0  0
  1  2  2  0  0  0
  1  3  1  0  0  0
 25  1  1  0  0  0
  3  4  1  0  0  0
  4  5  1  0  0  0
  4  7  1  0  0  0
  5  6  1  0  0  0
  6 19  1  0  0  0
  7  8  2  0  0  0
  7  9  1  0  0  0
  9 10  1  0  0  0
 10 16  1  0  0  0
 11 12  4  0  0  0
 16 11  4  0  0  0
 12 13  4  0  0  0
 14 13  4  0  0  0
 13 17  1  0  0  0
 15 14  4  0  0  0
 16 15  4  0  0  0
 17 18  1  0  0  0
 17 38  2  0  0  0
 19 20  2  0  0  0
 19 21  1  0  0  0
 22 23  1  0  0  0
 22 25  1  0  0  0
 22 26  1  0  0  0
 23 31  1  0  0  0
 25 24  1  0  0  0
 24 27  1  0  0  0
 27 28  2  0  0  0
 27 29  2  0  0  0
 27 30  1  0  0  0
 30 32  1  0  0  0
 32 33  4  0  0  0
 32 37  4  0  0  0
 33 34  4  0  0  0
 34 35  4  0  0  0
 34 39  1  0  0  0
 35 36  4  0  0  0
 36 37  4  0  0  0
 39 40  1  0  0  0
 39 41  2  0  0  0
  3 42  1  0  0  0
  4 43  1  0  0  0
  5 44  1  0  0  0
  5 45  1  0  0  0
  6 46  1  0  0  0
  6 47  1  0  0  0
  9 48  1  0  0  0
 10 49  1  0  0  0
 10 50  1  0  0  0
 11 51  1  0  0  0
 12 52  1  0  0  0
 14 53  1  0  0  0
 15 54  1  0  0  0
 18 55  1  0  0  0
 18 56  1  0  0  0
 20 57  1  0  0  0
 21 58  1  0  0  0
 21 59  1  0  0  0
 22 60  1  0  0  0
 23 61  1  0  0  0
 23 62  1  0  0  0
 24 63  1  0  0  0
 25 64  1  0  0  0
 26 65  1  0  0  0
 26 66  1  0  0  0
 26 67  1  0  0  0
 30 68  1  0  0  0
 30 69  1  0  0  0
 31 70  1  0  0  0
 31 71  1  0  0  0
 31 72  1  0  0  0
 33 73  1  0  0  0
 35 74  1  0  0  0
 36 75  1  0  0  0
 37 76  1  0  0  0
 38 77  1  0  0  0
 40 78  1  0  0  0
M  END
$$$$
