### 
### Created by X-TOOL on Wed Jan  1 15:39:35 2020
### 

@<TRIPOS>MOLECULE
5o0j_ligand
   35    37     1     0     0
SMALL
GAST_HUCK


@<TRIPOS>ATOM
      1 P          29.3100   29.0420   17.4130 P.3       1 8BR         0.2008
      2 O1P        28.0670   28.2100   17.1210 O.co2     1 8BR        -0.5537
      3 O2P        30.5250   28.1140   17.5680 O.co2     1 8BR        -0.5537
      4 O3P        29.0680   30.0760   18.4530 O.co2     1 8BR        -0.5537
      5 O5'        29.5400   29.7960   16.0350 O.3       1 8BR        -0.2734
      6 C5'        30.2290   31.0360   15.9900 C.3       1 8BR         0.1072
      7 C4'        30.7100   31.3400   14.5940 C.3       1 8BR         0.1182
      8 O4'        31.2650   32.6690   14.5850 O.3       1 8BR        -0.3365
      9 C3'        31.8380   30.4520   14.0640 C.3       1 8BR         0.1149
     10 O3'        31.3590   29.2750   13.4270 O.3       1 8BR        -0.3864
     11 C2'        32.6120   31.3650   13.1060 C.3       1 8BR         0.1385
     12 O2'        32.1610   31.1850   11.7760 O.3       1 8BR        -0.3836
     13 C1'        32.2180   32.7790   13.5630 C.3       1 8BR         0.2004
     14 N9         33.3650   33.5830   14.0300 N.pl3     1 8BR        -0.1870
     15 C8         34.1310   33.4610   15.1750 C.2       1 8BR         0.1920
     16 BR8        33.7070   32.3070   16.5770 Br        1 8BR         0.0251
     17 N7         35.1710   34.2520   15.1980 N.2       1 8BR        -0.2842
     18 C5         35.0850   34.9560   14.0060 C.ar      1 8BR         0.1094
     19 C6         35.9230   35.9300   13.4290 C.ar      1 8BR         0.1320
     20 N6         37.0550   36.3600   13.9890 N.pl3     1 8BR        -0.3145
     21 N1         35.5670   36.4250   12.2230 N.ar      1 8BR        -0.2685
     22 C2         34.4520   35.9650   11.6430 C.ar      1 8BR         0.0542
     23 N3         33.5920   35.0420   12.0890 N.ar      1 8BR        -0.2701
     24 C4         33.9730   34.5710   13.2830 C.ar      1 8BR         0.1626
     25 H1         31.0953   30.9903   16.6663 H         1 8BR         0.0639
     26 H2         29.5496   31.8365   16.3180 H         1 8BR         0.0639
     27 H3         29.8505   31.2742   13.9107 H         1 8BR         0.0650
     28 H4         32.4910   30.1473   14.8951 H         1 8BR         0.0648
     29 H5         30.8535   28.7636   14.0479 H         1 8BR         0.2100
     30 H6         33.6969   31.1963   13.1736 H         1 8BR         0.0676
     31 H7         32.2949   30.2808   11.5170 H         1 8BR         0.2101
     32 H8         31.7640   33.3017   12.7082 H         1 8BR         0.0996
     33 H9         37.6244   37.0758   13.5153 H         1 8BR         0.1824
     34 H10        37.3596   35.9762   14.8950 H         1 8BR         0.1824
     35 H11        34.2127   36.4000   10.6794 H         1 8BR         0.1003
@<TRIPOS>BOND
     1    1    2 ar 
     2    1    3 ar 
     3    1    4 ar 
     4    1    5 1  
     5    5    6 1  
     6    6    7 1  
     7    7    8 1  
     8    7    9 1  
     9    8   13 1  
    10    9   10 1  
    11    9   11 1  
    12   11   12 1  
    13   11   13 1  
    14   13   14 1  
    15   14   15 1  
    16   14   24 1  
    17   15   16 1  
    18   15   17 2  
    19   17   18 1  
    20   18   19 ar 
    21   18   24 ar 
    22   19   20 1  
    23   19   21 ar 
    24   21   22 ar 
    25   22   23 ar 
    26   23   24 ar 
    27    6   25 1  
    28    6   26 1  
    29    7   27 1  
    30    9   28 1  
    31   10   29 1  
    32   11   30 1  
    33   12   31 1  
    34   13   32 1  
    35   20   33 1  
    36   20   34 1  
    37   22   35 1  
@<TRIPOS>SUBSTRUCTURE
     1 8BR         1

