5o0j_ligand
  -I-interpret- 

 37 39  0  0  0  0  0  0  0  0999 V2000
   29.3100   29.0420   17.4130 P   0  0  0  0  0
   28.0670   28.2100   17.1210 O   0  0  0  0  0
   30.5250   28.1140   17.5680 O   0  0  0  0  0
   29.0680   30.0760   18.4530 O   0  0  0  0  0
   29.5400   29.7960   16.0350 O   0  0  0  0  0
   30.2290   31.0360   15.9900 C   0  0  0  0  0
   30.7100   31.3400   14.5940 C   0  0  0  0  0
   31.2650   32.6690   14.5850 O   0  0  0  0  0
   31.8380   30.4520   14.0640 C   0  0  0  0  0
   31.3590   29.2750   13.4270 O   0  0  0  0  0
   32.6120   31.3650   13.1060 C   0  0  0  0  0
   32.1610   31.1850   11.7760 O   0  0  0  0  0
   32.2180   32.7790   13.5630 C   0  0  0  0  0
   33.3650   33.5830   14.0300 N   0  0  0  0  0
   34.1310   33.4610   15.1750 C   0  0  0  0  0
   33.7070   32.3070   16.5770 Br  0  0  0  0  0
   35.1710   34.2520   15.1980 N   0  0  0  0  0
   35.0850   34.9560   14.0060 C   0  0  0  0  0
   35.9230   35.9300   13.4290 C   0  0  0  0  0
   37.0550   36.3600   13.9890 N   0  0  0  0  0
   35.5670   36.4250   12.2230 N   0  0  0  0  0
   34.4520   35.9650   11.6430 C   0  0  0  0  0
   33.5920   35.0420   12.0890 N   0  0  0  0  0
   33.9730   34.5710   13.2830 C   0  0  0  0  0
   28.2708   27.5583   16.4461 H   0  0  0  0  0
   30.5551   27.5020   16.8290 H   0  0  0  0  0
   31.0933   30.9787   16.6517 H   0  0  0  0  0
   29.5461   31.8258   16.3031 H   0  0  0  0  0
   29.8317   31.1861   13.9671 H   0  0  0  0  0
   32.4670   30.0677   14.8670 H   0  0  0  0  0
   32.1037   28.7560   13.1144 H   0  0  0  0  0
   33.6841   31.1693   13.1231 H   0  0  0  0  0
   32.6555   31.7633   11.1906 H   0  0  0  0  0
   31.8100   33.3031   12.6988 H   0  0  0  0  0
   37.3566   35.9799   14.8862 H   0  0  0  0  0
   37.6189   37.0688   13.5199 H   0  0  0  0  0
   34.2114   36.4024   10.6740 H   0  0  0  0  0
  1  2  1  0  0  0
  1  3  1  0  0  0
  1  4  2  0  0  0
  1  5  1  0  0  0
  5  6  1  0  0  0
  6  7  1  0  0  0
  7  8  1  0  0  0
  7  9  1  0  0  0
  8 13  1  0  0  0
  9 10  1  0  0  0
  9 11  1  0  0  0
 11 12  1  0  0  0
 11 13  1  0  0  0
 13 14  1  0  0  0
 14 15  4  0  0  0
 14 24  4  0  0  0
 15 16  1  0  0  0
 15 17  4  0  0  0
 17 18  4  0  0  0
 18 19  4  0  0  0
 18 24  4  0  0  0
 19 20  1  0  0  0
 19 21  4  0  0  0
 21 22  4  0  0  0
 22 23  4  0  0  0
 23 24  4  0  0  0
  2 25  1  0  0  0
  3 26  1  0  0  0
  6 27  1  0  0  0
  6 28  1  0  0  0
  7 29  1  0  0  0
  9 30  1  0  0  0
 10 31  1  0  0  0
 11 32  1  0  0  0
 12 33  1  0  0  0
 13 34  1  0  0  0
 20 35  1  0  0  0
 20 36  1  0  0  0
 22 37  1  0  0  0
M  END
$$$$
