5cu4_ligand
  -I-interpret- 

 61 63  0  0  0  0  0  0  0  0999 V2000
 -143.2720 -172.1270  361.2790 C   0  0  0  0  0
 -141.1090 -171.1860  361.8750 C   0  0  0  0  0
 -139.7190 -171.4590  362.3950 C   0  0  0  0  0
 -139.4290 -172.6170  363.0970 C   0  0  0  0  0
 -137.1250 -171.9470  363.3660 C   0  0  0  0  0
 -137.4300 -170.7870  362.6650 C   0  0  0  0  0
 -138.6990 -170.5430  362.1810 C   0  0  0  0  0
 -135.7610 -172.2660  363.8720 C   0  0  0  0  0
 -134.7160 -172.5430  362.9910 C   0  0  0  0  0
 -133.4550 -172.8550  363.4660 C   0  0  0  0  0
 -133.2120 -172.8990  364.8210 C   0  0  0  0  0
 -134.2300 -172.6230  365.7030 C   0  0  0  0  0
 -136.2070 -169.5880  362.3770 Cl  0  0  0  0  0
 -135.4940 -172.3080  365.2390 C   0  0  0  0  0
 -138.1570 -172.8620  363.5790 C   0  0  0  0  0
 -141.9970 -172.3450  361.9660 N   0  3  0  0  0
 -144.2810 -173.2120  361.5890 C   0  0  0  0  0
 -145.5720 -173.0230  360.8310 C   0  0  0  0  0
 -145.5880 -172.9590  359.6090 O   0  0  0  0  0
 -146.6730 -172.9430  361.5710 N   0  0  0  0  0
 -147.9690 -172.5590  361.0280 C   0  0  0  0  0
 -148.8150 -173.7630  360.6670 C   0  0  0  0  0
 -149.2030 -174.5840  361.8750 C   0  0  0  0  0
 -149.2050 -174.1120  363.0030 O   0  0  0  0  0
 -149.4990 -175.8720  361.5930 N   0  0  0  0  0
 -149.9360 -176.8930  362.4740 C   0  0  0  0  0
 -150.2430 -176.6770  363.8100 C   0  0  0  0  0
 -150.4770 -177.7550  364.6450 C   0  0  0  0  0
 -150.4030 -179.0470  364.1570 C   0  0  0  0  0
 -149.9000 -178.1890  361.9780 C   0  0  0  0  0
 -150.1110 -179.2750  362.8190 C   0  0  0  0  0
 -149.8670 -180.6510  362.3130 C   0  0  0  0  0
 -149.7780 -180.8770  361.1190 O   0  0  0  0  0
 -149.8230 -181.5770  363.2220 O   0  0  0  0  0
 -143.0845 -172.1348  360.2053 H   0  0  0  0  0
 -143.6818 -171.1756  361.6182 H   0  0  0  0  0
 -141.0210 -170.9195  360.8217 H   0  0  0  0  0
 -141.5395 -170.3917  362.4848 H   0  0  0  0  0
 -140.2180 -173.3483  363.2725 H   0  0  0  0  0
 -138.9012 -169.6259  361.6277 H   0  0  0  0  0
 -134.8950 -172.5133  361.9162 H   0  0  0  0  0
 -132.6488 -173.0673  362.7638 H   0  0  0  0  0
 -132.2185 -173.1511  365.1919 H   0  0  0  0  0
 -134.0393 -172.6527  366.7758 H   0  0  0  0  0
 -136.2904 -172.0901  365.9506 H   0  0  0  0  0
 -137.9577 -173.7801  364.1317 H   0  0  0  0  0
 -141.5303 -173.1357  361.5217 H   0  0  0  0  0
 -142.1949 -172.5142  362.9522 H   0  0  0  0  0
 -144.5047 -173.1726  362.6551 H   0  0  0  0  0
 -143.8513 -174.1692  361.2937 H   0  0  0  0  0
 -146.6075 -173.1606  362.5654 H   0  0  0  0  0
 -147.7992 -171.9785  360.1212 H   0  0  0  0  0
 -148.4999 -171.9860  361.7882 H   0  0  0  0  0
 -148.2281 -174.3986  360.0039 H   0  0  0  0  0
 -149.7306 -173.4014  360.1991 H   0  0  0  0  0
 -149.3940 -176.1461  360.6161 H   0  0  0  0  0
 -150.2996 -175.6609  364.2004 H   0  0  0  0  0
 -150.7211 -177.5851  365.6936 H   0  0  0  0  0
 -150.5747 -179.8902  364.8260 H   0  0  0  0  0
 -149.7044 -178.3564  360.9188 H   0  0  0  0  0
 -149.9117 -181.1764  364.0899 H   0  0  0  0  0
 16  1  1  0  0  0
  1 17  1  0  0  0
  3  2  1  0  0  0
  2 16  1  0  0  0
  4  3  4  0  0  0
  3  7  4  0  0  0
 15  4  4  0  0  0
  5  6  4  0  0  0
  5  8  1  0  0  0
  5 15  4  0  0  0
  6  7  4  0  0  0
  6 13  1  0  0  0
  8  9  4  0  0  0
  8 14  4  0  0  0
  9 10  4  0  0  0
 10 11  4  0  0  0
 11 12  4  0  0  0
 12 14  4  0  0  0
 17 18  1  0  0  0
 18 19  2  0  0  0
 18 20  1  0  0  0
 20 21  1  0  0  0
 21 22  1  0  0  0
 22 23  1  0  0  0
 23 24  2  0  0  0
 23 25  1  0  0  0
 25 26  1  0  0  0
 26 27  4  0  0  0
 26 30  4  0  0  0
 27 28  4  0  0  0
 28 29  4  0  0  0
 29 31  4  0  0  0
 30 31  4  0  0  0
 31 32  1  0  0  0
 32 33  2  0  0  0
 32 34  1  0  0  0
  1 35  1  0  0  0
  1 36  1  0  0  0
  2 37  1  0  0  0
  2 38  1  0  0  0
  4 39  1  0  0  0
  7 40  1  0  0  0
  9 41  1  0  0  0
 10 42  1  0  0  0
 11 43  1  0  0  0
 12 44  1  0  0  0
 14 45  1  0  0  0
 15 46  1  0  0  0
 16 47  1  0  0  0
 16 48  1  0  0  0
 17 49  1  0  0  0
 17 50  1  0  0  0
 20 51  1  0  0  0
 21 52  1  0  0  0
 21 53  1  0  0  0
 22 54  1  0  0  0
 22 55  1  0  0  0
 25 56  1  0  0  0
 27 57  1  0  0  0
 28 58  1  0  0  0
 29 59  1  0  0  0
 30 60  1  0  0  0
 34 61  1  0  0  0
M  END
$$$$
