4cu1_ligand
  -I-interpret- 

 55 57  0  0  0  0  0  0  0  0999 V2000
   17.7560   14.5900   34.0380 N   0  0  0  0  0
   17.2600   14.7250   35.2900 C   0  0  0  0  0
   18.0480   15.2480   36.3300 C   0  0  0  0  0
   17.5060   15.3710   37.6190 C   0  0  0  0  0
   18.3230   15.9320   38.7560 C   0  0  0  0  0
   16.1900   14.9670   37.8410 C   0  0  0  0  0
   15.9800   14.3430   35.5290 N   0  0  0  0  0
   15.4480   14.4640   36.7660 C   0  0  0  0  0
   14.0370   14.0090   36.9660 C   0  0  0  0  0
   13.0350   15.1490   37.0350 C   0  0  0  0  0
   12.2280   15.2370   35.7850 C   0  0  0  0  0
   11.9910   16.5300   35.3290 C   0  0  0  0  0
   10.7980   15.3880   38.3660 N   0  3  0  0  0
   10.7360   15.7180   33.5430 C   0  0  0  0  0
   11.7040   14.1190   35.0810 C   0  0  0  0  0
   10.9340   14.3910   33.9380 C   0  0  0  0  0
   10.2900   13.3700   33.0810 C   0  0  0  0  0
    8.9650   13.4720   32.8680 C   0  0  0  0  0
    8.1630   12.5560   31.9940 C   0  0  0  0  0
    6.8200   12.4890   32.1660 N   0  0  0  0  0
    6.0300   11.7360   31.3820 C   0  0  0  0  0
    4.7050   11.7340   31.6450 N   0  0  0  0  0
    6.5580   10.9900   30.3250 C   0  0  0  0  0
    7.9470   11.0310   30.1200 C   0  0  0  0  0
    8.7440   11.8330   30.9580 C   0  0  0  0  0
    8.5810   10.2410   28.9950 C   0  0  0  0  0
   12.1660   14.8410   38.2600 C   0  0  0  0  0
   11.2520   16.7450   34.2370 N   0  0  0  0  0
   18.7160   14.8697   33.8369 H   0  0  0  0  0
   17.1698   14.2085   33.2956 H   0  0  0  0  0
   19.0753   15.5566   36.1364 H   0  0  0  0  0
   19.2047   15.3098   38.9098 H   0  0  0  0  0
   18.6321   16.9485   38.5126 H   0  0  0  0  0
   17.7206   15.9417   39.6644 H   0  0  0  0  0
   15.7469   15.0416   38.8341 H   0  0  0  0  0
   13.9959   13.4794   37.9178 H   0  0  0  0  0
   13.7688   13.3892   36.1104 H   0  0  0  0  0
   13.5230   16.1193   37.1275 H   0  0  0  0  0
   12.4132   17.3774   35.8691 H   0  0  0  0  0
   10.3765   15.0791   39.2420 H   0  0  0  0  0
   10.8382   16.4070   38.3475 H   0  0  0  0  0
   10.2380   15.0543   37.5815 H   0  0  0  0  0
   10.1477   15.9237   32.6488 H   0  0  0  0  0
   11.8910   13.0977   35.4127 H   0  0  0  0  0
   10.8704   12.5614   32.6367 H   0  0  0  0  0
    8.4351   14.2821   33.3691 H   0  0  0  0  0
    4.3373   12.2913   32.4161 H   0  0  0  0  0
    4.0723   11.1752   31.0725 H   0  0  0  0  0
    5.9121   10.3947   29.6796 H   0  0  0  0  0
    9.8203   11.8876   30.7944 H   0  0  0  0  0
    8.3706    9.1806   29.1339 H   0  0  0  0  0
    8.1684   10.5728   28.0423 H   0  0  0  0  0
    9.6589   10.4028   29.0017 H   0  0  0  0  0
   12.7028   15.2980   39.0914 H   0  0  0  0  0
   12.0209   13.7614   38.2213 H   0  0  0  0  0
  2  1  1  0  0  0
  2  3  4  0  0  0
  7  2  4  0  0  0
  4  3  4  0  0  0
  4  5  1  0  0  0
  6  4  4  0  0  0
  8  6  4  0  0  0
  8  7  4  0  0  0
  9  8  1  0  0  0
 10  9  1  0  0  0
 11 10  1  0  0  0
 10 27  1  0  0  0
 12 11  4  0  0  0
 11 15  4  0  0  0
 28 12  4  0  0  0
 27 13  1  0  0  0
 14 16  4  0  0  0
 14 28  4  0  0  0
 15 16  4  0  0  0
 16 17  1  0  0  0
 17 18  2  0  0  0
 18 19  1  0  0  0
 19 20  4  0  0  0
 19 25  4  0  0  0
 20 21  4  0  0  0
 21 22  1  0  0  0
 21 23  4  0  0  0
 23 24  4  0  0  0
 24 25  4  0  0  0
 24 26  1  0  0  0
  1 29  1  0  0  0
  1 30  1  0  0  0
  3 31  1  0  0  0
  5 32  1  0  0  0
  5 33  1  0  0  0
  5 34  1  0  0  0
  6 35  1  0  0  0
  9 36  1  0  0  0
  9 37  1  0  0  0
 10 38  1  0  0  0
 12 39  1  0  0  0
 13 40  1  0  0  0
 13 41  1  0  0  0
 13 42  1  0  0  0
 14 43  1  0  0  0
 15 44  1  0  0  0
 17 45  1  0  0  0
 18 46  1  0  0  0
 22 47  1  0  0  0
 22 48  1  0  0  0
 23 49  1  0  0  0
 25 50  1  0  0  0
 26 51  1  0  0  0
 26 52  1  0  0  0
 26 53  1  0  0  0
 27 54  1  0  0  0
 27 55  1  0  0  0
M  END
$$$$
