### 
### Created by X-TOOL on Mon Sep 10 21:13:04 2018
### 

@<TRIPOS>MOLECULE
3kbz_ligand
   28    30     1     0     0
SMALL
GAST_HUCK


@<TRIPOS>ATOM
      1 C1         19.1950   60.2110   16.2870 C.ar      1 2T4         0.0886
      2 C2         19.5140   61.2060   15.3430 C.ar      1 2T4        -0.0448
      3 C3         20.8510   61.6260   15.1790 C.ar      1 2T4        -0.0830
      4 C4         21.8660   61.0470   15.9600 C.ar      1 2T4        -0.0753
      5 C5         21.5150   60.0670   16.8810 C.ar      1 2T4        -0.0389
      6 C6         20.2060   59.6740   17.0270 C.ar      1 2T4        -0.0012
      7 C7         22.4540   59.2920   17.8420 C.3       1 2T4         0.0177
      8 C8         21.3660   58.4490   18.4850 C.2       1 2T4         0.0362
      9 C9         20.1410   58.6580   18.0410 C.2       1 2T4        -0.0050
     10 S10        21.3760   57.2700   19.6740 S.3       1 2T4         0.0209
     11 C11        19.6740   57.0690   19.5600 C.2       1 2T4         0.1705
     12 N12        19.1280   57.9120   18.6040 N.2       1 2T4        -0.3302
     13 N13        18.9050   56.1220   20.3750 N.pl3     1 2T4        -0.3015
     14 O14        17.8990   59.7630   16.4840 O.3       1 2T4        -0.3030
     15 C15        16.9690   60.6900   15.9840 C.3       1 2T4         0.1396
     16 P16        15.2870   60.0580   16.2380 P.3       1 2T4         0.0898
     17 O17        14.3060   60.8680   15.4440 O.co2     1 2T4        -0.5605
     18 O18        15.2250   58.6290   15.7960 O.co2     1 2T4        -0.5605
     19 O19        14.9490   60.1490   17.6920 O.co2     1 2T4        -0.5605
     20 H1         18.7301   61.6506   14.7406 H         1 2T4         0.0461
     21 H2         21.0946   62.3930   14.4528 H         1 2T4         0.0523
     22 H3         22.8984   61.3575   15.8467 H         1 2T4         0.0454
     23 H4         22.9621   59.9504   18.5619 H         1 2T4         0.0632
     24 H5         23.2011   58.6860   17.3086 H         1 2T4         0.0632
     25 H6         17.8843   56.0510   20.2565 H         1 2T4         0.1846
     26 H7         19.3858   55.5281   21.0657 H         1 2T4         0.1846
     27 H8         17.1449   60.8421   14.9089 H         1 2T4         0.0808
     28 H9         17.0847   61.6472   16.5135 H         1 2T4         0.0808
@<TRIPOS>BOND
     1    1    2 ar 
     2    1    6 ar 
     3    1   14 1  
     4    2    3 ar 
     5    3    4 ar 
     6    4    5 ar 
     7    5    6 ar 
     8    5    7 1  
     9    6    9 1  
    10    7    8 1  
    11    8    9 2  
    12    8   10 1  
    13    9   12 1  
    14   10   11 1  
    15   11   12 2  
    16   11   13 1  
    17   14   15 1  
    18   15   16 1  
    19   16   17 ar 
    20   16   18 ar 
    21   16   19 ar 
    22    2   20 1  
    23    3   21 1  
    24    4   22 1  
    25    7   23 1  
    26    7   24 1  
    27   13   25 1  
    28   13   26 1  
    29   15   27 1  
    30   15   28 1  
@<TRIPOS>SUBSTRUCTURE
     1 2T4         1

