### 
### Created by X-TOOL on Mon Sep 10 21:12:45 2018
### 

@<TRIPOS>MOLECULE
1dmb_ligand
  147   154     1     0     0
SMALL
GAST_HUCK


@<TRIPOS>ATOM
      1 C11       -10.6950   -3.0480    2.0180 C.3       1 BCD         0.1884
      2 C21        -9.8220   -2.5570    0.8350 C.3       1 BCD         0.1341
      3 O21       -10.2920   -3.1690   -0.3840 O.3       1 BCD        -0.3841
      4 C31        -8.3470   -2.8400    1.0900 C.3       1 BCD         0.1144
      5 O31        -7.5390   -2.2390    0.0550 O.3       1 BCD        -0.3864
      6 C41        -7.9190   -2.2960    2.4400 C.3       1 BCD         0.1184
      7 O41        -6.6110   -2.8200    2.6940 O.3       1 BCD        -0.3401
      8 C51        -8.8440   -2.7560    3.5600 C.3       1 BCD         0.1134
      9 O51       -10.2330   -2.4020    3.2040 O.3       1 BCD        -0.3405
     10 C61        -8.6060   -2.1230    4.9100 C.3       1 BCD         0.0730
     11 O61        -9.4680   -2.7520    5.8720 O.3       1 BCD        -0.3924
     12 C12        -5.6130   -1.9530    3.1330 C.3       1 BCD         0.1884
     13 C22        -4.3330   -2.1330    2.3090 C.3       1 BCD         0.1341
     14 O22        -4.6760   -1.9710    0.9240 O.3       1 BCD        -0.3841
     15 C32        -3.6860   -3.4610    2.6470 C.3       1 BCD         0.1144
     16 O32        -2.4550   -3.5710    1.9090 O.3       1 BCD        -0.3864
     17 C42        -3.3950   -3.5320    4.1440 C.3       1 BCD         0.1184
     18 O42        -2.8410   -4.8180    4.4360 O.3       1 BCD        -0.3401
     19 C52        -4.6860   -3.1070    4.9290 C.3       1 BCD         0.1134
     20 O52        -5.3440   -2.1600    4.5110 O.3       1 BCD        -0.3405
     21 C62        -4.5490   -3.3150    6.4150 C.3       1 BCD         0.0730
     22 O62        -5.8830   -3.6210    6.8080 O.3       1 BCD        -0.3924
     23 C13        -1.5170   -5.0010    4.8570 C.3       1 BCD         0.1884
     24 C23        -0.9320   -6.2110    4.1280 C.3       1 BCD         0.1341
     25 O23        -1.1370   -6.0340    2.6980 O.3       1 BCD        -0.3841
     26 C33        -1.6250   -7.4800    4.5730 C.3       1 BCD         0.1144
     27 O33        -1.0470   -8.6020    3.8750 O.3       1 BCD        -0.3864
     28 C43        -1.5530   -7.6420    6.0700 C.3       1 BCD         0.1184
     29 O43        -2.3690   -8.7420    6.4180 O.3       1 BCD        -0.3401
     30 C53        -2.1420   -6.4000    6.7420 C.3       1 BCD         0.1134
     31 O53        -1.4930   -5.2340    6.2620 O.3       1 BCD        -0.3405
     32 C63        -1.9160   -6.4540    8.2750 C.3       1 BCD         0.0730
     33 O63        -2.0990   -5.2980    8.9830 O.3       1 BCD        -0.3924
     34 C14        -1.9640   -9.6470    7.4370 C.3       1 BCD         0.1884
     35 C24        -1.4020  -10.9030    6.6990 C.3       1 BCD         0.1341
     36 O24        -0.2480  -10.5840    5.9470 O.3       1 BCD        -0.3841
     37 C34        -2.5190  -11.4120    5.7910 C.3       1 BCD         0.1144
     38 O34        -2.0540  -12.4780    4.9600 O.3       1 BCD        -0.3864
     39 C44        -3.6900  -11.8180    6.6560 C.3       1 BCD         0.1184
     40 O44        -4.7810  -12.1550    5.7750 O.3       1 BCD        -0.3401
     41 C54        -4.1380  -10.6300    7.5090 C.3       1 BCD         0.1134
     42 O54        -3.0730  -10.0040    8.1990 O.3       1 BCD        -0.3405
     43 C64        -5.1020  -11.1490    8.6340 C.3       1 BCD         0.0730
     44 O64        -5.3900  -10.0380    9.4710 O.3       1 BCD        -0.3924
     45 C15        -5.4190  -13.4140    5.9450 C.3       1 BCD         0.1884
     46 C25        -5.7070  -13.9940    4.5760 C.3       1 BCD         0.1341
     47 O25        -4.5460  -13.9810    3.7250 O.3       1 BCD        -0.3841
     48 C35        -6.8000  -13.1720    3.8860 C.3       1 BCD         0.1144
     49 O35        -7.1710  -13.7860    2.6400 O.3       1 BCD        -0.3864
     50 C45        -8.0100  -13.0900    4.7800 C.3       1 BCD         0.1184
     51 O45        -8.9300  -12.1900    4.1140 O.3       1 BCD        -0.3401
     52 C55        -7.6650  -12.4980    6.1690 C.3       1 BCD         0.1134
     53 O55        -6.5710  -13.2550    6.7330 O.3       1 BCD        -0.3405
     54 C65        -8.8180  -12.6370    7.0860 C.3       1 BCD         0.0730
     55 O65        -8.7060  -11.8450    8.2420 O.3       1 BCD        -0.3924
     56 C16       -10.3040  -12.5900    4.0180 C.3       1 BCD         0.1884
     57 C26       -10.7130  -12.4470    2.5990 C.3       1 BCD         0.1341
     58 O26        -9.6330  -12.9430    1.7880 O.3       1 BCD        -0.3841
     59 C36       -10.9590  -10.9960    2.1830 C.3       1 BCD         0.1144
     60 O36       -11.7980  -11.0370    0.9790 O.3       1 BCD        -0.3864
     61 C46       -11.6080  -10.1620    3.1870 C.3       1 BCD         0.1184
     62 O46       -11.3420   -8.7810    2.7660 O.3       1 BCD        -0.3401
     63 C56       -11.0290  -10.3520    4.5810 C.3       1 BCD         0.1134
     64 O56       -11.0920  -11.7660    4.8710 O.3       1 BCD        -0.3405
     65 C66       -11.7720   -9.6570    5.7260 C.3       1 BCD         0.0730
     66 O66       -12.3790  -10.5400    6.4270 O.3       1 BCD        -0.3924
     67 C17       -12.4610   -8.1300    2.1450 C.3       1 BCD         0.1884
     68 C27       -12.0230   -7.6210    0.7920 C.3       1 BCD         0.1341
     69 O27       -11.2760   -8.6550    0.1070 O.3       1 BCD        -0.3841
     70 C37       -11.1320   -6.3900    0.8920 C.3       1 BCD         0.1144
     71 O37       -11.0490   -5.7760   -0.4110 O.3       1 BCD        -0.3864
     72 C47       -11.6700   -5.3440    1.8830 C.3       1 BCD         0.1184
     73 O47       -10.5540   -4.4430    2.0510 O.3       1 BCD        -0.3401
     74 C57       -11.9100   -6.0450    3.2250 C.3       1 BCD         0.1134
     75 O57       -12.8880   -7.1120    3.0020 O.3       1 BCD        -0.3405
     76 C67       -12.5450   -5.1110    4.2550 C.3       1 BCD         0.0730
     77 O67       -11.8470   -5.3380    5.4800 O.3       1 BCD        -0.3924
     78 H1        -11.7515   -2.7891    1.8542 H         1 BCD         0.0938
     79 H2         -9.9441   -1.4678    0.7415 H         1 BCD         0.0671
     80 H3        -10.2267   -4.1137   -0.3083 H         1 BCD         0.2101
     81 H4         -8.1901   -3.9287    1.0796 H         1 BCD         0.0648
     82 H5         -6.6223   -2.4218    0.2242 H         1 BCD         0.2100
     83 H6         -7.8968   -1.1966    2.4100 H         1 BCD         0.0651
     84 H7         -8.7438   -3.8469    3.6588 H         1 BCD         0.0647
     85 H8         -8.8306   -1.0474    4.8593 H         1 BCD         0.0584
     86 H9         -7.5560   -2.2648    5.2054 H         1 BCD         0.0584
     87 H10       -10.3735   -2.6289    5.6124 H         1 BCD         0.2095
     88 H11        -5.9687   -0.9207    2.9996 H         1 BCD         0.0938
     89 H12        -3.6210   -1.3387    2.5775 H         1 BCD         0.0671
     90 H13        -5.3204   -2.6250    0.6799 H         1 BCD         0.2101
     91 H14        -4.3610   -4.2830    2.3665 H         1 BCD         0.0648
     92 H15        -2.0384   -4.4003    2.1119 H         1 BCD         0.2100
     93 H16        -2.6195   -2.7900    4.3849 H         1 BCD         0.0651
     94 H17        -5.3672   -3.9307    4.6692 H         1 BCD         0.0647
     95 H18        -4.1875   -2.4029    6.9124 H         1 BCD         0.0584
     96 H19        -3.8676   -4.1491    6.6384 H         1 BCD         0.0584
     97 H20        -6.4517   -2.8924    6.5882 H         1 BCD         0.2095
     98 H21        -0.9251   -4.1041    4.6220 H         1 BCD         0.0938
     99 H22         0.1439   -6.2862    4.3440 H         1 BCD         0.0671
    100 H23        -2.0675   -5.9660    2.5186 H         1 BCD         0.2101
    101 H24        -2.6867   -7.4120    4.2934 H         1 BCD         0.0648
    102 H25        -1.4789   -9.4019    4.1510 H         1 BCD         0.2100
    103 H26        -0.5141   -7.8029    6.3939 H         1 BCD         0.0651
    104 H27        -3.2190   -6.3458    6.5252 H         1 BCD         0.0647
    105 H28        -0.8799   -6.7826    8.4436 H         1 BCD         0.0584
    106 H29        -2.6096   -7.2036    8.6838 H         1 BCD         0.0584
    107 H30        -1.9313   -5.4619    9.9036 H         1 BCD         0.2095
    108 H31        -1.1936   -9.1951    8.0791 H         1 BCD         0.0938
    109 H32        -1.1413  -11.6775    7.4353 H         1 BCD         0.0671
    110 H33        -0.4660   -9.9245    5.2989 H         1 BCD         0.2101
    111 H34        -2.8421  -10.5899    5.1354 H         1 BCD         0.0648
    112 H35        -1.7523  -13.1948    5.5056 H         1 BCD         0.2100
    113 H36        -3.4206  -12.6720    7.2948 H         1 BCD         0.0651
    114 H37        -4.6480   -9.8974    6.8661 H         1 BCD         0.0647
    115 H38        -4.6125  -11.9443    9.2152 H         1 BCD         0.0584
    116 H39        -6.0294  -11.5381    8.1885 H         1 BCD         0.0584
    117 H40        -4.5819   -9.7065    9.8446 H         1 BCD         0.2095
    118 H41        -4.7352  -14.0952    6.4725 H         1 BCD         0.0938
    119 H42        -6.0500  -15.0319    4.6990 H         1 BCD         0.0671
    120 H43        -4.2487  -13.0860    3.6104 H         1 BCD         0.2101
    121 H44        -6.4210  -12.1579    3.6915 H         1 BCD         0.0648
    122 H45        -7.8487  -13.2676    2.2222 H         1 BCD         0.2100
    123 H46        -8.4577  -14.0870    4.9043 H         1 BCD         0.0651
    124 H47        -7.3878  -11.4384    6.0665 H         1 BCD         0.0647
    125 H48        -8.8969  -13.6909    7.3909 H         1 BCD         0.0584
    126 H49        -9.7305  -12.3418    6.5473 H         1 BCD         0.0584
    127 H50        -9.4714  -11.9756    8.7894 H         1 BCD         0.2095
    128 H51       -10.4124  -13.6398    4.3280 H         1 BCD         0.0938
    129 H52       -11.6265  -13.0344    2.4245 H         1 BCD         0.0671
    130 H53        -8.8491  -12.4353    1.9616 H         1 BCD         0.2101
    131 H54        -9.9890  -10.5376    1.9402 H         1 BCD         0.0648
    132 H55       -11.9746  -10.1504    0.6871 H         1 BCD         0.2100
    133 H56       -12.6884  -10.3679    3.2076 H         1 BCD         0.0651
    134 H57        -9.9856  -10.0037    4.5757 H         1 BCD         0.0647
    135 H58       -12.5039   -8.9471    5.3133 H         1 BCD         0.0584
    136 H59       -11.0522   -9.1159    6.3577 H         1 BCD         0.0584
    137 H60       -11.7449  -11.1522    6.7813 H         1 BCD         0.2095
    138 H61       -13.2826   -8.8479    2.0055 H         1 BCD         0.0938
    139 H62       -12.9187   -7.3657    0.2067 H         1 BCD         0.0671
    140 H63       -11.8270   -9.4208   -0.0050 H         1 BCD         0.2101
    141 H64       -10.1295   -6.7046    1.2177 H         1 BCD         0.0648
    142 H65       -10.4951   -5.0057   -0.3622 H         1 BCD         0.2100
    143 H66       -12.5756   -4.8377    1.5177 H         1 BCD         0.0651
    144 H67       -10.9623   -6.4492    3.6104 H         1 BCD         0.0647
    145 H68       -13.6130   -5.3452    4.3753 H         1 BCD         0.0584
    146 H69       -12.4326   -4.0630    3.9403 H         1 BCD         0.0584
    147 H70       -12.2070   -4.7770    6.1569 H         1 BCD         0.2095
@<TRIPOS>BOND
     1    1    2 1  
     2    1    9 1  
     3    1   73 1  
     4    2    3 1  
     5    2    4 1  
     6    4    5 1  
     7    4    6 1  
     8    6    7 1  
     9    6    8 1  
    10    7   12 1  
    11    8    9 1  
    12    8   10 1  
    13   10   11 1  
    14   12   13 1  
    15   12   20 1  
    16   13   14 1  
    17   13   15 1  
    18   15   16 1  
    19   15   17 1  
    20   17   18 1  
    21   17   19 1  
    22   18   23 1  
    23   19   20 1  
    24   19   21 1  
    25   21   22 1  
    26   23   24 1  
    27   23   31 1  
    28   24   25 1  
    29   24   26 1  
    30   26   27 1  
    31   26   28 1  
    32   28   29 1  
    33   28   30 1  
    34   29   34 1  
    35   30   31 1  
    36   30   32 1  
    37   32   33 1  
    38   34   35 1  
    39   34   42 1  
    40   35   36 1  
    41   35   37 1  
    42   37   38 1  
    43   37   39 1  
    44   39   40 1  
    45   39   41 1  
    46   40   45 1  
    47   41   42 1  
    48   41   43 1  
    49   43   44 1  
    50   45   46 1  
    51   45   53 1  
    52   46   47 1  
    53   46   48 1  
    54   48   49 1  
    55   48   50 1  
    56   50   51 1  
    57   50   52 1  
    58   51   56 1  
    59   52   53 1  
    60   52   54 1  
    61   54   55 1  
    62   56   57 1  
    63   56   64 1  
    64   57   58 1  
    65   57   59 1  
    66   59   60 1  
    67   59   61 1  
    68   61   62 1  
    69   61   63 1  
    70   62   67 1  
    71   63   64 1  
    72   63   65 1  
    73   65   66 1  
    74   67   68 1  
    75   67   75 1  
    76   68   69 1  
    77   68   70 1  
    78   70   71 1  
    79   70   72 1  
    80   72   73 1  
    81   72   74 1  
    82   74   75 1  
    83   74   76 1  
    84   76   77 1  
    85    1   78 1  
    86    2   79 1  
    87    3   80 1  
    88    4   81 1  
    89    5   82 1  
    90    6   83 1  
    91    8   84 1  
    92   10   85 1  
    93   10   86 1  
    94   11   87 1  
    95   12   88 1  
    96   13   89 1  
    97   14   90 1  
    98   15   91 1  
    99   16   92 1  
   100   17   93 1  
   101   19   94 1  
   102   21   95 1  
   103   21   96 1  
   104   22   97 1  
   105   23   98 1  
   106   24   99 1  
   107   25  100 1  
   108   26  101 1  
   109   27  102 1  
   110   28  103 1  
   111   30  104 1  
   112   32  105 1  
   113   32  106 1  
   114   33  107 1  
   115   34  108 1  
   116   35  109 1  
   117   36  110 1  
   118   37  111 1  
   119   38  112 1  
   120   39  113 1  
   121   41  114 1  
   122   43  115 1  
   123   43  116 1  
   124   44  117 1  
   125   45  118 1  
   126   46  119 1  
   127   47  120 1  
   128   48  121 1  
   129   49  122 1  
   130   50  123 1  
   131   52  124 1  
   132   54  125 1  
   133   54  126 1  
   134   55  127 1  
   135   56  128 1  
   136   57  129 1  
   137   58  130 1  
   138   59  131 1  
   139   60  132 1  
   140   61  133 1  
   141   63  134 1  
   142   65  135 1  
   143   65  136 1  
   144   66  137 1  
   145   67  138 1  
   146   68  139 1  
   147   69  140 1  
   148   70  141 1  
   149   71  142 1  
   150   72  143 1  
   151   74  144 1  
   152   76  145 1  
   153   76  146 1  
   154   77  147 1  
@<TRIPOS>SUBSTRUCTURE
     1 BCD         1

