1dmb_ligand
  -I-interpret- 

147154  0  0  0  0  0  0  0  0999 V2000
  -10.6950   -3.0480    2.0180 C   0  0  0  0  0
   -9.8220   -2.5570    0.8350 C   0  0  0  0  0
  -10.2920   -3.1690   -0.3840 O   0  0  0  0  0
   -8.3470   -2.8400    1.0900 C   0  0  0  0  0
   -7.5390   -2.2390    0.0550 O   0  0  0  0  0
   -7.9190   -2.2960    2.4400 C   0  0  0  0  0
   -6.6110   -2.8200    2.6940 O   0  0  0  0  0
   -8.8440   -2.7560    3.5600 C   0  0  0  0  0
  -10.2330   -2.4020    3.2040 O   0  0  0  0  0
   -8.6060   -2.1230    4.9100 C   0  0  0  0  0
   -9.4680   -2.7520    5.8720 O   0  0  0  0  0
   -5.6130   -1.9530    3.1330 C   0  0  0  0  0
   -4.3330   -2.1330    2.3090 C   0  0  0  0  0
   -4.6760   -1.9710    0.9240 O   0  0  0  0  0
   -3.6860   -3.4610    2.6470 C   0  0  0  0  0
   -2.4550   -3.5710    1.9090 O   0  0  0  0  0
   -3.3950   -3.5320    4.1440 C   0  0  0  0  0
   -2.8410   -4.8180    4.4360 O   0  0  0  0  0
   -4.6860   -3.1070    4.9290 C   0  0  0  0  0
   -5.3440   -2.1600    4.5110 O   0  0  0  0  0
   -4.5490   -3.3150    6.4150 C   0  0  0  0  0
   -5.8830   -3.6210    6.8080 O   0  0  0  0  0
   -1.5170   -5.0010    4.8570 C   0  0  0  0  0
   -0.9320   -6.2110    4.1280 C   0  0  0  0  0
   -1.1370   -6.0340    2.6980 O   0  0  0  0  0
   -1.6250   -7.4800    4.5730 C   0  0  0  0  0
   -1.0470   -8.6020    3.8750 O   0  0  0  0  0
   -1.5530   -7.6420    6.0700 C   0  0  0  0  0
   -2.3690   -8.7420    6.4180 O   0  0  0  0  0
   -2.1420   -6.4000    6.7420 C   0  0  0  0  0
   -1.4930   -5.2340    6.2620 O   0  0  0  0  0
   -1.9160   -6.4540    8.2750 C   0  0  0  0  0
   -2.0990   -5.2980    8.9830 O   0  0  0  0  0
   -1.9640   -9.6470    7.4370 C   0  0  0  0  0
   -1.4020  -10.9030    6.6990 C   0  0  0  0  0
   -0.2480  -10.5840    5.9470 O   0  0  0  0  0
   -2.5190  -11.4120    5.7910 C   0  0  0  0  0
   -2.0540  -12.4780    4.9600 O   0  0  0  0  0
   -3.6900  -11.8180    6.6560 C   0  0  0  0  0
   -4.7810  -12.1550    5.7750 O   0  0  0  0  0
   -4.1380  -10.6300    7.5090 C   0  0  0  0  0
   -3.0730  -10.0040    8.1990 O   0  0  0  0  0
   -5.1020  -11.1490    8.6340 C   0  0  0  0  0
   -5.3900  -10.0380    9.4710 O   0  0  0  0  0
   -5.4190  -13.4140    5.9450 C   0  0  0  0  0
   -5.7070  -13.9940    4.5760 C   0  0  0  0  0
   -4.5460  -13.9810    3.7250 O   0  0  0  0  0
   -6.8000  -13.1720    3.8860 C   0  0  0  0  0
   -7.1710  -13.7860    2.6400 O   0  0  0  0  0
   -8.0100  -13.0900    4.7800 C   0  0  0  0  0
   -8.9300  -12.1900    4.1140 O   0  0  0  0  0
   -7.6650  -12.4980    6.1690 C   0  0  0  0  0
   -6.5710  -13.2550    6.7330 O   0  0  0  0  0
   -8.8180  -12.6370    7.0860 C   0  0  0  0  0
   -8.7060  -11.8450    8.2420 O   0  0  0  0  0
  -10.3040  -12.5900    4.0180 C   0  0  0  0  0
  -10.7130  -12.4470    2.5990 C   0  0  0  0  0
   -9.6330  -12.9430    1.7880 O   0  0  0  0  0
  -10.9590  -10.9960    2.1830 C   0  0  0  0  0
  -11.7980  -11.0370    0.9790 O   0  0  0  0  0
  -11.6080  -10.1620    3.1870 C   0  0  0  0  0
  -11.3420   -8.7810    2.7660 O   0  0  0  0  0
  -11.0290  -10.3520    4.5810 C   0  0  0  0  0
  -11.0920  -11.7660    4.8710 O   0  0  0  0  0
  -11.7720   -9.6570    5.7260 C   0  0  0  0  0
  -12.3790  -10.5400    6.4270 O   0  0  0  0  0
  -12.4610   -8.1300    2.1450 C   0  0  0  0  0
  -12.0230   -7.6210    0.7920 C   0  0  0  0  0
  -11.2760   -8.6550    0.1070 O   0  0  0  0  0
  -11.1320   -6.3900    0.8920 C   0  0  0  0  0
  -11.0490   -5.7760   -0.4110 O   0  0  0  0  0
  -11.6700   -5.3440    1.8830 C   0  0  0  0  0
  -10.5540   -4.4430    2.0510 O   0  0  0  0  0
  -11.9100   -6.0450    3.2250 C   0  0  0  0  0
  -12.8880   -7.1120    3.0020 O   0  0  0  0  0
  -12.5450   -5.1110    4.2550 C   0  0  0  0  0
  -11.8470   -5.3380    5.4800 O   0  0  0  0  0
  -11.7534   -2.8065    1.9202 H   0  0  0  0  0
   -9.9145   -1.4755    0.7351 H   0  0  0  0  0
  -11.2224   -2.9657   -0.5047 H   0  0  0  0  0
   -8.2046   -3.9206    1.0836 H   0  0  0  0  0
   -7.8088   -2.5824   -0.7999 H   0  0  0  0  0
   -7.9449   -1.2066    2.4160 H   0  0  0  0  0
   -8.6486   -3.8245    3.6512 H   0  0  0  0  0
   -8.8216   -1.0556    4.8617 H   0  0  0  0  0
   -7.5646   -2.2562    5.2030 H   0  0  0  0  0
   -9.3248   -2.3567    6.7350 H   0  0  0  0  0
   -5.9683   -0.9316    2.9966 H   0  0  0  0  0
   -3.5803   -1.3812    2.5462 H   0  0  0  0  0
   -3.8886   -2.0795    0.3857 H   0  0  0  0  0
   -4.3570   -4.2779    2.3815 H   0  0  0  0  0
   -2.0341   -4.4091    2.1141 H   0  0  0  0  0
   -2.6354   -2.8259    4.4793 H   0  0  0  0  0
   -5.4423   -3.8357    4.6375 H   0  0  0  0  0
   -4.1403   -2.4467    6.9317 H   0  0  0  0  0
   -3.8375   -4.0996    6.6724 H   0  0  0  0  0
   -5.9091   -3.7744    7.7553 H   0  0  0  0  0
   -0.9286   -4.1116    4.6313 H   0  0  0  0  0
    0.1306   -6.2913    4.3571 H   0  0  0  0  0
   -0.7736   -6.7881    2.2280 H   0  0  0  0  0
   -2.6843   -7.4256    4.3218 H   0  0  0  0  0
   -1.4835   -9.4103    4.1539 H   0  0  0  0  0
   -0.5194   -7.7861    6.3847 H   0  0  0  0  0
   -3.2077   -6.3737    6.5145 H   0  0  0  0  0
   -0.8660   -6.7151    8.4071 H   0  0  0  0  0
   -2.6613   -7.1520    8.6564 H   0  0  0  0  0
   -1.9295   -5.4636    9.9133 H   0  0  0  0  0
   -1.2184   -9.2086    8.1003 H   0  0  0  0  0
   -1.1002  -11.6667    7.4158 H   0  0  0  0  0
    0.0736  -11.3737    5.5060 H   0  0  0  0  0
   -2.8456  -10.6235    5.1130 H   0  0  0  0  0
   -2.7716  -12.7813    4.3991 H   0  0  0  0  0
   -3.4079  -12.6519    7.2987 H   0  0  0  0  0
   -4.5978   -9.9215    6.8200 H   0  0  0  0  0
   -4.6362  -11.9533    9.2034 H   0  0  0  0  0
   -6.0162  -11.5576    8.2034 H   0  0  0  0  0
   -5.9801  -10.3144   10.1760 H   0  0  0  0  0
   -4.7769  -14.1182    6.4740 H   0  0  0  0  0
   -6.0217  -15.0263    4.7290 H   0  0  0  0  0
   -4.7726  -14.3560    2.8708 H   0  0  0  0  0
   -6.4171  -12.1703    3.6908 H   0  0  0  0  0
   -7.8558  -13.2621    2.2178 H   0  0  0  0  0
   -8.4205  -14.0863    4.9439 H   0  0  0  0  0
   -7.4073  -11.4456    6.0499 H   0  0  0  0  0
   -8.8637  -13.6789    7.4030 H   0  0  0  0  0
   -9.7085  -12.3116    6.5481 H   0  0  0  0  0
   -9.4794  -11.9770    8.7951 H   0  0  0  0  0
  -10.4438  -13.6241    4.3328 H   0  0  0  0  0
  -11.6465  -12.9945    2.4688 H   0  0  0  0  0
   -9.8681  -12.8637    0.8606 H   0  0  0  0  0
   -9.9842  -10.5353    2.0228 H   0  0  0  0  0
  -11.9764  -10.1410    0.6840 H   0  0  0  0  0
  -12.6657  -10.4179    3.2493 H   0  0  0  0  0
  -10.0318   -9.9133    4.5459 H   0  0  0  0  0
  -12.4953   -8.9505    5.3189 H   0  0  0  0  0
  -11.0607   -9.1173    6.3511 H   0  0  0  0  0
  -12.8467  -10.1097    7.1465 H   0  0  0  0  0
  -13.3018   -8.8037    1.9799 H   0  0  0  0  0
  -12.9275   -7.3502    0.2474 H   0  0  0  0  0
  -10.9979   -8.3310   -0.7528 H   0  0  0  0  0
  -10.1577   -6.7202    1.2523 H   0  0  0  0  0
  -10.4893   -4.9976   -0.3616 H   0  0  0  0  0
  -12.5873   -4.8564    1.5531 H   0  0  0  0  0
  -10.9467   -6.3982    3.5929 H   0  0  0  0  0
  -13.6103   -5.3133    4.3657 H   0  0  0  0  0
  -12.4652   -4.0694    3.9438 H   0  0  0  0  0
  -12.2107   -4.7711    6.1640 H   0  0  0  0  0
  1  2  1  0  0  0
  1  9  1  0  0  0
  1 73  1  0  0  0
  2  3  1  0  0  0
  2  4  1  0  0  0
  4  5  1  0  0  0
  4  6  1  0  0  0
  6  7  1  0  0  0
  6  8  1  0  0  0
  7 12  1  0  0  0
  8  9  1  0  0  0
  8 10  1  0  0  0
 10 11  1  0  0  0
 12 13  1  0  0  0
 12 20  1  0  0  0
 13 14  1  0  0  0
 13 15  1  0  0  0
 15 16  1  0  0  0
 15 17  1  0  0  0
 17 18  1  0  0  0
 17 19  1  0  0  0
 18 23  1  0  0  0
 19 20  1  0  0  0
 19 21  1  0  0  0
 21 22  1  0  0  0
 23 24  1  0  0  0
 23 31  1  0  0  0
 24 25  1  0  0  0
 24 26  1  0  0  0
 26 27  1  0  0  0
 26 28  1  0  0  0
 28 29  1  0  0  0
 28 30  1  0  0  0
 29 34  1  0  0  0
 30 31  1  0  0  0
 30 32  1  0  0  0
 32 33  1  0  0  0
 34 35  1  0  0  0
 34 42  1  0  0  0
 35 36  1  0  0  0
 35 37  1  0  0  0
 37 38  1  0  0  0
 37 39  1  0  0  0
 39 40  1  0  0  0
 39 41  1  0  0  0
 40 45  1  0  0  0
 41 42  1  0  0  0
 41 43  1  0  0  0
 43 44  1  0  0  0
 45 46  1  0  0  0
 45 53  1  0  0  0
 46 47  1  0  0  0
 46 48  1  0  0  0
 48 49  1  0  0  0
 48 50  1  0  0  0
 50 51  1  0  0  0
 50 52  1  0  0  0
 51 56  1  0  0  0
 52 53  1  0  0  0
 52 54  1  0  0  0
 54 55  1  0  0  0
 56 57  1  0  0  0
 56 64  1  0  0  0
 57 58  1  0  0  0
 57 59  1  0  0  0
 59 60  1  0  0  0
 59 61  1  0  0  0
 61 62  1  0  0  0
 61 63  1  0  0  0
 62 67  1  0  0  0
 63 64  1  0  0  0
 63 65  1  0  0  0
 65 66  1  0  0  0
 67 68  1  0  0  0
 67 75  1  0  0  0
 68 69  1  0  0  0
 68 70  1  0  0  0
 70 71  1  0  0  0
 70 72  1  0  0  0
 72 73  1  0  0  0
 72 74  1  0  0  0
 74 75  1  0  0  0
 74 76  1  0  0  0
 76 77  1  0  0  0
  1 78  1  0  0  0
  2 79  1  0  0  0
  3 80  1  0  0  0
  4 81  1  0  0  0
  5 82  1  0  0  0
  6 83  1  0  0  0
  8 84  1  0  0  0
 10 85  1  0  0  0
 10 86  1  0  0  0
 11 87  1  0  0  0
 12 88  1  0  0  0
 13 89  1  0  0  0
 14 90  1  0  0  0
 15 91  1  0  0  0
 16 92  1  0  0  0
 17 93  1  0  0  0
 19 94  1  0  0  0
 21 95  1  0  0  0
 21 96  1  0  0  0
 22 97  1  0  0  0
 23 98  1  0  0  0
 24 99  1  0  0  0
 25100  1  0  0  0
 26101  1  0  0  0
 27102  1  0  0  0
 28103  1  0  0  0
 30104  1  0  0  0
 32105  1  0  0  0
 32106  1  0  0  0
 33107  1  0  0  0
 34108  1  0  0  0
 35109  1  0  0  0
 36110  1  0  0  0
 37111  1  0  0  0
 38112  1  0  0  0
 39113  1  0  0  0
 41114  1  0  0  0
 43115  1  0  0  0
 43116  1  0  0  0
 44117  1  0  0  0
 45118  1  0  0  0
 46119  1  0  0  0
 47120  1  0  0  0
 48121  1  0  0  0
 49122  1  0  0  0
 50123  1  0  0  0
 52124  1  0  0  0
 54125  1  0  0  0
 54126  1  0  0  0
 55127  1  0  0  0
 56128  1  0  0  0
 57129  1  0  0  0
 58130  1  0  0  0
 59131  1  0  0  0
 60132  1  0  0  0
 61133  1  0  0  0
 63134  1  0  0  0
 65135  1  0  0  0
 65136  1  0  0  0
 66137  1  0  0  0
 67138  1  0  0  0
 68139  1  0  0  0
 69140  1  0  0  0
 70141  1  0  0  0
 71142  1  0  0  0
 72143  1  0  0  0
 74144  1  0  0  0
 76145  1  0  0  0
 76146  1  0  0  0
 77147  1  0  0  0
M  END
$$$$
