8cpa_ligand
  -I-interpret- 

 57 58  0  0  0  0  0  0  0  0999 V2000
   46.7100   17.1130   40.5290 C   0  0  0  0  0
   47.9000   18.4490   42.0590 C   0  0  0  0  0
   48.5500   19.7190   42.0950 C   0  0  0  0  0
   48.0700   20.7140   42.8680 C   0  0  0  0  0
   49.6350   19.9250   41.3260 C   0  0  0  0  0
   48.6810   21.9170   42.8770 C   0  0  0  0  0
   50.2430   21.1270   41.3340 C   0  0  0  0  0
   49.7670   22.1270   42.1030 C   0  0  0  0  0
   44.9570   19.1400   38.9360 C   0  0  0  0  0
   45.8600   18.1140   38.4590 C   0  0  0  0  0
   45.3150   17.6400   37.1060 C   0  0  0  0  0
   44.6690   21.5380   39.2050 C   0  0  0  0  0
   44.6070   22.3510   34.8640 C   0  0  0  0  0
   44.8320   23.5220   35.6680 C   0  0  0  0  0
   45.9910   24.1600   34.9060 C   0  0  0  0  0
   45.7090   24.8210   33.6600 C   0  0  0  0  0
   45.1190   26.0360   33.6430 C   0  0  0  0  0
   46.0030   24.2090   32.4940 C   0  0  0  0  0
   44.8530   26.6560   32.4720 C   0  0  0  0  0
   45.7290   24.8190   31.3240 C   0  0  0  0  0
   45.1500   26.0400   31.3020 C   0  0  0  0  0
   46.7610   16.1530   41.2350 O   0  0  0  0  0
   47.2090   18.2740   40.8520 O   0  0  0  0  0
   43.8560   18.9480   39.3440 O   0  0  0  0  0
   42.8040   21.8510   37.3320 O   0  0  0  0  0
   43.8180   23.8440   38.7850 O   0  0  0  0  0
   45.2180   22.9160   36.9320 O   0  0  0  0  0
   45.2630   21.3640   34.9840 O   0  0  0  0  0
   43.6360   22.4110   33.9860 O   0  0  0  0  0
   46.1190   17.0230   39.3400 N   0  0  0  0  0
   45.4030   20.4330   38.8030 N   0  0  0  0  0
   44.0300   22.5200   38.0000 P   0  0  0  0  0
   47.1868   18.3971   42.8816 H   0  0  0  0  0
   48.6541   17.6669   42.1474 H   0  0  0  0  0
   47.1879   20.5465   43.4860 H   0  0  0  0  0
   50.0207   19.1215   40.6985 H   0  0  0  0  0
   48.2981   22.7186   43.5086 H   0  0  0  0  0
   51.1250   21.2922   40.7152 H   0  0  0  0  0
   50.2569   23.1007   42.0998 H   0  0  0  0  0
   46.8482   18.5668   38.3783 H   0  0  0  0  0
   44.3099   17.2403   37.2405 H   0  0  0  0  0
   45.2832   18.4813   36.4137 H   0  0  0  0  0
   45.9659   16.8628   36.7057 H   0  0  0  0  0
   43.8110   21.1406   39.7472 H   0  0  0  0  0
   45.3642   22.1675   39.7604 H   0  0  0  0  0
   44.0463   24.2579   35.8389 H   0  0  0  0  0
   46.6527   23.3333   34.6476 H   0  0  0  0  0
   46.3704   24.9413   35.5646 H   0  0  0  0  0
   44.8549   26.5210   34.5827 H   0  0  0  0  0
   46.4624   23.2206   32.4984 H   0  0  0  0  0
   44.4012   27.6480   32.4686 H   0  0  0  0  0
   45.9769   24.3226   30.3858 H   0  0  0  0  0
   44.9241   26.5247   30.3522 H   0  0  0  0  0
   44.6582   24.1411   39.1419 H   0  0  0  0  0
   43.2201   23.2752   34.0291 H   0  0  0  0  0
   45.8266   16.0953   39.0329 H   0  0  0  0  0
   46.3214   20.5876   38.3871 H   0  0  0  0  0
  1 22  2  0  0  0
  1 23  1  0  0  0
 30  1  1  0  0  0
  2  3  1  0  0  0
 23  2  1  0  0  0
  3  4  4  0  0  0
  3  5  4  0  0  0
  4  6  4  0  0  0
  5  7  4  0  0  0
  6  8  4  0  0  0
  7  8  4  0  0  0
  9 10  1  0  0  0
 10 11  1  0  0  0
 10 30  1  0  0  0
 14 13  1  0  0  0
 14 15  1  0  0  0
 15 16  1  0  0  0
 16 17  4  0  0  0
 16 18  4  0  0  0
 17 19  4  0  0  0
 18 20  4  0  0  0
 19 21  4  0  0  0
 20 21  4  0  0  0
 27 32  1  0  0  0
 32 26  1  0  0  0
 32 25  2  0  0  0
 32 12  1  0  0  0
 12 31  1  0  0  0
 31  9  1  0  0  0
 13 29  1  0  0  0
 13 28  2  0  0  0
 27 14  1  0  0  0
  9 24  2  0  0  0
  2 33  1  0  0  0
  2 34  1  0  0  0
  4 35  1  0  0  0
  5 36  1  0  0  0
  6 37  1  0  0  0
  7 38  1  0  0  0
  8 39  1  0  0  0
 10 40  1  0  0  0
 11 41  1  0  0  0
 11 42  1  0  0  0
 11 43  1  0  0  0
 12 44  1  0  0  0
 12 45  1  0  0  0
 14 46  1  0  0  0
 15 47  1  0  0  0
 15 48  1  0  0  0
 17 49  1  0  0  0
 18 50  1  0  0  0
 19 51  1  0  0  0
 20 52  1  0  0  0
 21 53  1  0  0  0
 26 54  1  0  0  0
 29 55  1  0  0  0
 30 56  1  0  0  0
 31 57  1  0  0  0
M  END
$$$$
