4dfb_ligand
  -I-interpret- 

 73 75  0  0  0  0  0  0  0  0999 V2000
    2.6330   59.6750   42.2150 C   0  0  0  0  0
    1.8000   58.7240   43.0750 C   0  0  0  0  0
    1.9270   59.1400   44.5370 C   0  0  0  0  0
    3.4070   59.1030   44.9040 C   0  0  0  0  0
    4.1870   60.0600   44.0130 C   0  0  0  0  0
    5.6850   60.0210   44.3120 C   0  0  0  0  0
    2.5480   64.5370   39.8250 C   0  0  0  0  0
    3.5440   63.3990   39.5770 C   0  0  0  0  0
    2.9470   62.1220   40.2180 C   0  0  0  0  0
    2.6350   62.2250   41.7320 C   0  0  0  0  0
    1.6640   63.3870   41.9290 C   0  0  0  0  0
    2.2610   64.6500   41.3210 C   0  0  0  0  0
    4.9320   62.4540   37.6410 C   0  0  0  0  0
    5.0750   62.7220   36.1350 C   0  0  0  0  0
    3.8410   62.2840   35.3700 C   0  0  0  0  0
    3.6640   60.8000   35.6230 C   0  0  0  0  0
    3.4920   60.5480   37.1030 C   0  0  0  0  0
    3.3950   59.0430   37.3360 C   0  0  0  0  0
    6.3880   60.9550   43.4240 N   0  3  0  0  0
    1.4330   63.5990   43.3650 N   0  3  0  0  0
    3.1080   65.8000   39.3280 N   0  3  0  0  0
    4.0270   62.5270   33.9360 N   0  3  0  0  0
    4.0150   59.6580   42.6390 O   0  0  0  0  0
    0.4430   58.7210   42.6160 O   0  0  0  0  0
    1.1900   58.2350   45.3650 O   0  0  0  0  0
    3.5720   59.4740   46.2740 O   0  0  0  0  0
    2.0570   61.0030   42.3300 O   0  0  0  0  0
    3.9200   61.0930   40.0550 O   0  0  0  0  0
    3.8360   63.2900   38.1250 O   0  0  0  0  0
    4.6720   61.0290   37.8100 O   0  0  0  0  0
    5.3560   64.1150   35.9750 O   0  0  0  0  0
    2.5170   60.3210   34.9140 O   0  0  0  0  0
    4.5810   58.4170   36.8360 O   0  0  0  0  0
    2.6168   59.3615   41.1712 H   0  0  0  0  0
    2.1659   57.7009   42.9883 H   0  0  0  0  0
    1.5258   60.1423   44.6872 H   0  0  0  0  0
    3.7866   58.0919   44.7567 H   0  0  0  0  0
    3.8109   61.0661   44.1985 H   0  0  0  0  0
    6.0614   59.0114   44.1473 H   0  0  0  0  0
    5.8552   60.3093   45.3493 H   0  0  0  0  0
    1.6182   64.3258   39.2969 H   0  0  0  0  0
    4.5135   63.5787   40.0416 H   0  0  0  0  0
    1.9934   61.9357   39.7240 H   0  0  0  0  0
    3.5857   62.3773   42.2430 H   0  0  0  0  0
    0.7172   63.1561   41.4408 H   0  0  0  0  0
    1.5327   65.4502   41.4530 H   0  0  0  0  0
    3.2116   64.8340   41.8216 H   0  0  0  0  0
    5.8270   62.7009   38.2121 H   0  0  0  0  0
    5.8920   62.1344   35.7164 H   0  0  0  0  0
    2.9638   62.8425   35.6965 H   0  0  0  0  0
    4.5495   60.2705   35.2715 H   0  0  0  0  0
    2.5965   61.0576   37.4587 H   0  0  0  0  0
    2.5228   58.6460   36.8167 H   0  0  0  0  0
    3.2947   58.8418   38.4026 H   0  0  0  0  0
    7.3875   60.9270   43.6257 H   0  0  0  0  0
    6.2281   60.6851   42.4534 H   0  0  0  0  0
    6.0352   61.8996   43.5781 H   0  0  0  0  0
    0.7842   64.3756   43.4928 H   0  0  0  0  0
    1.0364   62.7524   43.7730 H   0  0  0  0  0
    2.3187   63.8156   43.8223 H   0  0  0  0  0
    2.4424   66.5547   39.4948 H   0  0  0  0  0
    3.9802   65.9999   39.8177 H   0  0  0  0  0
    3.2891   65.7198   38.3274 H   0  0  0  0  0
    3.1924   62.2293   33.4309 H   0  0  0  0  0
    4.1842   63.5225   33.7786 H   0  0  0  0  0
    4.8334   61.9976   33.6045 H   0  0  0  0  0
    0.4187   58.4534   41.6944 H   0  0  0  0  0
    0.2611   58.2673   45.1247 H   0  0  0  0  0
    3.0781   58.8672   46.8304 H   0  0  0  0  0
    3.5899   60.2780   40.4403 H   0  0  0  0  0
    5.4514   64.3158   35.0411 H   0  0  0  0  0
    2.4102   59.3812   35.0781 H   0  0  0  0  0
    4.5262   57.4694   36.9797 H   0  0  0  0  0
  1  2  1  0  0  0
  1 23  1  0  0  0
 27  1  1  0  0  0
  2  3  1  0  0  0
  2 24  1  0  0  0
  3  4  1  0  0  0
  3 25  1  0  0  0
  5  4  1  0  0  0
  4 26  1  0  0  0
  5  6  1  0  0  0
 23  5  1  0  0  0
  6 19  1  0  0  0
  8  7  1  0  0  0
  7 12  1  0  0  0
  7 21  1  0  0  0
  8  9  1  0  0  0
 29  8  1  0  0  0
  9 10  1  0  0  0
  9 28  1  0  0  0
 10 11  1  0  0  0
 10 27  1  0  0  0
 12 11  1  0  0  0
 11 20  1  0  0  0
 13 14  1  0  0  0
 13 29  1  0  0  0
 13 30  1  0  0  0
 14 15  1  0  0  0
 14 31  1  0  0  0
 15 16  1  0  0  0
 15 22  1  0  0  0
 16 17  1  0  0  0
 16 32  1  0  0  0
 17 18  1  0  0  0
 17 30  1  0  0  0
 18 33  1  0  0  0
  1 34  1  0  0  0
  2 35  1  0  0  0
  3 36  1  0  0  0
  4 37  1  0  0  0
  5 38  1  0  0  0
  6 39  1  0  0  0
  6 40  1  0  0  0
  7 41  1  0  0  0
  8 42  1  0  0  0
  9 43  1  0  0  0
 10 44  1  0  0  0
 11 45  1  0  0  0
 12 46  1  0  0  0
 12 47  1  0  0  0
 13 48  1  0  0  0
 14 49  1  0  0  0
 15 50  1  0  0  0
 16 51  1  0  0  0
 17 52  1  0  0  0
 18 53  1  0  0  0
 18 54  1  0  0  0
 19 55  1  0  0  0
 19 56  1  0  0  0
 19 57  1  0  0  0
 20 58  1  0  0  0
 20 59  1  0  0  0
 20 60  1  0  0  0
 21 61  1  0  0  0
 21 62  1  0  0  0
 21 63  1  0  0  0
 22 64  1  0  0  0
 22 65  1  0  0  0
 22 66  1  0  0  0
 24 67  1  0  0  0
 25 68  1  0  0  0
 26 69  1  0  0  0
 28 70  1  0  0  0
 31 71  1  0  0  0
 32 72  1  0  0  0
 33 73  1  0  0  0
M  END
$$$$
