6eq5_ligand
  -I-interpret- 

 16 17  0  0  0  0  0  0  0  0999 V2000
  -12.3470   11.0060   14.1780 N   0  0  0  0  0
  -13.3380   10.6030   15.1140 C   0  0  0  0  0
  -13.2670    9.7200   16.1720 C   0  0  0  0  0
  -14.3980    9.5220   16.9280 C   0  0  0  0  0
  -15.5970   10.2010   16.6240 C   0  0  0  0  0
  -15.6810   11.0870   15.5630 C   0  0  0  0  0
  -14.5370   11.3070   14.7860 C   0  0  0  0  0
  -14.3320   12.1540   13.6580 N   0  0  0  0  0
  -13.0080   11.9340   13.3330 C   0  0  0  0  0
  -12.3080   12.4960   12.3370 N   0  0  0  0  0
  -12.3402    9.1943   16.4019 H   0  0  0  0  0
  -14.3682    8.8327   17.7718 H   0  0  0  0  0
  -16.4789   10.0238   17.2395 H   0  0  0  0  0
  -16.6155   11.6010   15.3380 H   0  0  0  0  0
  -11.3266   12.2527   12.2029 H   0  0  0  0  0
  -12.7569   13.1668   11.7134 H   0  0  0  0  0
  1  2  4  0  0  0
  1  9  4  0  0  0
  2  3  4  0  0  0
  2  7  4  0  0  0
  3  4  4  0  0  0
  4  5  4  0  0  0
  5  6  4  0  0  0
  6  7  4  0  0  0
  7  8  4  0  0  0
  8  9  4  0  0  0
  9 10  1  0  0  0
  3 11  1  0  0  0
  4 12  1  0  0  0
  5 13  1  0  0  0
  6 14  1  0  0  0
 10 15  1  0  0  0
 10 16  1  0  0  0
M  END
$$$$
