5o11_ligand
  -I-interpret- 

 37 40  0  0  0  0  0  0  0  0999 V2000
   28.7670  119.2920    0.2780 C   0  0  0  0  0
   28.1110  120.3210    1.1130 C   0  0  0  0  0
   28.4980  120.4390    2.4390 C   0  0  0  0  0
   29.4680  119.5630    2.9400 C   0  0  0  0  0
   30.0650  118.5890    2.1340 C   0  0  0  0  0
   29.7380  118.4830    0.8100 C   0  0  0  0  0
   26.8510  120.9730   -0.9540 C   0  0  0  0  0
   27.1030  121.1860    0.4800 C   0  0  0  0  0
   28.4700  119.1280   -1.0210 N   0  0  0  0  0
   27.5910  119.8960   -1.6980 C   0  0  0  0  0
   25.2410  122.8020   -0.7510 C   0  0  0  0  0
   25.5130  122.9720    0.5600 N   0  0  0  0  0
   26.4170  122.1920    1.1760 C   0  0  0  0  0
   25.8950  121.8080   -1.5200 C   0  0  0  0  0
   27.3090  119.5900   -2.9890 N   0  0  0  0  0
   27.6750  118.4770   -3.6950 C   0  0  0  0  0
   28.3230  117.3260   -3.2250 C   0  0  0  0  0
   28.6720  116.3110   -4.1270 C   0  0  0  0  0
   28.3990  116.4270   -5.4760 C   0  0  0  0  0
   27.7610  117.5600   -5.9470 C   0  0  0  0  0
   27.4030  118.5540   -5.0550 C   0  0  0  0  0
   29.5150  114.7980   -3.6540 Cl  0  0  0  0  0
   31.1210  117.6830    2.6720 C   0  0  0  0  0
   31.4370  116.7190    2.0260 O   0  0  0  0  0
   31.7620  117.9890    3.8090 O   0  0  0  0  0
   28.0546  121.2007    3.0803 H   0  0  0  0  0
   29.7656  119.6422    3.9856 H   0  0  0  0  0
   30.2488  117.7561    0.1784 H   0  0  0  0  0
   24.5013  123.4441   -1.2290 H   0  0  0  0  0
   26.6210  122.3438    2.2359 H   0  0  0  0  0
   25.6438  121.6961   -2.5747 H   0  0  0  0  0
   26.7533  120.2773   -3.4982 H   0  0  0  0  0
   28.5540  117.2209   -2.1650 H   0  0  0  0  0
   28.6843  115.6314   -6.1643 H   0  0  0  0  0
   27.5428  117.6682   -7.0094 H   0  0  0  0  0
   26.8856  119.4350   -5.4350 H   0  0  0  0  0
   31.3787  118.7838    4.1872 H   0  0  0  0  0
  2  1  4  0  0  0
  1  6  4  0  0  0
  9  1  4  0  0  0
  2  3  4  0  0  0
  8  2  4  0  0  0
  3  4  4  0  0  0
  4  5  4  0  0  0
  6  5  4  0  0  0
  5 23  1  0  0  0
  7  8  4  0  0  0
  7 10  4  0  0  0
 14  7  4  0  0  0
  8 13  4  0  0  0
 10  9  4  0  0  0
 10 15  1  0  0  0
 11 12  4  0  0  0
 11 14  4  0  0  0
 12 13  4  0  0  0
 15 16  1  0  0  0
 16 17  4  0  0  0
 16 21  4  0  0  0
 17 18  4  0  0  0
 18 19  4  0  0  0
 18 22  1  0  0  0
 19 20  4  0  0  0
 20 21  4  0  0  0
 23 24  2  0  0  0
 23 25  1  0  0  0
  3 26  1  0  0  0
  4 27  1  0  0  0
  6 28  1  0  0  0
 11 29  1  0  0  0
 13 30  1  0  0  0
 14 31  1  0  0  0
 15 32  1  0  0  0
 17 33  1  0  0  0
 19 34  1  0  0  0
 20 35  1  0  0  0
 21 36  1  0  0  0
 25 37  1  0  0  0
M  END
$$$$
