4zyr_ligand
  -I-interpret- 

 36 37  0  0  0  0  0  0  0  0999 V2000
   26.9250  -17.3060   50.6780 C   0  0  0  0  0
   27.8070  -18.2230   51.5230 C   0  0  0  0  0
   27.4680  -18.0290   53.0070 C   0  0  0  0  0
   28.4260  -18.8360   53.8860 C   0  0  0  0  0
   29.8580  -18.4960   53.4900 C   0  0  0  0  0
   30.0130  -18.7930   52.0070 C   0  0  0  0  0
   33.2340  -23.7960   48.1850 O   0  0  0  0  0
   33.5110  -22.7810   48.7070 N   0  0  0  0  0
   34.5910  -22.3330   48.5880 O   0  0  0  0  0
   32.5140  -22.0860   49.5000 C   0  0  0  0  0
   32.8380  -20.9170   50.1700 C   0  0  0  0  0
   31.8780  -20.2610   50.9240 C   0  0  0  0  0
   30.5950  -20.7740   51.0060 C   0  0  0  0  0
   30.2710  -21.9420   50.3370 C   0  0  0  0  0
   31.2300  -22.5990   49.5840 C   0  0  0  0  0
   29.6260  -20.1170   51.7670 O   0  0  0  0  0
   30.7680  -19.2650   54.2370 O   0  0  0  0  0
   28.2110  -18.5120   55.2340 O   0  0  0  0  0
   27.5870  -16.6750   53.3310 O   0  0  0  0  0
   29.1630  -17.9390   51.2980 O   0  0  0  0  0
   27.4380  -16.0020   50.6670 O   0  0  0  0  0
   25.9225  -17.2877   51.1055 H   0  0  0  0  0
   26.8990  -17.6841   49.6560 H   0  0  0  0  0
   27.6200  -19.2590   51.2403 H   0  0  0  0  0
   26.4490  -18.3736   53.1828 H   0  0  0  0  0
   28.2517  -19.9031   53.7483 H   0  0  0  0  0
   30.0654  -17.4449   53.6908 H   0  0  0  0  0
   31.0473  -18.6468   51.6957 H   0  0  0  0  0
   33.8483  -20.5133   50.1039 H   0  0  0  0  0
   32.1329  -19.3421   51.4519 H   0  0  0  0  0
   29.2603  -22.3449   50.4029 H   0  0  0  0  0
   30.9746  -23.5189   49.0580 H   0  0  0  0  0
   30.6604  -19.0687   55.1705 H   0  0  0  0  0
   27.3073  -18.7295   55.4740 H   0  0  0  0  0
   26.9884  -16.1622   52.7830 H   0  0  0  0  0
   26.8717  -15.4410   50.1320 H   0  0  0  0  0
  2  1  1  0  0  0
  1 21  1  0  0  0
  2  3  1  0  0  0
 20  2  1  0  0  0
  4  3  1  0  0  0
  3 19  1  0  0  0
  5  4  1  0  0  0
  4 18  1  0  0  0
  6  5  1  0  0  0
  5 17  1  0  0  0
 16  6  1  0  0  0
  6 20  1  0  0  0
  8  7  2  0  0  0
  8  9  2  0  0  0
 10  8  1  0  0  0
 11 10  4  0  0  0
 10 15  4  0  0  0
 12 11  4  0  0  0
 13 12  4  0  0  0
 13 14  4  0  0  0
 13 16  1  0  0  0
 14 15  4  0  0  0
  1 22  1  0  0  0
  1 23  1  0  0  0
  2 24  1  0  0  0
  3 25  1  0  0  0
  4 26  1  0  0  0
  5 27  1  0  0  0
  6 28  1  0  0  0
 11 29  1  0  0  0
 12 30  1  0  0  0
 14 31  1  0  0  0
 15 32  1  0  0  0
 17 33  1  0  0  0
 18 34  1  0  0  0
 19 35  1  0  0  0
 21 36  1  0  0  0
M  END
$$$$
