4joa_ligand
  -I-interpret- 

 44 48  0  0  0  0  0  0  0  0999 V2000
   11.6390   19.6110   45.0770 F   0  0  0  0  0
   10.7390   19.2600   44.1410 C   0  0  0  0  0
   10.5810   17.9180   43.7980 C   0  0  0  0  0
    9.9710   20.2360   43.5110 C   0  0  0  0  0
    9.0440   19.8650   42.5420 C   0  0  0  0  0
    8.8870   18.5210   42.2010 C   0  0  0  0  0
    7.9880   18.1810   41.2590 F   0  0  0  0  0
    9.6460   17.5420   42.8340 C   0  0  0  0  0
    9.5070   16.0770   42.4650 C   0  0  0  0  0
    8.1880   15.4950   42.7340 N   0  0  0  0  0
    7.0990   15.2890   41.9840 C   0  0  0  0  0
    8.0160   15.0010   44.0420 N   0  0  0  0  0
    6.7660   14.4830   44.1180 C   0  0  0  0  0
    6.2380   14.6640   42.8590 C   0  0  0  0  0
    4.8580   14.2520   42.4880 C   0  0  0  0  0
    4.0730   14.9750   41.6310 C   0  0  0  0  0
    2.8990   14.2920   41.5470 N   0  0  0  0  0
    2.9000   13.1720   42.3120 C   0  0  0  0  0
    1.9600   12.2140   42.5280 N   0  0  0  0  0
    2.1990   11.1760   43.3450 C   0  0  0  0  0
    4.1240   13.0650   42.9580 C   0  0  0  0  0
    4.4140   12.0090   43.8130 C   0  0  0  0  0
    3.4240   11.0420   44.0110 C   0  0  0  0  0
    3.6630    9.8740   44.9150 C   0  0  0  0  0
    2.8430    8.7560   45.0400 C   0  0  0  0  0
    3.4180    7.9610   45.9420 N   0  0  0  0  0
    3.0450    6.6390   46.5130 C   0  0  0  0  0
    4.6070    8.5210   46.4230 N   0  0  0  0  0
    4.7470    9.7030   45.7790 C   0  0  0  0  0
   11.1917   17.1584   44.2860 H   0  0  0  0  0
   10.0955   21.2860   43.7758 H   0  0  0  0  0
    8.4392   20.6257   42.0483 H   0  0  0  0  0
   10.2244   15.5284   43.0753 H   0  0  0  0  0
    9.6701   16.0056   41.3896 H   0  0  0  0  0
    6.9340   15.5510   40.9389 H   0  0  0  0  0
    6.2856   14.0252   44.9827 H   0  0  0  0  0
    4.3336   15.9032   41.1224 H   0  0  0  0  0
    1.4250   10.4230   43.4930 H   0  0  0  0  0
    5.3802   11.9369   44.3123 H   0  0  0  0  0
    1.9124    8.5676   44.5047 H   0  0  0  0  0
    2.0776    6.7187   47.0089 H   0  0  0  0  0
    2.9843    5.9026   45.7117 H   0  0  0  0  0
    3.8007    6.3304   47.2353 H   0  0  0  0  0
    5.5697   10.4054   45.9125 H   0  0  0  0  0
  1  2  1  0  0  0
  2  3  4  0  0  0
  2  4  4  0  0  0
  3  8  4  0  0  0
  4  5  4  0  0  0
  5  6  4  0  0  0
  6  7  1  0  0  0
  6  8  4  0  0  0
  8  9  1  0  0  0
  9 10  1  0  0  0
 10 11  4  0  0  0
 10 12  4  0  0  0
 11 14  4  0  0  0
 12 13  4  0  0  0
 13 14  4  0  0  0
 14 15  1  0  0  0
 15 16  4  0  0  0
 15 21  4  0  0  0
 16 17  4  0  0  0
 17 18  4  0  0  0
 18 19  4  0  0  0
 18 21  4  0  0  0
 19 20  4  0  0  0
 20 23  4  0  0  0
 21 22  4  0  0  0
 22 23  4  0  0  0
 23 24  1  0  0  0
 24 25  4  0  0  0
 24 29  4  0  0  0
 25 26  4  0  0  0
 26 27  1  0  0  0
 26 28  4  0  0  0
 28 29  4  0  0  0
  3 30  1  0  0  0
  4 31  1  0  0  0
  5 32  1  0  0  0
  9 33  1  0  0  0
  9 34  1  0  0  0
 11 35  1  0  0  0
 13 36  1  0  0  0
 16 37  1  0  0  0
 20 38  1  0  0  0
 22 39  1  0  0  0
 25 40  1  0  0  0
 27 41  1  0  0  0
 27 42  1  0  0  0
 27 43  1  0  0  0
 29 44  1  0  0  0
M  END
$$$$
