6j0g_ligand
  -I-interpret- 

 27 26  0  0  0  0  0  0  0  0999 V2000
  -85.2390  -64.6020  -19.2390 P   0  0  0  0  0
  -84.4730  -64.5900  -20.5420 O   0  0  0  0  0
  -86.1670  -63.4200  -19.1310 O   0  0  0  0  0
  -84.1660  -64.6130  -18.0070 O   0  0  0  0  0
  -84.4350  -64.8200  -16.4000 P   0  0  0  0  0
  -84.0350  -63.5430  -15.7250 O   0  0  0  0  0
  -85.8700  -65.2210  -16.2170 O   0  0  0  0  0
  -83.5080  -65.9600  -16.0780 O   0  0  0  0  0
  -86.0290  -68.4950  -21.9470 C   0  0  0  0  0
  -86.3800  -68.3610  -19.4860 C   0  0  0  0  0
  -85.3900  -67.1990  -19.3580 C   0  0  0  0  0
  -86.1040  -65.9920  -19.2010 O   0  0  0  0  0
  -86.6740  -68.9400  -20.6370 C   0  0  0  0  0
  -87.6850  -70.0890  -20.6840 C   0  0  0  0  0
  -87.9510  -70.5880  -19.4000 O   0  0  0  0  0
  -83.8931  -65.3542  -20.5780 H   0  0  0  0  0
  -86.0325  -66.0453  -16.6815 H   0  0  0  0  0
  -83.8060  -66.7514  -16.5324 H   0  0  0  0  0
  -86.2666  -67.4471  -22.1299 H   0  0  0  0  0
  -84.9481  -68.6171  -21.8781 H   0  0  0  0  0
  -86.4134  -69.1042  -22.7651 H   0  0  0  0  0
  -86.8663  -68.7287  -18.5824 H   0  0  0  0  0
  -84.7742  -67.1442  -20.2557 H   0  0  0  0  0
  -84.7499  -67.3594  -18.4905 H   0  0  0  0  0
  -87.2673  -70.8937  -21.2890 H   0  0  0  0  0
  -88.6158  -69.7145  -21.1100 H   0  0  0  0  0
  -88.5863  -71.3051  -19.4619 H   0  0  0  0  0
  1  2  1  0  0  0
  1  3  2  0  0  0
  1  4  1  0  0  0
 12  1  1  0  0  0
  4  5  1  0  0  0
  5  6  2  0  0  0
  5  7  1  0  0  0
  5  8  1  0  0  0
 13  9  1  0  0  0
 11 10  1  0  0  0
 10 13  2  0  0  0
 11 12  1  0  0  0
 13 14  1  0  0  0
 14 15  1  0  0  0
  2 16  1  0  0  0
  7 17  1  0  0  0
  8 18  1  0  0  0
  9 19  1  0  0  0
  9 20  1  0  0  0
  9 21  1  0  0  0
 10 22  1  0  0  0
 11 23  1  0  0  0
 11 24  1  0  0  0
 14 25  1  0  0  0
 14 26  1  0  0  0
 15 27  1  0  0  0
M  END
$$$$
