### 
### Created by X-TOOL on Mon Aug  2 16:14:24 2021
### 

@<TRIPOS>MOLECULE
6j0g_ligand
   24    23     1     0     0
SMALL
GAST_HUCK


@<TRIPOS>ATOM
      1 P13       -85.2390  -64.6020  -19.2390 P.3       1 H6P         0.3288
      2 O14       -84.4730  -64.5900  -20.5420 O.co2     1 H6P        -0.5555
      3 O15       -86.1670  -63.4200  -19.1310 O.co2     1 H6P        -0.5555
      4 O16       -84.1660  -64.6130  -18.0070 O.3       1 H6P        -0.1547
      5 P17       -84.4350  -64.8200  -16.4000 P.3       1 H6P         0.2070
      6 O18       -84.0350  -63.5430  -15.7250 O.co2     1 H6P        -0.5891
      7 O19       -85.8700  -65.2210  -16.2170 O.co2     1 H6P        -0.5891
      8 O20       -83.5080  -65.9600  -16.0780 O.co2     1 H6P        -0.5891
      9 C21       -86.0290  -68.4950  -21.9470 C.3       1 H6P        -0.0381
     10 C27       -86.3800  -68.3610  -19.4860 C.2       1 H6P        -0.0762
     11 C28       -85.3900  -67.1990  -19.3580 C.3       1 H6P         0.0917
     12 O29       -86.1040  -65.9920  -19.2010 O.3       1 H6P        -0.2411
     13 C30       -86.6740  -68.9400  -20.6370 C.2       1 H6P        -0.0565
     14 C31       -87.6850  -70.0890  -20.6840 C.3       1 H6P         0.0692
     15 O33       -87.9510  -70.5880  -19.4000 O.3       1 H6P        -0.3840
     16 H1        -85.3319  -67.6673  -21.7498 H         1 H6P         0.0376
     17 H2        -86.8101  -68.1582  -22.6445 H         1 H6P         0.0376
     18 H3        -85.4802  -69.3388  -22.3907 H         1 H6P         0.0376
     19 H4        -86.8659  -68.7283  -18.5833 H         1 H6P         0.0269
     20 H5        -84.7696  -67.1434  -20.2647 H         1 H6P         0.0696
     21 H6        -84.7450  -67.3608  -18.4817 H         1 H6P         0.0696
     22 H7        -87.2773  -70.8996  -21.3058 H         1 H6P         0.0705
     23 H8        -88.6228  -69.7230  -21.1273 H         1 H6P         0.0705
     24 H9        -88.3077  -69.8933  -18.8591 H         1 H6P         0.2125
@<TRIPOS>BOND
     1    1    2 ar 
     2    1    3 ar 
     3    1    4 1  
     4   12    1 1  
     5    4    5 1  
     6    5    6 ar 
     7    5    7 ar 
     8    5    8 ar 
     9   13    9 1  
    10   11   10 1  
    11   10   13 2  
    12   11   12 1  
    13   13   14 1  
    14   14   15 1  
    15    9   16 1  
    16    9   17 1  
    17    9   18 1  
    18   10   19 1  
    19   11   20 1  
    20   11   21 1  
    21   14   22 1  
    22   14   23 1  
    23   15   24 1  
@<TRIPOS>SUBSTRUCTURE
     1 H6P         1

