4b81_ligand
  -I-interpret- 

 41 41  0  0  0  0  0  0  0  0999 V2000
   29.2810   19.6310   11.8060 S   0  0  0  0  0
   29.3890   20.5930   13.1800 N   0  0  0  0  0
   28.0050   19.0310   11.7280 O   0  0  0  0  0
   31.7890   21.0920    9.4250 C   0  0  0  0  0
   26.6540   19.3040   14.2530 N   0  3  0  0  0
   30.4240   18.7970   11.8580 O   0  0  0  0  0
   30.6950   21.5300   10.1880 C   0  0  0  0  0
   34.4590   24.0440    9.7400 Cl  0  0  0  0  0
   29.4420   20.6860   10.3680 C   0  0  0  0  0
   24.6020   20.7160   13.6670 C   0  0  0  0  0
   30.8250   22.7880   10.7960 C   0  0  0  0  0
   31.9730   23.5610   10.6700 C   0  0  0  0  0
   33.0290   23.0890    9.9110 C   0  0  0  0  0
   32.9460   21.8540    9.2850 C   0  0  0  0  0
   28.2230   21.3360   13.7720 C   0  0  0  0  0
   27.1900   20.6500   14.7480 C   0  0  0  0  0
   25.4330   19.4740   13.3730 C   0  0  0  0  0
   26.1660   18.5280   15.4540 C   0  0  0  0  0
   26.6400   17.0820   15.4990 C   0  0  0  0  0
   30.2964   20.6777   13.6381 H   0  0  0  0  0
   31.7309   20.1245    8.9263 H   0  0  0  0  0
   27.4036   18.8443   13.7361 H   0  0  0  0  0
   28.6343   21.4111   10.4674 H   0  0  0  0  0
   29.4501   19.9984    9.5223 H   0  0  0  0  0
   24.2455   20.6778   14.6963 H   0  0  0  0  0
   25.2173   21.6048   13.5270 H   0  0  0  0  0
   23.7506   20.7512   12.9873 H   0  0  0  0  0
   29.9952   23.1730   11.3888 H   0  0  0  0  0
   32.0408   24.5300   11.1645 H   0  0  0  0  0
   33.7795   21.4831    8.6885 H   0  0  0  0  0
   27.6178   21.5911   12.9021 H   0  0  0  0  0
   28.6967   22.0932   14.3968 H   0  0  0  0  0
   27.7115   20.4621   15.6865 H   0  0  0  0  0
   26.3366   21.3224   14.8360 H   0  0  0  0  0
   24.7899   18.6127   13.5541 H   0  0  0  0  0
   25.7921   19.5687   12.3482 H   0  0  0  0  0
   25.0774   18.5076   15.4025 H   0  0  0  0  0
   26.5632   19.0238   16.3397 H   0  0  0  0  0
   26.2844   16.5567   14.6126 H   0  0  0  0  0
   27.7295   17.0587   15.5241 H   0  0  0  0  0
   26.2443   16.5989   16.3924 H   0  0  0  0  0
  2  1  1  0  0  0
  1  3  2  0  0  0
  1  6  2  0  0  0
  1  9  1  0  0  0
 15  2  1  0  0  0
  7  4  4  0  0  0
  4 14  4  0  0  0
 16  5  1  0  0  0
  5 17  1  0  0  0
  5 18  1  0  0  0
  9  7  1  0  0  0
  7 11  4  0  0  0
 13  8  1  0  0  0
 17 10  1  0  0  0
 11 12  4  0  0  0
 12 13  4  0  0  0
 14 13  4  0  0  0
 15 16  1  0  0  0
 18 19  1  0  0  0
  2 20  1  0  0  0
  4 21  1  0  0  0
  5 22  1  0  0  0
  9 23  1  0  0  0
  9 24  1  0  0  0
 10 25  1  0  0  0
 10 26  1  0  0  0
 10 27  1  0  0  0
 11 28  1  0  0  0
 12 29  1  0  0  0
 14 30  1  0  0  0
 15 31  1  0  0  0
 15 32  1  0  0  0
 16 33  1  0  0  0
 16 34  1  0  0  0
 17 35  1  0  0  0
 17 36  1  0  0  0
 18 37  1  0  0  0
 18 38  1  0  0  0
 19 39  1  0  0  0
 19 40  1  0  0  0
 19 41  1  0  0  0
M  END
$$$$
