2l6e_ligand
  -I-interpret- 

263266  0  0  0  0  0  0  0  0999 V2000
   -3.8910    2.7880   -5.2740 N   0  3  0  0  0
   -3.2130    2.3000   -4.0490 C   0  0  0  0  0
   -2.2720    3.3780   -3.5490 C   0  0  0  0  0
   -1.0870    3.1530   -3.3070 O   0  0  0  0  0
   -2.4440    0.9870   -4.3160 C   0  0  0  0  0
   -3.3220    0.0420   -5.1320 C   0  0  0  0  0
   -2.0300    0.3250   -3.0070 C   0  0  0  0  0
   -4.6710   -0.2300   -4.4920 C   0  0  0  0  0
   -2.8250    4.5650   -3.4110 N   0  0  0  0  0
   -2.0510    5.7320   -3.0680 C   0  0  0  0  0
   -2.3730    6.1600   -1.6360 C   0  0  0  0  0
   -3.1010    5.4550   -0.9330 O   0  0  0  0  0
   -2.3250    6.8870   -4.0730 C   0  0  0  0  0
   -3.1240    7.9190   -3.4780 O   0  0  0  0  0
   -3.0590    6.3910   -5.3130 C   0  0  0  0  0
   -1.8240    7.2870   -1.1970 N   0  0  0  0  0
   -2.1560    7.8410    0.1110 C   0  0  0  0  0
   -3.6680    8.0040    0.2340 C   0  0  0  0  0
   -4.2280    7.8700    1.3240 O   0  0  0  0  0
   -1.4570    9.1880    0.3110 C   0  0  0  0  0
   -1.6430    9.7620    1.6860 C   0  0  0  0  0
   -1.2700    9.0350    2.8040 C   0  0  0  0  0
   -2.1930   11.0220    1.8630 C   0  0  0  0  0
   -1.4390    9.5490    4.0700 C   0  0  0  0  0
   -2.3650   11.5420    3.1320 C   0  0  0  0  0
   -1.9870   10.8020    4.2360 C   0  0  0  0  0
   -6.3660    7.1270   -0.3760 C   0  0  0  0  0
   -4.3130    8.2950   -0.9000 N   0  0  0  0  0
   -7.0800    7.1570    0.6260 O   0  0  0  0  0
   -5.7840    8.4160   -0.9840 C   0  0  0  0  0
   -6.1990    8.5140   -2.4660 C   0  0  0  0  0
   -8.7530    8.7740   -2.2140 C   0  0  0  0  0
   -8.8210    7.3900   -2.2640 C   0  0  0  0  0
   -7.4410    9.3860   -2.7120 C   0  0  0  0  0
   -6.2530    9.6540   -0.2220 C   0  0  0  0  0
   -6.0120    5.9960   -0.9930 N   0  0  0  0  0
   -6.5210    4.6870   -0.5870 C   0  0  0  0  0
   -6.2080    4.4130    0.8780 C   0  0  0  0  0
   -7.0000    3.7930    1.5850 O   0  0  0  0  0
   -5.9280    3.5800   -1.4620 C   0  0  0  0  0
   -6.3020    3.7260   -2.9250 C   0  0  0  0  0
   -5.4840    4.2740   -3.6970 O   0  0  0  0  0
   -7.4050    3.2880   -3.3120 O   0  0  0  0  0
   -5.0490    4.8850    1.3250 N   0  0  0  0  0
   -4.6550    4.7570    2.7230 C   0  0  0  0  0
   -5.6540    5.4790    3.6260 C   0  0  0  0  0
   -6.1100    4.9340    4.6350 O   0  0  0  0  0
   -3.2520    5.3340    2.9400 C   0  0  0  0  0
   -2.2260    4.3540    3.5120 C   0  0  0  0  0
   -2.8070    3.6250    4.7100 C   0  0  0  0  0
   -1.7660    3.3700    2.4430 C   0  0  0  0  0
   -5.9890    6.7060    3.2500 N   0  0  0  0  0
   -6.9590    7.5070    3.9880 C   0  0  0  0  0
   -8.3160    6.8160    4.0500 C   0  0  0  0  0
   -8.8770    6.6540    5.1340 O   0  0  0  0  0
   -7.1040    8.8970    3.3580 C   0  0  0  0  0
   -5.9780    9.8870    3.6920 C   0  0  0  0  0
   -6.1100   11.1520    2.8630 C   0  0  0  0  0
   -5.9950   10.2410    5.1730 C   0  0  0  0  0
  -10.1540    4.4400    3.6180 C   0  0  0  0  0
   -8.8250    6.3900    2.8860 N   0  0  0  0  0
  -11.1950    4.0080    4.1020 O   0  0  0  0  0
  -10.1550    5.7310    2.7860 C   0  0  0  0  0
  -10.4980    5.3800    1.3330 C   0  0  0  0  0
   -9.9770    7.3590   -0.1470 C   0  0  0  0  0
   -9.4310    6.6890   -1.2320 C   0  0  0  0  0
  -11.0630    6.5680    0.5540 C   0  0  0  0  0
  -11.2290    6.6690    3.3210 C   0  0  0  0  0
   -8.9900    3.8330    3.7700 N   0  0  0  0  0
   -8.8700    2.5950    4.5340 C   0  0  0  0  0
   -9.0790    2.8430    6.0250 C   0  0  0  0  0
   -9.7840    2.0960    6.6940 O   0  0  0  0  0
   -7.5050    1.9400    4.2980 C   0  0  0  0  0
   -7.2290    0.7640    5.2130 C   0  0  0  0  0
   -7.8110   -0.4780    4.9850 C   0  0  0  0  0
   -6.3940    0.9060    6.3140 C   0  0  0  0  0
   -7.5650   -1.5440    5.8300 C   0  0  0  0  0
   -6.1450   -0.1540    7.1630 C   0  0  0  0  0
   -6.7320   -1.3770    6.9150 C   0  0  0  0  0
   -6.4860   -2.4370    7.7590 O   0  0  0  0  0
   -8.4280    3.8640    6.5540 N   0  0  0  0  0
   -8.5920    4.2170    7.9580 C   0  0  0  0  0
   -9.9480    4.8680    8.2210 C   0  0  0  0  0
  -10.5630    4.6380    9.2650 O   0  0  0  0  0
   -7.4470    5.1170    8.4210 C   0  0  0  0  0
   -6.1620    4.3540    8.6600 C   0  0  0  0  0
   -5.2570    4.1260    7.6330 C   0  0  0  0  0
   -5.8670    3.8440    9.9180 C   0  0  0  0  0
   -4.0920    3.4170    7.8540 C   0  0  0  0  0
   -4.7060    3.1330   10.1440 C   0  0  0  0  0
   -3.8220    2.9220    9.1090 C   0  0  0  0  0
   -2.6690    2.2100    9.3280 O   0  0  0  0  0
  -10.4090    5.6760    7.2740 N   0  0  0  0  0
  -11.6620    6.3870    7.4470 C   0  0  0  0  0
  -12.8860    5.5190    7.2030 C   0  0  0  0  0
  -13.8520    5.5690    7.9680 O   0  0  0  0  0
  -12.8510    4.7280    6.1390 N   0  0  0  0  0
  -13.9690    3.8720    5.7730 C   0  0  0  0  0
  -13.4760    2.4380    5.6490 C   0  0  0  0  0
  -12.4480    2.0870    6.2110 O   0  0  0  0  0
  -14.5830    4.3250    4.4440 C   0  0  0  0  0
  -14.9010    5.8090    4.3840 C   0  0  0  0  0
  -15.8730    6.1250    3.2610 C   0  0  0  0  0
  -17.2640    5.5780    3.5610 C   0  0  0  0  0
  -17.8740    6.2310    4.7530 N   0  3  0  0  0
  -14.2150    1.6110    4.9280 N   0  0  0  0  0
  -13.8170    0.2230    4.7260 C   0  0  0  0  0
  -14.1850   -0.2730    3.3340 C   0  0  0  0  0
  -14.6280   -1.4110    3.1810 O   0  0  0  0  0
  -14.4470   -0.6840    5.7860 C   0  0  0  0  0
  -13.6980   -0.6830    7.1070 C   0  0  0  0  0
  -14.3640   -1.5750    8.1350 C   0  0  0  0  0
  -13.5000   -1.7270    9.3770 C   0  0  0  0  0
  -13.1470   -0.4170    9.9850 N   0  3  0  0  0
  -14.0160    0.5930    2.3340 N   0  0  0  0  0
  -14.1860    0.2170    0.9310 C   0  0  0  0  0
  -14.0060    1.4390    0.0390 C   0  0  0  0  0
  -14.9390    2.2650   -0.0370 O   0  0  0  0  0
  -15.5590   -0.4170    0.6660 C   0  0  0  0  0
  -15.5830   -1.3000   -0.5730 C   0  0  0  0  0
  -14.5710   -2.4350   -0.4610 C   0  0  0  0  0
  -14.8990   -3.3590    0.7040 C   0  0  0  0  0
  -13.7960   -4.3090    1.0000 N   0  3  0  0  0
  -12.9320    1.5720   -0.5780 O   0  0  0  0  0
   -4.3880    3.6537   -5.0642 H   0  0  0  0  0
   -3.1957    2.9611   -5.9999 H   0  0  0  0  0
   -4.5541    2.0837   -5.5976 H   0  0  0  0  0
   -3.9640    2.0838   -3.2891 H   0  0  0  0  0
   -1.5386    1.2170   -4.8776 H   0  0  0  0  0
   -2.7969   -0.9100   -5.2094 H   0  0  0  0  0
   -3.5053    0.5145   -6.0970 H   0  0  0  0  0
   -2.9204    0.0771   -2.4292 H   0  0  0  0  0
   -1.4702   -0.5851   -3.2227 H   0  0  0  0  0
   -1.4044    1.0112   -2.4363 H   0  0  0  0  0
   -4.5220   -0.6842   -3.5124 H   0  0  0  0  0
   -5.2144    0.7082   -4.3800 H   0  0  0  0  0
   -5.2421   -0.9087   -5.1255 H   0  0  0  0  0
   -3.8307    4.6617   -3.5509 H   0  0  0  0  0
   -0.9905    5.4873   -3.1284 H   0  0  0  0  0
   -1.3483    7.2817   -4.3530 H   0  0  0  0  0
   -3.2756    8.6156   -4.1210 H   0  0  0  0  0
   -2.4539    5.6352   -5.8138 H   0  0  0  0  0
   -4.0145    5.9569   -5.0187 H   0  0  0  0  0
   -3.2317    7.2274   -5.9903 H   0  0  0  0  0
   -1.1536    7.7773   -1.7892 H   0  0  0  0  0
   -1.8097    7.1557    0.8847 H   0  0  0  0  0
   -1.8924    9.8913   -0.3989 H   0  0  0  0  0
   -0.3888    9.0273    0.1652 H   0  0  0  0  0
   -0.8368    8.0425    2.6801 H   0  0  0  0  0
   -2.4924   11.6078    0.9939 H   0  0  0  0  0
   -1.1395    8.9650    4.9403 H   0  0  0  0  0
   -2.7980   12.5339    3.2616 H   0  0  0  0  0
   -2.1224   11.2095    5.2379 H   0  0  0  0  0
   -3.7643    8.4405   -1.7475 H   0  0  0  0  0
   -6.4409    7.5054   -2.8011 H   0  0  0  0  0
   -5.3699    8.9736   -3.0040 H   0  0  0  0  0
   -8.8474    9.0523   -1.1644 H   0  0  0  0  0
   -9.5393    9.1479   -2.8698 H   0  0  0  0  0
   -8.3963    6.8530   -3.1121 H   0  0  0  0  0
   -7.5356    9.5105   -3.7907 H   0  0  0  0  0
   -7.2929   10.3155   -2.1622 H   0  0  0  0  0
   -7.3407    9.7130   -0.2616 H   0  0  0  0  0
   -5.9292    9.5842    0.8165 H   0  0  0  0  0
   -5.8226   10.5451   -0.6790 H   0  0  0  0  0
   -5.3618    6.0478   -1.7772 H   0  0  0  0  0
   -7.6032    4.6960   -0.7165 H   0  0  0  0  0
   -6.3228    2.6272   -1.1093 H   0  0  0  0  0
   -4.8422    3.6396   -1.3867 H   0  0  0  0  0
   -4.7047    4.5367   -3.2017 H   0  0  0  0  0
   -4.4177    5.3496    0.6723 H   0  0  0  0  0
   -4.6454    3.6975    2.9788 H   0  0  0  0  0
   -3.3540    6.1399    3.6668 H   0  0  0  0  0
   -2.8831    5.6368    1.9600 H   0  0  0  0  0
   -1.3538    4.9172    3.8440 H   0  0  0  0  0
   -3.0762    4.3492    5.4789 H   0  0  0  0  0
   -3.6950    3.0729    4.4022 H   0  0  0  0  0
   -2.0655    2.9312    5.1062 H   0  0  0  0  0
   -2.6242    2.8075    2.0753 H   0  0  0  0  0
   -1.3091    3.9180    1.6190 H   0  0  0  0  0
   -1.0369    2.6832    2.8728 H   0  0  0  0  0
   -5.5538    7.1026    2.4171 H   0  0  0  0  0
   -6.5872    7.6184    5.0065 H   0  0  0  0  0
   -8.0250    9.3254    3.7535 H   0  0  0  0  0
   -7.0852    8.7544    2.2775 H   0  0  0  0  0
   -5.0293    9.4062    3.4534 H   0  0  0  0  0
   -6.0538   10.8986    1.8044 H   0  0  0  0  0
   -7.0691   11.6249    3.0743 H   0  0  0  0  0
   -5.3016   11.8375    3.1173 H   0  0  0  0  0
   -6.9524   10.6969    5.4253 H   0  0  0  0  0
   -5.8556    9.3354    5.7633 H   0  0  0  0  0
   -5.1892   10.9432    5.3867 H   0  0  0  0  0
   -8.2789    6.5228    2.0348 H   0  0  0  0  0
  -11.2584    4.5992    1.3488 H   0  0  0  0  0
   -9.5786    5.0644    0.8399 H   0  0  0  0  0
  -10.4252    8.2807   -0.5179 H   0  0  0  0  0
   -9.1767    7.5327    0.5723 H   0  0  0  0  0
   -9.4813    5.6010   -1.2750 H   0  0  0  0  0
  -11.5637    7.2303    1.2602 H   0  0  0  0  0
  -11.7462    6.1838   -0.2034 H   0  0  0  0  0
  -12.2025    6.1842    3.2473 H   0  0  0  0  0
  -11.0170    6.9047    4.3639 H   0  0  0  0  0
  -11.2334    7.5870    2.7333 H   0  0  0  0  0
   -8.1568    4.2387    3.3439 H   0  0  0  0  0
   -9.6499    1.9178    4.1859 H   0  0  0  0  0
   -6.7427    2.6936    4.4959 H   0  0  0  0  0
   -7.4948    1.5664    3.2741 H   0  0  0  0  0
   -8.4706   -0.6130    4.1278 H   0  0  0  0  0
   -5.9272    1.8711    6.5111 H   0  0  0  0  0
   -8.0278   -2.5122    5.6390 H   0  0  0  0  0
   -5.4887   -0.0250    8.0237 H   0  0  0  0  0
   -5.8909   -2.1565    8.4581 H   0  0  0  0  0
   -7.7996    4.4147    5.9691 H   0  0  0  0  0
   -8.5608    3.2959    8.5400 H   0  0  0  0  0
   -7.7433    5.5760    9.3642 H   0  0  0  0  0
   -7.2595    5.8495    7.6359 H   0  0  0  0  0
   -5.4687    4.5125    6.6360 H   0  0  0  0  0
   -6.5638    4.0081   10.7400 H   0  0  0  0  0
   -3.3896    3.2505    7.0373 H   0  0  0  0  0
   -4.4895    2.7401   11.1374 H   0  0  0  0  0
   -2.6320    1.9382   10.2480 H   0  0  0  0  0
   -9.8754    5.7987    6.4134 H   0  0  0  0  0
  -11.6833    7.1979    6.7190 H   0  0  0  0  0
  -11.7043    6.7325    8.4799 H   0  0  0  0  0
  -12.0126    4.7195    5.5581 H   0  0  0  0  0
  -14.7354    3.9369    6.5453 H   0  0  0  0  0
  -15.5236    3.7877    4.3227 H   0  0  0  0  0
  -13.8509    4.1195    3.6630 H   0  0  0  0  0
  -13.9745    6.3535    4.2021 H   0  0  0  0  0
  -15.3580    6.1026    5.3290 H   0  0  0  0  0
  -15.5077    5.6601    2.3453 H   0  0  0  0  0
  -15.9414    7.2078    3.1561 H   0  0  0  0  0
  -17.1745    4.5110    3.7648 H   0  0  0  0  0
  -17.9018    5.7762    2.6995 H   0  0  0  0  0
  -18.8004    5.8374    4.9180 H   0  0  0  0  0
  -17.2835    6.0671    5.5684 H   0  0  0  0  0
  -17.9543    7.2340    4.5859 H   0  0  0  0  0
  -15.0791    1.9506    4.5056 H   0  0  0  0  0
  -12.7321    0.1835    4.8233 H   0  0  0  0  0
  -14.4272   -1.7028    5.3990 H   0  0  0  0  0
  -15.4530   -0.3118    5.9796 H   0  0  0  0  0
  -13.6885    0.3361    7.4937 H   0  0  0  0  0
  -12.6908   -1.0597    6.9290 H   0  0  0  0  0
  -14.5143   -2.5604    7.6941 H   0  0  0  0  0
  -15.3121   -1.1223    8.4251 H   0  0  0  0  0
  -12.5747   -2.2240    9.0856 H   0  0  0  0  0
  -14.0647   -2.2993   10.1129 H   0  0  0  0  0
  -12.5694   -0.5717   10.8114 H   0  0  0  0  0
  -12.6298    0.1428    9.3071 H   0  0  0  0  0
  -14.0005    0.0735   10.2522 H   0  0  0  0  0
  -13.7583    1.5545    2.5563 H   0  0  0  0  0
  -13.4251   -0.5282    0.6989 H   0  0  0  0  0
  -15.6692    1.9729    0.5136 H   0  0  0  0  0
  -16.2716    0.3926    0.5082 H   0  0  0  0  0
  -15.8040   -1.0442    1.5232 H   0  0  0  0  0
  -15.3275   -0.6903   -1.4397 H   0  0  0  0  0
  -16.5792   -1.7308   -0.6739 H   0  0  0  0  0
  -13.5842   -2.0035   -0.2933 H   0  0  0  0  0
  -14.5996   -3.0164   -1.3826 H   0  0  0  0  0
  -15.7818   -3.9395    0.4362 H   0  0  0  0  0
  -15.0603   -2.7428    1.5885 H   0  0  0  0  0
  -14.0625   -4.9038    1.7846 H   0  0  0  0  0
  -13.6173   -4.8871    0.1789 H   0  0  0  0  0
  -12.9535   -3.7861    1.2390 H   0  0  0  0  0
  2  1  1  0  0  0
  3  2  1  0  0  0
  2  5  1  0  0  0
  3  4  2  0  0  0
  9  3  1  0  0  0
  5  6  1  0  0  0
  5  7  1  0  0  0
  6  8  1  0  0  0
 10  9  1  0  0  0
 11 10  1  0  0  0
 10 13  1  0  0  0
 11 12  2  0  0  0
 16 11  1  0  0  0
 13 14  1  0  0  0
 13 15  1  0  0  0
 17 16  1  0  0  0
 18 17  1  0  0  0
 17 20  1  0  0  0
 18 19  2  0  0  0
 28 18  1  0  0  0
 20 21  1  0  0  0
 21 22  4  0  0  0
 21 23  4  0  0  0
 22 24  4  0  0  0
 23 25  4  0  0  0
 24 26  4  0  0  0
 25 26  4  0  0  0
 27 29  2  0  0  0
 27 30  1  0  0  0
 36 27  1  0  0  0
 30 28  1  0  0  0
 30 31  1  0  0  0
 30 35  1  0  0  0
 31 34  1  0  0  0
 32 33  1  0  0  0
 34 32  1  0  0  0
 33 66  2  0  0  0
 37 36  1  0  0  0
 38 37  1  0  0  0
 37 40  1  0  0  0
 38 39  2  0  0  0
 44 38  1  0  0  0
 40 41  1  0  0  0
 41 42  1  0  0  0
 41 43  2  0  0  0
 45 44  1  0  0  0
 46 45  1  0  0  0
 45 48  1  0  0  0
 46 47  2  0  0  0
 52 46  1  0  0  0
 48 49  1  0  0  0
 49 50  1  0  0  0
 49 51  1  0  0  0
 53 52  1  0  0  0
 54 53  1  0  0  0
 53 56  1  0  0  0
 54 55  2  0  0  0
 61 54  1  0  0  0
 56 57  1  0  0  0
 57 58  1  0  0  0
 57 59  1  0  0  0
 60 62  2  0  0  0
 63 60  1  0  0  0
 60 69  1  0  0  0
 61 63  1  0  0  0
 63 64  1  0  0  0
 63 68  1  0  0  0
 64 67  1  0  0  0
 66 65  1  0  0  0
 65 67  1  0  0  0
 69 70  1  0  0  0
 70 71  1  0  0  0
 70 73  1  0  0  0
 71 72  2  0  0  0
 71 81  1  0  0  0
 73 74  1  0  0  0
 74 75  4  0  0  0
 74 76  4  0  0  0
 75 77  4  0  0  0
 76 78  4  0  0  0
 77 79  4  0  0  0
 78 79  4  0  0  0
 79 80  1  0  0  0
 81 82  1  0  0  0
 82 83  1  0  0  0
 82 85  1  0  0  0
 83 84  2  0  0  0
 83 93  1  0  0  0
 85 86  1  0  0  0
 86 87  4  0  0  0
 86 88  4  0  0  0
 87 89  4  0  0  0
 88 90  4  0  0  0
 89 91  4  0  0  0
 90 91  4  0  0  0
 91 92  1  0  0  0
 93 94  1  0  0  0
 94 95  1  0  0  0
 95 96  2  0  0  0
 95 97  1  0  0  0
 97 98  1  0  0  0
 98 99  1  0  0  0
 98101  1  0  0  0
 99100  2  0  0  0
 99106  1  0  0  0
101102  1  0  0  0
102103  1  0  0  0
103104  1  0  0  0
104105  1  0  0  0
106107  1  0  0  0
107108  1  0  0  0
107110  1  0  0  0
108109  2  0  0  0
108115  1  0  0  0
110111  1  0  0  0
111112  1  0  0  0
112113  1  0  0  0
113114  1  0  0  0
115116  1  0  0  0
116117  1  0  0  0
116119  1  0  0  0
117118  1  0  0  0
117124  2  0  0  0
119120  1  0  0  0
120121  1  0  0  0
121122  1  0  0  0
122123  1  0  0  0
  1125  1  0  0  0
  1126  1  0  0  0
  1127  1  0  0  0
  2128  1  0  0  0
  5129  1  0  0  0
  6130  1  0  0  0
  6131  1  0  0  0
  7132  1  0  0  0
  7133  1  0  0  0
  7134  1  0  0  0
  8135  1  0  0  0
  8136  1  0  0  0
  8137  1  0  0  0
  9138  1  0  0  0
 10139  1  0  0  0
 13140  1  0  0  0
 14141  1  0  0  0
 15142  1  0  0  0
 15143  1  0  0  0
 15144  1  0  0  0
 16145  1  0  0  0
 17146  1  0  0  0
 20147  1  0  0  0
 20148  1  0  0  0
 22149  1  0  0  0
 23150  1  0  0  0
 24151  1  0  0  0
 25152  1  0  0  0
 26153  1  0  0  0
 28154  1  0  0  0
 31155  1  0  0  0
 31156  1  0  0  0
 32157  1  0  0  0
 32158  1  0  0  0
 33159  1  0  0  0
 34160  1  0  0  0
 34161  1  0  0  0
 35162  1  0  0  0
 35163  1  0  0  0
 35164  1  0  0  0
 36165  1  0  0  0
 37166  1  0  0  0
 40167  1  0  0  0
 40168  1  0  0  0
 42169  1  0  0  0
 44170  1  0  0  0
 45171  1  0  0  0
 48172  1  0  0  0
 48173  1  0  0  0
 49174  1  0  0  0
 50175  1  0  0  0
 50176  1  0  0  0
 50177  1  0  0  0
 51178  1  0  0  0
 51179  1  0  0  0
 51180  1  0  0  0
 52181  1  0  0  0
 53182  1  0  0  0
 56183  1  0  0  0
 56184  1  0  0  0
 57185  1  0  0  0
 58186  1  0  0  0
 58187  1  0  0  0
 58188  1  0  0  0
 59189  1  0  0  0
 59190  1  0  0  0
 59191  1  0  0  0
 61192  1  0  0  0
 64193  1  0  0  0
 64194  1  0  0  0
 65195  1  0  0  0
 65196  1  0  0  0
 66197  1  0  0  0
 67198  1  0  0  0
 67199  1  0  0  0
 68200  1  0  0  0
 68201  1  0  0  0
 68202  1  0  0  0
 69203  1  0  0  0
 70204  1  0  0  0
 73205  1  0  0  0
 73206  1  0  0  0
 75207  1  0  0  0
 76208  1  0  0  0
 77209  1  0  0  0
 78210  1  0  0  0
 80211  1  0  0  0
 81212  1  0  0  0
 82213  1  0  0  0
 85214  1  0  0  0
 85215  1  0  0  0
 87216  1  0  0  0
 88217  1  0  0  0
 89218  1  0  0  0
 90219  1  0  0  0
 92220  1  0  0  0
 93221  1  0  0  0
 94222  1  0  0  0
 94223  1  0  0  0
 97224  1  0  0  0
 98225  1  0  0  0
101226  1  0  0  0
101227  1  0  0  0
102228  1  0  0  0
102229  1  0  0  0
103230  1  0  0  0
103231  1  0  0  0
104232  1  0  0  0
104233  1  0  0  0
105234  1  0  0  0
105235  1  0  0  0
105236  1  0  0  0
106237  1  0  0  0
107238  1  0  0  0
110239  1  0  0  0
110240  1  0  0  0
111241  1  0  0  0
111242  1  0  0  0
112243  1  0  0  0
112244  1  0  0  0
113245  1  0  0  0
113246  1  0  0  0
114247  1  0  0  0
114248  1  0  0  0
114249  1  0  0  0
115250  1  0  0  0
116251  1  0  0  0
118252  1  0  0  0
119253  1  0  0  0
119254  1  0  0  0
120255  1  0  0  0
120256  1  0  0  0
121257  1  0  0  0
121258  1  0  0  0
122259  1  0  0  0
122260  1  0  0  0
123261  1  0  0  0
123262  1  0  0  0
123263  1  0  0  0
M  END
$$$$
