### 
### Created by X-TOOL on Mon Sep 10 21:13:05 2018
### 

@<TRIPOS>MOLECULE
2l6e_ligand
  261   264     1     0     0
SMALL
GAST_HUCK


@<TRIPOS>ATOM
      1 N          -3.8910    2.7880   -5.2740 N.4       1 ILE         0.2381
      2 CA         -3.2130    2.3000   -4.0490 C.3       1 ILE         0.0676
      3 C          -2.2720    3.3780   -3.5490 C.2       1 ILE         0.2270
      4 O          -1.0870    3.1530   -3.3070 O.2       1 ILE        -0.3907
      5 CB         -2.4440    0.9870   -4.3160 C.3       1 ILE         0.0164
      6 CG1        -3.3220    0.0420   -5.1320 C.3       1 ILE        -0.0460
      7 CG2        -2.0300    0.3250   -3.0070 C.3       1 ILE        -0.0551
      8 CD1        -4.6710   -0.2300   -4.4920 C.3       1 ILE        -0.0647
      9 N          -2.8250    4.5650   -3.4110 N.am      1 THR        -0.2586
     10 CA         -2.0510    5.7320   -3.0680 C.3       1 THR         0.1566
     11 C          -2.3730    6.1600   -1.6360 C.2       1 THR         0.2066
     12 O          -3.1010    5.4550   -0.9330 O.2       1 THR        -0.3943
     13 CB         -2.3250    6.8870   -4.0730 C.3       1 THR         0.0924
     14 OG1        -3.1240    7.9190   -3.4780 O.3       1 THR        -0.3874
     15 CG2        -3.0590    6.3910   -5.3130 C.3       1 THR        -0.0346
     16 N          -1.8240    7.2870   -1.1970 N.am      1 PHE        -0.2619
     17 CA         -2.1560    7.8410    0.1110 C.3       1 PHE         0.1402
     18 C          -3.6680    8.0040    0.2340 C.2       1 PHE         0.2030
     19 O          -4.2280    7.8700    1.3240 O.2       1 PHE        -0.3945
     20 CB         -1.4570    9.1880    0.3110 C.3       1 PHE         0.0214
     21 CG         -1.6430    9.7620    1.6860 C.ar      1 PHE        -0.0386
     22 CD1        -1.2700    9.0350    2.8040 C.ar      1 PHE        -0.0601
     23 CD2        -2.1930   11.0220    1.8630 C.ar      1 PHE        -0.0601
     24 CE1        -1.4390    9.5490    4.0700 C.ar      1 PHE        -0.0686
     25 CE2        -2.3650   11.5420    3.1320 C.ar      1 PHE        -0.0686
     26 CZ         -1.9870   10.8020    4.2360 C.ar      1 PHE        -0.0687
     27 C          -6.3660    7.1270   -0.3760 C.2       1 MK8         0.2264
     28 N          -4.3130    8.2950   -0.9000 N.am      1 MK8        -0.2741
     29 O          -7.0800    7.1570    0.6260 O.2       1 MK8        -0.3419
     30 CA         -5.7840    8.4160   -0.9840 C.3       1 MK8         0.1304
     31 CB         -6.1990    8.5140   -2.4660 C.3       1 MK8        -0.0186
     32 CD         -8.7530    8.7740   -2.2140 C.3       1 MK8        -0.0365
     33 CE         -8.8210    7.3900   -2.2640 C.2       1 MK8        -0.0987
     34 CG         -7.4410    9.3860   -2.7120 C.3       1 MK8        -0.0449
     35 CB1        -6.2530    9.6540   -0.2220 C.3       1 MK8        -0.0320
     36 N          -6.0120    5.9960   -0.9930 N.am      1 ASP        -0.2613
     37 CA         -6.5210    4.6870   -0.5870 C.3       1 ASP         0.1424
     38 C          -6.2080    4.4130    0.8780 C.2       1 ASP         0.2058
     39 O          -7.0000    3.7930    1.5850 O.2       1 ASP        -0.3942
     40 CB         -5.9280    3.5800   -1.4620 C.3       1 ASP         0.0408
     41 CG         -6.3020    3.7260   -2.9250 C.2       1 ASP         0.0393
     42 OD1        -5.4840    4.2740   -3.6970 O.co2     1 ASP        -0.5688
     43 OD2        -7.4050    3.2880   -3.3120 O.co2     1 ASP        -0.5688
     44 N          -5.0490    4.8850    1.3250 N.am      1 LEU        -0.2636
     45 CA         -4.6550    4.7570    2.7230 C.3       1 LEU         0.1312
     46 C          -5.6540    5.4790    3.6260 C.2       1 LEU         0.2039
     47 O          -6.1100    4.9340    4.6350 O.2       1 LEU        -0.3944
     48 CB         -3.2520    5.3340    2.9400 C.3       1 LEU        -0.0101
     49 CG         -2.2260    4.3540    3.5120 C.3       1 LEU        -0.0425
     50 CD1        -2.8070    3.6250    4.7100 C.3       1 LEU        -0.0625
     51 CD2        -1.7660    3.3700    2.4430 C.3       1 LEU        -0.0625
     52 N          -5.9890    6.7060    3.2500 N.am      1 LEU        -0.2637
     53 CA         -6.9590    7.5070    3.9880 C.3       1 LEU         0.1309
     54 C          -8.3160    6.8160    4.0500 C.2       1 LEU         0.2010
     55 O          -8.8770    6.6540    5.1340 O.2       1 LEU        -0.3947
     56 CB         -7.1040    8.8970    3.3580 C.3       1 LEU        -0.0101
     57 CG         -5.9780    9.8870    3.6920 C.3       1 LEU        -0.0425
     58 CD1        -6.1100   11.1520    2.8630 C.3       1 LEU        -0.0625
     59 CD2        -5.9950   10.2410    5.1730 C.3       1 LEU        -0.0625
     60 C         -10.1540    4.4400    3.6180 C.2       1 MK8         0.2264
     61 N          -8.8250    6.3900    2.8860 N.am      1 MK8        -0.2743
     62 O         -11.1950    4.0080    4.1020 O.2       1 MK8        -0.3419
     63 CA        -10.1550    5.7310    2.7860 C.3       1 MK8         0.1304
     64 CB        -10.4980    5.3800    1.3330 C.3       1 MK8        -0.0186
     65 CD         -9.9770    7.3590   -0.1470 C.3       1 MK8        -0.0365
     66 CE         -9.4310    6.6890   -1.2320 C.2       1 MK8        -0.0987
     67 CG        -11.0630    6.5680    0.5540 C.3       1 MK8        -0.0449
     68 CB1       -11.2290    6.6690    3.3210 C.3       1 MK8        -0.0320
     69 N          -8.9900    3.8330    3.7700 N.am      1 TYR        -0.2613
     70 CA         -8.8700    2.5950    4.5340 C.3       1 TYR         0.1392
     71 C          -9.0790    2.8430    6.0250 C.2       1 TYR         0.2060
     72 O          -9.7840    2.0960    6.6940 O.2       1 TYR        -0.3942
     73 CB         -7.5050    1.9400    4.2980 C.3       1 TYR         0.0165
     74 CG         -7.2290    0.7640    5.2130 C.ar      1 TYR        -0.0492
     75 CD1        -7.8110   -0.4780    4.9850 C.ar      1 TYR        -0.0685
     76 CD2        -6.3940    0.9060    6.3140 C.ar      1 TYR        -0.0685
     77 CE1        -7.5650   -1.5440    5.8300 C.ar      1 TYR        -0.0398
     78 CE2        -6.1450   -0.1540    7.1630 C.ar      1 TYR        -0.0398
     79 CZ         -6.7320   -1.3770    6.9150 C.ar      1 TYR         0.0805
     80 OH         -6.4860   -2.4370    7.7590 O.3       1 TYR        -0.3376
     81 N          -8.4280    3.8640    6.5540 N.am      1 TYR        -0.2620
     82 CA         -8.5920    4.2170    7.9580 C.3       1 TYR         0.1390
     83 C          -9.9480    4.8680    8.2210 C.2       1 TYR         0.2055
     84 O         -10.5630    4.6380    9.2650 O.2       1 TYR        -0.3942
     85 CB         -7.4470    5.1170    8.4210 C.3       1 TYR         0.0163
     86 CG         -6.1620    4.3540    8.6600 C.ar      1 TYR        -0.0493
     87 CD1        -5.2570    4.1260    7.6330 C.ar      1 TYR        -0.0685
     88 CD2        -5.8670    3.8440    9.9180 C.ar      1 TYR        -0.0685
     89 CE1        -4.0920    3.4170    7.8540 C.ar      1 TYR        -0.0398
     90 CE2        -4.7060    3.1330   10.1440 C.ar      1 TYR        -0.0398
     91 CZ         -3.8220    2.9220    9.1090 C.ar      1 TYR         0.0805
     92 OH         -2.6690    2.2100    9.3280 O.3       1 TYR        -0.3376
     93 N         -10.4090    5.6760    7.2740 N.am      1 GLY        -0.2663
     94 CA        -11.6620    6.3870    7.4470 C.3       1 GLY         0.1201
     95 C         -12.8860    5.5190    7.2030 C.2       1 GLY         0.2007
     96 O         -13.8520    5.5690    7.9680 O.2       1 GLY        -0.3947
     97 N         -12.8510    4.7280    6.1390 N.am      1 LYS        -0.2640
     98 CA        -13.9690    3.8720    5.7730 C.3       1 LYS         0.1310
     99 C         -13.4760    2.4380    5.6490 C.2       1 LYS         0.2039
    100 O         -12.4480    2.0870    6.2110 O.2       1 LYS        -0.3944
    101 CB        -14.5830    4.3250    4.4440 C.3       1 LYS        -0.0122
    102 CG        -14.9010    5.8090    4.3840 C.3       1 LYS        -0.0440
    103 CD        -15.8730    6.1250    3.2610 C.3       1 LYS        -0.0124
    104 CE        -17.2640    5.5780    3.5610 C.3       1 LYS        -0.0354
    105 NZ        -17.8740    6.2310    4.7530 N.4       1 LYS         0.2185
    106 N         -14.2150    1.6110    4.9280 N.am      1 LYS        -0.2637
    107 CA        -13.8170    0.2230    4.7260 C.3       1 LYS         0.1309
    108 C         -14.1850   -0.2730    3.3340 C.2       1 LYS         0.2033
    109 O         -14.6280   -1.4110    3.1810 O.2       1 LYS        -0.3944
    110 CB        -14.4470   -0.6840    5.7860 C.3       1 LYS        -0.0122
    111 CG        -13.6980   -0.6830    7.1070 C.3       1 LYS        -0.0440
    112 CD        -14.3640   -1.5750    8.1350 C.3       1 LYS        -0.0124
    113 CE        -13.5000   -1.7270    9.3770 C.3       1 LYS        -0.0354
    114 NZ        -13.1470   -0.4170    9.9850 N.4       1 LYS         0.2185
    115 N         -14.0160    0.5930    2.3340 N.am      1 LYS        -0.2695
    116 CA        -14.1860    0.2170    0.9310 C.3       1 LYS         0.0944
    117 C         -14.0060    1.4390    0.0390 C.2       1 LYS         0.0601
    118 O         -14.9390    2.2650   -0.0370 O.co2     1 LYS        -0.5666
    119 CB        -15.5590   -0.4170    0.6660 C.3       1 LYS        -0.0177
    120 CG        -15.5830   -1.3000   -0.5730 C.3       1 LYS        -0.0446
    121 CD        -14.5710   -2.4350   -0.4610 C.3       1 LYS        -0.0125
    122 CE        -14.8990   -3.3590    0.7040 C.3       1 LYS        -0.0354
    123 NZ        -13.7960   -4.3090    1.0000 N.4       1 LYS         0.2185
    124 OXT       -12.9320    1.5720   -0.5780 O.co2     1 LYS        -0.5666
    125 H1         -4.3825    3.6435   -5.0678 H         1 ILE         0.2015
    126 H2         -4.5466    2.0928   -5.5948 H         1 ILE         0.2015
    127 H3         -3.2048    2.9595   -5.9922 H         1 ILE         0.2015
    128 H4         -3.9733    2.1057   -3.2781 H         1 ILE         0.1101
    129 H5         -1.5373    1.2190   -4.8940 H         1 ILE         0.0378
    130 H6         -2.7915   -0.9147   -5.2473 H         1 ILE         0.0269
    131 H7         -3.4899    0.4899   -6.1225 H         1 ILE         0.0269
    132 H8         -1.3985    1.0166   -2.4301 H         1 ILE         0.0236
    133 H9         -1.4649   -0.5936   -3.2233 H         1 ILE         0.0236
    134 H10        -2.9277    0.0743   -2.4229 H         1 ILE         0.0236
    135 H11        -5.2483   -0.9149   -5.1305 H         1 ILE         0.0230
    136 H12        -5.2205    0.7161   -4.3785 H         1 ILE         0.0230
    137 H13        -4.5220   -0.6885   -3.5033 H         1 ILE         0.0230
    138 H14        -3.8110    4.6598   -3.5482 H         1 THR         0.1885
    139 H15        -0.9834    5.4729   -3.1228 H         1 THR         0.0826
    140 H16        -1.3581    7.3139   -4.3777 H         1 THR         0.0639
    141 H17        -3.2740    8.6083   -4.1143 H         1 THR         0.2101
    142 H18        -3.2339    7.2342   -5.9974 H         1 THR         0.0257
    143 H19        -4.0236    5.9526   -5.0174 H         1 THR         0.0257
    144 H20        -2.4494    5.6282   -5.8194 H         1 THR         0.0257
    145 H21        -1.1668    7.7676   -1.7775 H         1 PHE         0.1885
    146 H22        -1.8098    7.1451    0.8893 H         1 PHE         0.0823
    147 H23        -1.8611    9.9020   -0.4217 H         1 PHE         0.0474
    148 H24        -0.3800    9.0509    0.1339 H         1 PHE         0.0474
    149 H25        -0.8392    8.0480    2.6807 H         1 PHE         0.0557
    150 H26        -2.4908   11.6045    0.9987 H         1 PHE         0.0557
    151 H27        -1.1411    8.9682    4.9355 H         1 PHE         0.0599
    152 H28        -2.7956   12.5284    3.2609 H         1 PHE         0.0599
    153 H29        -2.1216   11.2073    5.2323 H         1 PHE         0.0559
    154 H30        -3.7751    8.4376   -1.7309 H         1 MK8         0.1839
    155 H31        -6.4108    7.4991   -2.8336 H         1 MK8         0.0279
    156 H32        -5.3588    8.9414   -3.0328 H         1 MK8         0.0279
    157 H33        -8.8960    9.0831   -1.1681 H         1 MK8         0.0388
    158 H34        -9.5704    9.1763   -2.8304 H         1 MK8         0.0388
    159 H35        -8.3967    6.8535   -3.1114 H         1 MK8         0.0450
    160 H36        -7.5312    9.5585   -3.7946 H         1 MK8         0.0284
    161 H37        -7.2934   10.3475   -2.1985 H         1 MK8         0.0284
    162 H38        -7.3479    9.7341   -0.2911 H         1 MK8         0.0242
    163 H39        -5.7914   10.5511   -0.6603 H         1 MK8         0.0242
    164 H40        -5.9576    9.5683    0.8341 H         1 MK8         0.0242
    165 H41        -5.3746    6.0468   -1.7618 H         1 ASP         0.1890
    166 H42        -7.6134    4.6861   -0.7159 H         1 ASP         0.0821
    167 H43        -6.2973    2.6093   -1.0997 H         1 ASP         0.0479
    168 H44        -4.8320    3.6113   -1.3743 H         1 ASP         0.0479
    169 H45        -4.4301    5.3405    0.6851 H         1 LEU         0.1883
    170 H46        -4.6439    3.6897    2.9889 H         1 LEU         0.0800
    171 H47        -3.3367    6.1823    3.6352 H         1 LEU         0.0315
    172 H48        -2.8771    5.6912    1.9695 H         1 LEU         0.0315
    173 H49        -1.3503    4.9279    3.8493 H         1 LEU         0.0298
    174 H50        -2.0596    2.9245    5.1108 H         1 LEU         0.0232
    175 H51        -3.7033    3.0674    4.4006 H         1 LEU         0.0232
    176 H52        -3.0791    4.3548    5.4868 H         1 LEU         0.0232
    177 H53        -1.3504    3.9245    1.5887 H         1 LEU         0.0232
    178 H54        -2.6223    2.7668    2.1070 H         1 LEU         0.0232
    179 H55        -0.9932    2.7085    2.8616 H         1 LEU         0.0232
    180 H56        -5.5623    7.0948    2.4334 H         1 LEU         0.1883
    181 H57        -6.5887    7.6301    5.0164 H         1 LEU         0.0800
    182 H58        -8.0530    9.3310    3.7059 H         1 LEU         0.0315
    183 H59        -7.1358    8.7738    2.2654 H         1 LEU         0.0315
    184 H60        -5.0150    9.4109    3.4554 H         1 LEU         0.0298
    185 H61        -5.2946   11.8447    3.1187 H         1 LEU         0.0232
    186 H62        -7.0775   11.6303    3.0754 H         1 LEU         0.0232
    187 H63        -6.0534   10.8977    1.7943 H         1 LEU         0.0232
    188 H64        -5.8992    9.3225    5.7706 H         1 LEU         0.0232
    189 H65        -6.9429   10.7416    5.4195 H         1 LEU         0.0232
    190 H66        -5.1551   10.9145    5.3987 H         1 LEU         0.0232
    191 H67        -8.2896    6.5202    2.0515 H         1 MK8         0.1839
    192 H68       -11.2452    4.5727    1.3334 H         1 MK8         0.0279
    193 H69        -9.5834    5.0329    0.8300 H         1 MK8         0.0279
    194 H70       -10.4077    8.3071   -0.5014 H         1 MK8         0.0388
    195 H71        -9.1744    7.5682    0.5755 H         1 MK8         0.0388
    196 H72        -9.4812    5.6020   -1.2750 H         1 MK8         0.0450
    197 H73       -11.5901    7.2328    1.2541 H         1 MK8         0.0284
    198 H74       -11.7713    6.1934   -0.1996 H         1 MK8         0.0284
    199 H75       -12.2121    6.1811    3.2467 H         1 MK8         0.0242
    200 H76       -11.2342    7.5961    2.7290 H         1 MK8         0.0242
    201 H77       -11.0165    6.9073    4.3736 H         1 MK8         0.0242
    202 H78        -8.1731    4.2307    3.3523 H         1 TYR         0.1891
    203 H79        -9.6509    1.9023    4.1871 H         1 TYR         0.0823
    204 H80        -6.7236    2.6971    4.4598 H         1 TYR         0.0453
    205 H81        -7.4640    1.5874    3.2569 H         1 TYR         0.0453
    206 H82        -8.4670   -0.6123    4.1325 H         1 TYR         0.0530
    207 H83        -5.9298    1.8658    6.5101 H         1 TYR         0.0530
    208 H84        -8.0252   -2.5069    5.6400 H         1 TYR         0.0525
    209 H85        -5.4923   -0.0257    8.0189 H         1 TYR         0.0525
    210 H86        -6.9605   -3.2009    7.4528 H         1 TYR         0.2458
    211 H87        -7.8119    4.4039    5.9805 H         1 TYR         0.1885
    212 H88        -8.5491    3.2878    8.5451 H         1 TYR         0.0821
    213 H89        -7.7436    5.6087    9.3592 H         1 TYR         0.0453
    214 H90        -7.2648    5.8793    7.6492 H         1 TYR         0.0453
    215 H91        -5.4675    4.5103    6.6415 H         1 TYR         0.0530
    216 H92        -6.5600    4.0072   10.7354 H         1 TYR         0.0530
    217 H93        -3.3934    3.2514    7.0418 H         1 TYR         0.0525
    218 H94        -4.4907    2.7422   11.1319 H         1 TYR         0.0525
    219 H95        -2.1735    2.1553    8.5194 H         1 TYR         0.2458
    220 H96        -9.8859    5.7963    6.4303 H         1 GLY         0.1881
    221 H97       -11.6855    7.2297    6.7404 H         1 GLY         0.0763
    222 H98       -11.7061    6.7707    8.4769 H         1 GLY         0.0763
    223 H99       -12.0290    4.7197    5.5695 H         1 LYS         0.1883
    224 H100      -14.7368    3.9260    6.5588 H         1 LYS         0.0800
    225 H101      -15.5162    3.7647    4.2854 H         1 LYS         0.0312
    226 H102      -13.8729    4.0906    3.6373 H         1 LYS         0.0312
    227 H103      -13.9684    6.3679    4.2173 H         1 LYS         0.0269
    228 H104      -15.3476    6.1178    5.3406 H         1 LYS         0.0269
    229 H105      -15.5033    5.6720    2.3292 H         1 LYS         0.0317
    230 H106      -15.9361    7.2163    3.1384 H         1 LYS         0.0317
    231 H107      -17.1879    4.4967    3.7482 H         1 LYS         0.0813
    232 H108      -17.9110    5.7546    2.6891 H         1 LYS         0.0813
    233 H109      -18.7897    5.8427    4.9170 H         1 LYS         0.1994
    234 H110      -17.9539    7.2223    4.5890 H         1 LYS         0.1994
    235 H111      -17.2913    6.0697    5.5595 H         1 LYS         0.1994
    236 H112      -15.0622    1.9439    4.5139 H         1 LYS         0.1883
    237 H113      -12.7234    0.1665    4.8302 H         1 LYS         0.0800
    238 H114      -14.4658   -1.7128    5.3973 H         1 LYS         0.0312
    239 H115      -15.4764   -0.3424    5.9693 H         1 LYS         0.0312
    240 H116      -13.6652    0.3452    7.4964 H         1 LYS         0.0269
    241 H117      -12.6729   -1.0428    6.9348 H         1 LYS         0.0269
    242 H118      -14.5330   -2.5677    7.6924 H         1 LYS         0.0317
    243 H119      -15.3292   -1.1324    8.4220 H         1 LYS         0.0317
    244 H120      -12.5724   -2.2496    9.1004 H         1 LYS         0.0813
    245 H121      -14.0500   -2.3242   10.1192 H         1 LYS         0.0813
    246 H122      -12.5762   -0.5686   10.8018 H         1 LYS         0.1994
    247 H123      -13.9897    0.0687   10.2495 H         1 LYS         0.1994
    248 H124      -12.6357    0.1371    9.3160 H         1 LYS         0.1994
    249 H125      -13.7633    1.5357    2.5519 H         1 LYS         0.1875
    250 H126      -13.4110   -0.5213    0.6773 H         1 LYS         0.0726
    251 H127      -16.2966    0.3885    0.5354 H         1 LYS         0.0305
    252 H128      -15.8352   -1.0294    1.5370 H         1 LYS         0.0305
    253 H129      -15.3399   -0.6883   -1.4543 H         1 LYS         0.0269
    254 H130      -16.5899   -1.7273   -0.6896 H         1 LYS         0.0269
    255 H131      -13.5692   -2.0074   -0.3075 H         1 LYS         0.0317
    256 H132      -14.5820   -3.0177   -1.3939 H         1 LYS         0.0317
    257 H133      -15.8033   -3.9338    0.4555 H         1 LYS         0.0813
    258 H134      -15.0878   -2.7469    1.5983 H         1 LYS         0.0813
    259 H135      -14.0583   -4.8974    1.7753 H         1 LYS         0.1994
    260 H136      -12.9628   -3.7934    1.2364 H         1 LYS         0.1994
    261 H137      -13.6185   -4.8810    0.1892 H         1 LYS         0.1994
@<TRIPOS>BOND
     1    2    1 1  
     2    3    2 1  
     3    2    5 1  
     4    3    4 2  
     5    9    3 am 
     6    5    6 1  
     7    5    7 1  
     8    6    8 1  
     9   10    9 1  
    10   11   10 1  
    11   10   13 1  
    12   11   12 2  
    13   16   11 am 
    14   13   14 1  
    15   13   15 1  
    16   17   16 1  
    17   18   17 1  
    18   17   20 1  
    19   18   19 2  
    20   28   18 am 
    21   20   21 1  
    22   21   22 ar 
    23   21   23 ar 
    24   22   24 ar 
    25   23   25 ar 
    26   24   26 ar 
    27   25   26 ar 
    28   27   29 2  
    29   27   30 1  
    30   36   27 am 
    31   30   28 1  
    32   30   31 1  
    33   30   35 1  
    34   31   34 1  
    35   32   33 1  
    36   34   32 1  
    37   33   66 2  
    38   37   36 1  
    39   38   37 1  
    40   37   40 1  
    41   38   39 2  
    42   44   38 am 
    43   40   41 1  
    44   41   42 ar 
    45   41   43 ar 
    46   45   44 1  
    47   46   45 1  
    48   45   48 1  
    49   46   47 2  
    50   52   46 am 
    51   48   49 1  
    52   49   50 1  
    53   49   51 1  
    54   53   52 1  
    55   54   53 1  
    56   53   56 1  
    57   54   55 2  
    58   61   54 am 
    59   56   57 1  
    60   57   58 1  
    61   57   59 1  
    62   60   62 2  
    63   63   60 1  
    64   60   69 am 
    65   61   63 1  
    66   63   64 1  
    67   63   68 1  
    68   64   67 1  
    69   66   65 1  
    70   65   67 1  
    71   69   70 1  
    72   70   71 1  
    73   70   73 1  
    74   71   72 2  
    75   71   81 am 
    76   73   74 1  
    77   74   75 ar 
    78   74   76 ar 
    79   75   77 ar 
    80   76   78 ar 
    81   77   79 ar 
    82   78   79 ar 
    83   79   80 1  
    84   81   82 1  
    85   82   83 1  
    86   82   85 1  
    87   83   84 2  
    88   83   93 am 
    89   85   86 1  
    90   86   87 ar 
    91   86   88 ar 
    92   87   89 ar 
    93   88   90 ar 
    94   89   91 ar 
    95   90   91 ar 
    96   91   92 1  
    97   93   94 1  
    98   94   95 1  
    99   95   96 2  
   100   95   97 am 
   101   97   98 1  
   102   98   99 1  
   103   98  101 1  
   104   99  100 2  
   105   99  106 am 
   106  101  102 1  
   107  102  103 1  
   108  103  104 1  
   109  104  105 1  
   110  106  107 1  
   111  107  108 1  
   112  107  110 1  
   113  108  109 2  
   114  108  115 am 
   115  110  111 1  
   116  111  112 1  
   117  112  113 1  
   118  113  114 1  
   119  115  116 1  
   120  116  117 1  
   121  116  119 1  
   122  117  118 ar 
   123  117  124 ar 
   124  119  120 1  
   125  120  121 1  
   126  121  122 1  
   127  122  123 1  
   128    1  125 1  
   129    1  126 1  
   130    1  127 1  
   131    2  128 1  
   132    5  129 1  
   133    6  130 1  
   134    6  131 1  
   135    7  132 1  
   136    7  133 1  
   137    7  134 1  
   138    8  135 1  
   139    8  136 1  
   140    8  137 1  
   141    9  138 1  
   142   10  139 1  
   143   13  140 1  
   144   14  141 1  
   145   15  142 1  
   146   15  143 1  
   147   15  144 1  
   148   16  145 1  
   149   17  146 1  
   150   20  147 1  
   151   20  148 1  
   152   22  149 1  
   153   23  150 1  
   154   24  151 1  
   155   25  152 1  
   156   26  153 1  
   157   28  154 1  
   158   31  155 1  
   159   31  156 1  
   160   32  157 1  
   161   32  158 1  
   162   33  159 1  
   163   34  160 1  
   164   34  161 1  
   165   35  162 1  
   166   35  163 1  
   167   35  164 1  
   168   36  165 1  
   169   37  166 1  
   170   40  167 1  
   171   40  168 1  
   172   44  169 1  
   173   45  170 1  
   174   48  171 1  
   175   48  172 1  
   176   49  173 1  
   177   50  174 1  
   178   50  175 1  
   179   50  176 1  
   180   51  177 1  
   181   51  178 1  
   182   51  179 1  
   183   52  180 1  
   184   53  181 1  
   185   56  182 1  
   186   56  183 1  
   187   57  184 1  
   188   58  185 1  
   189   58  186 1  
   190   58  187 1  
   191   59  188 1  
   192   59  189 1  
   193   59  190 1  
   194   61  191 1  
   195   64  192 1  
   196   64  193 1  
   197   65  194 1  
   198   65  195 1  
   199   66  196 1  
   200   67  197 1  
   201   67  198 1  
   202   68  199 1  
   203   68  200 1  
   204   68  201 1  
   205   69  202 1  
   206   70  203 1  
   207   73  204 1  
   208   73  205 1  
   209   75  206 1  
   210   76  207 1  
   211   77  208 1  
   212   78  209 1  
   213   80  210 1  
   214   81  211 1  
   215   82  212 1  
   216   85  213 1  
   217   85  214 1  
   218   87  215 1  
   219   88  216 1  
   220   89  217 1  
   221   90  218 1  
   222   92  219 1  
   223   93  220 1  
   224   94  221 1  
   225   94  222 1  
   226   97  223 1  
   227   98  224 1  
   228  101  225 1  
   229  101  226 1  
   230  102  227 1  
   231  102  228 1  
   232  103  229 1  
   233  103  230 1  
   234  104  231 1  
   235  104  232 1  
   236  105  233 1  
   237  105  234 1  
   238  105  235 1  
   239  106  236 1  
   240  107  237 1  
   241  110  238 1  
   242  110  239 1  
   243  111  240 1  
   244  111  241 1  
   245  112  242 1  
   246  112  243 1  
   247  113  244 1  
   248  113  245 1  
   249  114  246 1  
   250  114  247 1  
   251  114  248 1  
   252  115  249 1  
   253  116  250 1  
   254  119  251 1  
   255  119  252 1  
   256  120  253 1  
   257  120  254 1  
   258  121  255 1  
   259  121  256 1  
   260  122  257 1  
   261  122  258 1  
   262  123  259 1  
   263  123  260 1  
   264  123  261 1  
@<TRIPOS>SUBSTRUCTURE
     1 ILE         1

