5wdw_ligand
  -I-interpret- 

 62 66  0  0  0  0  0  0  0  0999 V2000
   29.8350  447.4100  697.6570 C   0  0  0  0  0
   31.5640  448.7610  689.2710 C   0  0  0  0  0
   30.7120  449.4780  690.1000 C   0  0  0  0  0
   31.2790  450.2220  691.1250 C   0  0  0  0  0
   30.6620  451.0960  692.1840 C   0  0  0  0  0
   31.9330  447.1010  696.5350 C   0  0  0  0  0
   33.1440  446.2460  696.2240 C   0  0  0  0  0
   33.7610  446.3910  693.7830 C   0  0  0  0  0
   32.4120  446.6670  693.1510 C   0  0  0  0  0
   30.4530  444.6340  693.6870 C   0  0  0  0  0
   30.5480  443.3080  694.1150 C   0  0  0  0  0
   29.8050  448.6920  697.1160 C   0  0  0  0  0
   29.6870  442.8290  695.0850 C   0  0  0  0  0
   28.7280  443.6530  695.6310 C   0  0  0  0  0
   28.6170  444.9620  695.2180 C   0  0  0  0  0
   29.4720  445.4480  694.2480 C   0  0  0  0  0
   35.0940  447.4720  695.5750 C   0  0  0  0  0
   35.5070  446.6000  696.7260 C   0  0  0  0  0
   34.1680  446.2740  697.3800 C   0  0  0  0  0
   30.8330  449.1190  696.3250 C   0  0  0  0  0
   30.8100  450.5020  695.7330 C   0  0  0  0  0
   31.9220  452.0640  694.2190 C   0  0  0  0  0
   31.8920  451.8380  692.7200 C   0  0  0  0  0
   32.6530  450.2420  691.2890 C   0  0  0  0  0
   33.5150  449.5250  690.4830 C   0  0  0  0  0
   32.9390  448.7880  689.4640 C   0  0  0  0  0
   31.8490  450.8160  694.9630 N   0  0  0  0  0
   31.8900  448.3420  696.0430 N   0  0  0  0  0
   33.9570  446.6970  695.0790 N   0  0  0  0  0
   30.9310  446.6330  697.3470 N   0  0  0  0  0
   28.9400  446.9510  698.3820 O   0  0  0  0  0
   28.7370  449.4400  697.4200 O   0  0  0  0  0
   33.0490  451.0090  692.3440 O   0  0  0  0  0
   29.8700  451.2690  695.9350 O   0  0  0  0  0
   34.6640  445.8910  693.1170 O   0  0  0  0  0
   31.5600  445.2270  692.4420 S   0  0  0  0  0
   29.2960  447.0980  693.7530 Cl  0  0  0  0  0
   31.1476  448.1681  688.4566 H   0  0  0  0  0
   29.6325  449.4572  689.9506 H   0  0  0  0  0
   30.1197  450.5396  692.9485 H   0  0  0  0  0
   29.8831  451.7578  691.8053 H   0  0  0  0  0
   32.6903  445.2741  696.0299 H   0  0  0  0  0
   32.5944  447.3539  692.3246 H   0  0  0  0  0
   31.7701  447.0424  693.9480 H   0  0  0  0  0
   31.3021  442.6497  693.6837 H   0  0  0  0  0
   29.7676  441.7946  695.4191 H   0  0  0  0  0
   28.0528  443.2667  696.3946 H   0  0  0  0  0
   27.8582  445.6115  695.6544 H   0  0  0  0  0
   35.8766  447.6531  694.8383 H   0  0  0  0  0
   34.8589  448.5013  695.8460 H   0  0  0  0  0
   36.2092  447.0862  697.4033 H   0  0  0  0  0
   36.0614  445.7139  696.4167 H   0  0  0  0  0
   34.2017  445.3213  697.9085 H   0  0  0  0  0
   33.9001  447.0135  698.1346 H   0  0  0  0  0
   31.0577  452.6711  694.4883 H   0  0  0  0  0
   32.8626  452.5545  694.4698 H   0  0  0  0  0
   31.8881  452.8404  692.2918 H   0  0  0  0  0
   34.5933  449.5391  690.6415 H   0  0  0  0  0
   33.5806  448.2139  688.7955 H   0  0  0  0  0
   32.6238  450.1564  694.8918 H   0  0  0  0  0
   30.9983  445.6899  697.7296 H   0  0  0  0  0
   28.1465  448.9376  697.9861 H   0  0  0  0  0
 12  1  1  0  0  0
  1 30  1  0  0  0
  1 31  2  0  0  0
  3  2  4  0  0  0
  2 26  4  0  0  0
  4  3  4  0  0  0
  5  4  1  0  0  0
  4 24  4  0  0  0
 23  5  1  0  0  0
  6  7  1  0  0  0
 28  6  2  0  0  0
  6 30  1  0  0  0
  7 19  1  0  0  0
  7 29  1  0  0  0
  8  9  1  0  0  0
 29  8  1  0  0  0
  8 35  2  0  0  0
  9 36  1  0  0  0
 10 11  4  0  0  0
 10 16  4  0  0  0
 36 10  1  0  0  0
 11 13  4  0  0  0
 20 12  2  0  0  0
 12 32  1  0  0  0
 13 14  4  0  0  0
 15 14  4  0  0  0
 16 15  4  0  0  0
 16 37  1  0  0  0
 17 18  1  0  0  0
 29 17  1  0  0  0
 19 18  1  0  0  0
 21 20  1  0  0  0
 20 28  1  0  0  0
 27 21  1  0  0  0
 21 34  2  0  0  0
 22 23  1  0  0  0
 22 27  1  0  0  0
 23 33  1  0  0  0
 24 25  4  0  0  0
 24 33  1  0  0  0
 25 26  4  0  0  0
  2 38  1  0  0  0
  3 39  1  0  0  0
  5 40  1  0  0  0
  5 41  1  0  0  0
  7 42  1  0  0  0
  9 43  1  0  0  0
  9 44  1  0  0  0
 11 45  1  0  0  0
 13 46  1  0  0  0
 14 47  1  0  0  0
 15 48  1  0  0  0
 17 49  1  0  0  0
 17 50  1  0  0  0
 18 51  1  0  0  0
 18 52  1  0  0  0
 19 53  1  0  0  0
 19 54  1  0  0  0
 22 55  1  0  0  0
 22 56  1  0  0  0
 23 57  1  0  0  0
 25 58  1  0  0  0
 26 59  1  0  0  0
 27 60  1  0  0  0
 30 61  1  0  0  0
 32 62  1  0  0  0
M  END
$$$$
