3i51_ligand
  -I-interpret- 

 14 14  0  0  0  0  0  0  0  0999 V2000
    2.9560   -2.5180   18.5610 C   0  0  0  0  0
    3.9300   -1.8860   19.2740 C   0  0  0  0  0
    3.6510   -1.0860   20.3830 C   0  0  0  0  0
    2.3200   -1.0300   20.7510 C   0  0  0  0  0
    1.3260   -1.6600   20.0040 C   0  0  0  0  0
    1.6230   -2.4310   18.9110 C   0  0  0  0  0
    3.2780   -3.2430   17.4740 O   0  0  0  0  0
    5.1820   -2.0390   18.8190 O   0  0  0  0  0
    1.9660   -0.0300   22.1450 Cl  0  0  0  0  0
   -0.4070   -1.5600   20.4440 Cl  0  0  0  0  0
    4.4283   -0.5434   20.9211 H   0  0  0  0  0
    0.8473   -2.9489   18.3469 H   0  0  0  0  0
    2.4805   -3.6175   17.0927 H   0  0  0  0  0
    5.7886   -1.5582   19.3869 H   0  0  0  0  0
  1  2  4  0  0  0
  1  6  4  0  0  0
  1  7  1  0  0  0
  2  3  4  0  0  0
  2  8  1  0  0  0
  3  4  4  0  0  0
  4  5  4  0  0  0
  4  9  1  0  0  0
  5  6  4  0  0  0
  5 10  1  0  0  0
  3 11  1  0  0  0
  6 12  1  0  0  0
  7 13  1  0  0  0
  8 14  1  0  0  0
M  END
$$$$
