4u0d_ligand
  -I-interpret- 

124126  0  0  0  0  0  0  0  0999 V2000
  -50.0240  -48.3880  -20.1250 N   0  3  0  0  0
  -50.1300  -48.6420  -18.6580 C   0  0  0  0  0
  -49.6580  -47.4220  -17.8640 C   0  0  0  0  0
  -48.8550  -46.6320  -18.3650 O   0  0  0  0  0
  -49.3040  -49.8710  -18.2710 C   0  0  0  0  0
  -47.9280  -49.6700  -18.5470 O   0  0  0  0  0
  -50.1530  -47.2660  -16.6210 N   0  0  0  0  0
  -49.7330  -46.1430  -15.7800 C   0  0  0  0  0
  -48.3190  -46.3140  -15.2180 C   0  0  0  0  0
  -47.8330  -47.4390  -15.0900 O   0  0  0  0  0
  -50.7710  -46.1400  -14.6530 C   0  0  0  0  0
  -51.2370  -47.5490  -14.5640 C   0  0  0  0  0
  -51.1710  -48.1030  -15.9570 C   0  0  0  0  0
  -47.6790  -45.1950  -14.8840 N   0  0  0  0  0
  -46.2960  -45.1910  -14.4020 C   0  0  0  0  0
  -46.1600  -45.3800  -12.8860 C   0  0  0  0  0
  -45.0410  -45.4490  -12.3740 O   0  0  0  0  0
  -45.6100  -43.8840  -14.8110 C   0  0  0  0  0
  -46.2850  -42.7640  -14.2660 O   0  0  0  0  0
  -47.2840  -45.4570  -12.1740 N   0  0  0  0  0
  -47.2730  -45.6320  -10.7200 C   0  0  0  0  0
  -47.3680  -44.3100   -9.9800 C   0  0  0  0  0
  -47.3460  -43.2410  -10.5960 O   0  0  0  0  0
  -47.4720  -44.3870   -8.6550 N   0  0  0  0  0
  -47.6110  -43.1950   -7.8080 C   0  0  0  0  0
  -46.5090  -43.0680   -6.7480 C   0  0  0  0  0
  -46.6010  -42.2260   -5.8520 O   0  0  0  0  0
  -48.9940  -43.1520   -7.1140 C   0  0  0  0  0
  -50.1090  -43.2590   -8.1450 C   0  0  0  0  0
  -49.1220  -44.2430   -6.0550 C   0  0  0  0  0
  -45.4670  -43.8900   -6.8590 N   0  0  0  0  0
  -44.3530  -43.8510   -5.9150 C   0  0  0  0  0
  -43.3570  -42.7700   -6.3310 C   0  0  0  0  0
  -42.4460  -43.0210   -7.1210 O   0  0  0  0  0
  -43.6670  -45.2180   -5.8340 C   0  0  0  0  0
  -44.5120  -46.2800   -5.1910 C   0  0  0  0  0
  -44.3750  -46.5720   -3.8400 C   0  0  0  0  0
  -45.4500  -46.9850   -5.9340 C   0  0  0  0  0
  -45.1540  -47.5500   -3.2430 C   0  0  0  0  0
  -46.2330  -47.9640   -5.3420 C   0  0  0  0  0
  -46.0850  -48.2460   -3.9950 C   0  0  0  0  0
  -43.5490  -41.5660   -5.7940 N   0  0  0  0  0
  -42.7080  -40.4150   -6.1210 C   0  0  0  0  0
  -41.2440  -40.6570   -5.7570 C   0  0  0  0  0
  -40.3450  -40.3310   -6.5340 O   0  0  0  0  0
  -43.1940  -39.1420   -5.3950 C   0  0  0  0  0
  -44.6030  -38.9760   -5.5980 O   0  0  0  0  0
  -42.4600  -37.9060   -5.9070 C   0  0  0  0  0
  -41.0180  -41.2280   -4.5750 N   0  0  0  0  0
  -39.6730  -41.5080   -4.0770 C   0  0  0  0  0
  -39.3980  -43.0090   -4.1010 C   0  0  0  0  0
  -40.2350  -43.8050   -3.6740 O   0  0  0  0  0
  -39.5210  -40.9800   -2.6500 C   0  0  0  0  0
  -39.8440  -39.5200   -2.5080 C   0  0  0  0  0
  -38.8490  -38.5610   -2.6160 C   0  0  0  0  0
  -41.1460  -39.1050   -2.2670 C   0  0  0  0  0
  -39.1450  -37.2140   -2.4850 C   0  0  0  0  0
  -41.4500  -37.7610   -2.1360 C   0  0  0  0  0
  -40.4480  -36.8140   -2.2450 C   0  0  0  0  0
  -38.2230  -43.3870   -4.6000 N   0  0  0  0  0
  -37.8300  -44.7930   -4.6780 C   0  0  0  0  0
  -38.5520  -45.5400   -5.7840 C   0  0  0  0  0
  -38.0980  -45.5670   -6.9290 O   0  0  0  0  0
  -39.6298  -46.1404   -5.5281 O   0  0  0  0  0
  -50.5788  -47.5672  -20.3677 H   0  0  0  0  0
  -49.0476  -48.2248  -20.3709 H   0  0  0  0  0
  -50.3734  -49.1991  -20.6354 H   0  0  0  0  0
  -51.1765  -48.8292  -18.4176 H   0  0  0  0  0
  -49.6550  -50.7238  -18.8521 H   0  0  0  0  0
  -49.4227  -50.0480  -17.2020 H   0  0  0  0  0
  -47.4345  -50.4540  -18.2954 H   0  0  0  0  0
  -49.6896  -45.2102  -16.3423 H   0  0  0  0  0
  -51.5918  -45.4528  -14.8584 H   0  0  0  0  0
  -50.3470  -45.7920  -13.7111 H   0  0  0  0  0
  -52.2513  -47.6023  -14.1685 H   0  0  0  0  0
  -50.6123  -48.1263  -13.8824 H   0  0  0  0  0
  -50.9112  -49.1615  -15.9707 H   0  0  0  0  0
  -52.1348  -48.0652  -16.4647 H   0  0  0  0  0
  -48.1714  -44.3056  -14.9671 H   0  0  0  0  0
  -45.8137  -46.0513  -14.8660 H   0  0  0  0  0
  -45.6253  -43.8064  -15.8981 H   0  0  0  0  0
  -44.5872  -43.8932  -14.4342 H   0  0  0  0  0
  -45.8369  -41.9591  -14.5361 H   0  0  0  0  0
  -48.1801  -45.3920  -12.6569 H   0  0  0  0  0
  -46.3319  -46.1074  -10.4437 H   0  0  0  0  0
  -48.1377  -46.2361  -10.4455 H   0  0  0  0  0
  -47.4545  -45.3059   -8.2125 H   0  0  0  0  0
  -47.5137  -42.3483   -8.4875 H   0  0  0  0  0
  -49.0850  -42.1926   -6.6048 H   0  0  0  0  0
  -50.0363  -42.4264   -8.8446 H   0  0  0  0  0
  -50.0122  -44.1999   -8.6867 H   0  0  0  0  0
  -51.0740  -43.2271   -7.6393 H   0  0  0  0  0
  -49.0010  -45.2192   -6.5245 H   0  0  0  0  0
  -48.3506  -44.1045   -5.2975 H   0  0  0  0  0
  -50.1056  -44.1818   -5.5892 H   0  0  0  0  0
  -45.4463  -44.5648   -7.6236 H   0  0  0  0  0
  -44.7388  -43.6090   -4.9247 H   0  0  0  0  0
  -42.7727  -45.0983   -5.2225 H   0  0  0  0  0
  -43.4598  -45.5398   -6.8546 H   0  0  0  0  0
  -43.6458  -46.0251   -3.2422 H   0  0  0  0  0
  -45.5719  -46.7661   -6.9948 H   0  0  0  0  0
  -45.0340  -47.7712   -2.1824 H   0  0  0  0  0
  -46.9645  -48.5111   -5.9367 H   0  0  0  0  0
  -46.7003  -49.0146   -3.5272 H   0  0  0  0  0
  -44.3123  -41.4421   -5.1289 H   0  0  0  0  0
  -42.7871  -40.2752   -7.1991 H   0  0  0  0  0
  -42.9837  -39.2557   -4.3315 H   0  0  0  0  0
  -44.8993  -38.1834   -5.1446 H   0  0  0  0  0
  -41.3904  -38.0218   -5.7322 H   0  0  0  0  0
  -42.6447  -37.7918   -6.9752 H   0  0  0  0  0
  -42.8225  -37.0246   -5.3780 H   0  0  0  0  0
  -41.8170  -41.4803   -3.9933 H   0  0  0  0  0
  -38.9536  -41.0066   -4.7244 H   0  0  0  0  0
  -38.4777  -41.1121   -2.3633 H   0  0  0  0  0
  -40.2215  -41.5310   -2.0225 H   0  0  0  0  0
  -37.8213  -38.8704   -2.8063 H   0  0  0  0  0
  -41.9397  -39.8470   -2.1797 H   0  0  0  0  0
  -38.3528  -36.4703   -2.5708 H   0  0  0  0  0
  -42.4774  -37.4495   -1.9473 H   0  0  0  0  0
  -40.6840  -35.7548   -2.1421 H   0  0  0  0  0
  -37.5771  -42.6737   -4.9383 H   0  0  0  0  0
  -38.0870  -45.2663   -3.7303 H   0  0  0  0  0
  -36.7614  -44.8314   -4.8894 H   0  0  0  0  0
  -39.8467  -46.0247   -4.6001 H   0  0  0  0  0
  1  2  1  0  0  0
  2  3  1  0  0  0
  2  5  1  0  0  0
  3  4  2  0  0  0
  3  7  1  0  0  0
  5  6  1  0  0  0
  7  8  1  0  0  0
  7 13  1  0  0  0
  8  9  1  0  0  0
  8 11  1  0  0  0
  9 10  2  0  0  0
  9 14  1  0  0  0
 11 12  1  0  0  0
 12 13  1  0  0  0
 14 15  1  0  0  0
 15 16  1  0  0  0
 15 18  1  0  0  0
 16 17  2  0  0  0
 16 20  1  0  0  0
 18 19  1  0  0  0
 20 21  1  0  0  0
 21 22  1  0  0  0
 22 23  2  0  0  0
 22 24  1  0  0  0
 24 25  1  0  0  0
 25 26  1  0  0  0
 25 28  1  0  0  0
 26 27  2  0  0  0
 26 31  1  0  0  0
 28 29  1  0  0  0
 28 30  1  0  0  0
 31 32  1  0  0  0
 32 33  1  0  0  0
 32 35  1  0  0  0
 33 34  2  0  0  0
 33 42  1  0  0  0
 35 36  1  0  0  0
 36 37  4  0  0  0
 36 38  4  0  0  0
 37 39  4  0  0  0
 38 40  4  0  0  0
 39 41  4  0  0  0
 40 41  4  0  0  0
 42 43  1  0  0  0
 43 44  1  0  0  0
 43 46  1  0  0  0
 44 45  2  0  0  0
 44 49  1  0  0  0
 46 47  1  0  0  0
 46 48  1  0  0  0
 49 50  1  0  0  0
 50 51  1  0  0  0
 50 53  1  0  0  0
 51 52  2  0  0  0
 51 60  1  0  0  0
 53 54  1  0  0  0
 54 55  4  0  0  0
 54 56  4  0  0  0
 55 57  4  0  0  0
 56 58  4  0  0  0
 57 59  4  0  0  0
 58 59  4  0  0  0
 60 61  1  0  0  0
 61 62  1  0  0  0
 62 63  2  0  0  0
 62 64  1  0  0  0
  1 65  1  0  0  0
  1 66  1  0  0  0
  1 67  1  0  0  0
  2 68  1  0  0  0
  5 69  1  0  0  0
  5 70  1  0  0  0
  6 71  1  0  0  0
  8 72  1  0  0  0
 11 73  1  0  0  0
 11 74  1  0  0  0
 12 75  1  0  0  0
 12 76  1  0  0  0
 13 77  1  0  0  0
 13 78  1  0  0  0
 14 79  1  0  0  0
 15 80  1  0  0  0
 18 81  1  0  0  0
 18 82  1  0  0  0
 19 83  1  0  0  0
 20 84  1  0  0  0
 21 85  1  0  0  0
 21 86  1  0  0  0
 24 87  1  0  0  0
 25 88  1  0  0  0
 28 89  1  0  0  0
 29 90  1  0  0  0
 29 91  1  0  0  0
 29 92  1  0  0  0
 30 93  1  0  0  0
 30 94  1  0  0  0
 30 95  1  0  0  0
 31 96  1  0  0  0
 32 97  1  0  0  0
 35 98  1  0  0  0
 35 99  1  0  0  0
 37100  1  0  0  0
 38101  1  0  0  0
 39102  1  0  0  0
 40103  1  0  0  0
 41104  1  0  0  0
 42105  1  0  0  0
 43106  1  0  0  0
 46107  1  0  0  0
 47108  1  0  0  0
 48109  1  0  0  0
 48110  1  0  0  0
 48111  1  0  0  0
 49112  1  0  0  0
 50113  1  0  0  0
 53114  1  0  0  0
 53115  1  0  0  0
 55116  1  0  0  0
 56117  1  0  0  0
 57118  1  0  0  0
 58119  1  0  0  0
 59120  1  0  0  0
 60121  1  0  0  0
 61122  1  0  0  0
 61123  1  0  0  0
 64124  1  0  0  0
M  END
$$$$
