### 
### Created by X-TOOL on Mon Sep 10 21:13:20 2018
### 

@<TRIPOS>MOLECULE
4u0d_ligand
  123   125     1     0     0
SMALL
GAST_HUCK


@<TRIPOS>ATOM
      1 N         -50.0240  -48.3880  -20.1250 N.4       1 SER         0.2396
      2 CA        -50.1300  -48.6420  -18.6580 C.3       1 SER         0.0886
      3 C         -49.6580  -47.4220  -17.8640 C.2       1 SER         0.2315
      4 O         -48.8550  -46.6320  -18.3650 O.2       1 SER        -0.3904
      5 CB        -49.3040  -49.8710  -18.2710 C.3       1 SER         0.1041
      6 OG        -47.9280  -49.6700  -18.5470 O.3       1 SER        -0.3870
      7 N         -50.1530  -47.2660  -16.6210 N.am      1 PRO        -0.2471
      8 CA        -49.7330  -46.1430  -15.7800 C.3       1 PRO         0.1339
      9 C         -48.3190  -46.3140  -15.2180 C.2       1 PRO         0.2042
     10 O         -47.8330  -47.4390  -15.0900 O.2       1 PRO        -0.3944
     11 CB        -50.7710  -46.1400  -14.6530 C.3       1 PRO        -0.0104
     12 CG        -51.2370  -47.5490  -14.5640 C.3       1 PRO        -0.0281
     13 CD        -51.1710  -48.1030  -15.9570 C.3       1 PRO         0.0371
     14 N         -47.6790  -45.1950  -14.8840 N.am      1 SER        -0.2616
     15 CA        -46.2960  -45.1910  -14.4020 C.3       1 SER         0.1539
     16 C         -46.1600  -45.3800  -12.8860 C.2       1 SER         0.2060
     17 O         -45.0410  -45.4490  -12.3740 O.2       1 SER        -0.3943
     18 CB        -45.6100  -43.8840  -14.8110 C.3       1 SER         0.0843
     19 OG        -46.2850  -42.7640  -14.2660 O.3       1 SER        -0.3903
     20 N         -47.2840  -45.4570  -12.1740 N.am      1 GLY        -0.2663
     21 CA        -47.2730  -45.6320  -10.7200 C.3       1 GLY         0.1201
     22 C         -47.3680  -44.3100   -9.9800 C.2       1 GLY         0.2008
     23 O         -47.3460  -43.2410  -10.5960 O.2       1 GLY        -0.3947
     24 N         -47.4720  -44.3870   -8.6550 N.am      1 VAL        -0.2637
     25 CA        -47.6110  -43.1950   -7.8080 C.3       1 VAL         0.1332
     26 C         -46.5090  -43.0680   -6.7480 C.2       1 VAL         0.2043
     27 O         -46.6010  -42.2260   -5.8520 O.2       1 VAL        -0.3944
     28 CB        -48.9940  -43.1520   -7.1140 C.3       1 VAL        -0.0063
     29 CG1       -50.1090  -43.2590   -8.1450 C.3       1 VAL        -0.0584
     30 CG2       -49.1220  -44.2430   -6.0550 C.3       1 VAL        -0.0584
     31 N         -45.4670  -43.8900   -6.8590 N.am      1 PHE        -0.2619
     32 CA        -44.3530  -43.8510   -5.9150 C.3       1 PHE         0.1404
     33 C         -43.3570  -42.7700   -6.3310 C.2       1 PHE         0.2060
     34 O         -42.4460  -43.0210   -7.1210 O.2       1 PHE        -0.3942
     35 CB        -43.6670  -45.2180   -5.8340 C.3       1 PHE         0.0214
     36 CG        -44.5120  -46.2800   -5.1910 C.ar      1 PHE        -0.0386
     37 CD1       -44.3750  -46.5720   -3.8400 C.ar      1 PHE        -0.0601
     38 CD2       -45.4500  -46.9850   -5.9340 C.ar      1 PHE        -0.0601
     39 CE1       -45.1540  -47.5500   -3.2430 C.ar      1 PHE        -0.0686
     40 CE2       -46.2330  -47.9640   -5.3420 C.ar      1 PHE        -0.0686
     41 CZ        -46.0850  -48.2460   -3.9950 C.ar      1 PHE        -0.0687
     42 N         -43.5490  -41.5660   -5.7940 N.am      1 THR        -0.2612
     43 CA        -42.7080  -40.4150   -6.1210 C.3       1 THR         0.1565
     44 C         -41.2440  -40.6570   -5.7570 C.2       1 THR         0.2066
     45 O         -40.3450  -40.3310   -6.5340 O.2       1 THR        -0.3943
     46 CB        -43.1940  -39.1420   -5.3950 C.3       1 THR         0.0924
     47 OG1       -44.6030  -38.9760   -5.5980 O.3       1 THR        -0.3874
     48 CG2       -42.4600  -37.9060   -5.9070 C.3       1 THR        -0.0346
     49 N         -41.0180  -41.2280   -4.5750 N.am      1 PHE        -0.2619
     50 CA        -39.6730  -41.5080   -4.0770 C.3       1 PHE         0.1404
     51 C         -39.3980  -43.0090   -4.1010 C.2       1 PHE         0.2053
     52 O         -40.2350  -43.8050   -3.6740 O.2       1 PHE        -0.3942
     53 CB        -39.5210  -40.9800   -2.6500 C.3       1 PHE         0.0214
     54 CG        -39.8440  -39.5200   -2.5080 C.ar      1 PHE        -0.0386
     55 CD1       -38.8490  -38.5610   -2.6160 C.ar      1 PHE        -0.0601
     56 CD2       -41.1460  -39.1050   -2.2670 C.ar      1 PHE        -0.0601
     57 CE1       -39.1450  -37.2140   -2.4850 C.ar      1 PHE        -0.0686
     58 CE2       -41.4500  -37.7610   -2.1360 C.ar      1 PHE        -0.0686
     59 CZ        -40.4480  -36.8140   -2.2450 C.ar      1 PHE        -0.0687
     60 N         -38.2230  -43.3870   -4.6000 N.am      1 GLY        -0.2696
     61 CA        -37.8300  -44.7930   -4.6780 C.3       1 GLY         0.1116
     62 C         -38.5520  -45.5400   -5.7840 C.2       1 GLY         0.2118
     63 O         -38.0980  -45.5670   -6.9290 O.co2     1 GLY        -0.4123
     64 H         -50.3388  -49.2014  -20.6304 H         1 SER         0.2016
     65 H         -49.0640  -48.1946  -20.3640 H         1 SER         0.2016
     66 H         -50.5976  -47.5966  -20.3713 H         1 SER         0.2016
     67 H         -51.1845  -48.8346  -18.4114 H         1 SER         0.1122
     68 H         -49.6620  -50.7391  -18.8438 H         1 SER         0.0640
     69 H         -49.4299  -50.0641  -17.1954 H         1 SER         0.0640
     70 H         -47.4396  -50.4459  -18.2980 H         1 SER         0.2099
     71 H         -49.7760  -45.2034  -16.3503 H         1 PRO         0.0802
     72 H         -51.6079  -45.4696  -14.8984 H         1 PRO         0.0313
     73 H         -50.3128  -45.8226  -13.7047 H         1 PRO         0.0313
     74 H         -52.2701  -47.5855  -14.1882 H         1 PRO         0.0287
     75 H         -50.5823  -48.1251  -13.8936 H         1 PRO         0.0287
     76 H         -50.8628  -49.1589  -15.9445 H         1 PRO         0.0524
     77 H         -52.1440  -48.0109  -16.4618 H         1 PRO         0.0524
     78 H         -48.1617  -44.3230  -14.9655 H         1 SER         0.1884
     79 H         -45.7731  -46.0268  -14.8897 H         1 SER         0.0823
     80 H         -45.6107  -43.8054  -15.9082 H         1 SER         0.0606
     81 H         -44.5729  -43.8921  -14.4446 H         1 SER         0.0606
     82 H         -45.8415  -41.9675  -14.5333 H         1 SER         0.2097
     83 H         -48.1625  -45.3933  -12.6475 H         1 GLY         0.1881
     84 H         -46.3372  -46.1327  -10.4310 H         1 GLY         0.0763
     85 H         -48.1289  -46.2604  -10.4328 H         1 GLY         0.0763
     86 H         -47.4549  -45.2878   -8.2212 H         1 VAL         0.1883
     87 H         -47.5370  -42.3187   -8.4688 H         1 VAL         0.0802
     88 H         -49.0895  -42.1796   -6.6088 H         1 VAL         0.0343
     89 H         -51.0835  -43.2269   -7.6358 H         1 VAL         0.0234
     90 H         -50.0124  -44.2082   -8.6924 H         1 VAL         0.0234
     91 H         -50.0368  -42.4192   -8.8517 H         1 VAL         0.0234
     92 H         -48.3058  -44.1424   -5.3245 H         1 VAL         0.0234
     93 H         -49.0634  -45.2302   -6.5366 H         1 VAL         0.0234
     94 H         -50.0890  -44.1428   -5.5404 H         1 VAL         0.0234
     95 H         -45.4467  -44.5516   -7.6086 H         1 PHE         0.1885
     96 H         -44.7463  -43.6001   -4.9188 H         1 PHE         0.0823
     97 H         -42.7422  -45.1084   -5.2487 H         1 PHE         0.0474
     98 H         -43.4184  -45.5429   -6.8551 H         1 PHE         0.0474
     99 H         -43.6498  -46.0281   -3.2455 H         1 PHE         0.0557
    100 H         -45.5713  -46.7673   -6.9890 H         1 PHE         0.0557
    101 H         -45.0346  -47.7700   -2.1883 H         1 PHE         0.0599
    102 H         -46.9604  -48.5081   -5.9335 H         1 PHE         0.0599
    103 H         -46.6969  -49.0104   -3.5298 H         1 PHE         0.0559
    104 H         -44.2973  -41.4445   -5.1419 H         1 THR         0.1884
    105 H         -42.7731  -40.2456   -7.2059 H         1 THR         0.0826
    106 H         -42.9963  -39.2517   -4.3185 H         1 THR         0.0639
    107 H         -44.8962  -38.1916   -5.1493 H         1 THR         0.2101
    108 H         -42.8250  -37.0157   -5.3739 H         1 THR         0.0257
    109 H         -42.6456  -37.7896   -6.9850 H         1 THR         0.0257
    110 H         -41.3803  -38.0216   -5.7312 H         1 THR         0.0257
    111 H         -41.8013  -41.4754   -4.0047 H         1 PHE         0.1885
    112 H         -38.9424  -41.0017   -4.7250 H         1 PHE         0.0823
    113 H         -38.4804  -41.1379   -2.3304 H         1 PHE         0.0474
    114 H         -40.1963  -41.5502   -1.9951 H         1 PHE         0.0474
    115 H         -37.8270  -38.8687   -2.8052 H         1 PHE         0.0557
    116 H         -41.9353  -39.8429   -2.1802 H         1 PHE         0.0557
    117 H         -38.3572  -36.4743   -2.5704 H         1 PHE         0.0599
    118 H         -42.4717  -37.4512   -1.9483 H         1 PHE         0.0599
    119 H         -40.6827  -35.7607   -2.1427 H         1 PHE         0.0559
    120 H         -37.5898  -42.6877   -4.9317 H         1 GLY         0.1874
    121 H         -38.0602  -45.2770   -3.7174 H         1 GLY         0.0714
    122 H         -36.7474  -44.8464   -4.8653 H         1 GLY         0.0714
    123 O1        -39.6298  -46.1404   -5.5281 O.co2     1 GLY        -0.4123
@<TRIPOS>BOND
     1    1    2 1  
     2    2    3 1  
     3    2    5 1  
     4    3    4 2  
     5    3    7 am 
     6    5    6 1  
     7    7    8 1  
     8    7   13 1  
     9    8    9 1  
    10    8   11 1  
    11    9   10 2  
    12    9   14 am 
    13   11   12 1  
    14   12   13 1  
    15   14   15 1  
    16   15   16 1  
    17   15   18 1  
    18   16   17 2  
    19   16   20 am 
    20   18   19 1  
    21   20   21 1  
    22   21   22 1  
    23   22   23 2  
    24   22   24 am 
    25   24   25 1  
    26   25   26 1  
    27   25   28 1  
    28   26   27 2  
    29   26   31 am 
    30   28   29 1  
    31   28   30 1  
    32   31   32 1  
    33   32   33 1  
    34   32   35 1  
    35   33   34 2  
    36   33   42 am 
    37   35   36 1  
    38   36   37 ar 
    39   36   38 ar 
    40   37   39 ar 
    41   38   40 ar 
    42   39   41 ar 
    43   40   41 ar 
    44   42   43 1  
    45   43   44 1  
    46   43   46 1  
    47   44   45 2  
    48   44   49 am 
    49   46   47 1  
    50   46   48 1  
    51   49   50 1  
    52   50   51 1  
    53   50   53 1  
    54   51   52 2  
    55   51   60 am 
    56   53   54 1  
    57   54   55 ar 
    58   54   56 ar 
    59   55   57 ar 
    60   56   58 ar 
    61   57   59 ar 
    62   58   59 ar 
    63   60   61 1  
    64   61   62 1  
    65   62   63 ar 
    66    1   64 1  
    67    1   65 1  
    68    1   66 1  
    69    2   67 1  
    70    5   68 1  
    71    5   69 1  
    72    6   70 1  
    73    8   71 1  
    74   11   72 1  
    75   11   73 1  
    76   12   74 1  
    77   12   75 1  
    78   13   76 1  
    79   13   77 1  
    80   14   78 1  
    81   15   79 1  
    82   18   80 1  
    83   18   81 1  
    84   19   82 1  
    85   20   83 1  
    86   21   84 1  
    87   21   85 1  
    88   24   86 1  
    89   25   87 1  
    90   28   88 1  
    91   29   89 1  
    92   29   90 1  
    93   29   91 1  
    94   30   92 1  
    95   30   93 1  
    96   30   94 1  
    97   31   95 1  
    98   32   96 1  
    99   35   97 1  
   100   35   98 1  
   101   37   99 1  
   102   38  100 1  
   103   39  101 1  
   104   40  102 1  
   105   41  103 1  
   106   42  104 1  
   107   43  105 1  
   108   46  106 1  
   109   47  107 1  
   110   48  108 1  
   111   48  109 1  
   112   48  110 1  
   113   49  111 1  
   114   50  112 1  
   115   53  113 1  
   116   53  114 1  
   117   55  115 1  
   118   56  116 1  
   119   57  117 1  
   120   58  118 1  
   121   59  119 1  
   122   60  120 1  
   123   61  121 1  
   124   61  122 1  
   125   62  123 ar 
@<TRIPOS>SUBSTRUCTURE
     1 SER         1

