5cf8_ligand
  -I-interpret- 

 60 65  0  0  0  0  0  0  0  0999 V2000
   -1.6530   46.8520    0.7090 N   0  0  0  0  0
   -1.8800   47.4350   -0.5340 C   0  0  0  0  0
   -0.4280   46.8800    1.5260 C   0  0  0  0  0
   -0.9010   48.3500   -1.1570 C   0  0  0  0  0
    0.4610   45.7110    1.1510 C   0  0  0  0  0
   -0.1050   49.5520   -3.1170 C   0  0  0  0  0
   -1.1490   47.2700   -3.4080 C   0  0  0  0  0
   -0.8500   50.3620   -4.1190 C   0  0  0  0  0
   -0.5540   50.9290   -2.7710 C   0  0  0  0  0
   -0.7690   45.8740   -3.0580 C   0  0  0  0  0
   -6.3820   45.8320   -1.7630 C   0  0  0  0  0
   -3.1200   47.0570   -0.9850 C   0  0  0  0  0
   -3.7150   43.4580    5.8150 C   0  0  0  0  0
   -3.6910   46.2110    0.0040 C   0  0  0  0  0
   -2.7550   46.1120    1.0440 C   0  0  0  0  0
   -2.8400   45.3930    2.1690 N   0  0  0  0  0
   -3.9620   44.6940    2.3660 C   0  0  0  0  0
   -4.9930   44.6990    1.3990 C   0  0  0  0  0
   -4.8640   45.4670    0.2410 C   0  0  0  0  0
   -4.1290   44.0430    3.5680 N   0  0  0  0  0
   -6.2140   44.0430    1.4100 N   0  0  0  0  0
   -6.7790   44.4130    0.2810 C   0  0  0  0  0
   -6.0280   45.2670   -0.4680 N   0  0  0  0  0
   -0.7890   48.3900   -2.5010 N   0  0  0  0  0
   -0.2850   49.1180   -0.4280 O   0  0  0  0  0
   -0.0500   46.5930   -4.1510 C   0  0  0  0  0
   -3.2470   44.0520    4.6500 C   0  0  0  0  0
   -2.7860   43.7160    6.7720 C   0  0  0  0  0
   -1.7900   44.3890    6.1700 N   0  0  0  0  0
   -2.0530   44.6200    4.8370 N   0  0  0  0  0
   -2.7830   43.3920    8.2270 C   0  0  0  0  0
   -0.5280   44.8510    6.7470 C   0  0  0  0  0
   -0.6945   46.8083    2.5805 H   0  0  0  0  0
    0.1059   47.8131    1.3459 H   0  0  0  0  0
   -0.0731   44.7779    1.3303 H   0  0  0  0  0
    0.7269   45.7821    0.0963 H   0  0  0  0  0
    1.3662   45.7353    1.7577 H   0  0  0  0  0
    0.8531   49.0325   -3.0978 H   0  0  0  0  0
   -2.0886   47.7555   -3.6718 H   0  0  0  0  0
   -1.7012   50.2510   -4.7907 H   0  0  0  0  0
   -0.7606   50.6520   -5.1659 H   0  0  0  0  0
   -0.1403   51.8404   -2.3394 H   0  0  0  0  0
   -1.0802   51.4397   -1.9645 H   0  0  0  0  0
   -1.2531   44.9116   -2.8923 H   0  0  0  0  0
   -0.5316   45.2892   -2.1693 H   0  0  0  0  0
   -6.3871   46.9198   -1.6942 H   0  0  0  0  0
   -5.6507   45.5172   -2.5075 H   0  0  0  0  0
   -7.3721   45.4803   -2.0530 H   0  0  0  0  0
   -3.5816   47.3513   -1.9276 H   0  0  0  0  0
   -4.6417   42.8973    5.9369 H   0  0  0  0  0
   -4.9845   43.4987    3.6790 H   0  0  0  0  0
   -7.7646   44.0655   -0.0286 H   0  0  0  0  0
    0.9751   46.7964   -4.4607 H   0  0  0  0  0
    0.2542   46.4191   -5.1831 H   0  0  0  0  0
   -3.6384   43.8686    8.7058 H   0  0  0  0  0
   -2.8472   42.3117    8.3575 H   0  0  0  0  0
   -1.8612   43.7596    8.6779 H   0  0  0  0  0
   -0.7351   45.5365    7.5688 H   0  0  0  0  0
    0.0348   43.9950    7.1192 H   0  0  0  0  0
    0.0535   45.3647    5.9815 H   0  0  0  0  0
  1  2  4  0  0  0
  1  3  1  0  0  0
 15  1  4  0  0  0
  2  4  1  0  0  0
 12  2  4  0  0  0
  3  5  1  0  0  0
  4 24  1  0  0  0
  4 25  2  0  0  0
  6  8  1  0  0  0
  6  9  1  0  0  0
 24  6  1  0  0  0
  7 10  1  0  0  0
 24  7  1  0  0  0
  7 26  1  0  0  0
  9  8  1  0  0  0
 26 10  1  0  0  0
 23 11  1  0  0  0
 14 12  4  0  0  0
 27 13  4  0  0  0
 13 28  4  0  0  0
 15 14  4  0  0  0
 19 14  4  0  0  0
 16 15  4  0  0  0
 17 16  4  0  0  0
 17 18  4  0  0  0
 20 17  1  0  0  0
 18 19  4  0  0  0
 18 21  4  0  0  0
 19 23  4  0  0  0
 20 27  1  0  0  0
 21 22  4  0  0  0
 22 23  4  0  0  0
 27 30  4  0  0  0
 28 29  4  0  0  0
 28 31  1  0  0  0
 29 30  4  0  0  0
 29 32  1  0  0  0
  3 33  1  0  0  0
  3 34  1  0  0  0
  5 35  1  0  0  0
  5 36  1  0  0  0
  5 37  1  0  0  0
  6 38  1  0  0  0
  7 39  1  0  0  0
  8 40  1  0  0  0
  8 41  1  0  0  0
  9 42  1  0  0  0
  9 43  1  0  0  0
 10 44  1  0  0  0
 10 45  1  0  0  0
 11 46  1  0  0  0
 11 47  1  0  0  0
 11 48  1  0  0  0
 12 49  1  0  0  0
 13 50  1  0  0  0
 20 51  1  0  0  0
 22 52  1  0  0  0
 26 53  1  0  0  0
 26 54  1  0  0  0
 31 55  1  0  0  0
 31 56  1  0  0  0
 31 57  1  0  0  0
 32 58  1  0  0  0
 32 59  1  0  0  0
 32 60  1  0  0  0
M  END
$$$$
