5mz8_ligand
  -I-interpret- 

 14 13  0  0  0  0  0  0  0  0999 V2000
   48.6430  -66.9900   41.7390 C   0  0  0  0  0
   49.0230  -65.8660   42.1580 O   0  0  0  0  0
   49.0360  -68.0300   42.3350 O   0  0  0  0  0
   47.6920  -67.0470   40.5550 C   0  0  0  0  0
   47.8810  -68.2550   39.6470 C   0  0  0  0  0
   48.1110  -67.8790   38.1860 C   0  0  0  0  0
   47.8280  -68.7040   37.2700 O   0  0  0  0  0
   48.6090  -66.7650   37.8640 O   0  0  0  0  0
   48.6662  -68.8038   41.9036 H   0  0  0  0  0
   47.8843  -66.1611   39.9498 H   0  0  0  0  0
   46.6823  -67.1092   40.9609 H   0  0  0  0  0
   46.9691  -68.8502   39.6952 H   0  0  0  0  0
   48.7638  -68.7929   39.9925 H   0  0  0  0  0
   47.4602  -69.5002   37.6604 H   0  0  0  0  0
  1  2  2  0  0  0
  1  3  1  0  0  0
  1  4  1  0  0  0
  4  5  1  0  0  0
  5  6  1  0  0  0
  6  7  1  0  0  0
  6  8  2  0  0  0
  3  9  1  0  0  0
  4 10  1  0  0  0
  4 11  1  0  0  0
  5 12  1  0  0  0
  5 13  1  0  0  0
  7 14  1  0  0  0
M  END
$$$$
