5al5_ligand
  -I-interpret- 

 48 51  0  0  0  0  0  0  0  0999 V2000
  -39.1010  -11.7380    4.5740 C   0  0  0  0  0
  -39.9910  -12.0910    3.5700 C   0  0  0  0  0
  -41.2890  -11.5330    3.5520 N   0  0  0  0  0
  -41.6930  -10.6150    4.5300 C   0  0  0  0  0
  -40.7770  -10.2490    5.5190 C   0  0  0  0  0
  -39.4970  -10.8180    5.5510 C   0  0  0  0  0
  -38.5960  -10.4500    6.5750 C   0  0  0  0  0
  -39.2220  -10.5630    7.9060 N   0  3  0  0  0
  -39.3900  -11.9800    8.3180 C   0  0  0  0  0
  -40.0100  -12.0120    9.6760 C   0  0  0  0  0
  -38.0570  -10.1470    8.7140 C   0  0  0  0  0
  -38.3220  -10.1050   10.1570 C   0  0  0  0  0
  -39.0650  -11.3250   10.6420 N   0  0  0  0  0
  -39.0650  -11.6640   11.9670 C   0  0  0  0  0
  -39.9090  -12.6150   12.4290 N   0  0  0  0  0
  -39.9790  -12.9680   13.7210 C   0  0  0  0  0
  -40.9140  -13.9700   14.0040 C   0  0  0  0  0
  -40.5200  -14.6530   15.3670 C   0  0  0  0  0
  -40.3490  -13.5280   16.4090 C   0  0  0  0  0
  -39.1710  -12.6630   16.0920 C   0  0  0  0  0
  -39.1590  -12.3350   14.6900 C   0  0  0  0  0
  -38.2190  -11.3680   14.2240 C   0  0  0  0  0
  -37.3940  -10.7890   14.9480 O   0  0  0  0  0
  -38.1880  -11.0440   12.8900 N   0  0  0  0  0
  -38.1021  -12.1735    4.6015 H   0  0  0  0  0
  -39.6895  -12.7974    2.7966 H   0  0  0  0  0
  -42.6992  -10.1959    4.5195 H   0  0  0  0  0
  -41.0605   -9.5142    6.2726 H   0  0  0  0  0
  -38.2978   -9.4133    6.4187 H   0  0  0  0  0
  -37.7365  -11.1193    6.5379 H   0  0  0  0  0
  -40.1171  -10.0780    7.9695 H   0  0  0  0  0
  -38.4201  -12.4768    8.3414 H   0  0  0  0  0
  -40.0306  -12.4998    7.6056 H   0  0  0  0  0
  -40.1807  -13.0428    9.9867 H   0  0  0  0  0
  -40.9714  -11.4986    9.6621 H   0  0  0  0  0
  -37.7895   -9.1372    8.4030 H   0  0  0  0  0
  -37.2683  -10.8812    8.5495 H   0  0  0  0  0
  -38.9405   -9.2308   10.3606 H   0  0  0  0  0
  -37.3635  -10.0664   10.6746 H   0  0  0  0  0
  -40.5213  -13.0860   11.7630 H   0  0  0  0  0
  -41.7714  -14.2335   13.3847 H   0  0  0  0  0
  -39.5952  -15.2197   15.2589 H   0  0  0  0  0
  -41.2929  -15.3539   15.6824 H   0  0  0  0  0
  -40.1902  -13.9835   17.3865 H   0  0  0  0  0
  -41.2456  -12.9082   16.3987 H   0  0  0  0  0
  -38.2560  -13.2005   16.3409 H   0  0  0  0  0
  -39.2365  -11.7433   16.6734 H   0  0  0  0  0
  -40.1336  -12.3845   15.1755 H   0  0  0  0  0
  1  2  4  0  0  0
  1  6  4  0  0  0
  2  3  4  0  0  0
  3  4  4  0  0  0
  4  5  4  0  0  0
  5  6  4  0  0  0
  6  7  1  0  0  0
  7  8  1  0  0  0
  8  9  1  0  0  0
  8 11  1  0  0  0
  9 10  1  0  0  0
 10 13  1  0  0  0
 11 12  1  0  0  0
 12 13  1  0  0  0
 13 14  1  0  0  0
 14 15  1  0  0  0
 14 24  4  0  0  0
 15 16  1  0  0  0
 16 17  2  0  0  0
 16 21  1  0  0  0
 17 18  1  0  0  0
 18 19  1  0  0  0
 19 20  1  0  0  0
 20 21  1  0  0  0
 21 22  1  0  0  0
 22 23  2  0  0  0
 22 24  1  0  0  0
  1 25  1  0  0  0
  2 26  1  0  0  0
  4 27  1  0  0  0
  5 28  1  0  0  0
  7 29  1  0  0  0
  7 30  1  0  0  0
  8 31  1  0  0  0
  9 32  1  0  0  0
  9 33  1  0  0  0
 10 34  1  0  0  0
 10 35  1  0  0  0
 11 36  1  0  0  0
 11 37  1  0  0  0
 12 38  1  0  0  0
 12 39  1  0  0  0
 15 40  1  0  0  0
 17 41  1  0  0  0
 18 42  1  0  0  0
 18 43  1  0  0  0
 19 44  1  0  0  0
 19 45  1  0  0  0
 20 46  1  0  0  0
 20 47  1  0  0  0
 21 48  1  0  0  0
M  END
$$$$
