5tv3_ligand
  -I-interpret- 

 43 44  0  0  0  0  0  0  0  0999 V2000
    1.7510  -42.8150   86.9350 C   0  0  0  0  0
    2.4630  -43.6660   85.8630 C   0  0  0  0  0
    1.9540  -45.1390   85.9510 C   0  0  0  0  0
    2.1640  -43.1130   84.4890 C   0  0  0  0  0
    4.0010  -43.6230   86.1060 C   0  0  0  0  0
    4.6360  -44.6620   86.8360 C   0  0  0  0  0
    6.0130  -44.6210   87.0530 C   0  0  0  0  0
    4.7650  -42.5490   85.6000 C   0  0  0  0  0
    6.1470  -42.5110   85.8190 C   0  0  0  0  0
    6.7760  -43.5540   86.5510 C   0  0  0  0  0
    8.5860  -43.5160   86.8440 S   0  0  0  0  0
    9.2300  -44.6740   86.1400 O   0  0  0  0  0
    8.8560  -43.6130   88.3310 O   0  0  0  0  0
    9.2110  -42.1150   86.2610 N   0  0  0  0  0
    9.5990  -41.0670   87.1730 C   0  0  0  0  0
    9.6500  -41.1430   88.9220 S   0  0  0  0  0
   10.1910  -39.5450   89.1920 C   0  0  0  0  0
   10.5230  -38.7470   90.7290 S   0  0  0  0  0
   10.0510  -39.6350   91.8790 O   0  0  0  0  0
    9.8010  -37.4470   90.7810 O   0  0  0  0  0
   12.1770  -38.4730   90.8730 N   0  0  0  0  0
   10.3090  -39.0250   87.9270 N   0  0  0  0  0
    9.9980  -39.8220   86.8610 N   0  3  0  0  0
   10.0920  -39.3610   85.5100 C   0  0  0  0  0
    1.9754  -43.2160   87.9234 H   0  0  0  0  0
    2.1016  -41.7849   86.8712 H   0  0  0  0  0
    0.6747  -42.8450   86.7651 H   0  0  0  0  0
    2.4559  -45.7413   85.1937 H   0  0  0  0  0
    2.1742  -45.5397   86.9405 H   0  0  0  0  0
    0.8777  -45.1610   85.7800 H   0  0  0  0  0
    2.5168  -42.0835   84.4284 H   0  0  0  0  0
    2.6717  -43.7172   83.7372 H   0  0  0  0  0
    1.0885  -43.1408   84.3137 H   0  0  0  0  0
    4.0472  -45.4918   87.2269 H   0  0  0  0  0
    6.4986  -45.4195   87.6139 H   0  0  0  0  0
    4.2792  -41.7503   85.0394 H   0  0  0  0  0
    6.7393  -41.6833   85.4290 H   0  0  0  0  0
    9.3249  -41.9856   85.2557 H   0  0  0  0  0
   12.6963  -38.8837   91.6489 H   0  0  0  0  0
   12.6602  -37.8962   90.1844 H   0  0  0  0  0
   10.8008  -39.9832   84.9636 H   0  0  0  0  0
    9.1119  -39.4235   85.0371 H   0  0  0  0  0
   10.4346  -38.3263   85.5035 H   0  0  0  0  0
  1  2  1  0  0  0
  2  3  1  0  0  0
  2  4  1  0  0  0
  2  5  1  0  0  0
  5  6  4  0  0  0
  5  8  4  0  0  0
  6  7  4  0  0  0
  7 10  4  0  0  0
  8  9  4  0  0  0
  9 10  4  0  0  0
 10 11  1  0  0  0
 11 12  2  0  0  0
 11 13  2  0  0  0
 11 14  1  0  0  0
 14 15  1  0  0  0
 15 16  4  0  0  0
 15 23  4  0  0  0
 16 17  4  0  0  0
 17 18  1  0  0  0
 17 22  4  0  0  0
 18 19  2  0  0  0
 18 20  2  0  0  0
 18 21  1  0  0  0
 22 23  4  0  0  0
 23 24  1  0  0  0
  1 25  1  0  0  0
  1 26  1  0  0  0
  1 27  1  0  0  0
  3 28  1  0  0  0
  3 29  1  0  0  0
  3 30  1  0  0  0
  4 31  1  0  0  0
  4 32  1  0  0  0
  4 33  1  0  0  0
  6 34  1  0  0  0
  7 35  1  0  0  0
  8 36  1  0  0  0
  9 37  1  0  0  0
 14 38  1  0  0  0
 21 39  1  0  0  0
 21 40  1  0  0  0
 24 41  1  0  0  0
 24 42  1  0  0  0
 24 43  1  0  0  0
M  END
$$$$
