4mc6_ligand
  -I-interpret- 

 74 76  0  0  0  0  0  0  0  0999 V2000
   16.4920   18.5950    2.0500 C   0  0  0  0  0
   17.5330   18.3370    2.9130 C   0  0  0  0  0
   17.4780   18.6460    4.2530 C   0  0  0  0  0
   16.3480   19.2520    4.7690 C   0  0  0  0  0
   15.3110   19.5010    3.8860 C   0  0  0  0  0
   15.3550   19.1930    2.5410 C   0  0  0  0  0
   18.6330   17.7450    2.4370 F   0  0  0  0  0
   16.3240   19.5540    6.2360 C   0  0  0  0  0
   13.8050   20.2250    4.4860 S   0  0  0  0  0
   14.2750   21.6480    5.2320 N   0  0  0  0  0
   12.9650   20.5140    3.3480 O   0  0  0  0  0
   13.3040   19.3570    5.5350 O   0  0  0  0  0
   14.5460   22.8170    4.3920 C   0  0  0  0  0
   14.8730   21.5700    6.5710 C   0  0  0  0  0
   16.2970   21.0290    6.5780 C   0  0  0  0  0
   16.8300   21.1790    7.9960 C   0  0  0  0  0
   13.5700   23.9350    4.7040 C   0  0  0  0  0
   12.0780   23.6780    4.4250 C   0  0  0  0  0
   14.0110   25.1310    4.0760 O   0  0  0  0  0
   11.2800   24.6640    5.1420 N   0  0  0  0  0
   11.6820   23.6160    2.9490 C   0  0  0  0  0
   10.2220   23.3370    2.8100 C   0  0  0  0  0
    9.7630   22.0470    3.0020 C   0  0  0  0  0
    8.4130   21.7790    2.9200 C   0  0  0  0  0
    7.5330   22.8030    2.6410 C   0  0  0  0  0
    7.9890   24.0830    2.4310 C   0  0  0  0  0
    9.3380   24.3570    2.5030 C   0  0  0  0  0
   10.8710   24.4500    6.4440 C   0  0  0  0  0
   10.1040   25.4830    6.9590 N   0  0  0  0  0
   11.2060   23.4730    7.0930 O   0  0  0  0  0
    9.6650   25.5920    8.3300 C   0  0  0  0  0
    8.6780   24.5010    8.6990 C   0  0  0  0  0
   10.8370   25.5440    9.2860 C   0  0  0  0  0
   18.3340   21.1220    8.1120 C   0  0  0  0  0
   16.4260   22.4820    8.6180 C   0  0  0  0  0
    9.0150   26.9570    8.4690 C   0  0  0  0  0
   16.5676   18.3298    0.9954 H   0  0  0  0  0
   18.3210   18.4141    4.9038 H   0  0  0  0  0
   14.5125   19.4174    1.8868 H   0  0  0  0  0
   17.2425   19.1470    6.6588 H   0  0  0  0  0
   15.4074   19.1191    6.6345 H   0  0  0  0  0
   14.4359   22.5334    3.3453 H   0  0  0  0  0
   15.5593   23.1669    4.5894 H   0  0  0  0  0
   14.2625   20.8857    7.1602 H   0  0  0  0  0
   14.9084   22.5835    6.9706 H   0  0  0  0  0
   16.8906   21.5738    5.8439 H   0  0  0  0  0
   16.3903   20.3238    8.5093 H   0  0  0  0  0
   13.5900   24.0169    5.7907 H   0  0  0  0  0
   11.8743   22.6716    4.7906 H   0  0  0  0  0
   13.3945   25.8402    4.2722 H   0  0  0  0  0
   11.0178   25.5307    4.6725 H   0  0  0  0  0
   12.2428   22.8161    2.4654 H   0  0  0  0  0
   11.9050   24.5754    2.4822 H   0  0  0  0  0
   10.4671   21.2434    3.2178 H   0  0  0  0  0
    8.0442   20.7650    3.0746 H   0  0  0  0  0
    6.4643   22.5956    2.5863 H   0  0  0  0  0
    7.2826   24.8824    2.2072 H   0  0  0  0  0
    9.7050   25.3669    2.3200 H   0  0  0  0  0
    9.8273   26.2263    6.3176 H   0  0  0  0  0
    7.8023   24.5717    8.0539 H   0  0  0  0  0
    9.1494   23.5270    8.5683 H   0  0  0  0  0
    8.3755   24.6231    9.7390 H   0  0  0  0  0
   11.3654   24.5985    9.1638 H   0  0  0  0  0
   11.5141   26.3706    9.0705 H   0  0  0  0  0
   10.4728   25.6285   10.3099 H   0  0  0  0  0
   18.6896   20.1610    7.7403 H   0  0  0  0  0
   18.7734   21.9264    7.5221 H   0  0  0  0  0
   18.6212   21.2376    9.1571 H   0  0  0  0  0
   16.8167   23.3052    8.0199 H   0  0  0  0  0
   15.3384   22.5432    8.6562 H   0  0  0  0  0
   16.8302   22.5416    9.6285 H   0  0  0  0  0
    9.7443   27.7312    8.2308 H   0  0  0  0  0
    8.1710   27.0276    7.7829 H   0  0  0  0  0
    8.6647   27.0886    9.4928 H   0  0  0  0  0
  1  2  4  0  0  0
  1  6  4  0  0  0
  2  3  4  0  0  0
  2  7  1  0  0  0
  3  4  4  0  0  0
  4  5  4  0  0  0
  4  8  1  0  0  0
  5  6  4  0  0  0
  5  9  1  0  0  0
  8 15  1  0  0  0
  9 10  1  0  0  0
  9 11  2  0  0  0
  9 12  2  0  0  0
 10 13  1  0  0  0
 10 14  1  0  0  0
 13 17  1  0  0  0
 14 15  1  0  0  0
 15 16  1  0  0  0
 16 34  1  0  0  0
 16 35  1  0  0  0
 17 18  1  0  0  0
 17 19  1  0  0  0
 18 20  1  0  0  0
 18 21  1  0  0  0
 20 28  1  0  0  0
 21 22  1  0  0  0
 22 23  4  0  0  0
 22 27  4  0  0  0
 23 24  4  0  0  0
 24 25  4  0  0  0
 25 26  4  0  0  0
 26 27  4  0  0  0
 28 29  1  0  0  0
 28 30  2  0  0  0
 29 31  1  0  0  0
 31 32  1  0  0  0
 31 33  1  0  0  0
 31 36  1  0  0  0
  1 37  1  0  0  0
  3 38  1  0  0  0
  6 39  1  0  0  0
  8 40  1  0  0  0
  8 41  1  0  0  0
 13 42  1  0  0  0
 13 43  1  0  0  0
 14 44  1  0  0  0
 14 45  1  0  0  0
 15 46  1  0  0  0
 16 47  1  0  0  0
 17 48  1  0  0  0
 18 49  1  0  0  0
 19 50  1  0  0  0
 20 51  1  0  0  0
 21 52  1  0  0  0
 21 53  1  0  0  0
 23 54  1  0  0  0
 24 55  1  0  0  0
 25 56  1  0  0  0
 26 57  1  0  0  0
 27 58  1  0  0  0
 29 59  1  0  0  0
 32 60  1  0  0  0
 32 61  1  0  0  0
 32 62  1  0  0  0
 33 63  1  0  0  0
 33 64  1  0  0  0
 33 65  1  0  0  0
 34 66  1  0  0  0
 34 67  1  0  0  0
 34 68  1  0  0  0
 35 69  1  0  0  0
 35 70  1  0  0  0
 35 71  1  0  0  0
 36 72  1  0  0  0
 36 73  1  0  0  0
 36 74  1  0  0  0
M  END
$$$$
