4iaw_ligand
  -I-interpret- 

 82 83  0  0  0  0  0  0  0  0999 V2000
    9.8630  -16.3610   -8.4640 N   0  3  0  0  0
   10.7470  -14.7660  -12.8750 N   0  3  0  0  0
   10.7360  -15.4220   -7.7040 C   0  0  0  0  0
    9.0290  -18.4500  -11.3290 C   0  0  0  0  0
   10.4870  -18.2670  -11.7700 C   0  0  0  0  0
   10.2730  -12.5610  -11.9550 C   0  0  0  0  0
   11.3330  -13.4310  -12.6220 C   0  0  0  0  0
    9.8720  -14.6490  -14.0580 C   0  0  0  0  0
   12.2710  -16.5310  -11.9020 C   0  0  0  0  0
   13.3740  -17.5730  -12.2820 C   0  0  0  0  0
   13.7790  -16.4000  -14.5090 C   0  0  0  0  0
   10.5570  -20.7340   -7.9590 C   0  0  0  0  0
   10.9300  -22.0690   -8.1450 C   0  0  0  0  0
   12.2680  -22.4760   -7.9940 C   0  0  0  0  0
   12.8490  -20.1720   -7.4800 C   0  0  0  0  0
   12.2100  -24.7500   -9.0200 C   0  0  0  0  0
   10.4930  -11.3600  -11.8810 O   0  0  0  0  0
    9.1970  -13.0530  -11.5060 O   0  0  0  0  0
    8.8580  -15.7710  -13.9730 C   0  0  0  0  0
    8.5360  -16.2170  -12.8510 O   0  0  0  0  0
    8.4090  -16.1880  -15.0410 O   0  0  0  0  0
   11.7370  -15.8270  -13.1610 C   0  0  0  0  0
   12.9050  -15.2570  -13.9930 C   0  0  0  0  0
   14.4300  -17.0800  -13.2900 C   0  0  0  0  0
   11.1510  -17.1110  -11.0980 N   0  3  0  0  0
    8.4380  -17.5540  -10.6860 O   0  0  0  0  0
    8.4310  -19.4910  -11.6320 O   0  0  0  0  0
   11.6410  -17.4710   -9.7450 C   0  0  0  0  0
   10.5430  -17.6620   -8.6790 C   0  0  0  0  0
   11.4570  -14.4870   -8.6610 C   0  0  0  0  0
   11.0010  -14.4090   -9.8350 O   0  0  0  0  0
   12.4660  -13.8510   -8.2410 O   0  0  0  0  0
    8.6490  -16.4300   -7.7320 C   0  0  0  0  0
    7.7320  -15.4310   -7.9350 C   0  0  0  0  0
    7.9310  -14.5330   -8.7910 O   0  0  0  0  0
    6.6800  -15.4130   -7.2700 O   0  0  0  0  0
   11.1350  -18.3130   -7.4060 C   0  0  0  0  0
   11.5160  -19.7690   -7.6260 C   0  0  0  0  0
   13.2100  -21.5070   -7.6600 C   0  0  0  0  0
   12.7020  -23.8230   -8.1690 N   0  0  0  0  0
   10.9260  -24.4800  -10.0680 S   0  0  0  0  0
   12.7120  -25.9770   -9.1000 N   0  0  0  0  0
    9.6600  -16.0431   -9.4117 H   0  0  0  0  0
   10.2580  -15.0393  -12.0226 H   0  0  0  0  0
   11.4729  -15.9953   -7.1414 H   0  0  0  0  0
   10.1205  -14.8326   -7.0244 H   0  0  0  0  0
   10.4909  -18.0776  -12.8434 H   0  0  0  0  0
   11.0342  -19.1704  -11.5005 H   0  0  0  0  0
   11.6512  -12.9784  -13.5612 H   0  0  0  0  0
   12.2042  -13.5221  -11.9732 H   0  0  0  0  0
   10.4539  -14.7244  -14.9766 H   0  0  0  0  0
    9.3736  -13.6797  -14.0742 H   0  0  0  0  0
   12.7525  -15.7964  -11.2565 H   0  0  0  0  0
   12.8610  -18.4111  -12.7537 H   0  0  0  0  0
   13.9086  -17.8097  -11.3621 H   0  0  0  0  0
   14.5450  -16.0168  -15.1831 H   0  0  0  0  0
   13.1755  -17.1171  -15.0655 H   0  0  0  0  0
    9.5130  -20.4426   -8.0740 H   0  0  0  0  0
   10.1720  -22.8057   -8.4112 H   0  0  0  0  0
   13.6110  -19.4360   -7.2235 H   0  0  0  0  0
    9.1965  -14.0023  -11.6488 H   0  0  0  0  0
    9.0130  -15.7387  -12.1689 H   0  0  0  0  0
   11.2099  -16.5897  -13.7342 H   0  0  0  0  0
   12.5057  -14.6982  -14.8394 H   0  0  0  0  0
   13.5061  -14.5982  -13.3664 H   0  0  0  0  0
   14.9993  -17.9410  -13.6401 H   0  0  0  0  0
   15.0684  -16.3514  -12.7903 H   0  0  0  0  0
   10.4294  -16.3952  -11.0121 H   0  0  0  0  0
    9.0390  -16.8208  -10.5348 H   0  0  0  0  0
   12.2648  -16.6434   -9.4073 H   0  0  0  0  0
   12.1533  -18.4282   -9.8419 H   0  0  0  0  0
    9.7761  -18.3613   -9.0121 H   0  0  0  0  0
   12.6210  -14.0714   -7.3196 H   0  0  0  0  0
    8.9340  -16.3589   -6.6823 H   0  0  0  0  0
    8.1606  -17.3483   -8.0581 H   0  0  0  0  0
    8.7780  -14.6814   -9.2179 H   0  0  0  0  0
   10.3769  -18.2763   -6.6236 H   0  0  0  0  0
   12.0370  -17.7648   -7.1341 H   0  0  0  0  0
   14.2531  -21.7982   -7.5364 H   0  0  0  0  0
   13.4786  -24.1233   -7.5799 H   0  0  0  0  0
   12.3135  -26.6493   -9.7554 H   0  0  0  0  0
   13.4960  -26.2470   -8.5060 H   0  0  0  0  0
  1  3  1  0  0  0
 29  1  1  0  0  0
  1 33  1  0  0  0
  2  7  1  0  0  0
  2  8  1  0  0  0
 22  2  1  0  0  0
  3 30  1  0  0  0
  5  4  1  0  0  0
  4 26  1  0  0  0
  4 27  2  0  0  0
 25  5  1  0  0  0
  7  6  1  0  0  0
  6 17  2  0  0  0
  6 18  1  0  0  0
  8 19  1  0  0  0
  9 10  1  0  0  0
  9 22  1  0  0  0
 25  9  1  0  0  0
 10 24  1  0  0  0
 23 11  1  0  0  0
 24 11  1  0  0  0
 12 13  4  0  0  0
 38 12  4  0  0  0
 13 14  4  0  0  0
 39 14  4  0  0  0
 14 40  1  0  0  0
 38 15  4  0  0  0
 15 39  4  0  0  0
 40 16  1  0  0  0
 16 41  2  0  0  0
 16 42  1  0  0  0
 19 20  1  0  0  0
 19 21  2  0  0  0
 22 23  1  0  0  0
 28 25  1  0  0  0
 29 28  1  0  0  0
 37 29  1  0  0  0
 30 31  2  0  0  0
 30 32  1  0  0  0
 33 34  1  0  0  0
 34 35  1  0  0  0
 34 36  2  0  0  0
 37 38  1  0  0  0
  1 43  1  0  0  0
  2 44  1  0  0  0
  3 45  1  0  0  0
  3 46  1  0  0  0
  5 47  1  0  0  0
  5 48  1  0  0  0
  7 49  1  0  0  0
  7 50  1  0  0  0
  8 51  1  0  0  0
  8 52  1  0  0  0
  9 53  1  0  0  0
 10 54  1  0  0  0
 10 55  1  0  0  0
 11 56  1  0  0  0
 11 57  1  0  0  0
 12 58  1  0  0  0
 13 59  1  0  0  0
 15 60  1  0  0  0
 18 61  1  0  0  0
 20 62  1  0  0  0
 22 63  1  0  0  0
 23 64  1  0  0  0
 23 65  1  0  0  0
 24 66  1  0  0  0
 24 67  1  0  0  0
 25 68  1  0  0  0
 26 69  1  0  0  0
 28 70  1  0  0  0
 28 71  1  0  0  0
 29 72  1  0  0  0
 32 73  1  0  0  0
 33 74  1  0  0  0
 33 75  1  0  0  0
 35 76  1  0  0  0
 37 77  1  0  0  0
 37 78  1  0  0  0
 39 79  1  0  0  0
 40 80  1  0  0  0
 42 81  1  0  0  0
 42 82  1  0  0  0
M  END
$$$$
