3umq_ligand
  -I-interpret- 

 14 13  0  0  0  0  0  0  0  0999 V2000
  -34.8580  -25.3280  -44.7580 C   0  0  0  0  0
  -35.6440  -24.9180  -43.5360 C   0  0  0  0  0
  -35.1840  -23.5340  -43.0680 C   0  0  0  0  0
  -36.2480  -22.8540  -42.2370 C   0  0  0  0  0
  -36.5670  -21.6910  -42.4950 O   0  0  0  0  0
  -36.7810  -23.4660  -41.3100 O   0  0  0  0  0
  -35.0230  -24.6027  -45.5548 H   0  0  0  0  0
  -33.7969  -25.3632  -44.5110 H   0  0  0  0  0
  -35.1885  -26.3131  -45.0874 H   0  0  0  0  0
  -35.4780  -25.6429  -42.7391 H   0  0  0  0  0
  -36.7049  -24.8819  -43.7836 H   0  0  0  0  0
  -34.9837  -22.9196  -43.9458 H   0  0  0  0  0
  -34.2897  -23.6538  -42.4564 H   0  0  0  0  0
  -36.0525  -21.3776  -43.2424 H   0  0  0  0  0
  1  2  1  0  0  0
  2  3  1  0  0  0
  3  4  1  0  0  0
  4  5  1  0  0  0
  4  6  2  0  0  0
  1  7  1  0  0  0
  1  8  1  0  0  0
  1  9  1  0  0  0
  2 10  1  0  0  0
  2 11  1  0  0  0
  3 12  1  0  0  0
  3 13  1  0  0  0
  5 14  1  0  0  0
M  END
$$$$
