4o3f_ligand
  -I-interpret- 

 53 56  0  0  0  0  0  0  0  0999 V2000
  -21.7650   -1.4380  -24.6600 C   0  0  0  0  0
  -22.5960   -0.6010  -25.5600 C   0  0  0  0  0
  -21.7630   -0.6800  -26.7710 C   0  0  0  0  0
  -21.6180   -2.0740  -26.8470 O   0  0  0  0  0
  -21.1410   -2.4090  -25.5980 C   0  0  0  0  0
  -19.6590   -2.4220  -25.6520 C   0  0  0  0  0
  -19.0320   -1.5580  -25.1140 O   0  0  0  0  0
  -18.9850   -3.5020  -26.3660 N   0  0  0  0  0
  -17.5960   -3.5710  -26.4180 C   0  0  0  0  0
  -17.2110   -4.9920  -26.0930 C   0  0  0  0  0
  -19.7200   -4.5550  -26.9790 C   0  0  0  0  0
  -18.8390   -5.4570  -27.8070 C   0  0  0  0  0
  -17.6990   -5.8650  -27.0790 N   0  0  0  0  0
  -17.1010   -7.1490  -27.2130 C   0  0  0  0  0
  -16.0960   -7.2810  -26.5060 N   0  0  0  0  0
  -17.5630   -8.0200  -27.9890 N   0  0  0  0  0
  -17.0170   -9.2190  -28.1000 C   0  0  0  0  0
  -17.5080  -10.1830  -28.9320 C   0  0  0  0  0
  -16.8520  -11.4050  -29.0070 C   0  0  0  0  0
  -17.2040  -12.4960  -29.7550 O   0  0  0  0  0
  -18.3120  -12.4230  -30.5330 C   0  0  0  0  0
  -15.7380  -11.6350  -28.2550 C   0  0  0  0  0
  -15.2410  -12.8610  -28.4340 O   0  0  0  0  0
  -14.0080  -13.1100  -27.9690 C   0  0  0  0  0
  -15.2370  -10.6930  -27.4210 C   0  0  0  0  0
  -15.8780   -9.4780  -27.3400 C   0  0  0  0  0
  -15.4460   -8.3930  -26.5170 C   0  0  0  0  0
  -14.3210   -8.5590  -25.7110 N   0  0  0  0  0
  -22.3448   -1.9203  -23.8731 H   0  0  0  0  0
  -21.0320   -0.8590  -24.0983 H   0  0  0  0  0
  -22.7940    0.4087  -25.2002 H   0  0  0  0  0
  -23.6254   -0.9372  -25.6843 H   0  0  0  0  0
  -20.8277   -0.1224  -26.7229 H   0  0  0  0  0
  -22.1941   -0.2136  -27.6568 H   0  0  0  0  0
  -21.4039   -3.4069  -25.2471 H   0  0  0  0  0
  -17.1491   -2.8783  -25.7048 H   0  0  0  0  0
  -17.2333   -3.2904  -27.4068 H   0  0  0  0  0
  -17.6407   -5.2664  -25.1296 H   0  0  0  0  0
  -16.1242   -5.0674  -26.0562 H   0  0  0  0  0
  -20.4650   -4.1097  -27.6384 H   0  0  0  0  0
  -20.1747   -5.1551  -26.1908 H   0  0  0  0  0
  -18.5105   -4.9082  -28.6896 H   0  0  0  0  0
  -19.4104   -6.3428  -28.0844 H   0  0  0  0  0
  -18.4011   -9.9968  -29.5284 H   0  0  0  0  0
  -19.1818  -12.2247  -29.9067 H   0  0  0  0  0
  -18.1932  -11.6174  -31.2576 H   0  0  0  0  0
  -18.4487  -13.3684  -31.0580 H   0  0  0  0  0
  -13.2968  -12.4399  -28.4519 H   0  0  0  0  0
  -13.9879  -12.9479  -26.8913 H   0  0  0  0  0
  -13.7407  -14.1439  -28.1872 H   0  0  0  0  0
  -14.3453  -10.8929  -26.8268 H   0  0  0  0  0
  -14.0085   -7.7977  -25.1084 H   0  0  0  0  0
  -13.8102   -9.4418  -25.7238 H   0  0  0  0  0
  1  2  1  0  0  0
  1  5  1  0  0  0
  2  3  1  0  0  0
  3  4  1  0  0  0
  4  5  1  0  0  0
  5  6  1  0  0  0
  6  7  2  0  0  0
  6  8  1  0  0  0
  8  9  1  0  0  0
  8 11  1  0  0  0
  9 10  1  0  0  0
 10 13  1  0  0  0
 11 12  1  0  0  0
 12 13  1  0  0  0
 13 14  1  0  0  0
 14 15  4  0  0  0
 14 16  4  0  0  0
 15 27  4  0  0  0
 16 17  4  0  0  0
 17 18  4  0  0  0
 17 26  4  0  0  0
 18 19  4  0  0  0
 19 20  1  0  0  0
 19 22  4  0  0  0
 20 21  1  0  0  0
 22 23  1  0  0  0
 22 25  4  0  0  0
 23 24  1  0  0  0
 25 26  4  0  0  0
 26 27  4  0  0  0
 27 28  1  0  0  0
  1 29  1  0  0  0
  1 30  1  0  0  0
  2 31  1  0  0  0
  2 32  1  0  0  0
  3 33  1  0  0  0
  3 34  1  0  0  0
  5 35  1  0  0  0
  9 36  1  0  0  0
  9 37  1  0  0  0
 10 38  1  0  0  0
 10 39  1  0  0  0
 11 40  1  0  0  0
 11 41  1  0  0  0
 12 42  1  0  0  0
 12 43  1  0  0  0
 18 44  1  0  0  0
 21 45  1  0  0  0
 21 46  1  0  0  0
 21 47  1  0  0  0
 24 48  1  0  0  0
 24 49  1  0  0  0
 24 50  1  0  0  0
 25 51  1  0  0  0
 28 52  1  0  0  0
 28 53  1  0  0  0
M  END
$$$$
