### 
### Created by X-TOOL on Mon Sep 10 21:12:52 2018
### 

@<TRIPOS>MOLECULE
1r5n_ligand
   40    42     1     0     0
SMALL
GAST_HUCK


@<TRIPOS>ATOM
      1 PB        100.9650   13.7230   62.3260 P.3       1 GDP         0.2069
      2 O1B       100.4700   13.2410   63.6510 O.co2     1 GDP        -0.5891
      3 O2B       100.2410   14.9890   61.8530 O.co2     1 GDP        -0.5891
      4 O3B       102.4900   13.9540   62.2960 O.co2     1 GDP        -0.5891
      5 O3A       100.6670   12.6160   61.2060 O.3       1 GDP        -0.1548
      6 PA        100.9480   12.9670   59.6610 P.3       1 GDP         0.3276
      7 O1A       100.0630   12.2850   58.6940 O.co2     1 GDP        -0.5556
      8 O2A       101.1340   14.4630   59.3680 O.co2     1 GDP        -0.5556
      9 O5        102.3980   12.3320   59.4670 O.3       1 GDP        -0.2436
     10 C5        102.5670   10.9550   59.6420 C.3       1 GDP         0.1132
     11 C4        103.2690   10.2810   58.4730 C.3       1 GDP         0.1189
     12 O4        102.7190    8.9890   58.3260 O.3       1 GDP        -0.3363
     13 C3        103.1000   10.9710   57.1340 C.3       1 GDP         0.1150
     14 O3        104.2920   10.8260   56.4010 O.3       1 GDP        -0.3864
     15 C2        101.9780   10.2240   56.4560 C.3       1 GDP         0.1387
     16 O2        102.1260   10.1270   55.0590 O.3       1 GDP        -0.3836
     17 C1        102.0540    8.8500   57.0830 C.3       1 GDP         0.1992
     18 N9        100.6930    8.2970   57.2020 N.pl3     1 GDP        -0.2101
     19 C8         99.6190    8.8180   57.8750 C.2       1 GDP         0.0957
     20 N7         98.5660    7.9840   57.7110 N.2       1 GDP        -0.3235
     21 C5         98.9570    6.9470   56.9390 C.2       1 GDP         0.0926
     22 C6         98.2980    5.8170   56.4600 C.2       1 GDP         0.2135
     23 O6         97.1330    5.5860   56.7710 O.2       1 GDP        -0.4091
     24 N1         98.9900    4.9160   55.6710 N.am      1 GDP        -0.1839
     25 C2        100.3180    5.1270   55.3590 C.2       1 GDP         0.2340
     26 N2        101.0350    4.1170   54.8720 N.pl3     1 GDP        -0.2807
     27 N3        100.9620    6.2520   55.8370 N.2       1 GDP        -0.2765
     28 C4        100.2930    7.1380   56.6130 C.2       1 GDP         0.1159
     29 H1        101.5757   10.4947   59.7662 H         1 GDP         0.0648
     30 H2        103.1647   10.7894   60.5505 H         1 GDP         0.0648
     31 H3        104.3426   10.2140   58.7030 H         1 GDP         0.0651
     32 H4        102.8518   12.0356   57.2569 H         1 GDP         0.0648
     33 H5        104.1985   11.2549   55.5585 H         1 GDP         0.2100
     34 H6        101.0137   10.7044   56.6781 H         1 GDP         0.0676
     35 H7        102.9336    9.6688   54.8583 H         1 GDP         0.2101
     36 H8        102.6448    8.1821   56.4389 H         1 GDP         0.0998
     37 H9         99.6138    9.7458   58.4451 H         1 GDP         0.1179
     38 H10        98.5232    4.1030   55.3229 H         1 GDP         0.2515
     39 H11       102.0272    4.2575   54.6340 H         1 GDP         0.1897
     40 H12       100.5976    3.1949   54.7331 H         1 GDP         0.1897
@<TRIPOS>BOND
     1    1    2 ar 
     2    1    3 ar 
     3    1    4 ar 
     4    1    5 1  
     5    5    6 1  
     6    6    7 ar 
     7    6    8 ar 
     8    6    9 1  
     9    9   10 1  
    10   10   11 1  
    11   11   12 1  
    12   11   13 1  
    13   12   17 1  
    14   13   14 1  
    15   13   15 1  
    16   15   16 1  
    17   15   17 1  
    18   17   18 1  
    19   18   19 1  
    20   18   28 1  
    21   19   20 2  
    22   20   21 1  
    23   21   22 1  
    24   21   28 2  
    25   22   23 2  
    26   22   24 am 
    27   24   25 1  
    28   25   26 1  
    29   25   27 2  
    30   27   28 1  
    31   10   29 1  
    32   10   30 1  
    33   11   31 1  
    34   13   32 1  
    35   14   33 1  
    36   15   34 1  
    37   16   35 1  
    38   17   36 1  
    39   19   37 1  
    40   24   38 1  
    41   26   39 1  
    42   26   40 1  
@<TRIPOS>SUBSTRUCTURE
     1 GDP         1

