1r5n_ligand
  -I-interpret- 

 43 45  0  0  0  0  0  0  0  0999 V2000
  100.9650   13.7230   62.3260 P   0  0  0  0  0
  100.4700   13.2410   63.6510 O   0  0  0  0  0
  100.2410   14.9890   61.8530 O   0  0  0  0  0
  102.4900   13.9540   62.2960 O   0  0  0  0  0
  100.6670   12.6160   61.2060 O   0  0  0  0  0
  100.9480   12.9670   59.6610 P   0  0  0  0  0
  100.0630   12.2850   58.6940 O   0  0  0  0  0
  101.1340   14.4630   59.3680 O   0  0  0  0  0
  102.3980   12.3320   59.4670 O   0  0  0  0  0
  102.5670   10.9550   59.6420 C   0  0  0  0  0
  103.2690   10.2810   58.4730 C   0  0  0  0  0
  102.7190    8.9890   58.3260 O   0  0  0  0  0
  103.1000   10.9710   57.1340 C   0  0  0  0  0
  104.2920   10.8260   56.4010 O   0  0  0  0  0
  101.9780   10.2240   56.4560 C   0  0  0  0  0
  102.1260   10.1270   55.0590 O   0  0  0  0  0
  102.0540    8.8500   57.0830 C   0  0  0  0  0
  100.6930    8.2970   57.2020 N   0  0  0  0  0
   99.6190    8.8180   57.8750 C   0  0  0  0  0
   98.5660    7.9840   57.7110 N   0  0  0  0  0
   98.9570    6.9470   56.9390 C   0  0  0  0  0
   98.2980    5.8170   56.4600 C   0  0  0  0  0
   97.1330    5.5860   56.7710 O   0  0  0  0  0
   98.9900    4.9160   55.6710 N   0  0  0  0  0
  100.3180    5.1270   55.3590 C   0  0  0  0  0
  101.0350    4.1170   54.8720 N   0  0  0  0  0
  100.9620    6.2520   55.8370 N   0  0  0  0  0
  100.2930    7.1380   56.6130 C   0  0  0  0  0
  100.5927   15.2581   61.0013 H   0  0  0  0  0
  102.7489   14.2614   61.4242 H   0  0  0  0  0
  101.7161   14.8472   60.0277 H   0  0  0  0  0
  101.5758   10.5104   59.7315 H   0  0  0  0  0
  103.1869   10.8092   60.5267 H   0  0  0  0  0
  104.3317   10.2995   58.7147 H   0  0  0  0  0
  102.8826   12.0355   57.2219 H   0  0  0  0  0
  104.1975   11.2594   55.5496 H   0  0  0  0  0
  101.0250   10.7354   56.5918 H   0  0  0  0  0
  101.3825    9.6429   54.6924 H   0  0  0  0  0
  102.6183    8.1432   56.4746 H   0  0  0  0  0
   99.6138    9.7467   58.4456 H   0  0  0  0  0
   98.5139    4.0868   55.3159 H   0  0  0  0  0
  102.0531    4.1767   54.8534 H   0  0  0  0  0
  100.5664    3.2833   54.5174 H   0  0  0  0  0
  1  2  2  0  0  0
  1  3  1  0  0  0
  1  4  1  0  0  0
  1  5  1  0  0  0
  5  6  1  0  0  0
  6  7  2  0  0  0
  6  8  1  0  0  0
  6  9  1  0  0  0
  9 10  1  0  0  0
 10 11  1  0  0  0
 11 12  1  0  0  0
 11 13  1  0  0  0
 12 17  1  0  0  0
 13 14  1  0  0  0
 13 15  1  0  0  0
 15 16  1  0  0  0
 15 17  1  0  0  0
 17 18  1  0  0  0
 18 19  4  0  0  0
 18 28  4  0  0  0
 19 20  4  0  0  0
 20 21  4  0  0  0
 21 22  1  0  0  0
 21 28  4  0  0  0
 22 23  2  0  0  0
 22 24  1  0  0  0
 24 25  1  0  0  0
 25 26  1  0  0  0
 25 27  2  0  0  0
 27 28  1  0  0  0
  3 29  1  0  0  0
  4 30  1  0  0  0
  8 31  1  0  0  0
 10 32  1  0  0  0
 10 33  1  0  0  0
 11 34  1  0  0  0
 13 35  1  0  0  0
 14 36  1  0  0  0
 15 37  1  0  0  0
 16 38  1  0  0  0
 17 39  1  0  0  0
 19 40  1  0  0  0
 24 41  1  0  0  0
 26 42  1  0  0  0
 26 43  1  0  0  0
M  END
$$$$
