6qe0_ligand
  -I-interpret- 

 85 90  0  0  0  0  0  0  0  0999 V2000
  -21.8730   -8.7950    8.0410 O   0  0  0  0  0
  -17.2080   -2.8310    1.5400 O   0  0  0  0  0
  -12.1670   -4.8800    5.3510 C   0  0  0  0  0
  -13.3710   -5.8060    5.2880 C   0  0  0  0  0
  -13.6510   -6.3750    3.8340 C   0  0  0  0  0
  -14.9270   -8.2290    2.6930 C   0  0  0  0  0
  -16.3480   -8.8330    2.4150 C   0  0  0  0  0
  -18.2070  -10.3760    3.4010 C   0  0  0  0  0
  -19.0790   -9.5480    4.2110 C   0  0  0  0  0
  -20.0320   -8.0500    5.4740 C   0  0  0  0  0
  -22.4220   -8.9460    5.5910 C   0  0  0  0  0
  -24.0510   -7.1960    5.8600 C   0  0  0  0  0
  -23.3680   -5.8530    5.4650 C   0  0  0  0  0
  -23.6950   -7.5390    7.1140 C   0  0  0  0  0
  -22.2550   -8.0610    6.9050 C   0  0  0  0  0
  -20.4120   -9.9000    4.3840 C   0  0  0  0  0
  -20.0740  -11.7550    3.0520 C   0  0  0  0  0
  -16.1800   -6.4510    4.0650 C   0  0  0  0  0
  -16.3840   -5.2640    3.0340 C   0  0  0  0  0
  -18.2370   -5.0530    1.5180 C   0  0  0  0  0
  -17.9940   -3.7370    2.3350 C   0  0  0  0  0
  -17.2150   -4.2910    3.5330 C   0  0  0  0  0
  -20.3650   -5.4320    2.8290 C   0  0  0  0  0
  -21.0380   -7.3170    1.9860 C   0  0  0  0  0
  -21.6140   -8.5170    1.5660 C   0  0  0  0  0
  -19.8640   -8.8410    0.0550 C   0  0  0  0  0
  -19.8270   -6.9520    1.3710 C   0  0  0  0  0
  -12.4870   -3.4730    4.8380 C   0  0  0  0  0
  -11.7000   -4.8080    6.7490 N   0  3  0  0  0
  -14.9000   -7.2480    3.8690 N   0  3  0  0  0
  -16.7650  -10.0350    3.1930 N   0  0  0  0  0
  -18.8890   -8.4020    4.9010 N   0  0  0  0  0
  -20.9640   -8.9590    5.1920 N   0  0  0  0  0
  -20.9050  -11.0110    3.7890 N   0  0  0  0  0
  -18.7680  -11.4430    2.8740 N   0  0  0  0  0
  -19.4450   -5.8010    1.9120 N   0  0  0  0  0
  -21.3290   -6.3500    2.8860 N   0  0  0  0  0
  -22.8770   -9.0040    2.1220 N   0  0  0  0  0
  -21.0020   -9.2350    0.6140 N   0  0  0  0  0
  -19.2690   -7.7210    0.4200 N   0  0  0  0  0
  -23.4340   -8.3850    4.9440 O   0  0  0  0  0
  -23.7890   -5.5330    4.2000 O   0  0  0  0  0
  -24.5540   -8.5950    7.5860 O   0  0  0  0  0
  -17.1540   -5.8100    1.7160 O   0  0  0  0  0
  -16.5440   -3.2670    4.1780 O   0  0  0  0  0
  -12.3880   -3.2060    3.5630 O   0  0  0  0  0
  -12.8600   -2.5420    5.6700 O   0  0  0  0  0
  -21.7915   -8.2018    8.7914 H   0  0  0  0  0
  -17.0555   -2.0226    2.0348 H   0  0  0  0  0
  -11.3904   -5.2867    4.7032 H   0  0  0  0  0
  -14.2455   -5.2296    5.5898 H   0  0  0  0  0
  -13.1673   -6.6553    5.9401 H   0  0  0  0  0
  -12.7989   -6.9689    3.5034 H   0  0  0  0  0
  -13.8023   -5.5478    3.1405 H   0  0  0  0  0
  -14.6240   -7.6802    1.8013 H   0  0  0  0  0
  -14.2620   -9.0563    2.9409 H   0  0  0  0  0
  -16.3250   -9.1569    1.3745 H   0  0  0  0  0
  -17.0535   -8.0502    2.6937 H   0  0  0  0  0
  -20.1848   -7.1572    6.0804 H   0  0  0  0  0
  -22.7490   -9.9829    5.5131 H   0  0  0  0  0
  -25.1281   -7.0717    5.7483 H   0  0  0  0  0
  -22.2831   -5.9549    5.4913 H   0  0  0  0  0
  -23.6403   -5.0657    6.1679 H   0  0  0  0  0
  -23.7654   -6.7322    7.8435 H   0  0  0  0  0
  -21.4767   -7.3075    6.7842 H   0  0  0  0  0
  -20.4649  -12.6527    2.5730 H   0  0  0  0  0
  -17.0101   -7.1427    3.9216 H   0  0  0  0  0
  -16.1272   -6.0041    5.0578 H   0  0  0  0  0
  -15.3896   -4.8699    2.8243 H   0  0  0  0  0
  -18.4003   -4.7912    0.4726 H   0  0  0  0  0
  -18.8815   -3.1735    2.6230 H   0  0  0  0  0
  -17.8642   -4.7297    4.2907 H   0  0  0  0  0
  -20.3251   -4.5234    3.4298 H   0  0  0  0  0
  -19.4112   -9.4562   -0.7226 H   0  0  0  0  0
  -11.4887   -5.7478    7.0845 H   0  0  0  0  0
  -10.8596   -4.2319    6.7962 H   0  0  0  0  0
  -12.4300   -4.3947    7.3292 H   0  0  0  0  0
  -14.8493   -7.8264    4.7076 H   0  0  0  0  0
  -16.0486  -10.6404    3.5938 H   0  0  0  0  0
  -23.3619   -8.4622    2.8374 H   0  0  0  0  0
  -23.2725   -9.8852    1.7941 H   0  0  0  0  0
  -23.3830   -4.7066    3.9283 H   0  0  0  0  0
  -24.2992   -8.8381    8.4791 H   0  0  0  0  0
  -17.1790   -2.6237    4.5013 H   0  0  0  0  0
  -12.1043   -3.9937    3.0933 H   0  0  0  0  0
 15  1  1  0  0  0
 21  2  1  0  0  0
  4  3  1  0  0  0
  3 28  1  0  0  0
  3 29  1  0  0  0
  5  4  1  0  0  0
 30  5  1  0  0  0
  6  7  1  0  0  0
 30  6  1  0  0  0
  7 31  1  0  0  0
  8  9  4  0  0  0
 31  8  1  0  0  0
  8 35  4  0  0  0
  9 16  4  0  0  0
  9 32  4  0  0  0
 32 10  4  0  0  0
 10 33  4  0  0  0
 11 15  1  0  0  0
 33 11  1  0  0  0
 11 41  1  0  0  0
 12 13  1  0  0  0
 12 14  1  0  0  0
 41 12  1  0  0  0
 13 42  1  0  0  0
 15 14  1  0  0  0
 14 43  1  0  0  0
 16 33  4  0  0  0
 16 34  4  0  0  0
 17 34  4  0  0  0
 35 17  4  0  0  0
 19 18  1  0  0  0
 18 30  1  0  0  0
 19 22  1  0  0  0
 44 19  1  0  0  0
 20 21  1  0  0  0
 36 20  1  0  0  0
 20 44  1  0  0  0
 21 22  1  0  0  0
 22 45  1  0  0  0
 23 36  4  0  0  0
 37 23  4  0  0  0
 24 25  4  0  0  0
 24 27  4  0  0  0
 24 37  4  0  0  0
 25 38  1  0  0  0
 25 39  4  0  0  0
 39 26  4  0  0  0
 26 40  4  0  0  0
 27 36  4  0  0  0
 27 40  4  0  0  0
 28 46  1  0  0  0
 28 47  2  0  0  0
  1 48  1  0  0  0
  2 49  1  0  0  0
  3 50  1  0  0  0
  4 51  1  0  0  0
  4 52  1  0  0  0
  5 53  1  0  0  0
  5 54  1  0  0  0
  6 55  1  0  0  0
  6 56  1  0  0  0
  7 57  1  0  0  0
  7 58  1  0  0  0
 10 59  1  0  0  0
 11 60  1  0  0  0
 12 61  1  0  0  0
 13 62  1  0  0  0
 13 63  1  0  0  0
 14 64  1  0  0  0
 15 65  1  0  0  0
 17 66  1  0  0  0
 18 67  1  0  0  0
 18 68  1  0  0  0
 19 69  1  0  0  0
 20 70  1  0  0  0
 21 71  1  0  0  0
 22 72  1  0  0  0
 23 73  1  0  0  0
 26 74  1  0  0  0
 29 75  1  0  0  0
 29 76  1  0  0  0
 29 77  1  0  0  0
 30 78  1  0  0  0
 31 79  1  0  0  0
 38 80  1  0  0  0
 38 81  1  0  0  0
 42 82  1  0  0  0
 43 83  1  0  0  0
 45 84  1  0  0  0
 46 85  1  0  0  0
M  END
$$$$
