2wsx_ligand
  -I-interpret- 

 26 25  0  0  0  0  0  0  0  0999 V2000
    3.1210    4.9740   -5.9610 N   0  3  0  0  0
    3.7050    4.5800   -7.2450 C   0  0  0  0  0
    3.7490    3.9990   -0.3710 O   0  0  0  0  0
    3.6120    4.0010   -1.6080 C   0  0  0  0  0
    2.8270    3.2350   -2.1990 O   0  0  0  0  0
    4.4360    4.9700   -2.4140 C   0  0  0  0  0
    4.0960    4.7540   -4.8880 C   0  0  0  0  0
    1.9170    4.1700   -5.7120 C   0  0  0  0  0
    2.7730    6.3960   -6.0080 C   0  0  0  0  0
    3.6350    5.4490   -3.6160 C   0  0  0  0  0
    4.5958    5.1783   -7.4364 H   0  0  0  0  0
    3.9750    3.5245   -7.2113 H   0  0  0  0  0
    2.9773    4.7450   -8.0396 H   0  0  0  0  0
    2.8736    3.3977   -3.1440 H   0  0  0  0  0
    5.3428    4.4732   -2.7590 H   0  0  0  0  0
    4.6994    5.8251   -1.7915 H   0  0  0  0  0
    5.0604    5.1622   -5.1904 H   0  0  0  0  0
    4.1867    3.6843   -4.6995 H   0  0  0  0  0
    2.1867    3.1144   -5.6802 H   0  0  0  0  0
    1.4769    4.4627   -4.7587 H   0  0  0  0  0
    1.1971    4.3384   -6.5130 H   0  0  0  0  0
    2.3416    6.6949   -5.0527 H   0  0  0  0  0
    3.6712    6.9823   -6.2019 H   0  0  0  0  0
    2.0482    6.5652   -6.8043 H   0  0  0  0  0
    3.7830    6.5229   -3.7302 H   0  0  0  0  0
    2.5830    5.2163   -3.4512 H   0  0  0  0  0
  1  2  1  0  0  0
  7  1  1  0  0  0
  1  8  1  0  0  0
  1  9  1  0  0  0
  4  3  2  0  0  0
  4  5  1  0  0  0
  6  4  1  0  0  0
 10  6  1  0  0  0
  7 10  1  0  0  0
  2 11  1  0  0  0
  2 12  1  0  0  0
  2 13  1  0  0  0
  5 14  1  0  0  0
  6 15  1  0  0  0
  6 16  1  0  0  0
  7 17  1  0  0  0
  7 18  1  0  0  0
  8 19  1  0  0  0
  8 20  1  0  0  0
  8 21  1  0  0  0
  9 22  1  0  0  0
  9 23  1  0  0  0
  9 24  1  0  0  0
 10 25  1  0  0  0
 10 26  1  0  0  0
M  END
$$$$
