4bb4_ligand
  -I-interpret- 

 51 54  0  0  0  0  0  0  0  0999 V2000
   14.1650   14.6920   10.0410 O   0  0  0  0  0
   13.3530   14.0190   10.6730 C   0  0  0  0  0
   12.2400   14.5460   11.1980 N   0  0  0  0  0
   11.8750   15.9530   11.0590 C   0  0  0  0  0
   12.3970   16.8110   12.1760 C   0  0  0  0  0
   11.8160   16.3560   13.3820 O   0  0  0  0  0
   12.2640   17.0930   14.5080 C   0  0  0  0  0
   13.5850   12.5560   10.9070 C   0  0  0  0  0
   14.8840   12.0490   10.9030 C   0  0  0  0  0
   15.1150   10.6990   11.1060 C   0  0  0  0  0
   14.0470    9.8120   11.1800 C   0  0  0  0  0
   12.7570   10.3220   11.2900 C   0  0  0  0  0
   12.5240   11.6720   11.0920 C   0  0  0  0  0
   14.3250    8.4760   11.5280 N   0  0  0  0  0
   13.5590    7.3910   11.8030 C   0  0  0  0  0
   12.1820    7.4260   11.4960 N   0  0  0  0  0
   11.4950    6.2700   11.7650 C   0  0  0  0  0
   12.1380    5.1120   12.2700 C   0  0  0  0  0
   13.5440    5.2200   12.4340 C   0  0  0  0  0
   14.2370    6.3240   12.2610 N   0  0  0  0  0
   10.1060    6.2200   11.4910 C   0  0  0  0  0
    9.3800    5.0960   11.7630 C   0  0  0  0  0
    9.9810    3.9380   12.2660 C   0  0  0  0  0
   11.3490    3.9570   12.5030 C   0  0  0  0  0
    9.1720    2.7720   12.6840 C   0  0  0  0  0
    8.7130    1.8340   11.7660 C   0  0  0  0  0
    7.9660    0.7610   12.2140 C   0  0  0  0  0
    7.6680    0.5450   13.5000 N   0  0  0  0  0
    8.1310    1.4350   14.3820 C   0  0  0  0  0
    8.8870    2.5390   14.0300 C   0  0  0  0  0
   11.6150   13.9334   11.7219 H   0  0  0  0  0
   10.7869   16.0157   11.0742 H   0  0  0  0  0
   12.3118   16.3180   10.1294 H   0  0  0  0  0
   12.1374   17.8553   12.0026 H   0  0  0  0  0
   13.4833   16.7401   12.2302 H   0  0  0  0  0
   13.3461   16.9964   14.5968 H   0  0  0  0  0
   12.0009   18.1432   14.3814 H   0  0  0  0  0
   11.7881   16.7039   15.4081 H   0  0  0  0  0
   15.7256   12.7219   10.7385 H   0  0  0  0  0
   16.1359   10.3310   11.2080 H   0  0  0  0  0
   11.9282    9.6570   11.5326 H   0  0  0  0  0
   11.5007   12.0471   11.0807 H   0  0  0  0  0
   15.3245    8.2810   11.5862 H   0  0  0  0  0
   14.0890    4.3219   12.7246 H   0  0  0  0  0
    9.6109    7.0891   11.0579 H   0  0  0  0  0
    8.3049    5.1016   11.5835 H   0  0  0  0  0
   11.8318    3.0554   12.8801 H   0  0  0  0  0
    8.9397    1.9436   10.7055 H   0  0  0  0  0
    7.5979    0.0486   11.4757 H   0  0  0  0  0
    7.9006    1.2832   15.4365 H   0  0  0  0  0
    9.2564    3.2201   14.7966 H   0  0  0  0  0
  1  2  2  0  0  0
  2  3  1  0  0  0
  2  8  1  0  0  0
  3  4  1  0  0  0
  4  5  1  0  0  0
  5  6  1  0  0  0
  6  7  1  0  0  0
  8  9  4  0  0  0
  8 13  4  0  0  0
  9 10  4  0  0  0
 10 11  4  0  0  0
 11 12  4  0  0  0
 11 14  1  0  0  0
 12 13  4  0  0  0
 14 15  1  0  0  0
 15 16  4  0  0  0
 15 20  4  0  0  0
 16 17  4  0  0  0
 17 18  4  0  0  0
 17 21  4  0  0  0
 18 19  4  0  0  0
 18 24  4  0  0  0
 19 20  4  0  0  0
 21 22  4  0  0  0
 22 23  4  0  0  0
 23 24  4  0  0  0
 23 25  1  0  0  0
 25 26  4  0  0  0
 25 30  4  0  0  0
 26 27  4  0  0  0
 27 28  4  0  0  0
 28 29  4  0  0  0
 29 30  4  0  0  0
  3 31  1  0  0  0
  4 32  1  0  0  0
  4 33  1  0  0  0
  5 34  1  0  0  0
  5 35  1  0  0  0
  7 36  1  0  0  0
  7 37  1  0  0  0
  7 38  1  0  0  0
  9 39  1  0  0  0
 10 40  1  0  0  0
 12 41  1  0  0  0
 13 42  1  0  0  0
 14 43  1  0  0  0
 19 44  1  0  0  0
 21 45  1  0  0  0
 22 46  1  0  0  0
 24 47  1  0  0  0
 26 48  1  0  0  0
 27 49  1  0  0  0
 29 50  1  0  0  0
 30 51  1  0  0  0
M  END
$$$$
