3m5a_ligand
  -I-interpret- 

150150  0  0  0  0  0  0  0  0999 V2000
  -28.5580   40.3220   20.2290 C   0  0  0  0  0
  -28.2170   41.1740   19.4010 O   0  0  0  0  0
  -28.4680   40.5560   21.7110 C   0  0  0  0  0
  -28.8510   39.0730   19.8520 N   0  0  0  0  0
  -28.5360   38.6500   18.4870 C   0  0  0  0  0
  -29.6940   38.9540   17.5700 C   0  0  0  0  0
  -30.8450   38.9080   17.9830 O   0  0  0  0  0
  -28.1820   37.1660   18.4330 C   0  0  0  0  0
  -26.8010   36.9830   18.7160 O   0  0  0  0  0
  -29.3940   39.2810   16.3180 N   0  0  0  0  0
  -30.4470   39.6270   15.3890 C   0  0  0  0  0
  -30.8920   38.3940   14.5990 C   0  0  0  0  0
  -30.9020   38.3940   13.3670 O   0  0  0  0  0
  -29.9840   40.7390   14.4520 C   0  0  0  0  0
  -29.3980   41.9430   15.1950 C   0  0  0  0  0
  -29.0670   43.0590   14.2130 C   0  0  0  0  0
  -28.5510   44.3070   14.9350 C   0  0  0  0  0
  -28.3430   45.3950   13.9330 N   0  3  0  0  0
  -31.2740   37.3570   15.3370 N   0  0  0  0  0
  -31.7590   36.1170   14.7370 C   0  0  0  0  0
  -32.7400   35.4830   15.7210 C   0  0  0  0  0
  -32.6980   35.7700   16.9200 O   0  0  0  0  0
  -30.5930   35.1880   14.4380 C   0  0  0  0  0
  -29.8790   34.8440   15.6150 O   0  0  0  0  0
  -33.6320   34.6460   15.2190 N   0  0  0  0  0
  -34.5970   33.9800   16.0810 C   0  0  0  0  0
  -35.6750   33.3580   15.1970 C   0  0  0  0  0
  -36.4770   34.3920   14.4180 C   0  0  0  0  0
  -37.5930   33.7660   13.5770 C   0  0  0  0  0
  -37.0290   32.9860   12.4040 C   0  0  0  0  0
  -37.7790   33.2140   11.1410 N   0  3  0  0  0
  -33.9720   32.9100   16.9390 C   0  0  0  0  0
  -32.9740   32.2880   16.5710 O   0  0  0  0  0
  -39.1080   32.6020   11.1680 C   0  0  0  0  0
  -37.0240   32.6090   10.0090 C   0  0  0  0  0
  -37.9500   34.6460   10.8960 C   0  0  0  0  0
  -34.5470   32.6940   18.1170 N   0  0  0  0  0
  -34.3350   31.4520   18.8420 C   0  0  0  0  0
  -32.9070   31.2200   19.3050 C   0  0  0  0  0
  -32.4740   30.0780   19.4240 O   0  0  0  0  0
  -34.7980   30.2510   17.9890 C   0  0  0  0  0
  -35.1200   29.0200   18.8380 C   0  0  0  0  0
  -35.8050   29.1650   19.8840 O   0  0  0  0  0
  -34.6970   27.9070   18.4680 O   0  0  0  0  0
  -32.1600   32.2800   19.5830 N   0  0  0  0  0
  -30.8440   32.0580   20.1580 C   0  0  0  0  0
  -31.0190   31.7430   21.6440 C   0  0  0  0  0
  -31.8960   32.3070   22.2970 O   0  0  0  0  0
  -29.9130   33.2610   19.9530 C   0  0  0  0  0
  -28.5230   33.0160   20.5230 C   0  0  0  0  0
  -27.5060   34.0780   20.1280 C   0  0  0  0  0
  -26.1490   33.5730   20.3380 N   0  0  0  0  0
  -25.0340   34.1960   19.9600 C   0  0  0  0  0
  -25.0910   35.3750   19.3460 N   0  0  0  0  0
  -23.8520   33.6370   20.2000 N   0  0  0  0  0
  -30.2080   30.8260   22.1660 N   0  0  0  0  0
  -30.2280   30.5150   23.5990 C   0  0  0  0  0
  -29.3490   31.5350   24.3120 C   0  0  0  0  0
  -28.1430   31.5900   24.0660 O   0  0  0  0  0
  -29.7220   29.0910   23.8610 C   0  0  0  0  0
  -29.9540   32.3460   25.1760 N   0  0  0  0  0
  -29.2430   33.4560   25.8260 C   0  0  0  0  0
  -28.7240   33.1270   27.2260 C   0  0  0  0  0
  -28.8896   31.9810   27.7228 O   0  0  0  0  0
  -30.1440   34.6860   25.8730 C   0  0  0  0  0
  -30.3750   35.2940   24.5100 C   0  0  0  0  0
  -29.3090   35.8100   23.7770 C   0  0  0  0  0
  -31.6520   35.3540   23.9520 C   0  0  0  0  0
  -29.5010   36.3730   22.5220 C   0  0  0  0  0
  -31.8580   35.9150   22.6930 C   0  0  0  0  0
  -30.7730   36.4220   21.9850 C   0  0  0  0  0
  -30.9570   36.9830   20.7450 O   0  0  0  0  0
  -28.1233   34.0127   27.8910 O   0  0  0  0  0
  -27.4315   40.7538   21.9840 H   0  0  0  0  0
  -29.0859   41.4126   21.9805 H   0  0  0  0  0
  -28.8216   39.6707   22.2395 H   0  0  0  0  0
  -29.2879   38.4242   20.5067 H   0  0  0  0  0
  -27.6630   39.2095   18.1508 H   0  0  0  0  0
  -28.3967   36.7830   17.4354 H   0  0  0  0  0
  -28.7735   36.6298   19.1751 H   0  0  0  0  0
  -26.5893   36.0474   18.6795 H   0  0  0  0  0
  -28.4211   39.2881   16.0118 H   0  0  0  0  0
  -31.3045   39.9930   15.9537 H   0  0  0  0  0
  -30.8532   41.0851   13.8927 H   0  0  0  0  0
  -29.2012   40.3302   13.8131 H   0  0  0  0  0
  -28.4856   41.6363   15.7064 H   0  0  0  0  0
  -30.1302   42.3079   15.9153 H   0  0  0  0  0
  -29.9756   43.3238   13.6722 H   0  0  0  0  0
  -28.2888   42.7046   13.5370 H   0  0  0  0  0
  -27.6086   44.0807   15.4338 H   0  0  0  0  0
  -29.2779   44.6277   15.6813 H   0  0  0  0  0
  -27.9990   46.2304   14.4065 H   0  0  0  0  0
  -27.6602   45.0906   13.2391 H   0  0  0  0  0
  -29.2282   45.6044   13.4716 H   0  0  0  0  0
  -31.2270   37.4293   16.3534 H   0  0  0  0  0
  -32.2626   36.3122   13.7902 H   0  0  0  0  0
  -29.9105   35.7014   13.7607 H   0  0  0  0  0
  -30.9881   34.2729   13.9969 H   0  0  0  0  0
  -29.1528   34.2586   15.3878 H   0  0  0  0  0
  -33.6439   34.4649   14.2153 H   0  0  0  0  0
  -35.0157   34.7233   16.7594 H   0  0  0  0  0
  -36.3672   32.8215   15.8459 H   0  0  0  0  0
  -35.1785   32.7103   14.4745 H   0  0  0  0  0
  -35.7937   34.9026   13.7393 H   0  0  0  0  0
  -36.9399   35.0671   15.1378 H   0  0  0  0  0
  -38.2254   34.5651   13.1901 H   0  0  0  0  0
  -38.1602   33.0816   14.2079 H   0  0  0  0  0
  -37.0997   31.9254   12.6455 H   0  0  0  0  0
  -36.0032   33.3191   12.2460 H   0  0  0  0  0
  -39.0084   31.5264   11.3135 H   0  0  0  0  0
  -39.6865   33.0287   11.9874 H   0  0  0  0  0
  -39.6155   32.7967   10.2232 H   0  0  0  0  0
  -36.0403   33.0734    9.9406 H   0  0  0  0  0
  -36.9107   31.5385   10.1804 H   0  0  0  0  0
  -37.5703   32.7737    9.0803 H   0  0  0  0  0
  -38.5044   35.0910   11.7222 H   0  0  0  0  0
  -36.9713   35.1192   10.8169 H   0  0  0  0  0
  -38.5013   34.7911    9.9669 H   0  0  0  0  0
  -35.1482   33.4127   18.5201 H   0  0  0  0  0
  -34.9348   31.5443   19.7474 H   0  0  0  0  0
  -33.9873   29.9884   17.3094 H   0  0  0  0  0
  -35.7061   30.5430   17.4615 H   0  0  0  0  0
  -36.0306   30.0919   19.9915 H   0  0  0  0  0
  -32.4995   33.2240   19.3985 H   0  0  0  0  0
  -30.3690   31.2189   19.6496 H   0  0  0  0  0
  -30.3459   34.1169   20.4708 H   0  0  0  0  0
  -29.8144   33.4348   18.8815 H   0  0  0  0  0
  -28.1709   32.0633   20.1274 H   0  0  0  0  0
  -28.6078   33.0330   21.6096 H   0  0  0  0  0
  -27.6575   34.9659   20.7419 H   0  0  0  0  0
  -27.6374   34.3266   19.0749 H   0  0  0  0  0
  -26.0491   32.6745   20.8103 H   0  0  0  0  0
  -24.2310   35.8445   19.0625 H   0  0  0  0  0
  -25.9947   35.8094   19.1588 H   0  0  0  0  0
  -23.8012   32.7342   20.6720 H   0  0  0  0  0
  -29.5587   30.3289   21.5564 H   0  0  0  0  0
  -31.2499   30.5671   23.9747 H   0  0  0  0  0
  -30.3608   28.3781   23.3396 H   0  0  0  0  0
  -28.6987   28.9977   23.4972 H   0  0  0  0  0
  -29.7482   28.8887   24.9318 H   0  0  0  0  0
  -30.9388   32.1931   25.3933 H   0  0  0  0  0
  -28.3590   33.6534   25.2196 H   0  0  0  0  0
  -29.3604   31.4268   27.0961 H   0  0  0  0  0
  -29.6539   35.4355   26.4943 H   0  0  0  0  0
  -31.1112   34.3766   26.2690 H   0  0  0  0  0
  -28.3038   35.7712   24.1968 H   0  0  0  0  0
  -32.5008   34.9565   24.5085 H   0  0  0  0  0
  -28.6541   36.7734   21.9647 H   0  0  0  0  0
  -32.8604   35.9562   22.2668 H   0  0  0  0  0
  -31.8874   36.9428   20.5117 H   0  0  0  0  0
  1  2  2  0  0  0
  1  3  1  0  0  0
  1  4  1  0  0  0
  4  5  1  0  0  0
  5  6  1  0  0  0
  5  8  1  0  0  0
  6  7  2  0  0  0
  6 10  1  0  0  0
  8  9  1  0  0  0
 10 11  1  0  0  0
 11 12  1  0  0  0
 11 14  1  0  0  0
 12 13  2  0  0  0
 12 19  1  0  0  0
 14 15  1  0  0  0
 15 16  1  0  0  0
 16 17  1  0  0  0
 17 18  1  0  0  0
 19 20  1  0  0  0
 20 21  1  0  0  0
 20 23  1  0  0  0
 21 22  2  0  0  0
 21 25  1  0  0  0
 23 24  1  0  0  0
 25 26  1  0  0  0
 26 27  1  0  0  0
 26 32  1  0  0  0
 27 28  1  0  0  0
 28 29  1  0  0  0
 29 30  1  0  0  0
 30 31  1  0  0  0
 31 34  1  0  0  0
 31 35  1  0  0  0
 31 36  1  0  0  0
 32 33  2  0  0  0
 32 37  1  0  0  0
 37 38  1  0  0  0
 38 39  1  0  0  0
 38 41  1  0  0  0
 39 40  2  0  0  0
 39 45  1  0  0  0
 41 42  1  0  0  0
 42 43  1  0  0  0
 42 44  2  0  0  0
 45 46  1  0  0  0
 46 47  1  0  0  0
 46 49  1  0  0  0
 47 48  2  0  0  0
 47 56  1  0  0  0
 49 50  1  0  0  0
 50 51  1  0  0  0
 51 52  1  0  0  0
 52 53  1  0  0  0
 53 54  1  0  0  0
 53 55  2  0  0  0
 56 57  1  0  0  0
 57 58  1  0  0  0
 57 60  1  0  0  0
 58 59  2  0  0  0
 58 61  1  0  0  0
 61 62  1  0  0  0
 62 63  1  0  0  0
 62 65  1  0  0  0
 63 64  1  0  0  0
 65 66  1  0  0  0
 66 67  4  0  0  0
 66 68  4  0  0  0
 67 69  4  0  0  0
 68 70  4  0  0  0
 69 71  4  0  0  0
 70 71  4  0  0  0
 71 72  1  0  0  0
 63 73  2  0  0  0
  3 74  1  0  0  0
  3 75  1  0  0  0
  3 76  1  0  0  0
  4 77  1  0  0  0
  5 78  1  0  0  0
  8 79  1  0  0  0
  8 80  1  0  0  0
  9 81  1  0  0  0
 10 82  1  0  0  0
 11 83  1  0  0  0
 14 84  1  0  0  0
 14 85  1  0  0  0
 15 86  1  0  0  0
 15 87  1  0  0  0
 16 88  1  0  0  0
 16 89  1  0  0  0
 17 90  1  0  0  0
 17 91  1  0  0  0
 18 92  1  0  0  0
 18 93  1  0  0  0
 18 94  1  0  0  0
 19 95  1  0  0  0
 20 96  1  0  0  0
 23 97  1  0  0  0
 23 98  1  0  0  0
 24 99  1  0  0  0
 25100  1  0  0  0
 26101  1  0  0  0
 27102  1  0  0  0
 27103  1  0  0  0
 28104  1  0  0  0
 28105  1  0  0  0
 29106  1  0  0  0
 29107  1  0  0  0
 30108  1  0  0  0
 30109  1  0  0  0
 34110  1  0  0  0
 34111  1  0  0  0
 34112  1  0  0  0
 35113  1  0  0  0
 35114  1  0  0  0
 35115  1  0  0  0
 36116  1  0  0  0
 36117  1  0  0  0
 36118  1  0  0  0
 37119  1  0  0  0
 38120  1  0  0  0
 41121  1  0  0  0
 41122  1  0  0  0
 43123  1  0  0  0
 45124  1  0  0  0
 46125  1  0  0  0
 49126  1  0  0  0
 49127  1  0  0  0
 50128  1  0  0  0
 50129  1  0  0  0
 51130  1  0  0  0
 51131  1  0  0  0
 52132  1  0  0  0
 54133  1  0  0  0
 54134  1  0  0  0
 55135  1  0  0  0
 56136  1  0  0  0
 57137  1  0  0  0
 60138  1  0  0  0
 60139  1  0  0  0
 60140  1  0  0  0
 61141  1  0  0  0
 62142  1  0  0  0
 64143  1  0  0  0
 65144  1  0  0  0
 65145  1  0  0  0
 67146  1  0  0  0
 68147  1  0  0  0
 69148  1  0  0  0
 70149  1  0  0  0
 72150  1  0  0  0
M  END
$$$$
