### 
### Created by X-TOOL on Mon Sep 10 21:13:03 2018
### 

@<TRIPOS>MOLECULE
3m5a_ligand
  149   149     1     0     0
SMALL
GAST_HUCK


@<TRIPOS>ATOM
      1 C         -28.5580   40.3220   20.2290 C.2       1 ACE         0.1752
      2 O         -28.2170   41.1740   19.4010 O.2       1 ACE        -0.3972
      3 CH3       -28.4680   40.5560   21.7110 C.3       1 ACE         0.0258
      4 N         -28.8510   39.0730   19.8520 N.am      1 SER        -0.2637
      5 CA        -28.5360   38.6500   18.4870 C.3       1 SER         0.1538
      6 C         -29.6940   38.9540   17.5700 C.2       1 SER         0.2062
      7 O         -30.8450   38.9080   17.9830 O.2       1 SER        -0.3943
      8 CB        -28.1820   37.1660   18.4330 C.3       1 SER         0.0843
      9 OG        -26.8010   36.9830   18.7160 O.3       1 SER        -0.3903
     10 N         -29.3940   39.2810   16.3180 N.am      1 LYS        -0.2637
     11 CA        -30.4470   39.6270   15.3890 C.3       1 LYS         0.1310
     12 C         -30.8920   38.3940   14.5990 C.2       1 LYS         0.2040
     13 O         -30.9020   38.3940   13.3670 O.2       1 LYS        -0.3944
     14 CB        -29.9840   40.7390   14.4520 C.3       1 LYS        -0.0122
     15 CG        -29.3980   41.9430   15.1950 C.3       1 LYS        -0.0440
     16 CD        -29.0670   43.0590   14.2130 C.3       1 LYS        -0.0124
     17 CE        -28.5510   44.3070   14.9350 C.3       1 LYS        -0.0354
     18 NZ        -28.3430   45.3950   13.9330 N.4       1 LYS         0.2185
     19 N         -31.2740   37.3570   15.3370 N.am      1 SER        -0.2616
     20 CA        -31.7590   36.1170   14.7370 C.3       1 SER         0.1539
     21 C         -32.7400   35.4830   15.7210 C.2       1 SER         0.2062
     22 O         -32.6980   35.7700   16.9200 O.2       1 SER        -0.3943
     23 CB        -30.5930   35.1880   14.4380 C.3       1 SER         0.0843
     24 OG        -29.8790   34.8440   15.6150 O.3       1 SER        -0.3903
     25 N         -33.6320   34.6460   15.2190 N.am      1 M3L        -0.2637
     26 CA        -34.5970   33.9800   16.0810 C.3       1 M3L         0.1310
     27 CB        -35.6750   33.3580   15.1970 C.3       1 M3L        -0.0122
     28 CG        -36.4770   34.3920   14.4180 C.3       1 M3L        -0.0440
     29 CD        -37.5930   33.7660   13.5770 C.3       1 M3L        -0.0123
     30 CE        -37.0290   32.9860   12.4040 C.3       1 M3L        -0.0309
     31 NZ        -37.7790   33.2140   11.1410 N.4       1 M3L         0.2369
     32 C         -33.9720   32.9100   16.9390 C.2       1 M3L         0.2040
     33 O         -32.9740   32.2880   16.5710 O.2       1 M3L        -0.3944
     34 CM1       -39.1080   32.6020   11.1680 C.3       1 M3L        -0.0418
     35 CM2       -37.0240   32.6090   10.0090 C.3       1 M3L        -0.0418
     36 CM3       -37.9500   34.6460   10.8960 C.3       1 M3L        -0.0418
     37 N         -34.5470   32.6940   18.1170 N.am      1 ASP        -0.2622
     38 CA        -34.3350   31.4520   18.8420 C.3       1 ASP         0.1423
     39 C         -32.9070   31.2200   19.3050 C.2       1 ASP         0.2056
     40 O         -32.4740   30.0780   19.4240 O.2       1 ASP        -0.3943
     41 CB        -34.7980   30.2510   17.9890 C.3       1 ASP         0.0406
     42 CG        -35.1200   29.0200   18.8380 C.2       1 ASP         0.0393
     43 OD1       -35.8050   29.1650   19.8840 O.co2     1 ASP        -0.5688
     44 OD2       -34.6970   27.9070   18.4680 O.co2     1 ASP        -0.5688
     45 N         -32.1600   32.2800   19.5830 N.am      1 ARG        -0.2636
     46 CA        -30.8440   32.0580   20.1580 C.3       1 ARG         0.1311
     47 C         -31.0190   31.7430   21.6440 C.2       1 ARG         0.2039
     48 O         -31.8960   32.3070   22.2970 O.2       1 ARG        -0.3944
     49 CB        -29.9130   33.2610   19.9530 C.3       1 ARG        -0.0092
     50 CG        -28.5230   33.0160   20.5230 C.3       1 ARG        -0.0156
     51 CD        -27.5060   34.0780   20.1280 C.3       1 ARG         0.0627
     52 NE        -26.1490   33.5730   20.3380 N.pl3     1 ARG        -0.2723
     53 CZ        -25.0340   34.1960   19.9600 C.cat     1 ARG         0.2882
     54 NH1       -25.0910   35.3750   19.3460 N.pl3     1 ARG        -0.2849
     55 NH2       -23.8520   33.6370   20.2000 N.pl3     1 ARG        -0.2849
     56 N         -30.2080   30.8260   22.1660 N.am      1 LYS        -0.2640
     57 CA        -30.2280   30.5150   23.5990 C.3       1 LYS         0.1282
     58 C         -29.3490   31.5350   24.3120 C.2       1 LYS         0.2032
     59 O         -28.1430   31.5900   24.0660 O.2       1 LYS        -0.3944
     60 CB        -29.7220   29.0910   23.8610 C.3       1 LYS        -0.0244
     61 N         -29.9540   32.3460   25.1760 N.am      1 TYR        -0.2679
     62 CA        -29.2430   33.4560   25.8260 C.3       1 TYR         0.1025
     63 C         -28.7240   33.1270   27.2260 C.2       1 TYR         0.0619
     64 O         -28.8896   31.9810   27.7228 O.co2     1 TYR        -0.5665
     65 CB        -30.1440   34.6860   25.8730 C.3       1 TYR         0.0108
     66 CG        -30.3750   35.2940   24.5100 C.ar      1 TYR        -0.0499
     67 CD1       -29.3090   35.8100   23.7770 C.ar      1 TYR        -0.0686
     68 CD2       -31.6520   35.3540   23.9520 C.ar      1 TYR        -0.0686
     69 CE1       -29.5010   36.3730   22.5220 C.ar      1 TYR        -0.0398
     70 CE2       -31.8580   35.9150   22.6930 C.ar      1 TYR        -0.0398
     71 CZ        -30.7730   36.4220   21.9850 C.ar      1 TYR         0.0805
     72 OH        -30.9570   36.9830   20.7450 O.3       1 TYR        -0.3376
     73 H         -27.4315   40.7538   21.9840 H         1 ACE         0.0467
     74 H         -29.0859   41.4126   21.9805 H         1 ACE         0.0467
     75 H         -28.8216   39.6707   22.2395 H         1 ACE         0.0467
     76 H         -29.2879   38.4242   20.5067 H         1 SER         0.1883
     77 H         -27.6630   39.2095   18.1508 H         1 SER         0.0823
     78 H         -28.3967   36.7830   17.4354 H         1 SER         0.0606
     79 H         -28.7735   36.6298   19.1751 H         1 SER         0.0606
     80 H         -26.2768   37.4565   18.0659 H         1 SER         0.2097
     81 H         -28.4211   39.2881   16.0118 H         1 LYS         0.1883
     82 H         -31.3045   39.9930   15.9537 H         1 LYS         0.0800
     83 H         -30.8532   41.0851   13.8927 H         1 LYS         0.0312
     84 H         -29.2012   40.3302   13.8131 H         1 LYS         0.0312
     85 H         -28.4856   41.6363   15.7064 H         1 LYS         0.0269
     86 H         -30.1302   42.3079   15.9153 H         1 LYS         0.0269
     87 H         -29.9756   43.3238   13.6722 H         1 LYS         0.0317
     88 H         -28.2888   42.7046   13.5370 H         1 LYS         0.0317
     89 H         -27.6086   44.0807   15.4338 H         1 LYS         0.0813
     90 H         -29.2779   44.6277   15.6813 H         1 LYS         0.0813
     91 H         -27.9990   46.2304   14.4065 H         1 LYS         0.1994
     92 H         -27.6602   45.0906   13.2391 H         1 LYS         0.1994
     93 H         -29.2282   45.6044   13.4716 H         1 LYS         0.1994
     94 H         -31.2270   37.4293   16.3534 H         1 SER         0.1884
     95 H         -32.2626   36.3122   13.7902 H         1 SER         0.0823
     96 H         -29.9105   35.7014   13.7607 H         1 SER         0.0606
     97 H         -30.9881   34.2729   13.9969 H         1 SER         0.0606
     98 H         -29.5332   35.6414   16.0227 H         1 SER         0.2097
     99 H         -33.6439   34.4649   14.2153 H         1 M3L         0.1883
    100 H         -35.0157   34.7233   16.7594 H         1 M3L         0.0800
    101 H         -36.3672   32.8215   15.8459 H         1 M3L         0.0312
    102 H         -35.1785   32.7103   14.4745 H         1 M3L         0.0312
    103 H         -35.7937   34.9026   13.7393 H         1 M3L         0.0269
    104 H         -36.9399   35.0671   15.1378 H         1 M3L         0.0269
    105 H         -38.2254   34.5651   13.1901 H         1 M3L         0.0317
    106 H         -38.1602   33.0816   14.2079 H         1 M3L         0.0317
    107 H         -37.0997   31.9254   12.6455 H         1 M3L         0.0815
    108 H         -36.0032   33.3191   12.2460 H         1 M3L         0.0815
    109 H         -39.0084   31.5264   11.3135 H         1 M3L         0.0778
    110 H         -39.6865   33.0287   11.9874 H         1 M3L         0.0778
    111 H         -39.6155   32.7967   10.2232 H         1 M3L         0.0778
    112 H         -36.0403   33.0734    9.9406 H         1 M3L         0.0778
    113 H         -36.9107   31.5385   10.1804 H         1 M3L         0.0778
    114 H         -37.5703   32.7737    9.0803 H         1 M3L         0.0778
    115 H         -38.5044   35.0910   11.7222 H         1 M3L         0.0778
    116 H         -36.9713   35.1192   10.8169 H         1 M3L         0.0778
    117 H         -38.5013   34.7911    9.9669 H         1 M3L         0.0778
    118 H         -35.1482   33.4127   18.5201 H         1 ASP         0.1884
    119 H         -34.9348   31.5443   19.7474 H         1 ASP         0.0819
    120 H         -33.9873   29.9884   17.3094 H         1 ASP         0.0478
    121 H         -35.7061   30.5430   17.4615 H         1 ASP         0.0478
    122 H         -32.4995   33.2240   19.3985 H         1 ARG         0.1883
    123 H         -30.3690   31.2189   19.6496 H         1 ARG         0.0800
    124 H         -30.3459   34.1169   20.4708 H         1 ARG         0.0313
    125 H         -29.8144   33.4348   18.8815 H         1 ARG         0.0313
    126 H         -28.1709   32.0633   20.1274 H         1 ARG         0.0301
    127 H         -28.6078   33.0330   21.6096 H         1 ARG         0.0301
    128 H         -27.6575   34.9659   20.7419 H         1 ARG         0.0689
    129 H         -27.6374   34.3266   19.0749 H         1 ARG         0.0689
    130 H         -26.0491   32.6745   20.8103 H         1 ARG         0.2642
    131 H         -25.9946   35.8103   19.1606 H         1 ARG         0.2615
    132 H         -24.2311   35.8435   19.0607 H         1 ARG         0.2615
    133 H         -23.8012   32.7342   20.6720 H         1 ARG         0.2615
    134 H         -22.9959   34.1109   19.9121 H         1 ARG         0.2615
    135 H         -29.5587   30.3289   21.5564 H         1 LYS         0.1883
    136 H         -31.2499   30.5671   23.9747 H         1 LYS         0.0797
    137 H         -30.3608   28.3781   23.3396 H         1 LYS         0.0277
    138 H         -28.6987   28.9977   23.4972 H         1 LYS         0.0277
    139 H         -29.7482   28.8887   24.9318 H         1 LYS         0.0277
    140 H         -30.9388   32.1931   25.3933 H         1 TYR         0.1877
    141 H         -28.3590   33.6534   25.2196 H         1 TYR         0.0747
    142 O         -28.1233   34.0127   27.8910 O.co2     1 TYR        -0.5665
    143 H         -29.6539   35.4355   26.4943 H         1 TYR         0.0446
    144 H         -31.1112   34.3766   26.2690 H         1 TYR         0.0446
    145 H         -28.3038   35.7712   24.1968 H         1 TYR         0.0530
    146 H         -32.5008   34.9565   24.5085 H         1 TYR         0.0530
    147 H         -28.6541   36.7734   21.9647 H         1 TYR         0.0525
    148 H         -32.8604   35.9562   22.2668 H         1 TYR         0.0525
    149 H         -31.3339   36.3290   20.1518 H         1 TYR         0.2458
@<TRIPOS>BOND
     1    1    2 2  
     2    1    3 1  
     3    1    4 am 
     4    4    5 1  
     5    5    6 1  
     6    5    8 1  
     7    6    7 2  
     8    6   10 am 
     9    8    9 1  
    10   10   11 1  
    11   11   12 1  
    12   11   14 1  
    13   12   13 2  
    14   12   19 am 
    15   14   15 1  
    16   15   16 1  
    17   16   17 1  
    18   17   18 1  
    19   19   20 1  
    20   20   21 1  
    21   20   23 1  
    22   21   22 2  
    23   21   25 am 
    24   23   24 1  
    25   25   26 1  
    26   26   27 1  
    27   26   32 1  
    28   27   28 1  
    29   28   29 1  
    30   29   30 1  
    31   30   31 1  
    32   31   34 1  
    33   31   35 1  
    34   31   36 1  
    35   32   33 2  
    36   32   37 am 
    37   37   38 1  
    38   38   39 1  
    39   38   41 1  
    40   39   40 2  
    41   39   45 am 
    42   41   42 1  
    43   42   43 ar 
    44   42   44 ar 
    45   45   46 1  
    46   46   47 1  
    47   46   49 1  
    48   47   48 2  
    49   47   56 am 
    50   49   50 1  
    51   50   51 1  
    52   51   52 1  
    53   52   53 ar 
    54   53   54 ar 
    55   53   55 ar 
    56   56   57 1  
    57   57   58 1  
    58   57   60 1  
    59   58   59 2  
    60   58   61 am 
    61   61   62 1  
    62   62   63 1  
    63   62   65 1  
    64   63   64 ar 
    65   65   66 1  
    66   66   67 ar 
    67   66   68 ar 
    68   67   69 ar 
    69   68   70 ar 
    70   69   71 ar 
    71   70   71 ar 
    72   71   72 1  
    73    3   73 1  
    74    3   74 1  
    75    3   75 1  
    76    4   76 1  
    77    5   77 1  
    78    8   78 1  
    79    8   79 1  
    80    9   80 1  
    81   10   81 1  
    82   11   82 1  
    83   14   83 1  
    84   14   84 1  
    85   15   85 1  
    86   15   86 1  
    87   16   87 1  
    88   16   88 1  
    89   17   89 1  
    90   17   90 1  
    91   18   91 1  
    92   18   92 1  
    93   18   93 1  
    94   19   94 1  
    95   20   95 1  
    96   23   96 1  
    97   23   97 1  
    98   24   98 1  
    99   25   99 1  
   100   26  100 1  
   101   27  101 1  
   102   27  102 1  
   103   28  103 1  
   104   28  104 1  
   105   29  105 1  
   106   29  106 1  
   107   30  107 1  
   108   30  108 1  
   109   34  109 1  
   110   34  110 1  
   111   34  111 1  
   112   35  112 1  
   113   35  113 1  
   114   35  114 1  
   115   36  115 1  
   116   36  116 1  
   117   36  117 1  
   118   37  118 1  
   119   38  119 1  
   120   41  120 1  
   121   41  121 1  
   122   45  122 1  
   123   46  123 1  
   124   49  124 1  
   125   49  125 1  
   126   50  126 1  
   127   50  127 1  
   128   51  128 1  
   129   51  129 1  
   130   52  130 1  
   131   54  131 1  
   132   54  132 1  
   133   55  133 1  
   134   55  134 1  
   135   56  135 1  
   136   57  136 1  
   137   60  137 1  
   138   60  138 1  
   139   60  139 1  
   140   61  140 1  
   141   62  141 1  
   142   63  142 ar 
   143   65  143 1  
   144   65  144 1  
   145   67  145 1  
   146   68  146 1  
   147   69  147 1  
   148   70  148 1  
   149   72  149 1  
@<TRIPOS>SUBSTRUCTURE
     1 ACE         1

