2x85_ligand
  -I-interpret- 

140145  0  0  0  0  0  0  0  0999 V2000
  -11.5190  -13.3140   28.3840 C   0  0  0  0  0
  -11.0950  -12.6110   27.1000 C   0  0  0  0  0
  -10.4050  -13.5750   26.1460 C   0  0  0  0  0
  -11.2160  -14.8530   25.9780 C   0  0  0  0  0
  -11.5610  -15.4550   27.3480 C   0  0  0  0  0
  -12.4120  -16.7120   27.2280 C   0  0  0  0  0
  -12.2710  -12.1340   26.4980 O   0  0  0  0  0
  -10.2710  -12.9490   24.8870 O   0  0  0  0  0
  -10.5020  -15.7490   25.1400 O   0  0  0  0  0
  -12.2740  -14.4870   28.1220 O   0  0  0  0  0
   -7.9180  -12.6680   32.4050 C   0  0  0  0  0
   -8.1330  -11.1520   32.3640 C   0  0  0  0  0
   -9.6450  -10.9310   32.4200 C   0  0  0  0  0
  -10.3400  -11.7720   31.3500 C   0  0  0  0  0
   -9.9470  -13.2640   31.4500 C   0  0  0  0  0
  -10.5230  -14.1860   30.3850 C   0  0  0  0  0
   -7.4450  -10.4970   33.4140 O   0  0  0  0  0
   -9.9430   -9.5610   32.2390 O   0  0  0  0  0
  -11.7220  -11.6280   31.5060 O   0  0  0  0  0
   -8.5310  -13.3290   31.3140 O   0  0  0  0  0
  -10.3640  -13.6400   29.1480 O   0  0  0  0  0
   -7.5990  -14.8740   36.6170 C   0  0  0  0  0
   -8.8370  -15.0710   35.7650 C   0  0  0  0  0
   -8.4390  -15.5020   34.3530 C   0  0  0  0  0
   -7.3800  -14.6180   33.7050 C   0  0  0  0  0
   -6.3930  -14.3050   34.7240 C   0  0  0  0  0
   -5.1970  -13.3890   34.3780 C   0  0  0  0  0
   -9.6120  -16.0920   36.3410 O   0  0  0  0  0
   -9.6210  -15.5960   33.5830 O   0  0  0  0  0
   -7.7090  -13.3010   33.6670 O   0  0  0  0  0
   -6.7140  -13.9340   36.0780 O   0  0  0  0  0
   -4.8280  -13.7080   33.0690 O   0  0  0  0  0
  -10.0880  -16.8040   33.2190 C   0  0  0  0  0
  -11.5840  -16.8000   32.9070 C   0  0  0  0  0
  -12.0590  -18.1210   32.3070 C   0  0  0  0  0
  -11.0880  -18.7000   31.2910 C   0  0  0  0  0
   -9.6660  -18.6680   31.8570 C   0  0  0  0  0
   -8.6470  -19.2610   30.9040 C   0  0  0  0  0
  -13.0320  -15.4110   34.3400 C   0  0  0  0  0
  -13.6770  -15.2590   35.6910 C   0  0  0  0  0
  -12.2930  -16.5070   34.1460 N   0  0  0  0  0
  -13.2910  -17.9070   31.6510 O   0  0  0  0  0
  -11.5060  -20.0200   30.9670 O   0  0  0  0  0
   -9.3120  -17.3260   32.1620 O   0  0  0  0  0
   -8.6250  -18.4710   29.7440 O   0  0  0  0  0
  -13.1910  -14.5490   33.4760 O   0  0  0  0  0
   -4.0150  -16.9560   38.9170 C   0  0  0  0  0
   -4.8870  -16.9500   37.6670 C   0  0  0  0  0
   -6.1510  -16.1580   37.9780 C   0  0  0  0  0
   -6.9130  -16.8030   39.1250 C   0  0  0  0  0
   -5.9810  -17.0170   40.3190 C   0  0  0  0  0
   -6.6160  -17.9220   41.3520 C   0  0  0  0  0
   -3.9650  -16.9640   35.3740 C   0  0  0  0  0
   -3.0430  -16.2850   34.4090 C   0  0  0  0  0
   -4.0780  -16.4080   36.5900 N   0  0  0  0  0
   -2.7810  -17.6100   38.6740 O   0  0  0  0  0
   -6.9380  -16.1270   36.7860 O   0  0  0  0  0
   -7.9600  -15.9310   39.5010 O   0  0  0  0  0
   -4.7100  -17.5680   39.9870 O   0  0  0  0  0
   -6.1680  -17.5110   42.6250 O   0  0  0  0  0
   -4.5800  -17.9840   35.0360 O   0  0  0  0  0
   -6.7180  -16.5200   43.3440 C   0  0  0  0  0
   -5.9840  -16.1060   44.5990 C   0  0  0  0  0
   -5.9770  -17.2980   45.5570 C   0  0  0  0  0
   -7.4100  -17.7620   45.8270 C   0  0  0  0  0
   -8.1770  -17.9940   44.5300 C   0  0  0  0  0
   -9.6540  -18.3030   44.7540 C   0  0  0  0  0
   -4.6740  -15.6890   44.2520 O   0  0  0  0  0
   -5.3050  -16.9040   46.7420 O   0  0  0  0  0
   -7.3590  -18.9690   46.5500 O   0  0  0  0  0
   -8.0270  -16.8470   43.6950 O   0  0  0  0  0
  -10.2590  -17.3150   45.5320 O   0  0  0  0  0
  -12.1585  -12.6330   28.9456 H   0  0  0  0  0
  -10.3921  -11.8092   27.3262 H   0  0  0  0  0
   -9.4293  -13.8351   26.5563 H   0  0  0  0  0
  -12.1684  -14.6368   25.4940 H   0  0  0  0  0
  -10.6234  -15.7291   27.8316 H   0  0  0  0  0
  -12.6130  -17.1095   28.2228 H   0  0  0  0  0
  -13.3534  -16.4664   26.7365 H   0  0  0  0  0
  -11.8767  -17.4568   26.6391 H   0  0  0  0  0
  -12.7108  -11.5250   27.0957 H   0  0  0  0  0
   -9.7605  -12.1419   24.9849 H   0  0  0  0  0
  -10.3147  -15.3207   24.3015 H   0  0  0  0  0
   -6.8669  -12.8629   32.1919 H   0  0  0  0  0
   -7.7223  -10.7186   31.4521 H   0  0  0  0  0
  -10.0108  -11.2414   33.3988 H   0  0  0  0  0
  -10.0264  -11.4222   30.3664 H   0  0  0  0  0
  -10.3476  -13.6112   32.4024 H   0  0  0  0  0
  -11.5866  -14.3283   30.5762 H   0  0  0  0  0
   -9.9992  -15.1412   30.4214 H   0  0  0  0  0
   -7.6020   -9.5516   33.3571 H   0  0  0  0  0
  -10.8938   -9.4339   32.2759 H   0  0  0  0  0
  -12.1743  -12.1511   30.8401 H   0  0  0  0  0
   -7.9236  -14.4828   37.5812 H   0  0  0  0  0
   -9.3960  -14.1367   35.7134 H   0  0  0  0  0
   -7.9485  -16.4738   34.4096 H   0  0  0  0  0
   -7.1606  -15.1332   32.7698 H   0  0  0  0  0
   -6.1767  -15.3730   34.6989 H   0  0  0  0  0
   -4.3689  -13.5460   35.0691 H   0  0  0  0  0
   -5.4697  -12.3372   34.4643 H   0  0  0  0  0
  -10.4015  -16.2297   35.8126 H   0  0  0  0  0
   -4.0836  -13.1620   32.8055 H   0  0  0  0  0
   -9.9851  -17.4701   34.0756 H   0  0  0  0  0
  -11.7906  -16.0401   32.1534 H   0  0  0  0  0
  -12.1453  -18.8292   33.1311 H   0  0  0  0  0
  -11.0836  -18.1062   30.3770 H   0  0  0  0  0
   -9.6572  -19.2804   32.7586 H   0  0  0  0  0
   -8.9174  -20.2872   30.6551 H   0  0  0  0  0
   -7.6610  -19.2747   31.3685 H   0  0  0  0  0
  -13.3163  -14.3454   36.1637 H   0  0  0  0  0
  -14.7591  -15.2050   35.5716 H   0  0  0  0  0
  -13.4211  -16.1168   36.3129 H   0  0  0  0  0
  -12.2208  -17.1785   34.9104 H   0  0  0  0  0
  -13.5973  -18.7334   31.2704 H   0  0  0  0  0
  -10.9003  -20.3978   30.3251 H   0  0  0  0  0
   -7.9845  -18.8302   29.1257 H   0  0  0  0  0
   -3.7916  -15.9246   39.1899 H   0  0  0  0  0
   -5.2204  -17.9390   37.3528 H   0  0  0  0  0
   -5.9062  -15.1429   38.2907 H   0  0  0  0  0
   -7.3092  -17.7689   38.8118 H   0  0  0  0  0
   -5.8186  -16.0134   40.7120 H   0  0  0  0  0
   -6.3332  -18.9587   41.1696 H   0  0  0  0  0
   -7.7024  -17.8548   41.2950 H   0  0  0  0  0
   -2.2565  -16.9783   34.1108 H   0  0  0  0  0
   -3.6059  -15.9721   33.5296 H   0  0  0  0  0
   -2.5979  -15.4122   34.8866 H   0  0  0  0  0
   -3.5611  -15.5472   36.7697 H   0  0  0  0  0
   -2.2517  -17.6001   39.4749 H   0  0  0  0  0
   -8.4547  -16.3205   40.2257 H   0  0  0  0  0
   -6.6645  -15.6622   42.6736 H   0  0  0  0  0
   -6.4733  -15.2674   45.0944 H   0  0  0  0  0
   -5.4506  -18.1478   45.1224 H   0  0  0  0  0
   -7.9262  -16.9856   46.3916 H   0  0  0  0  0
   -7.7557  -18.8759   44.0475 H   0  0  0  0  0
   -9.7367  -19.2573   45.2742 H   0  0  0  0  0
  -10.1541  -18.3412   43.7862 H   0  0  0  0  0
   -4.2028  -15.4247   45.0455 H   0  0  0  0  0
   -5.2890  -17.6393   47.3590 H   0  0  0  0  0
   -8.2523  -19.2727   46.7270 H   0  0  0  0  0
  -11.1856  -17.5316   45.6585 H   0  0  0  0  0
  1  2  1  0  0  0
  1 10  1  0  0  0
 21  1  1  0  0  0
  2  3  1  0  0  0
  2  7  1  0  0  0
  3  4  1  0  0  0
  3  8  1  0  0  0
  5  4  1  0  0  0
  4  9  1  0  0  0
  5  6  1  0  0  0
 10  5  1  0  0  0
 11 12  1  0  0  0
 11 20  1  0  0  0
 30 11  1  0  0  0
 12 13  1  0  0  0
 12 17  1  0  0  0
 13 14  1  0  0  0
 13 18  1  0  0  0
 15 14  1  0  0  0
 14 19  1  0  0  0
 15 16  1  0  0  0
 20 15  1  0  0  0
 16 21  1  0  0  0
 22 23  1  0  0  0
 22 31  1  0  0  0
 57 22  1  0  0  0
 23 24  1  0  0  0
 23 28  1  0  0  0
 24 25  1  0  0  0
 24 29  1  0  0  0
 26 25  1  0  0  0
 25 30  1  0  0  0
 26 27  1  0  0  0
 31 26  1  0  0  0
 27 32  1  0  0  0
 29 33  1  0  0  0
 33 34  1  0  0  0
 33 44  1  0  0  0
 34 35  1  0  0  0
 34 41  1  0  0  0
 35 36  1  0  0  0
 35 42  1  0  0  0
 37 36  1  0  0  0
 36 43  1  0  0  0
 37 38  1  0  0  0
 44 37  1  0  0  0
 38 45  1  0  0  0
 39 40  1  0  0  0
 41 39  1  0  0  0
 39 46  2  0  0  0
 48 47  1  0  0  0
 47 56  1  0  0  0
 47 59  1  0  0  0
 48 49  1  0  0  0
 55 48  1  0  0  0
 49 50  1  0  0  0
 49 57  1  0  0  0
 50 51  1  0  0  0
 50 58  1  0  0  0
 51 52  1  0  0  0
 59 51  1  0  0  0
 52 60  1  0  0  0
 53 54  1  0  0  0
 53 55  1  0  0  0
 53 61  2  0  0  0
 60 62  1  0  0  0
 62 63  1  0  0  0
 62 71  1  0  0  0
 63 64  1  0  0  0
 63 68  1  0  0  0
 64 65  1  0  0  0
 64 69  1  0  0  0
 65 66  1  0  0  0
 65 70  1  0  0  0
 66 67  1  0  0  0
 66 71  1  0  0  0
 67 72  1  0  0  0
  1 73  1  0  0  0
  2 74  1  0  0  0
  3 75  1  0  0  0
  4 76  1  0  0  0
  5 77  1  0  0  0
  6 78  1  0  0  0
  6 79  1  0  0  0
  6 80  1  0  0  0
  7 81  1  0  0  0
  8 82  1  0  0  0
  9 83  1  0  0  0
 11 84  1  0  0  0
 12 85  1  0  0  0
 13 86  1  0  0  0
 14 87  1  0  0  0
 15 88  1  0  0  0
 16 89  1  0  0  0
 16 90  1  0  0  0
 17 91  1  0  0  0
 18 92  1  0  0  0
 19 93  1  0  0  0
 22 94  1  0  0  0
 23 95  1  0  0  0
 24 96  1  0  0  0
 25 97  1  0  0  0
 26 98  1  0  0  0
 27 99  1  0  0  0
 27100  1  0  0  0
 28101  1  0  0  0
 32102  1  0  0  0
 33103  1  0  0  0
 34104  1  0  0  0
 35105  1  0  0  0
 36106  1  0  0  0
 37107  1  0  0  0
 38108  1  0  0  0
 38109  1  0  0  0
 40110  1  0  0  0
 40111  1  0  0  0
 40112  1  0  0  0
 41113  1  0  0  0
 42114  1  0  0  0
 43115  1  0  0  0
 45116  1  0  0  0
 47117  1  0  0  0
 48118  1  0  0  0
 49119  1  0  0  0
 50120  1  0  0  0
 51121  1  0  0  0
 52122  1  0  0  0
 52123  1  0  0  0
 54124  1  0  0  0
 54125  1  0  0  0
 54126  1  0  0  0
 55127  1  0  0  0
 56128  1  0  0  0
 58129  1  0  0  0
 62130  1  0  0  0
 63131  1  0  0  0
 64132  1  0  0  0
 65133  1  0  0  0
 66134  1  0  0  0
 67135  1  0  0  0
 67136  1  0  0  0
 68137  1  0  0  0
 69138  1  0  0  0
 70139  1  0  0  0
 72140  1  0  0  0
M  END
$$$$
