### 
### Created by X-TOOL on Sun Sep  9 21:51:27 2018
### 

@<TRIPOS>MOLECULE
2x85_ligand
  140   145     1     0     0
SMALL
GAST_HUCK


@<TRIPOS>ATOM
      1 C1        -11.5190  -13.3140   28.3840 C.3       1 NON         0.1879
      2 C2        -11.0950  -12.6110   27.1000 C.3       1 NON         0.1341
      3 C3        -10.4050  -13.5750   26.1460 C.3       1 NON         0.1140
      4 C4        -11.2160  -14.8530   25.9780 C.3       1 NON         0.1095
      5 C5        -11.5610  -15.4550   27.3480 C.3       1 NON         0.0873
      6 C6        -12.4120  -16.7120   27.2280 C.3       1 NON        -0.0361
      7 O2        -12.2710  -12.1340   26.4980 O.3       1 NON        -0.3841
      8 O3        -10.2710  -12.9490   24.8870 O.3       1 NON        -0.3864
      9 O4        -10.5020  -15.7490   25.1400 O.3       1 NON        -0.3866
     10 O5        -12.2740  -14.4870   28.1220 O.3       1 NON        -0.3431
     11 C1         -7.9180  -12.6680   32.4050 C.3       1 NON         0.1884
     12 C2         -8.1330  -11.1520   32.3640 C.3       1 NON         0.1341
     13 C3         -9.6450  -10.9310   32.4200 C.3       1 NON         0.1141
     14 C4        -10.3400  -11.7720   31.3500 C.3       1 NON         0.1119
     15 C5         -9.9470  -13.2640   31.4500 C.3       1 NON         0.1134
     16 C6        -10.5230  -14.1860   30.3850 C.3       1 NON         0.0796
     17 O2         -7.4450  -10.4970   33.4140 O.3       1 NON        -0.3841
     18 O3         -9.9430   -9.5610   32.2390 O.3       1 NON        -0.3864
     19 O4        -11.7220  -11.6280   31.5060 O.3       1 NON        -0.3865
     20 O5         -8.5310  -13.3290   31.3140 O.3       1 NON        -0.3405
     21 O6        -10.3640  -13.6400   29.1480 O.3       1 NON        -0.3461
     22 C1         -7.5990  -14.8740   36.6170 C.3       1 NON         0.1884
     23 C2         -8.8370  -15.0710   35.7650 C.3       1 NON         0.1345
     24 C3         -8.4390  -15.5020   34.3530 C.3       1 NON         0.1209
     25 C4         -7.3800  -14.6180   33.7050 C.3       1 NON         0.1188
     26 C5         -6.3930  -14.3050   34.7240 C.3       1 NON         0.1134
     27 C6         -5.1970  -13.3890   34.3780 C.3       1 NON         0.0730
     28 O2         -9.6120  -16.0920   36.3410 O.3       1 NON        -0.3841
     29 O3         -9.6210  -15.5960   33.5830 O.3       1 NON        -0.3403
     30 O4         -7.7090  -13.3010   33.6670 O.3       1 NON        -0.3401
     31 O5         -6.7140  -13.9340   36.0780 O.3       1 NON        -0.3405
     32 O6         -4.8280  -13.7080   33.0690 O.3       1 NON        -0.3924
     33 C1        -10.0880  -16.8040   33.2190 C.3       1 NON         0.1854
     34 C2        -11.5840  -16.8000   32.9070 C.3       1 NON         0.1210
     35 C3        -12.0590  -18.1210   32.3070 C.3       1 NON         0.1111
     36 C4        -11.0880  -18.7000   31.2910 C.3       1 NON         0.1116
     37 C5         -9.6660  -18.6680   31.8570 C.3       1 NON         0.1130
     38 C6         -8.6470  -19.2610   30.9040 C.3       1 NON         0.0730
     39 C7        -13.0320  -15.4110   34.3400 C.2       1 NON         0.1733
     40 C8        -13.6770  -15.2590   35.6910 C.3       1 NON         0.0257
     41 N2        -12.2930  -16.5070   34.1460 N.am      1 NON        -0.2766
     42 O3        -13.2910  -17.9070   31.6510 O.3       1 NON        -0.3867
     43 O4        -11.5060  -20.0200   30.9670 O.3       1 NON        -0.3865
     44 O5         -9.3120  -17.3260   32.1620 O.3       1 NON        -0.3408
     45 O6         -8.6250  -18.4710   29.7440 O.3       1 NON        -0.3924
     46 O7        -13.1910  -14.5490   33.4760 O.2       1 NON        -0.3974
     47 C1         -4.0150  -16.9560   38.9170 C.3       1 NON         0.1823
     48 C2         -4.8870  -16.9500   37.6670 C.3       1 NON         0.1211
     49 C3         -6.1510  -16.1580   37.9780 C.3       1 NON         0.1176
     50 C4         -6.9130  -16.8030   39.1250 C.3       1 NON         0.1120
     51 C5         -5.9810  -17.0170   40.3190 C.3       1 NON         0.1134
     52 C6         -6.6160  -17.9220   41.3520 C.3       1 NON         0.0796
     53 C7         -3.9650  -16.9640   35.3740 C.2       1 NON         0.1733
     54 C8         -3.0430  -16.2850   34.4090 C.3       1 NON         0.0257
     55 N2         -4.0780  -16.4080   36.5900 N.am      1 NON        -0.2766
     56 O1         -2.7810  -17.6100   38.6740 O.3       1 NON        -0.3651
     57 O3         -6.9380  -16.1270   36.7860 O.3       1 NON        -0.3403
     58 O4         -7.9600  -15.9310   39.5010 O.3       1 NON        -0.3865
     59 O5         -4.7100  -17.5680   39.9870 O.3       1 NON        -0.3409
     60 O6         -6.1680  -17.5110   42.6250 O.3       1 NON        -0.3460
     61 O7         -4.5800  -17.9840   35.0360 O.2       1 NON        -0.3974
     62 C1         -6.7180  -16.5200   43.3440 C.3       1 NON         0.1880
     63 C2         -5.9840  -16.1060   44.5990 C.3       1 NON         0.1341
     64 C3         -5.9770  -17.2980   45.5570 C.3       1 NON         0.1141
     65 C4         -7.4100  -17.7620   45.8270 C.3       1 NON         0.1119
     66 C5         -8.1770  -17.9940   44.5300 C.3       1 NON         0.1130
     67 C6         -9.6540  -18.3030   44.7540 C.3       1 NON         0.0730
     68 O2         -4.6740  -15.6890   44.2520 O.3       1 NON        -0.3841
     69 O3         -5.3050  -16.9040   46.7420 O.3       1 NON        -0.3864
     70 O4         -7.3590  -18.9690   46.5500 O.3       1 NON        -0.3865
     71 O5         -8.0270  -16.8470   43.6950 O.3       1 NON        -0.3405
     72 O6        -10.2590  -17.3150   45.5320 O.3       1 NON        -0.3924
     73 H1        -12.1459  -12.6233   28.9670 H         1 NON         0.0937
     74 H2        -10.4171  -11.7769   27.3337 H         1 NON         0.0671
     75 H3         -9.4102  -13.8271   26.5419 H         1 NON         0.0648
     76 H4        -12.1621  -14.6015   25.4764 H         1 NON         0.0646
     77 H5        -10.6240  -15.7126   27.8634 H         1 NON         0.0621
     78 H6        -12.6314  -17.1035   28.2323 H         1 NON         0.0255
     79 H7        -11.8650  -17.4713   26.6499 H         1 NON         0.0255
     80 H8        -13.3544  -16.4693   26.7152 H         1 NON         0.0255
     81 H9        -12.7062  -11.5313   27.0895 H         1 NON         0.2101
     82 H10       -11.1324  -12.7406   24.5449 H         1 NON         0.2100
     83 H11       -10.3166  -15.3252   24.3103 H         1 NON         0.2100
     84 H12        -6.8760  -12.7080   32.0548 H         1 NON         0.0938
     85 H13        -7.7494  -10.7584   31.4112 H         1 NON         0.0671
     86 H14       -10.0119  -11.2444   33.4085 H         1 NON         0.0648
     87 H15       -10.0469  -11.3987   30.3577 H         1 NON         0.0647
     88 H16       -10.2545  -13.6379   32.4377 H         1 NON         0.0647
     89 H17       -11.5950  -14.3384   30.5788 H         1 NON         0.0587
     90 H18       -10.0022  -15.1541   30.4235 H         1 NON         0.0587
     91 H19        -7.7567  -10.8259   34.2490 H         1 NON         0.2101
     92 H20        -9.5048   -9.0513   32.9104 H         1 NON         0.2100
     93 H21       -11.9801  -11.9627   32.3569 H         1 NON         0.2100
     94 H22        -7.9191  -14.5101   37.6045 H         1 NON         0.0938
     95 H23        -9.4137  -14.1353   35.7212 H         1 NON         0.0671
     96 H24        -8.0039  -16.5097   34.4249 H         1 NON         0.0651
     97 H25        -7.0095  -15.0428   32.7604 H         1 NON         0.0651
     98 H26        -5.9332  -15.2966   34.8474 H         1 NON         0.0647
     99 H27        -4.3603  -13.5777   35.0668 H         1 NON         0.0584
    100 H28        -5.4947  -12.3321   34.4434 H         1 NON         0.0584
    101 H29        -9.8667  -15.8371   37.2201 H         1 NON         0.2101
    102 H30        -4.0914  -13.1677   32.8082 H         1 NON         0.2095
    103 H31        -9.9512  -17.4739   34.0806 H         1 NON         0.0935
    104 H32       -11.7900  -16.0015   32.1791 H         1 NON         0.0633
    105 H33       -12.1946  -18.8475   33.1218 H         1 NON         0.0645
    106 H34       -11.1132  -18.0878   30.3774 H         1 NON         0.0647
    107 H35        -9.6516  -19.2583   32.7851 H         1 NON         0.0647
    108 H36        -8.9317  -20.2921   30.6477 H         1 NON         0.0584
    109 H37        -7.6525  -19.2612   31.3740 H         1 NON         0.0584
    110 H38       -14.2524  -14.3219   35.7192 H         1 NON         0.0467
    111 H39       -12.8989  -15.2350   36.4682 H         1 NON         0.0467
    112 H40       -14.3512  -16.1089   35.8732 H         1 NON         0.0467
    113 H41       -12.2222  -17.1653   34.8954 H         1 NON         0.1857
    114 H42       -13.9173  -17.5442   32.2664 H         1 NON         0.2100
    115 H43       -10.9195  -20.3857   30.3152 H         1 NON         0.2100
    116 H44        -9.4871  -18.4722   29.3450 H         1 NON         0.2095
    117 H45        -3.8009  -15.9133   39.1945 H         1 NON         0.0932
    118 H46        -5.1768  -17.9783   37.4053 H         1 NON         0.0633
    119 H47        -5.8813  -15.1309   38.2648 H         1 NON         0.0649
    120 H48        -7.3265  -17.7697   38.8017 H         1 NON         0.0647
    121 H49        -5.8105  -16.0314   40.7768 H         1 NON         0.0647
    122 H50        -6.3167  -18.9646   41.1695 H         1 NON         0.0587
    123 H51        -7.7116  -17.8400   41.2973 H         1 NON         0.0587
    124 H52        -3.0395  -16.8350   33.4564 H         1 NON         0.0467
    125 H53        -2.0251  -16.2666   34.8255 H         1 NON         0.0467
    126 H54        -3.3871  -15.2546   34.2362 H         1 NON         0.0467
    127 H55        -3.5713  -15.5641   36.7662 H         1 NON         0.1857
    128 H56        -2.9441  -18.5194   38.4521 H         1 NON         0.2126
    129 H57        -8.4469  -16.3146   40.2208 H         1 NON         0.2100
    130 H58        -6.7495  -15.6384   42.6869 H         1 NON         0.0937
    131 H59        -6.5097  -15.2655   45.0757 H         1 NON         0.0671
    132 H60        -5.4241  -18.1300   45.0965 H         1 NON         0.0648
    133 H61        -7.9314  -16.9966   46.4206 H         1 NON         0.0647
    134 H62        -7.7284  -18.8590   44.0197 H         1 NON         0.0647
    135 H63        -9.7451  -19.2714   45.2677 H         1 NON         0.0584
    136 H64       -10.1624  -18.3554   43.7799 H         1 NON         0.0584
    137 H65        -4.7252  -14.9494   43.6580 H         1 NON         0.2101
    138 H66        -5.7756  -16.1852   47.1475 H         1 NON         0.2100
    139 H67        -6.8821  -18.8317   47.3600 H         1 NON         0.2100
    140 H68        -9.8255  -17.2684   46.3760 H         1 NON         0.2095
@<TRIPOS>BOND
     1    1    2 1  
     2    1   10 1  
     3   21    1 1  
     4    2    3 1  
     5    2    7 1  
     6    3    4 1  
     7    3    8 1  
     8    5    4 1  
     9    4    9 1  
    10    5    6 1  
    11   10    5 1  
    12   11   12 1  
    13   11   20 1  
    14   30   11 1  
    15   12   13 1  
    16   12   17 1  
    17   13   14 1  
    18   13   18 1  
    19   15   14 1  
    20   14   19 1  
    21   15   16 1  
    22   20   15 1  
    23   16   21 1  
    24   22   23 1  
    25   22   31 1  
    26   57   22 1  
    27   23   24 1  
    28   23   28 1  
    29   24   25 1  
    30   24   29 1  
    31   26   25 1  
    32   25   30 1  
    33   26   27 1  
    34   31   26 1  
    35   27   32 1  
    36   29   33 1  
    37   33   34 1  
    38   33   44 1  
    39   34   35 1  
    40   34   41 1  
    41   35   36 1  
    42   35   42 1  
    43   37   36 1  
    44   36   43 1  
    45   37   38 1  
    46   44   37 1  
    47   38   45 1  
    48   39   40 1  
    49   41   39 am 
    50   39   46 2  
    51   48   47 1  
    52   47   56 1  
    53   47   59 1  
    54   48   49 1  
    55   55   48 1  
    56   49   50 1  
    57   49   57 1  
    58   50   51 1  
    59   50   58 1  
    60   51   52 1  
    61   59   51 1  
    62   52   60 1  
    63   53   54 1  
    64   53   55 am 
    65   53   61 2  
    66   60   62 1  
    67   62   63 1  
    68   62   71 1  
    69   63   64 1  
    70   63   68 1  
    71   64   65 1  
    72   64   69 1  
    73   65   66 1  
    74   65   70 1  
    75   66   67 1  
    76   66   71 1  
    77   67   72 1  
    78    1   73 1  
    79    2   74 1  
    80    3   75 1  
    81    4   76 1  
    82    5   77 1  
    83    6   78 1  
    84    6   79 1  
    85    6   80 1  
    86    7   81 1  
    87    8   82 1  
    88    9   83 1  
    89   11   84 1  
    90   12   85 1  
    91   13   86 1  
    92   14   87 1  
    93   15   88 1  
    94   16   89 1  
    95   16   90 1  
    96   17   91 1  
    97   18   92 1  
    98   19   93 1  
    99   22   94 1  
   100   23   95 1  
   101   24   96 1  
   102   25   97 1  
   103   26   98 1  
   104   27   99 1  
   105   27  100 1  
   106   28  101 1  
   107   32  102 1  
   108   33  103 1  
   109   34  104 1  
   110   35  105 1  
   111   36  106 1  
   112   37  107 1  
   113   38  108 1  
   114   38  109 1  
   115   40  110 1  
   116   40  111 1  
   117   40  112 1  
   118   41  113 1  
   119   42  114 1  
   120   43  115 1  
   121   45  116 1  
   122   47  117 1  
   123   48  118 1  
   124   49  119 1  
   125   50  120 1  
   126   51  121 1  
   127   52  122 1  
   128   52  123 1  
   129   54  124 1  
   130   54  125 1  
   131   54  126 1  
   132   55  127 1  
   133   56  128 1  
   134   58  129 1  
   135   62  130 1  
   136   63  131 1  
   137   64  132 1  
   138   65  133 1  
   139   66  134 1  
   140   67  135 1  
   141   67  136 1  
   142   68  137 1  
   143   69  138 1  
   144   70  139 1  
   145   72  140 1  
@<TRIPOS>SUBSTRUCTURE
     1 NON         1

