3dcw_ligand
  -I-interpret- 

 26 27  0  0  0  0  0  0  0  0999 V2000
   -5.4350   -0.3930   16.2740 N   0  0  0  0  0
   -3.6220    3.6100   15.2860 C   0  0  0  0  0
   -4.7550    4.2550   14.8040 C   0  0  0  0  0
   -4.6560    5.4720   14.0860 C   0  0  0  0  0
   -3.3160    5.8910   13.8480 C   0  0  0  0  0
   -1.8810    7.8730   13.1870 C   0  0  0  0  0
   -5.4950    1.0490   18.3050 O   0  0  0  0  0
   -7.3680    1.1190   16.7460 O   0  0  0  0  0
   -5.9750    0.9350   16.9030 S   0  0  0  0  0
   -5.2300    2.2940   16.0620 C   0  0  0  0  0
   -3.9160    2.4640   15.9490 N   0  0  0  0  0
   -6.1370    3.4830   15.3160 S   0  0  0  0  0
   -2.1750    5.2170   14.2850 C   0  0  0  0  0
   -2.2870    4.0090   14.9960 C   0  0  0  0  0
   -3.1140    7.0290   13.0770 O   0  0  0  0  0
   -1.6970    8.4610   14.6020 C   0  0  0  0  0
   -4.8491   -1.0181   16.8275 H   0  0  0  0  0
   -5.6691   -0.6331   15.3107 H   0  0  0  0  0
   -5.5252    6.0357   13.7470 H   0  0  0  0  0
   -1.9757    8.7024   12.4861 H   0  0  0  0  0
   -1.0193    7.2423   12.9685 H   0  0  0  0  0
   -1.1888    5.6303   14.0735 H   0  0  0  0  0
   -1.4194    3.4240   15.3011 H   0  0  0  0  0
   -2.5563    9.0842   14.8496 H   0  0  0  0  0
   -1.6158    7.6484   15.3240 H   0  0  0  0  0
   -0.7895    9.0641   14.6282 H   0  0  0  0  0
  9  1  1  0  0  0
  2  3  4  0  0  0
 11  2  4  0  0  0
  2 14  4  0  0  0
  3  4  4  0  0  0
  3 12  4  0  0  0
  4  5  4  0  0  0
  5 13  4  0  0  0
  5 15  1  0  0  0
 15  6  1  0  0  0
  6 16  1  0  0  0
  9  7  2  0  0  0
  9  8  2  0  0  0
 10  9  1  0  0  0
 10 11  4  0  0  0
 10 12  4  0  0  0
 13 14  4  0  0  0
  1 17  1  0  0  0
  1 18  1  0  0  0
  4 19  1  0  0  0
  6 20  1  0  0  0
  6 21  1  0  0  0
 13 22  1  0  0  0
 14 23  1  0  0  0
 16 24  1  0  0  0
 16 25  1  0  0  0
 16 26  1  0  0  0
M  END
$$$$
