3eax_ligand
  -I-interpret- 

 86 90  0  0  0  0  0  0  0  0999 V2000
   39.0610   20.1840   66.4650 C   0  0  0  0  0
   38.0960   19.7160   67.4540 C   0  0  0  0  0
   37.7250   18.1870   67.5110 C   0  0  0  0  0
   38.3640   17.2550   66.5610 C   0  0  0  0  0
   39.3540   17.7090   65.5410 C   0  0  0  0  0
   39.6880   19.2530   65.5270 C   0  0  0  0  0
   40.0220   16.6860   64.5380 C   0  0  0  0  0
   41.2770   14.8760   65.9010 C   0  0  0  0  0
   42.5290   15.6950   66.0930 C   0  0  0  0  0
   43.6310   15.2590   66.9610 C   0  0  0  0  0
   43.5380   13.9930   67.6780 C   0  0  0  0  0
   42.3310   13.1270   67.5400 C   0  0  0  0  0
   41.2360   13.5900   66.6570 C   0  0  0  0  0
   42.2480   11.8010   68.2990 C   0  0  0  0  0
   42.4710   11.7870   69.8560 C   0  0  0  0  0
   43.7370   11.0780   70.4450 C   0  0  0  0  0
   44.1490   11.3840   71.9140 C   0  0  0  0  0
   45.0980   13.0140   73.7520 C   0  0  0  0  0
   44.6430   14.5040   74.1230 C   0  0  0  0  0
   43.8990   15.0420   71.7230 C   0  0  0  0  0
   44.8680   13.8480   71.3220 C   0  0  0  0  0
   44.6740   12.6730   72.3020 N   0  0  0  0  0
   43.4830   14.9040   73.1750 N   0  0  0  0  0
   40.1960   15.3090   65.0470 O   0  0  0  0  0
   42.0070   10.7380   67.7150 O   0  0  0  0  0
   44.3940   10.2750   69.7640 O   0  0  0  0  0
   44.0090   10.4560   72.7380 O   0  0  0  0  0
   42.1980   15.1260   73.7160 C   0  0  0  0  0
   41.0070   15.4920   72.7960 C   0  0  0  0  0
   39.6280   14.8530   73.1470 C   0  0  0  0  0
   39.3660   13.3290   72.8740 C   0  0  0  0  0
   40.0130   12.5250   75.3030 C   0  0  0  0  0
   39.9440   12.2890   73.8450 C   0  0  0  0  0
   40.4600   10.9930   73.3220 C   0  0  0  0  0
   41.0160    9.9890   74.2310 C   0  0  0  0  0
   41.0700   10.2570   75.6720 C   0  0  0  0  0
   40.5690   11.5400   76.2730 C   0  0  0  0  0
   39.4760   12.0580   78.5290 C   0  0  0  0  0
   37.7170   14.1860   78.4040 C   0  0  0  0  0
   39.1490   13.5860   78.6920 C   0  0  0  0  0
   40.1980   14.5460   79.1300 C   0  0  0  0  0
   39.9270   15.9840   79.2900 C   0  0  0  0  0
   38.4840   16.5360   78.9900 C   0  0  0  0  0
   37.4390   15.6140   78.5600 C   0  0  0  0  0
   41.9550   15.0220   74.9460 O   0  0  0  0  0
   41.1340   16.2490   71.8240 O   0  0  0  0  0
   38.6990   12.9980   71.8830 O   0  0  0  0  0
   40.6430   11.7700   77.6880 O   0  0  0  0  0
   39.3184   21.2424   66.4245 H   0  0  0  0  0
   37.6356   20.4193   68.1479 H   0  0  0  0  0
   37.0051   17.8210   68.2430 H   0  0  0  0  0
   38.1033   16.1976   66.6063 H   0  0  0  0  0
   39.9254   17.2056   64.7611 H   0  0  0  0  0
   40.7446   19.2913   65.7922 H   0  0  0  0  0
   39.3291   19.5863   64.5532 H   0  0  0  0  0
   41.0220   17.0665   64.3298 H   0  0  0  0  0
   39.3544   16.6154   63.6793 H   0  0  0  0  0
   42.6194   16.6460   65.5680 H   0  0  0  0  0
   44.5186   15.8823   67.0691 H   0  0  0  0  0
   44.3587   13.6759   68.3215 H   0  0  0  0  0
   40.3537   12.9583   66.5538 H   0  0  0  0  0
   41.6272   11.2220   70.2521 H   0  0  0  0  0
   42.5882   12.8358   70.1289 H   0  0  0  0  0
   44.6217   12.3135   74.4379 H   0  0  0  0  0
   46.1824   12.9404   73.8341 H   0  0  0  0  0
   45.4795   15.1927   74.0043 H   0  0  0  0  0
   44.3122   14.5483   75.1607 H   0  0  0  0  0
   43.0117   15.0128   71.0905 H   0  0  0  0  0
   44.4206   15.9894   71.5870 H   0  0  0  0  0
   45.9020   14.1900   71.3667 H   0  0  0  0  0
   44.6358   13.5174   70.3096 H   0  0  0  0  0
   38.9195   15.3684   72.4985 H   0  0  0  0  0
   39.5547   14.9490   74.2303 H   0  0  0  0  0
   39.6363   13.4719   75.6897 H   0  0  0  0  0
   40.4232   10.7902   72.2517 H   0  0  0  0  0
   41.3893    9.0436   73.8374 H   0  0  0  0  0
   41.4892    9.4972   76.3316 H   0  0  0  0  0
   38.6141   11.5978   78.0458 H   0  0  0  0  0
   39.6977   11.6720   79.5240 H   0  0  0  0  0
   36.9164   13.5204   78.0812 H   0  0  0  0  0
   41.2003   14.1721   79.3393 H   0  0  0  0  0
   40.5686   16.4708   78.5555 H   0  0  0  0  0
   40.0841   16.1797   80.3507 H   0  0  0  0  0
   38.6168   17.2162   78.1487 H   0  0  0  0  0
   38.1328   16.9271   79.9449 H   0  0  0  0  0
   36.4385   15.9934   78.3523 H   0  0  0  0  0
  1  2  2  0  0  0
  6  1  1  0  0  0
  3  2  1  0  0  0
  4  3  2  0  0  0
  5  4  1  0  0  0
  5  6  1  0  0  0
  7  5  1  0  0  0
 24  7  1  0  0  0
  8  9  4  0  0  0
 13  8  4  0  0  0
  8 24  1  0  0  0
 10  9  4  0  0  0
 11 10  4  0  0  0
 12 11  4  0  0  0
 12 13  4  0  0  0
 14 12  1  0  0  0
 15 14  1  0  0  0
 14 25  2  0  0  0
 16 15  1  0  0  0
 17 16  1  0  0  0
 16 26  2  0  0  0
 22 17  1  0  0  0
 17 27  2  0  0  0
 19 18  1  0  0  0
 18 22  1  0  0  0
 23 19  1  0  0  0
 20 21  1  0  0  0
 23 20  1  0  0  0
 21 22  1  0  0  0
 28 23  1  0  0  0
 29 28  1  0  0  0
 28 45  2  0  0  0
 30 29  1  0  0  0
 29 46  2  0  0  0
 31 30  1  0  0  0
 33 31  1  0  0  0
 31 47  2  0  0  0
 32 33  4  0  0  0
 37 32  4  0  0  0
 33 34  4  0  0  0
 35 34  4  0  0  0
 36 35  4  0  0  0
 37 36  4  0  0  0
 48 37  1  0  0  0
 38 40  1  0  0  0
 38 48  1  0  0  0
 40 39  1  0  0  0
 39 44  2  0  0  0
 40 41  2  0  0  0
 41 42  1  0  0  0
 42 43  1  0  0  0
 43 44  1  0  0  0
  1 49  1  0  0  0
  2 50  1  0  0  0
  3 51  1  0  0  0
  4 52  1  0  0  0
  5 53  1  0  0  0
  6 54  1  0  0  0
  6 55  1  0  0  0
  7 56  1  0  0  0
  7 57  1  0  0  0
  9 58  1  0  0  0
 10 59  1  0  0  0
 11 60  1  0  0  0
 13 61  1  0  0  0
 15 62  1  0  0  0
 15 63  1  0  0  0
 18 64  1  0  0  0
 18 65  1  0  0  0
 19 66  1  0  0  0
 19 67  1  0  0  0
 20 68  1  0  0  0
 20 69  1  0  0  0
 21 70  1  0  0  0
 21 71  1  0  0  0
 30 72  1  0  0  0
 30 73  1  0  0  0
 32 74  1  0  0  0
 34 75  1  0  0  0
 35 76  1  0  0  0
 36 77  1  0  0  0
 38 78  1  0  0  0
 38 79  1  0  0  0
 39 80  1  0  0  0
 41 81  1  0  0  0
 42 82  1  0  0  0
 42 83  1  0  0  0
 43 84  1  0  0  0
 43 85  1  0  0  0
 44 86  1  0  0  0
M  END
$$$$
