### 
### Created by X-TOOL on Mon Sep 10 21:12:51 2018
### 

@<TRIPOS>MOLECULE
1tpz_ligand
   40    42     1     0     0
SMALL
GAST_HUCK


@<TRIPOS>ATOM
      1 PB          4.9510    5.5190   32.7040 P.3       1 GDP         0.2069
      2 O1B         3.9220    4.5980   32.2290 O.co2     1 GDP        -0.5891
      3 O2B         5.3360    5.3640   34.1410 O.co2     1 GDP        -0.5891
      4 O3B         6.3090    5.4340   31.9970 O.co2     1 GDP        -0.5891
      5 O3A         4.3510    7.1030   32.7110 O.3       1 GDP        -0.1548
      6 PA          3.8330    7.8440   31.3630 P.3       1 GDP         0.3276
      7 O1A         4.8610    8.9160   31.4290 O.co2     1 GDP        -0.5556
      8 O2A         3.8560    7.1130   30.0680 O.co2     1 GDP        -0.5556
      9 O5          2.5000    8.4910   31.8890 O.3       1 GDP        -0.2436
     10 C5          1.2420    7.8410   31.9920 C.3       1 GDP         0.1132
     11 C4          0.1670    8.8450   31.5110 C.3       1 GDP         0.1189
     12 O4         -0.0550   10.0170   32.3770 O.3       1 GDP        -0.3363
     13 C3          0.4020    9.5530   30.1280 C.3       1 GDP         0.1150
     14 O3         -0.9380    9.6760   29.5610 O.3       1 GDP        -0.3864
     15 C2          1.0120   10.9170   30.4740 C.3       1 GDP         0.1387
     16 O2          0.8130   11.9380   29.5040 O.3       1 GDP        -0.3836
     17 C1          0.3910   11.2280   31.8040 C.3       1 GDP         0.1992
     18 N9          1.2990   11.9070   32.7980 N.pl3     1 GDP        -0.2101
     19 C8          2.5650   11.6420   33.2630 C.2       1 GDP         0.0957
     20 N7          2.9830   12.5090   34.1400 N.2       1 GDP        -0.3235
     21 C5          1.9450   13.4160   34.2840 C.2       1 GDP         0.0926
     22 C6          1.7760   14.6090   35.1020 C.2       1 GDP         0.2135
     23 O6          2.6000   15.0950   35.9060 O.2       1 GDP        -0.4091
     24 N1          0.4910   15.2500   34.9140 N.am      1 GDP        -0.1839
     25 C2         -0.5110   14.8020   34.0460 C.2       1 GDP         0.2340
     26 N2         -1.6280   15.5230   34.0060 N.pl3     1 GDP        -0.2807
     27 N3         -0.3640   13.6790   33.2700 N.2       1 GDP        -0.2765
     28 C4          0.8720   13.0640   33.4520 C.2       1 GDP         0.1159
     29 H1          1.0500    7.5551   33.0367 H         1 GDP         0.0648
     30 H2          1.2290    6.9425   31.3576 H         1 GDP         0.0648
     31 H3         -0.7676    8.2679   31.4512 H         1 GDP         0.0651
     32 H4          1.0657    8.9800   29.4639 H         1 GDP         0.0648
     33 H5         -0.8839   10.0999   28.7125 H         1 GDP         0.2100
     34 H6          2.0989   10.8011   30.5974 H         1 GDP         0.0676
     35 H7         -0.1183   12.0820   29.3840 H         1 GDP         0.2101
     36 H8         -0.4715   11.8876   31.6280 H         1 GDP         0.0998
     37 H9          3.1591   10.7918   32.9311 H         1 GDP         0.1179
     38 H10         0.3055   16.0765   35.4455 H         1 GDP         0.2515
     39 H11        -2.4006   15.2418   33.3855 H         1 GDP         0.1897
     40 H12        -1.7204   16.3626   34.5955 H         1 GDP         0.1897
@<TRIPOS>BOND
     1    1    2 ar 
     2    1    3 ar 
     3    1    4 ar 
     4    1    5 1  
     5    5    6 1  
     6    6    7 ar 
     7    6    8 ar 
     8    6    9 1  
     9    9   10 1  
    10   10   11 1  
    11   11   12 1  
    12   11   13 1  
    13   12   17 1  
    14   13   14 1  
    15   13   15 1  
    16   15   16 1  
    17   15   17 1  
    18   17   18 1  
    19   18   19 1  
    20   18   28 1  
    21   19   20 2  
    22   20   21 1  
    23   21   22 1  
    24   21   28 2  
    25   22   23 2  
    26   22   24 am 
    27   24   25 1  
    28   25   26 1  
    29   25   27 2  
    30   27   28 1  
    31   10   29 1  
    32   10   30 1  
    33   11   31 1  
    34   13   32 1  
    35   14   33 1  
    36   15   34 1  
    37   16   35 1  
    38   17   36 1  
    39   19   37 1  
    40   24   38 1  
    41   26   39 1  
    42   26   40 1  
@<TRIPOS>SUBSTRUCTURE
     1 GDP         1

