1tpz_ligand
  -I-interpret- 

 43 45  0  0  0  0  0  0  0  0999 V2000
    4.9510    5.5190   32.7040 P   0  0  0  0  0
    3.9220    4.5980   32.2290 O   0  0  0  0  0
    5.3360    5.3640   34.1410 O   0  0  0  0  0
    6.3090    5.4340   31.9970 O   0  0  0  0  0
    4.3510    7.1030   32.7110 O   0  0  0  0  0
    3.8330    7.8440   31.3630 P   0  0  0  0  0
    4.8610    8.9160   31.4290 O   0  0  0  0  0
    3.8560    7.1130   30.0680 O   0  0  0  0  0
    2.5000    8.4910   31.8890 O   0  0  0  0  0
    1.2420    7.8410   31.9920 C   0  0  0  0  0
    0.1670    8.8450   31.5110 C   0  0  0  0  0
   -0.0550   10.0170   32.3770 O   0  0  0  0  0
    0.4020    9.5530   30.1280 C   0  0  0  0  0
   -0.9380    9.6760   29.5610 O   0  0  0  0  0
    1.0120   10.9170   30.4740 C   0  0  0  0  0
    0.8130   11.9380   29.5040 O   0  0  0  0  0
    0.3910   11.2280   31.8040 C   0  0  0  0  0
    1.2990   11.9070   32.7980 N   0  0  0  0  0
    2.5650   11.6420   33.2630 C   0  0  0  0  0
    2.9830   12.5090   34.1400 N   0  0  0  0  0
    1.9450   13.4160   34.2840 C   0  0  0  0  0
    1.7760   14.6090   35.1020 C   0  0  0  0  0
    2.6000   15.0950   35.9060 O   0  0  0  0  0
    0.4910   15.2500   34.9140 N   0  0  0  0  0
   -0.5110   14.8020   34.0460 C   0  0  0  0  0
   -1.6280   15.5230   34.0060 N   0  0  0  0  0
   -0.3640   13.6790   33.2700 N   0  0  0  0  0
    0.8720   13.0640   33.4520 C   0  0  0  0  0
    6.0137    6.0075   34.3608 H   0  0  0  0  0
    6.9096    6.0765   32.3818 H   0  0  0  0  0
    3.1775    6.4338   30.0731 H   0  0  0  0  0
    1.0502    7.5372   33.0211 H   0  0  0  0  0
    1.2251    6.9387   31.3808 H   0  0  0  0  0
   -0.6590    8.1341   31.4894 H   0  0  0  0  0
    1.0583    9.0403   29.4247 H   0  0  0  0  0
   -0.8834   10.1043   28.7036 H   0  0  0  0  0
    2.1010   10.8760   30.4982 H   0  0  0  0  0
    1.2272   12.7497   29.8059 H   0  0  0  0  0
   -0.4135   11.9342   31.5988 H   0  0  0  0  0
    3.1597   10.7911   32.9308 H   0  0  0  0  0
    0.3018   16.0930   35.4561 H   0  0  0  0  0
   -2.3931   15.2444   33.3916 H   0  0  0  0  0
   -1.7195   16.3545   34.5897 H   0  0  0  0  0
  1  2  2  0  0  0
  1  3  1  0  0  0
  1  4  1  0  0  0
  1  5  1  0  0  0
  5  6  1  0  0  0
  6  7  2  0  0  0
  6  8  1  0  0  0
  6  9  1  0  0  0
  9 10  1  0  0  0
 10 11  1  0  0  0
 11 12  1  0  0  0
 11 13  1  0  0  0
 12 17  1  0  0  0
 13 14  1  0  0  0
 13 15  1  0  0  0
 15 16  1  0  0  0
 15 17  1  0  0  0
 17 18  1  0  0  0
 18 19  4  0  0  0
 18 28  4  0  0  0
 19 20  4  0  0  0
 20 21  4  0  0  0
 21 22  1  0  0  0
 21 28  4  0  0  0
 22 23  2  0  0  0
 22 24  1  0  0  0
 24 25  1  0  0  0
 25 26  1  0  0  0
 25 27  2  0  0  0
 27 28  1  0  0  0
  3 29  1  0  0  0
  4 30  1  0  0  0
  8 31  1  0  0  0
 10 32  1  0  0  0
 10 33  1  0  0  0
 11 34  1  0  0  0
 13 35  1  0  0  0
 14 36  1  0  0  0
 15 37  1  0  0  0
 16 38  1  0  0  0
 17 39  1  0  0  0
 19 40  1  0  0  0
 24 41  1  0  0  0
 26 42  1  0  0  0
 26 43  1  0  0  0
M  END
$$$$
