3owb_ligand
  -I-interpret- 

 44 46  0  0  0  0  0  0  0  0999 V2000
   -2.3020    5.6650   28.2240 C   0  0  0  0  0
   -2.7530    6.2040   26.9840 O   0  0  0  0  0
   -1.7220    6.7420   26.2210 C   0  0  0  0  0
   -2.0730    7.2370   24.9860 C   0  0  0  0  0
   -1.1180    7.7730   24.1530 C   0  0  0  0  0
   -0.4000    6.7690   26.6130 C   0  0  0  0  0
    0.5500    7.3460   25.7720 C   0  0  0  0  0
    0.2080    7.8470   24.5370 C   0  0  0  0  0
    1.1500    8.5410   23.6610 C   0  0  0  0  0
    1.4450    8.1640   22.3670 C   0  0  0  0  0
    0.9770    7.0700   21.5930 C   0  0  0  0  0
    0.4040    6.1250   22.0980 O   0  0  0  0  0
    1.1500    7.2530   20.2360 N   0  0  0  0  0
    0.8800    6.1460   19.3390 C   0  0  0  0  0
   -0.2920    6.4240   18.4370 C   0  0  0  0  0
    2.3310    9.0790   21.8850 N   0  0  0  0  0
    2.6150   10.0560   22.7730 N   0  0  0  0  0
    1.9010    9.7390   23.8590 C   0  0  0  0  0
    1.9370   10.5780   25.0230 C   0  0  0  0  0
    0.7410   11.0650   25.5290 C   0  0  0  0  0
    0.7320   11.8310   26.6740 C   0  0  0  0  0
   -0.7600   12.4830   27.3490 Cl  0  0  0  0  0
    1.9290   12.0540   27.3090 C   0  0  0  0  0
    1.9270   12.7630   28.4930 O   0  0  0  0  0
    3.1360   11.5880   26.8220 C   0  0  0  0  0
    3.1370   10.8700   25.6490 C   0  0  0  0  0
    4.3550   10.4290   25.1420 O   0  0  0  0  0
   -1.5804    4.8708   28.0325 H   0  0  0  0  0
   -1.8299    6.4529   28.8109 H   0  0  0  0  0
   -3.1520    5.2606   28.7735 H   0  0  0  0  0
   -3.1143    7.2043   24.6655 H   0  0  0  0  0
   -1.4124    8.1462   23.1721 H   0  0  0  0  0
   -0.1011    6.3434   27.5709 H   0  0  0  0  0
    1.5879    7.4016   26.1003 H   0  0  0  0  0
    1.4627    8.1523   19.8700 H   0  0  0  0  0
    0.6456    5.2685   19.9416 H   0  0  0  0  0
    1.7604    5.9901   18.7155 H   0  0  0  0  0
   -1.1817    6.5971   19.0424 H   0  0  0  0  0
   -0.0834    7.3080   17.8344 H   0  0  0  0  0
   -0.4568    5.5676   17.7831 H   0  0  0  0  0
   -0.1957   10.8407   25.0186 H   0  0  0  0  0
    2.8263   12.8406   28.8198 H   0  0  0  0  0
    4.0658   11.7852   27.3556 H   0  0  0  0  0
    5.0658   10.7307   25.7123 H   0  0  0  0  0
  1  2  1  0  0  0
  2  3  1  0  0  0
  3  4  4  0  0  0
  3  6  4  0  0  0
  4  5  4  0  0  0
  5  8  4  0  0  0
  6  7  4  0  0  0
  7  8  4  0  0  0
  8  9  1  0  0  0
  9 10  4  0  0  0
  9 18  4  0  0  0
 10 11  1  0  0  0
 10 16  4  0  0  0
 11 12  2  0  0  0
 11 13  1  0  0  0
 13 14  1  0  0  0
 14 15  1  0  0  0
 16 17  4  0  0  0
 17 18  4  0  0  0
 18 19  1  0  0  0
 19 20  4  0  0  0
 19 26  4  0  0  0
 20 21  4  0  0  0
 21 22  1  0  0  0
 21 23  4  0  0  0
 23 24  1  0  0  0
 23 25  4  0  0  0
 25 26  4  0  0  0
 26 27  1  0  0  0
  1 28  1  0  0  0
  1 29  1  0  0  0
  1 30  1  0  0  0
  4 31  1  0  0  0
  5 32  1  0  0  0
  6 33  1  0  0  0
  7 34  1  0  0  0
 13 35  1  0  0  0
 14 36  1  0  0  0
 14 37  1  0  0  0
 15 38  1  0  0  0
 15 39  1  0  0  0
 15 40  1  0  0  0
 20 41  1  0  0  0
 24 42  1  0  0  0
 25 43  1  0  0  0
 27 44  1  0  0  0
M  END
$$$$
