2o4s_ligand
  -I-interpret- 

 94 97  0  0  0  0  0  0  0  0999 V2000
    5.3550  -16.4940  -17.3880 C   0  0  0  0  0
    7.1810  -17.9060  -16.3700 C   0  0  0  0  0
    8.1370  -16.9120  -16.8990 N   0  0  0  0  0
    7.7660  -15.8860  -17.7000 C   0  0  0  0  0
    6.4440  -15.7130  -17.9600 N   0  0  0  0  0
   15.0010  -20.6720  -15.2640 C   0  0  0  0  0
   16.2970  -21.1360  -15.1910 C   0  0  0  0  0
   16.6200  -22.2150  -14.3630 C   0  0  0  0  0
   15.6090  -22.8130  -13.6190 C   0  0  0  0  0
   14.2900  -22.3490  -13.6890 C   0  0  0  0  0
   13.9770  -21.2640  -14.5180 C   0  0  0  0  0
    8.5990  -15.1510  -18.2070 O   0  0  0  0  0
    9.5600  -17.1760  -16.5720 C   0  0  0  0  0
   10.0350  -18.4130  -17.2760 C   0  0  0  0  0
   10.7510  -18.1740  -18.3790 N   0  0  0  0  0
   11.3260  -19.2370  -19.2530 C   0  0  0  0  0
    9.8060  -17.2710  -15.0490 C   0  0  0  0  0
   11.2730  -17.5360  -14.7110 C   0  0  0  0  0
    9.2700  -16.0380  -14.2960 C   0  0  0  0  0
    9.7790  -19.5400  -16.8360 O   0  0  0  0  0
    7.1320  -20.7430  -20.4720 C   0  0  0  0  0
    6.3530  -19.5860  -20.4440 C   0  0  0  0  0
    6.9430  -18.3120  -20.5200 C   0  0  0  0  0
    8.3410  -18.1720  -20.5720 C   0  0  0  0  0
    9.1270  -19.3190  -20.5630 C   0  0  0  0  0
    8.5450  -20.6020  -20.5190 C   0  0  0  0  0
   10.6170  -19.1520  -20.6220 C   0  0  0  0  0
   12.8070  -18.9690  -19.5040 C   0  0  0  0  0
   13.6990  -18.7180  -18.2880 C   0  0  0  0  0
   13.8770  -19.9230  -17.3830 C   0  0  0  0  0
   14.5820  -20.9910  -18.1200 N   0  0  0  0  0
   13.9330  -22.1590  -18.4080 C   0  0  0  0  0
   14.7300  -23.2240  -19.1200 C   0  0  0  0  0
   16.0560  -22.7710  -19.4160 O   0  0  0  0  0
   16.9460  -23.7580  -19.7400 C   0  0  0  0  0
   14.9960  -18.2990  -18.7190 O   0  0  0  0  0
   14.7380  -19.5010  -16.1910 C   0  0  0  0  0
   12.7680  -22.4620  -18.1530 O   0  0  0  0  0
   16.8490  -24.3830  -20.9930 C   0  0  0  0  0
   17.7390  -25.4060  -21.2980 C   0  0  0  0  0
   18.7080  -25.8360  -20.3880 C   0  0  0  0  0
   18.7830  -25.2350  -19.1400 C   0  0  0  0  0
   17.9080  -24.1810  -18.8110 C   0  0  0  0  0
   17.9730  -23.5370  -17.4460 C   0  0  0  0  0
   15.8330  -23.9850  -22.0580 C   0  0  0  0  0
    5.8420  -17.2030  -16.1170 C   0  0  0  0  0
    5.0230  -17.2374  -18.1127 H   0  0  0  0  0
    4.5265  -15.8313  -17.1381 H   0  0  0  0  0
    7.5606  -18.3307  -15.4407 H   0  0  0  0  0
    7.0477  -18.7145  -17.0888 H   0  0  0  0  0
    6.1915  -14.9712  -18.6130 H   0  0  0  0  0
   17.0765  -20.6575  -15.7839 H   0  0  0  0  0
   17.6450  -22.5806  -14.3018 H   0  0  0  0  0
   15.8472  -23.6565  -12.9710 H   0  0  0  0  0
   13.5091  -22.8304  -13.1003 H   0  0  0  0  0
   12.9556  -20.8887  -14.5803 H   0  0  0  0  0
   10.1410  -16.3250  -16.9275 H   0  0  0  0  0
   10.9148  -17.2016  -18.6399 H   0  0  0  0  0
   11.1965  -20.2077  -18.7744 H   0  0  0  0  0
    9.2379  -18.1346  -14.7032 H   0  0  0  0  0
   11.5840  -18.4782  -15.1622 H   0  0  0  0  0
   11.8869  -16.7245  -15.1017 H   0  0  0  0  0
   11.3905  -17.5936  -13.6289 H   0  0  0  0  0
    9.7697  -15.1426  -14.6656 H   0  0  0  0  0
    8.1962  -15.9510  -14.4618 H   0  0  0  0  0
    9.4663  -16.1513  -13.2298 H   0  0  0  0  0
    6.6687  -21.7295  -20.4582 H   0  0  0  0  0
    5.2694  -19.6710  -20.3619 H   0  0  0  0  0
    6.3105  -17.4245  -20.5388 H   0  0  0  0  0
    8.7995  -17.1842  -20.6184 H   0  0  0  0  0
    9.1802  -21.4878  -20.5210 H   0  0  0  0  0
   11.0052  -19.9667  -21.2332 H   0  0  0  0  0
   10.8107  -18.1559  -21.0201 H   0  0  0  0  0
   12.8424  -18.0487  -20.0870 H   0  0  0  0  0
   13.1936  -19.8768  -19.9672 H   0  0  0  0  0
   13.1886  -17.9484  -17.7089 H   0  0  0  0  0
   12.9054  -20.2880  -17.0501 H   0  0  0  0  0
   15.5498  -20.8576  -18.4131 H   0  0  0  0  0
   14.2282  -23.4645  -20.0573 H   0  0  0  0  0
   14.7984  -24.0977  -18.4718 H   0  0  0  0  0
   15.5519  -18.1428  -17.9520 H   0  0  0  0  0
   15.6929  -19.1312  -16.5646 H   0  0  0  0  0
   14.2076  -18.7284  -15.6344 H   0  0  0  0  0
   17.6793  -25.8863  -22.2746 H   0  0  0  0  0
   19.3983  -26.6359  -20.6560 H   0  0  0  0  0
   19.5194  -25.5785  -18.4135 H   0  0  0  0  0
   18.1646  -22.4698  -17.5579 H   0  0  0  0  0
   17.0242  -23.6850  -16.9303 H   0  0  0  0  0
   18.7770  -23.9932  -16.8684 H   0  0  0  0  0
   14.8253  -24.1108  -21.6620 H   0  0  0  0  0
   15.9884  -22.9423  -22.3349 H   0  0  0  0  0
   15.9616  -24.6184  -22.9357 H   0  0  0  0  0
    5.1024  -17.9476  -15.8227 H   0  0  0  0  0
    5.9756  -16.4622  -15.3287 H   0  0  0  0  0
  5  1  1  0  0  0
 46  1  1  0  0  0
  3  2  1  0  0  0
  2 46  1  0  0  0
  3  4  1  0  0  0
 13  3  1  0  0  0
  4  5  1  0  0  0
  4 12  2  0  0  0
  6  7  4  0  0  0
  6 11  4  0  0  0
 37  6  1  0  0  0
  7  8  4  0  0  0
  8  9  4  0  0  0
 10  9  4  0  0  0
 11 10  4  0  0  0
 14 13  1  0  0  0
 13 17  1  0  0  0
 15 14  1  0  0  0
 14 20  2  0  0  0
 16 15  1  0  0  0
 16 27  1  0  0  0
 28 16  1  0  0  0
 17 18  1  0  0  0
 17 19  1  0  0  0
 21 22  4  0  0  0
 26 21  4  0  0  0
 23 22  4  0  0  0
 24 23  4  0  0  0
 25 24  4  0  0  0
 25 26  4  0  0  0
 27 25  1  0  0  0
 29 28  1  0  0  0
 30 29  1  0  0  0
 29 36  1  0  0  0
 30 31  1  0  0  0
 30 37  1  0  0  0
 31 32  1  0  0  0
 32 33  1  0  0  0
 32 38  2  0  0  0
 33 34  1  0  0  0
 34 35  1  0  0  0
 35 39  4  0  0  0
 35 43  4  0  0  0
 39 40  4  0  0  0
 39 45  1  0  0  0
 40 41  4  0  0  0
 41 42  4  0  0  0
 42 43  4  0  0  0
 43 44  1  0  0  0
  1 47  1  0  0  0
  1 48  1  0  0  0
  2 49  1  0  0  0
  2 50  1  0  0  0
  5 51  1  0  0  0
  7 52  1  0  0  0
  8 53  1  0  0  0
  9 54  1  0  0  0
 10 55  1  0  0  0
 11 56  1  0  0  0
 13 57  1  0  0  0
 15 58  1  0  0  0
 16 59  1  0  0  0
 17 60  1  0  0  0
 18 61  1  0  0  0
 18 62  1  0  0  0
 18 63  1  0  0  0
 19 64  1  0  0  0
 19 65  1  0  0  0
 19 66  1  0  0  0
 21 67  1  0  0  0
 22 68  1  0  0  0
 23 69  1  0  0  0
 24 70  1  0  0  0
 26 71  1  0  0  0
 27 72  1  0  0  0
 27 73  1  0  0  0
 28 74  1  0  0  0
 28 75  1  0  0  0
 29 76  1  0  0  0
 30 77  1  0  0  0
 31 78  1  0  0  0
 33 79  1  0  0  0
 33 80  1  0  0  0
 36 81  1  0  0  0
 37 82  1  0  0  0
 37 83  1  0  0  0
 40 84  1  0  0  0
 41 85  1  0  0  0
 42 86  1  0  0  0
 44 87  1  0  0  0
 44 88  1  0  0  0
 44 89  1  0  0  0
 45 90  1  0  0  0
 45 91  1  0  0  0
 45 92  1  0  0  0
 46 93  1  0  0  0
 46 94  1  0  0  0
M  END
$$$$
