6imb_ligand
  -I-interpret- 

 31 32  0  0  0  0  0  0  0  0999 V2000
   25.0390   -3.7770   24.7450 C   0  0  0  0  0
   24.3260   -2.8320   25.4910 C   0  0  0  0  0
   23.4510   -1.9600   24.8530 C   0  0  0  0  0
   26.4300   -5.6490   23.1650 C   0  0  0  0  0
   24.5330   -2.7830   26.9820 C   0  0  0  0  0
   22.6650   -1.1960   27.1070 C   0  0  0  0  0
   22.6520   -0.9330   25.6160 C   0  0  0  0  0
   23.0150   -2.2350   20.6840 C   0  0  0  0  0
   24.7810   -0.6690   28.2490 C   0  0  0  0  0
   24.0330   -1.5100   27.5080 N   0  0  0  0  0
   24.8830   -3.8540   23.3760 C   0  0  0  0  0
   23.3020   -2.0470   23.4670 C   0  0  0  0  0
   23.9990   -2.9730   22.7270 C   0  0  0  0  0
   23.9020   -3.1200   21.3690 O   0  0  0  0  0
   25.5310   -4.7310   22.5510 O   0  0  0  0  0
   24.4520    0.4660   28.5440 O   0  0  0  0  0
   25.7238   -4.4585   25.2497 H   0  0  0  0  0
   27.2145   -5.0965   23.6821 H   0  0  0  0  0
   25.8856   -6.2651   23.8806 H   0  0  0  0  0
   26.8756   -6.2855   22.4006 H   0  0  0  0  0
   25.5967   -2.8724   27.2024 H   0  0  0  0  0
   23.9910   -3.6051   27.4494 H   0  0  0  0  0
   22.0060   -2.0313   27.3440 H   0  0  0  0  0
   22.3119   -0.3156   27.6440 H   0  0  0  0  0
   21.6191   -0.9802   25.2710 H   0  0  0  0  0
   23.0981    0.0456   25.4390 H   0  0  0  0  0
   22.0033   -2.3681   21.0673 H   0  0  0  0  0
   23.3339   -1.2054   20.8464 H   0  0  0  0  0
   23.0331   -2.4583   19.6173 H   0  0  0  0  0
   25.7451   -1.0286   28.6085 H   0  0  0  0  0
   22.6181   -1.3658   22.9607 H   0  0  0  0  0
  1  2  4  0  0  0
 11  1  4  0  0  0
  3  2  4  0  0  0
  2  5  1  0  0  0
  3  7  1  0  0  0
 12  3  4  0  0  0
 15  4  1  0  0  0
  5 10  1  0  0  0
  7  6  1  0  0  0
  6 10  1  0  0  0
 14  8  1  0  0  0
 10  9  1  0  0  0
  9 16  2  0  0  0
 13 11  4  0  0  0
 11 15  1  0  0  0
 13 12  4  0  0  0
 13 14  1  0  0  0
  1 17  1  0  0  0
  4 18  1  0  0  0
  4 19  1  0  0  0
  4 20  1  0  0  0
  5 21  1  0  0  0
  5 22  1  0  0  0
  6 23  1  0  0  0
  6 24  1  0  0  0
  7 25  1  0  0  0
  7 26  1  0  0  0
  8 27  1  0  0  0
  8 28  1  0  0  0
  8 29  1  0  0  0
  9 30  1  0  0  0
 12 31  1  0  0  0
M  END
$$$$
