5kr2_ligand
  -I-interpret- 

100104  0  0  0  0  0  0  0  0999 V2000
   -3.0090  -23.2730   61.1800 C   0  0  0  0  0
   -2.5800  -22.4770   62.0110 O   0  0  0  0  0
   -4.1330  -25.4140   60.6240 N   0  0  0  0  0
   -4.0130  -24.3920   61.5380 C   0  0  0  0  0
   -4.7660  -24.4240   62.7040 C   0  0  0  0  0
   -5.6270  -25.4670   62.9260 C   0  0  0  0  0
   -6.6360  -27.5760   62.2430 C   0  0  0  0  0
   -6.7550  -28.6100   61.3160 C   0  0  0  0  0
   -6.0000  -28.5850   60.1480 C   0  0  0  0  0
   -5.1250  -27.5170   59.9140 C   0  0  0  0  0
   -5.7500  -26.4980   62.0040 C   0  0  0  0  0
   -5.0050  -26.4680   60.8520 C   0  0  0  0  0
   -2.5330  -23.2250   59.8300 N   0  0  0  0  0
   -1.6120  -22.2260   59.4080 C   0  0  0  0  0
   -2.2850  -21.5730   58.2020 C   0  0  0  0  0
   -2.2250  -22.1120   57.1060 O   0  0  0  0  0
   -0.3000  -22.8250   58.9950 C   0  0  0  0  0
    0.4690  -23.2540   60.2280 C   0  0  0  0  0
    0.8080  -22.4340   61.0640 O   0  0  0  0  0
    0.7960  -24.6280   60.3990 N   0  0  0  0  0
   -2.9760  -18.3190   57.1370 C   0  0  0  0  0
   -3.1870  -17.4860   58.2280 O   0  0  0  0  0
   -3.6850  -19.6600   57.3460 C   0  0  0  0  0
   -3.0190  -20.3270   58.4170 N   0  0  0  0  0
   -5.1430  -19.4730   57.7290 C   0  0  0  0  0
   -5.7190  -20.7790   58.3100 C   0  0  0  0  0
   -6.1420  -21.7940   57.4560 C   0  0  0  0  0
   -5.8220  -20.9610   59.6840 C   0  0  0  0  0
   -6.6680  -22.9690   57.9710 C   0  0  0  0  0
   -6.3410  -22.1510   60.2040 C   0  0  0  0  0
   -6.7640  -23.1570   59.3420 C   0  0  0  0  0
   -2.7100  -18.2260   54.7210 N   0  3  0  0  0
   -3.4490  -17.6180   55.8430 C   0  0  0  0  0
   -3.4640  -18.0840   53.4190 C   0  0  0  0  0
   -4.8250  -18.6810   53.5120 C   0  0  0  0  0
   -5.0320  -19.7400   54.0670 O   0  0  0  0  0
   -2.6950  -18.6900   52.2360 C   0  0  0  0  0
   -1.3220  -18.0790   52.1460 C   0  0  0  0  0
   -0.5650  -18.7740   50.9790 C   0  0  0  0  0
   -0.2470  -20.2330   51.2950 C   0  0  0  0  0
    0.5380  -20.3560   52.5890 C   0  0  0  0  0
   -0.1480  -19.6450   53.7670 C   0  0  0  0  0
   -0.5620  -18.1880   53.4370 C   0  0  0  0  0
   -1.3460  -17.6280   54.6290 C   0  0  0  0  0
   -5.8610  -17.8920   52.8910 N   0  0  0  0  0
   -7.2480  -18.3170   52.8830 C   0  0  0  0  0
   -7.4120  -19.6440   52.1610 C   0  0  0  0  0
   -7.7070  -18.4400   54.3280 C   0  0  0  0  0
   -8.0470  -17.2760   52.1430 C   0  0  0  0  0
   -4.6730  -23.6242   63.4387 H   0  0  0  0  0
   -6.2231  -25.4875   63.8384 H   0  0  0  0  0
   -7.2287  -27.5975   63.1575 H   0  0  0  0  0
   -7.4389  -29.4372   61.5061 H   0  0  0  0  0
   -6.0888  -29.3912   59.4198 H   0  0  0  0  0
   -4.5314  -27.4951   59.0001 H   0  0  0  0  0
   -2.8603  -23.9198   59.1588 H   0  0  0  0  0
   -1.3892  -21.5223   60.2100 H   0  0  0  0  0
    0.2802  -22.0849   58.4439 H   0  0  0  0  0
   -0.4802  -23.6917   58.3590 H   0  0  0  0  0
    1.3157  -24.9298   61.2231 H   0  0  0  0  0
    0.5107  -25.3113   59.6975 H   0  0  0  0  0
   -1.9101  -18.5245   57.0386 H   0  0  0  0  0
   -2.7373  -16.6504   58.0829 H   0  0  0  0  0
   -3.6528  -20.2297   56.4173 H   0  0  0  0  0
   -3.0558  -19.9255   59.3539 H   0  0  0  0  0
   -5.7109  -19.1998   56.8397 H   0  0  0  0  0
   -5.2139  -18.6883   58.4822 H   0  0  0  0  0
   -6.0592  -21.6643   56.3769 H   0  0  0  0  0
   -5.4961  -20.1711   60.3607 H   0  0  0  0  0
   -7.0089  -23.7514   57.2930 H   0  0  0  0  0
   -6.4138  -22.2897   61.2827 H   0  0  0  0  0
   -7.1684  -24.0872   59.7411 H   0  0  0  0  0
   -2.6153  -19.2257   54.8999 H   0  0  0  0  0
   -3.2546  -16.5467   55.8943 H   0  0  0  0  0
   -4.5231  -17.7456   55.7085 H   0  0  0  0  0
   -3.5670  -17.0147   53.2343 H   0  0  0  0  0
   -3.2387  -18.4869   51.3134 H   0  0  0  0  0
   -2.5995  -19.7657   52.3840 H   0  0  0  0  0
   -1.4153  -17.0106   51.9511 H   0  0  0  0  0
    0.3753  -18.2463   50.8195 H   0  0  0  0  0
   -1.2018  -18.7470   50.0947 H   0  0  0  0  0
    0.3544  -20.6418   50.4830 H   0  0  0  0  0
   -1.1848  -20.7778   51.4038 H   0  0  0  0  0
    1.5112  -19.8893   52.4364 H   0  0  0  0  0
    0.6147  -21.4150   52.8353 H   0  0  0  0  0
    0.5626  -19.6094   54.5927 H   0  0  0  0  0
   -1.0539  -20.2010   54.0085 H   0  0  0  0  0
    0.3346  -17.5883   53.2804 H   0  0  0  0  0
   -0.8023  -17.8697   55.5423 H   0  0  0  0  0
   -1.4509  -16.5512   54.4962 H   0  0  0  0  0
   -5.6109  -17.0096   52.4446 H   0  0  0  0  0
   -7.0738  -19.5395   51.1301 H   0  0  0  0  0
   -6.8171  -20.4060   52.6645 H   0  0  0  0  0
   -8.4624  -19.9350   52.1724 H   0  0  0  0  0
   -7.0891  -19.1757   54.8428 H   0  0  0  0  0
   -7.6106  -17.4732   54.8220 H   0  0  0  0  0
   -8.7490  -18.7589   54.3510 H   0  0  0  0  0
   -7.9488  -16.3162   52.6501 H   0  0  0  0  0
   -7.6724  -17.1895   51.1231 H   0  0  0  0  0
   -9.0959  -17.5718   52.1223 H   0  0  0  0  0
  1  2  2  0  0  0
  1  4  1  0  0  0
 13  1  1  0  0  0
  4  3  4  0  0  0
  3 12  4  0  0  0
  4  5  4  0  0  0
  5  6  4  0  0  0
  6 11  4  0  0  0
  7  8  4  0  0  0
 11  7  4  0  0  0
  9  8  4  0  0  0
 10  9  4  0  0  0
 12 10  4  0  0  0
 12 11  4  0  0  0
 14 13  1  0  0  0
 15 14  1  0  0  0
 14 17  1  0  0  0
 15 16  2  0  0  0
 24 15  1  0  0  0
 17 18  1  0  0  0
 18 19  2  0  0  0
 18 20  1  0  0  0
 21 22  1  0  0  0
 23 21  1  0  0  0
 21 33  1  0  0  0
 23 24  1  0  0  0
 23 25  1  0  0  0
 25 26  1  0  0  0
 26 27  4  0  0  0
 26 28  4  0  0  0
 27 29  4  0  0  0
 28 30  4  0  0  0
 29 31  4  0  0  0
 30 31  4  0  0  0
 33 32  1  0  0  0
 32 34  1  0  0  0
 32 44  1  0  0  0
 34 35  1  0  0  0
 34 37  1  0  0  0
 35 36  2  0  0  0
 35 45  1  0  0  0
 37 38  1  0  0  0
 38 39  1  0  0  0
 38 43  1  0  0  0
 39 40  1  0  0  0
 40 41  1  0  0  0
 41 42  1  0  0  0
 42 43  1  0  0  0
 43 44  1  0  0  0
 45 46  1  0  0  0
 46 47  1  0  0  0
 46 48  1  0  0  0
 46 49  1  0  0  0
  5 50  1  0  0  0
  6 51  1  0  0  0
  7 52  1  0  0  0
  8 53  1  0  0  0
  9 54  1  0  0  0
 10 55  1  0  0  0
 13 56  1  0  0  0
 14 57  1  0  0  0
 17 58  1  0  0  0
 17 59  1  0  0  0
 20 60  1  0  0  0
 20 61  1  0  0  0
 21 62  1  0  0  0
 22 63  1  0  0  0
 23 64  1  0  0  0
 24 65  1  0  0  0
 25 66  1  0  0  0
 25 67  1  0  0  0
 27 68  1  0  0  0
 28 69  1  0  0  0
 29 70  1  0  0  0
 30 71  1  0  0  0
 31 72  1  0  0  0
 32 73  1  0  0  0
 33 74  1  0  0  0
 33 75  1  0  0  0
 34 76  1  0  0  0
 37 77  1  0  0  0
 37 78  1  0  0  0
 38 79  1  0  0  0
 39 80  1  0  0  0
 39 81  1  0  0  0
 40 82  1  0  0  0
 40 83  1  0  0  0
 41 84  1  0  0  0
 41 85  1  0  0  0
 42 86  1  0  0  0
 42 87  1  0  0  0
 43 88  1  0  0  0
 44 89  1  0  0  0
 44 90  1  0  0  0
 45 91  1  0  0  0
 47 92  1  0  0  0
 47 93  1  0  0  0
 47 94  1  0  0  0
 48 95  1  0  0  0
 48 96  1  0  0  0
 48 97  1  0  0  0
 49 98  1  0  0  0
 49 99  1  0  0  0
 49100  1  0  0  0
M  END
$$$$
