4i7c_ligand
  -I-interpret- 

250253  0  0  0  0  0  0  0  0999 V2000
  -71.4500   56.1120   -6.4600 N   0  3  0  0  0
  -71.7460   57.1920   -5.4760 C   0  0  0  0  0
  -72.2890   58.4390   -6.1600 C   0  0  0  0  0
  -72.2690   58.5430   -7.3890 O   0  0  0  0  0
  -70.4850   57.5630   -4.6950 C   0  0  0  0  0
  -70.0350   56.5080   -3.7020 C   0  0  0  0  0
  -68.9570   57.0490   -2.7820 C   0  0  0  0  0
  -68.3720   55.9460   -1.9180 C   0  0  0  0  0
  -67.2390   56.4250   -1.0780 N   0  3  0  0  0
  -72.7760   59.3760   -5.3450 N   0  0  0  0  0
  -73.2300   60.6860   -5.8180 C   0  0  0  0  0
  -72.0340   61.4500   -6.4050 C   0  0  0  0  0
  -71.1140   61.8200   -5.6790 O   0  0  0  0  0
  -73.8690   61.4500   -4.6570 C   0  0  0  0  0
  -74.4850   62.8270   -4.9050 C   0  0  0  0  0
  -75.3680   62.8460   -6.1390 C   0  0  0  0  0
  -75.2850   63.2520   -3.6790 C   0  0  0  0  0
  -72.0480   61.6560   -7.7230 N   0  0  0  0  0
  -70.8730   62.1110   -8.4690 C   0  0  0  0  0
  -71.1560   63.3950   -9.2410 C   0  0  0  0  0
  -71.8920   63.3610  -10.2250 O   0  0  0  0  0
  -70.4250   61.0300   -9.4800 C   0  0  0  0  0
  -69.5460   59.9120   -8.9280 C   0  0  0  0  0
  -68.9890   59.0290  -10.0430 C   0  0  0  0  0
  -68.1420   57.9400   -9.5360 N   0  0  0  0  0
  -66.8190   58.0020   -9.3180 C   0  0  0  0  0
  -66.1130   59.1050   -9.5520 N   0  0  0  0  0
  -66.1840   56.9330   -8.8530 N   0  0  0  0  0
  -70.5680   64.5300   -8.8140 N   0  0  0  0  0
  -70.6260   65.7290   -9.6560 C   0  0  0  0  0
  -69.7760   65.5820  -10.9070 C   0  0  0  0  0
  -68.6370   65.1260  -10.8310 O   0  0  0  0  0
  -70.0590   66.8330   -8.7520 C   0  0  0  0  0
  -69.2800   66.1200   -7.7060 C   0  0  0  0  0
  -70.0210   64.8350   -7.4810 C   0  0  0  0  0
  -70.3450   65.9580  -12.0440 N   0  0  0  0  0
  -69.6630   65.8820  -13.3270 C   0  0  0  0  0
  -69.1800   67.2690  -13.6700 C   0  0  0  0  0
  -69.9360   68.2230  -13.5370 O   0  0  0  0  0
  -70.6180   65.4460  -14.4570 C   0  0  0  0  0
  -69.8650   65.3320  -15.7700 C   0  0  0  0  0
  -71.3100   64.1340  -14.1070 C   0  0  0  0  0
  -67.9330   67.3840  -14.1170 N   0  0  0  0  0
  -67.3930   68.6660  -14.5590 C   0  0  0  0  0
  -66.3920   69.1830  -13.5470 C   0  0  0  0  0
  -65.6770   70.3120  -14.0990 N   0  0  0  0  0
  -65.9730   71.5650  -13.7660 C   0  0  0  0  0
  -65.1090   72.6020  -14.4250 C   0  0  0  0  0
  -63.9790   72.8600  -13.4620 C   0  0  0  0  0
  -66.7690   68.5640  -15.9190 C   0  0  0  0  0
  -65.9830   67.6620  -16.1870 O   0  0  0  0  0
  -66.8440   71.8920  -12.9690 O   0  0  0  0  0
  -67.1260   69.5010  -16.7880 N   0  0  0  0  0
  -66.6840   69.5070  -18.1680 C   0  0  0  0  0
  -65.3940   70.2990  -18.1770 C   0  0  0  0  0
  -65.3450   71.3980  -17.6280 O   0  0  0  0  0
  -67.7440   70.2040  -19.0320 C   0  0  0  0  0
  -68.2070   69.4260  -20.2520 C   0  0  0  0  0
  -69.7930   70.0140  -20.9020 S   0  0  0  0  0
  -70.9620   69.2570  -19.7660 C   0  0  0  0  0
  -64.3470   69.7360  -18.7740 N   0  0  0  0  0
  -63.0490   70.4130  -18.8550 C   0  0  0  0  0
  -62.6530   70.6600  -20.3060 C   0  0  0  0  0
  -62.6040   69.7350  -21.1380 O   0  0  0  0  0
  -61.9400   69.6100  -18.1610 C   0  0  0  0  0
  -60.6150   70.3530  -18.2360 C   0  0  0  0  0
  -62.3120   69.3480  -16.7120 C   0  0  0  0  0
  -62.3680   71.9250  -20.5870 N   0  0  0  0  0
  -62.0840   72.3790  -21.9310 C   0  0  0  0  0
  -60.6010   72.2150  -22.1770 C   0  0  0  0  0
  -59.7960   72.4910  -21.2960 O   0  0  0  0  0
  -62.4790   73.8490  -22.0870 C   0  0  0  0  0
  -63.9380   74.1580  -21.7400 C   0  0  0  0  0
  -64.9280   73.5090  -22.7010 C   0  0  0  0  0
  -64.7170   73.9510  -24.0790 N   0  0  0  0  0
  -65.3670   73.4760  -25.1400 C   0  0  0  0  0
  -66.2940   72.5330  -25.0020 N   0  0  0  0  0
  -65.0880   73.9490  -26.3510 N   0  0  0  0  0
  -60.2280   71.7590  -23.3750 N   0  0  0  0  0
  -58.8240   71.5290  -23.6740 C   0  0  0  0  0
  -58.0350   72.8010  -23.9540 C   0  0  0  0  0
  -58.5980   73.8010  -24.3690 O   0  0  0  0  0
  -58.8780   70.6850  -24.9480 C   0  0  0  0  0
  -60.1080   71.1500  -25.6210 C   0  0  0  0  0
  -61.0890   71.4000  -24.5120 C   0  0  0  0  0
  -56.7290   72.7230  -23.7230 N   0  0  0  0  0
  -55.7770   73.7550  -24.0960 C   0  0  0  0  0
  -54.7420   73.1310  -24.9800 C   0  0  0  0  0
  -54.1440   72.1120  -24.6240 O   0  0  0  0  0
  -55.0930   74.3220  -22.8570 C   0  0  0  0  0
  -56.0160   75.0900  -21.9480 C   0  0  0  0  0
  -56.6580   74.6280  -20.8040 C   0  0  0  0  0
  -56.4370   76.4880  -22.0820 C   0  0  0  0  0
  -57.4200   75.6170  -20.2320 N   0  0  0  0  0
  -57.3340   76.7560  -20.9490 C   0  0  0  0  0
  -56.1710   77.5080  -22.9890 C   0  0  0  0  0
  -57.9240   77.9950  -20.7580 C   0  0  0  0  0
  -56.7740   78.7550  -22.7840 C   0  0  0  0  0
  -57.6300   78.9890  -21.6960 C   0  0  0  0  0
  -54.5150   73.7320  -26.1400 N   0  0  0  0  0
  -53.4960   73.2530  -27.0670 C   0  0  0  0  0
  -52.1760   73.9530  -26.7700 C   0  0  0  0  0
  -52.1530   75.1640  -26.5520 O   0  0  0  0  0
  -53.9080   73.5060  -28.5330 C   0  0  0  0  0
  -52.7380   73.2620  -29.4770 C   0  0  0  0  0
  -55.0870   72.6210  -28.9040 C   0  0  0  0  0
  -51.0890   73.1850  -26.7450 N   0  0  0  0  0
  -49.7470   73.7420  -26.6320 C   0  0  0  0  0
  -49.2720   74.1800  -28.0100 C   0  0  0  0  0
  -48.5118   75.1765  -28.1389 O   0  0  0  0  0
  -48.7720   72.7130  -26.0640 C   0  0  0  0  0
  -49.1020   72.2260  -24.6660 C   0  0  0  0  0
  -47.9380   71.4490  -24.0660 C   0  0  0  0  0
  -48.3510   70.6600  -22.9160 N   0  0  0  0  0
  -47.5380   69.9250  -22.1660 C   0  0  0  0  0
  -46.2320   69.8610  -22.4190 N   0  0  0  0  0
  -48.0410   69.2490  -21.1430 N   0  0  0  0  0
  -49.6421   73.5406  -29.0307 O   0  0  0  0  0
  -72.3007   55.8772   -6.9714 H   0  0  0  0  0
  -70.7371   56.4355   -7.1139 H   0  0  0  0  0
  -71.1104   55.2870   -5.9656 H   0  0  0  0  0
  -72.5050   56.8080   -4.7945 H   0  0  0  0  0
  -70.7131   58.4640   -4.1255 H   0  0  0  0  0
  -69.6813   57.6845   -5.4212 H   0  0  0  0  0
  -69.6295   55.6599   -4.2537 H   0  0  0  0  0
  -70.8917   56.2094   -3.0979 H   0  0  0  0  0
  -69.3996   57.8037   -2.1319 H   0  0  0  0  0
  -68.1598   57.4748   -3.3913 H   0  0  0  0  0
  -67.9963   55.1638   -2.5776 H   0  0  0  0  0
  -69.1569   55.5859   -1.2529 H   0  0  0  0  0
  -66.8815   55.6510   -0.5181 H   0  0  0  0  0
  -66.4973   56.7812   -1.6808 H   0  0  0  0  0
  -67.5651   57.1696   -0.4619 H   0  0  0  0  0
  -72.8349   59.1711   -4.3475 H   0  0  0  0  0
  -73.9802   60.5712   -6.6004 H   0  0  0  0  0
  -73.0477   61.6365   -3.9651 H   0  0  0  0  0
  -74.7065   60.8261   -4.3448 H   0  0  0  0  0
  -73.6720   63.5311   -5.0821 H   0  0  0  0  0
  -74.7746   62.5774   -7.0130 H   0  0  0  0  0
  -76.1793   62.1288   -6.0147 H   0  0  0  0  0
  -75.7821   63.8454   -6.2726 H   0  0  0  0  0
  -76.0769   62.5262   -3.4940 H   0  0  0  0  0
  -74.6239   63.2988   -2.8137 H   0  0  0  0  0
  -75.7242   64.2338   -3.8558 H   0  0  0  0  0
  -72.9152   61.4892   -8.2334 H   0  0  0  0  0
  -70.0875   62.2996   -7.7372 H   0  0  0  0  0
  -69.8254   61.5456  -10.2301 H   0  0  0  0  0
  -71.3369   60.5513   -9.8369 H   0  0  0  0  0
  -70.1531   59.2913   -8.2690 H   0  0  0  0  0
  -68.7083   60.3640   -8.3969 H   0  0  0  0  0
  -68.3758   59.6555  -10.6908 H   0  0  0  0  0
  -69.8328   58.5800  -10.5669 H   0  0  0  0  0
  -68.6030   57.0536   -9.3305 H   0  0  0  0  0
  -65.1087   59.1151   -9.3740 H   0  0  0  0  0
  -66.5760   59.9406   -9.9095 H   0  0  0  0  0
  -66.7013   56.0744   -8.6646 H   0  0  0  0  0
  -71.6363   65.9329  -10.0105 H   0  0  0  0  0
  -70.8512   67.4426   -8.3173 H   0  0  0  0  0
  -69.4356   67.5300   -9.3120 H   0  0  0  0  0
  -69.2000   66.7066   -6.7908 H   0  0  0  0  0
  -68.2504   65.9442   -8.0176 H   0  0  0  0  0
  -69.3818   64.0409   -7.0950 H   0  0  0  0  0
  -70.7937   64.9212   -6.7170 H   0  0  0  0  0
  -71.3001   66.3152  -12.0182 H   0  0  0  0  0
  -68.8542   65.1559  -13.2446 H   0  0  0  0  0
  -71.3892   66.2079  -14.5704 H   0  0  0  0  0
  -69.4313   66.2992  -16.0238 H   0  0  0  0  0
  -69.0714   64.5917  -15.6691 H   0  0  0  0  0
  -70.5536   65.0235  -16.5566 H   0  0  0  0  0
  -70.5599   63.3566  -13.9614 H   0  0  0  0  0
  -71.8856   64.2616  -13.1902 H   0  0  0  0  0
  -71.9777   63.8487  -14.9200 H   0  0  0  0  0
  -67.3389   66.5556  -14.1519 H   0  0  0  0  0
  -68.2193   69.3729  -14.6341 H   0  0  0  0  0
  -65.6834   68.3913  -13.3038 H   0  0  0  0  0
  -66.9192   69.4957  -12.6457 H   0  0  0  0  0
  -64.9225   70.1422  -14.7641 H   0  0  0  0  0
  -65.6697   73.5130  -14.6344 H   0  0  0  0  0
  -64.7387   72.2569  -15.3904 H   0  0  0  0  0
  -64.3841   73.2221  -12.5171 H   0  0  0  0  0
  -63.4295   71.9341  -13.2922 H   0  0  0  0  0
  -63.3089   73.6098  -13.8826 H   0  0  0  0  0
  -67.7395   70.2513  -16.4701 H   0  0  0  0  0
  -66.5359   68.5023  -18.5639 H   0  0  0  0  0
  -67.2878   71.1216  -19.4034 H   0  0  0  0  0
  -68.6208   70.3396  -18.3988 H   0  0  0  0  0
  -68.3340   68.3850  -19.9549 H   0  0  0  0  0
  -67.4582   69.5551  -21.0335 H   0  0  0  0  0
  -70.8572   68.1729  -19.8078 H   0  0  0  0  0
  -70.7589   69.6041  -18.7529 H   0  0  0  0  0
  -71.9763   69.5365  -20.0507 H   0  0  0  0  0
  -64.4499   68.8088  -19.1863 H   0  0  0  0  0
  -63.1614   71.3668  -18.3396 H   0  0  0  0  0
  -61.8305   68.6555  -18.6759 H   0  0  0  0  0
  -60.3426   70.5029  -19.2807 H   0  0  0  0  0
  -60.7137   71.3199  -17.7425 H   0  0  0  0  0
  -59.8425   69.7668  -17.7383 H   0  0  0  0  0
  -62.4431   70.2982  -16.1944 H   0  0  0  0  0
  -63.2419   68.7807  -16.6738 H   0  0  0  0  0
  -61.5170   68.7777  -16.2315 H   0  0  0  0  0
  -62.3484   72.6038  -19.8259 H   0  0  0  0  0
  -62.6553   71.7945  -22.6522 H   0  0  0  0  0
  -62.3409   74.1055  -23.1373 H   0  0  0  0  0
  -61.8599   74.4197  -21.3948 H   0  0  0  0  0
  -64.0731   75.2378  -21.8025 H   0  0  0  0  0
  -64.1338   73.7621  -20.7435 H   0  0  0  0  0
  -65.9356   73.7955  -22.3999 H   0  0  0  0  0
  -64.7854   72.4291  -22.6621 H   0  0  0  0  0
  -64.0195   74.6777  -24.2396 H   0  0  0  0  0
  -66.5139   72.1656  -24.0762 H   0  0  0  0  0
  -65.5839   73.5883  -27.1661 H   0  0  0  0  0
  -64.3781   74.6725  -26.4648 H   0  0  0  0  0
  -58.3190   71.0672  -22.8256 H   0  0  0  0  0
  -58.8962   69.6154  -24.7389 H   0  0  0  0  0
  -57.9907   70.8099  -25.5686 H   0  0  0  0  0
  -60.4820   70.4132  -26.3319 H   0  0  0  0  0
  -59.9295   72.0485  -26.2118 H   0  0  0  0  0
  -61.8094   72.1807  -24.7564 H   0  0  0  0  0
  -61.7188   70.5348  -24.3053 H   0  0  0  0  0
  -56.3736   71.8888  -23.2559 H   0  0  0  0  0
  -56.2962   74.5643  -24.6093 H   0  0  0  0  0
  -54.3246   75.0151  -23.1995 H   0  0  0  0  0
  -54.7043   73.4784  -22.2866 H   0  0  0  0  0
  -56.5682   73.6145  -20.4130 H   0  0  0  0  0
  -55.5092   77.3409  -23.8388 H   0  0  0  0  0
  -58.5874   78.1861  -19.9145 H   0  0  0  0  0
  -56.5739   79.5641  -23.4865 H   0  0  0  0  0
  -58.0788   79.9754  -21.5792 H   0  0  0  0  0
  -55.0680   74.5515  -26.3908 H   0  0  0  0  0
  -53.3840   72.1772  -26.9324 H   0  0  0  0  0
  -54.2069   74.5496  -28.6318 H   0  0  0  0  0
  -51.9200   73.9355  -29.2213 H   0  0  0  0  0
  -52.4038   72.2291  -29.3799 H   0  0  0  0  0
  -53.0559   73.4474  -30.5030 H   0  0  0  0  0
  -54.8054   71.5746  -28.7862 H   0  0  0  0  0
  -55.9295   72.8476  -28.2506 H   0  0  0  0  0
  -55.3685   72.8084  -29.9402 H   0  0  0  0  0
  -51.1990   72.1728  -26.8070 H   0  0  0  0  0
  -49.7800   74.5947  -25.9538 H   0  0  0  0  0
  -47.7977   73.1984  -26.0077 H   0  0  0  0  0
  -48.8133   71.8431  -26.7195 H   0  0  0  0  0
  -49.9686   71.5673  -24.7220 H   0  0  0  0  0
  -49.3058   73.0910  -24.0348 H   0  0  0  0  0
  -47.1822   72.1628  -23.7382 H   0  0  0  0  0
  -47.5510   70.7703  -24.8261 H   0  0  0  0  0
  -49.3400   70.6721  -22.6667 H   0  0  0  0  0
  -45.6250   69.2941  -21.8269 H   0  0  0  0  0
  -45.8388   70.3789  -23.2048 H   0  0  0  0  0
  -49.0396   69.2978  -20.9411 H   0  0  0  0  0
  -50.2130   72.8165  -28.7637 H   0  0  0  0  0
  1  2  1  0  0  0
  2  3  1  0  0  0
  2  5  1  0  0  0
  3  4  2  0  0  0
  3 10  1  0  0  0
  5  6  1  0  0  0
  6  7  1  0  0  0
  7  8  1  0  0  0
  8  9  1  0  0  0
 10 11  1  0  0  0
 11 12  1  0  0  0
 11 14  1  0  0  0
 12 13  2  0  0  0
 12 18  1  0  0  0
 14 15  1  0  0  0
 15 16  1  0  0  0
 15 17  1  0  0  0
 18 19  1  0  0  0
 19 20  1  0  0  0
 19 22  1  0  0  0
 20 21  2  0  0  0
 20 29  1  0  0  0
 22 23  1  0  0  0
 23 24  1  0  0  0
 24 25  1  0  0  0
 25 26  1  0  0  0
 26 27  1  0  0  0
 26 28  2  0  0  0
 29 30  1  0  0  0
 29 35  1  0  0  0
 30 31  1  0  0  0
 30 33  1  0  0  0
 31 32  2  0  0  0
 31 36  1  0  0  0
 33 34  1  0  0  0
 34 35  1  0  0  0
 36 37  1  0  0  0
 37 38  1  0  0  0
 37 40  1  0  0  0
 38 39  2  0  0  0
 38 43  1  0  0  0
 40 41  1  0  0  0
 40 42  1  0  0  0
 43 44  1  0  0  0
 44 45  1  0  0  0
 44 50  1  0  0  0
 45 46  1  0  0  0
 46 47  1  0  0  0
 47 48  1  0  0  0
 47 52  2  0  0  0
 48 49  1  0  0  0
 50 51  2  0  0  0
 50 53  1  0  0  0
 53 54  1  0  0  0
 54 55  1  0  0  0
 54 57  1  0  0  0
 55 56  2  0  0  0
 55 61  1  0  0  0
 57 58  1  0  0  0
 58 59  1  0  0  0
 59 60  1  0  0  0
 61 62  1  0  0  0
 62 63  1  0  0  0
 62 65  1  0  0  0
 63 64  2  0  0  0
 63 68  1  0  0  0
 65 66  1  0  0  0
 65 67  1  0  0  0
 68 69  1  0  0  0
 69 70  1  0  0  0
 69 72  1  0  0  0
 70 71  2  0  0  0
 70 79  1  0  0  0
 72 73  1  0  0  0
 73 74  1  0  0  0
 74 75  1  0  0  0
 75 76  1  0  0  0
 76 77  2  0  0  0
 76 78  1  0  0  0
 79 80  1  0  0  0
 79 85  1  0  0  0
 80 81  1  0  0  0
 80 83  1  0  0  0
 81 82  2  0  0  0
 81 86  1  0  0  0
 83 84  1  0  0  0
 84 85  1  0  0  0
 86 87  1  0  0  0
 87 88  1  0  0  0
 87 90  1  0  0  0
 88 89  2  0  0  0
 88100  1  0  0  0
 90 91  1  0  0  0
 91 92  4  0  0  0
 91 93  4  0  0  0
 92 94  4  0  0  0
 93 95  4  0  0  0
 93 96  4  0  0  0
 94 95  4  0  0  0
 95 97  4  0  0  0
 96 98  4  0  0  0
 97 99  4  0  0  0
 98 99  4  0  0  0
100101  1  0  0  0
101102  1  0  0  0
101104  1  0  0  0
102103  2  0  0  0
102107  1  0  0  0
104105  1  0  0  0
104106  1  0  0  0
107108  1  0  0  0
108109  1  0  0  0
108111  1  0  0  0
109110  2  0  0  0
111112  1  0  0  0
112113  1  0  0  0
113114  1  0  0  0
114115  1  0  0  0
115116  1  0  0  0
115117  2  0  0  0
109118  1  0  0  0
  1119  1  0  0  0
  1120  1  0  0  0
  1121  1  0  0  0
  2122  1  0  0  0
  5123  1  0  0  0
  5124  1  0  0  0
  6125  1  0  0  0
  6126  1  0  0  0
  7127  1  0  0  0
  7128  1  0  0  0
  8129  1  0  0  0
  8130  1  0  0  0
  9131  1  0  0  0
  9132  1  0  0  0
  9133  1  0  0  0
 10134  1  0  0  0
 11135  1  0  0  0
 14136  1  0  0  0
 14137  1  0  0  0
 15138  1  0  0  0
 16139  1  0  0  0
 16140  1  0  0  0
 16141  1  0  0  0
 17142  1  0  0  0
 17143  1  0  0  0
 17144  1  0  0  0
 18145  1  0  0  0
 19146  1  0  0  0
 22147  1  0  0  0
 22148  1  0  0  0
 23149  1  0  0  0
 23150  1  0  0  0
 24151  1  0  0  0
 24152  1  0  0  0
 25153  1  0  0  0
 27154  1  0  0  0
 27155  1  0  0  0
 28156  1  0  0  0
 30157  1  0  0  0
 33158  1  0  0  0
 33159  1  0  0  0
 34160  1  0  0  0
 34161  1  0  0  0
 35162  1  0  0  0
 35163  1  0  0  0
 36164  1  0  0  0
 37165  1  0  0  0
 40166  1  0  0  0
 41167  1  0  0  0
 41168  1  0  0  0
 41169  1  0  0  0
 42170  1  0  0  0
 42171  1  0  0  0
 42172  1  0  0  0
 43173  1  0  0  0
 44174  1  0  0  0
 45175  1  0  0  0
 45176  1  0  0  0
 46177  1  0  0  0
 48178  1  0  0  0
 48179  1  0  0  0
 49180  1  0  0  0
 49181  1  0  0  0
 49182  1  0  0  0
 53183  1  0  0  0
 54184  1  0  0  0
 57185  1  0  0  0
 57186  1  0  0  0
 58187  1  0  0  0
 58188  1  0  0  0
 60189  1  0  0  0
 60190  1  0  0  0
 60191  1  0  0  0
 61192  1  0  0  0
 62193  1  0  0  0
 65194  1  0  0  0
 66195  1  0  0  0
 66196  1  0  0  0
 66197  1  0  0  0
 67198  1  0  0  0
 67199  1  0  0  0
 67200  1  0  0  0
 68201  1  0  0  0
 69202  1  0  0  0
 72203  1  0  0  0
 72204  1  0  0  0
 73205  1  0  0  0
 73206  1  0  0  0
 74207  1  0  0  0
 74208  1  0  0  0
 75209  1  0  0  0
 77210  1  0  0  0
 78211  1  0  0  0
 78212  1  0  0  0
 80213  1  0  0  0
 83214  1  0  0  0
 83215  1  0  0  0
 84216  1  0  0  0
 84217  1  0  0  0
 85218  1  0  0  0
 85219  1  0  0  0
 86220  1  0  0  0
 87221  1  0  0  0
 90222  1  0  0  0
 90223  1  0  0  0
 92224  1  0  0  0
 96225  1  0  0  0
 97226  1  0  0  0
 98227  1  0  0  0
 99228  1  0  0  0
100229  1  0  0  0
101230  1  0  0  0
104231  1  0  0  0
105232  1  0  0  0
105233  1  0  0  0
105234  1  0  0  0
106235  1  0  0  0
106236  1  0  0  0
106237  1  0  0  0
107238  1  0  0  0
108239  1  0  0  0
111240  1  0  0  0
111241  1  0  0  0
112242  1  0  0  0
112243  1  0  0  0
113244  1  0  0  0
113245  1  0  0  0
114246  1  0  0  0
116247  1  0  0  0
116248  1  0  0  0
117249  1  0  0  0
118250  1  0  0  0
M  END
$$$$
