### 
### Created by X-TOOL on Mon Sep 10 21:13:13 2018
### 

@<TRIPOS>MOLECULE
4i7c_ligand
  253   256     1     0     0
SMALL
GAST_HUCK


@<TRIPOS>ATOM
      1 N         -71.4500   56.1120   -6.4600 N.4       1 LYS         0.2379
      2 CA        -71.7460   57.1920   -5.4760 C.3       1 LYS         0.0650
      3 C         -72.2890   58.4390   -6.1600 C.2       1 LYS         0.2267
      4 O         -72.2690   58.5430   -7.3890 O.2       1 LYS        -0.3907
      5 CB        -70.4850   57.5630   -4.6950 C.3       1 LYS         0.0080
      6 CG        -70.0350   56.5080   -3.7020 C.3       1 LYS        -0.0410
      7 CD        -68.9570   57.0490   -2.7820 C.3       1 LYS        -0.0123
      8 CE        -68.3720   55.9460   -1.9180 C.3       1 LYS        -0.0354
      9 NZ        -67.2390   56.4250   -1.0780 N.4       1 LYS         0.2185
     10 N         -72.7760   59.3760   -5.3450 N.am      1 LEU        -0.2610
     11 CA        -73.2300   60.6860   -5.8180 C.3       1 LEU         0.1313
     12 C         -72.0340   61.4500   -6.4050 C.2       1 LEU         0.2039
     13 O         -71.1140   61.8200   -5.6790 O.2       1 LEU        -0.3944
     14 CB        -73.8690   61.4500   -4.6570 C.3       1 LEU        -0.0101
     15 CG        -74.4850   62.8270   -4.9050 C.3       1 LEU        -0.0425
     16 CD1       -75.3680   62.8460   -6.1390 C.3       1 LEU        -0.0625
     17 CD2       -75.2850   63.2520   -3.6790 C.3       1 LEU        -0.0625
     18 N         -72.0480   61.6560   -7.7230 N.am      1 ARG        -0.2637
     19 CA        -70.8730   62.1110   -8.4690 C.3       1 ARG         0.1313
     20 C         -71.1560   63.3950   -9.2410 C.2       1 ARG         0.2064
     21 O         -71.8920   63.3610  -10.2250 O.2       1 ARG        -0.3942
     22 CB        -70.4250   61.0300   -9.4800 C.3       1 ARG        -0.0092
     23 CG        -69.5460   59.9120   -8.9280 C.3       1 ARG        -0.0156
     24 CD        -68.9890   59.0290  -10.0430 C.3       1 ARG         0.0627
     25 NE        -68.1420   57.9400   -9.5360 N.pl3     1 ARG        -0.2723
     26 CZ        -66.8190   58.0020   -9.3180 C.cat     1 ARG         0.2882
     27 NH1       -66.1130   59.1050   -9.5520 N.pl3     1 ARG        -0.2849
     28 NH2       -66.1840   56.9330   -8.8530 N.pl3     1 ARG        -0.2849
     29 N         -70.5680   64.5300   -8.8140 N.am      1 PRO        -0.2498
     30 CA        -70.6260   65.7290   -9.6560 C.3       1 PRO         0.1338
     31 C         -69.7760   65.5820  -10.9070 C.2       1 PRO         0.2041
     32 O         -68.6370   65.1260  -10.8310 O.2       1 PRO        -0.3944
     33 CB        -70.0590   66.8330   -8.7520 C.3       1 PRO        -0.0104
     34 CG        -69.2800   66.1200   -7.7060 C.3       1 PRO        -0.0281
     35 CD        -70.0210   64.8350   -7.4810 C.3       1 PRO         0.0369
     36 N         -70.3450   65.9580  -12.0440 N.am      1 VAL        -0.2635
     37 CA        -69.6630   65.8820  -13.3270 C.3       1 VAL         0.1333
     38 C         -69.1800   67.2690  -13.6700 C.2       1 VAL         0.2042
     39 O         -69.9360   68.2230  -13.5370 O.2       1 VAL        -0.3944
     40 CB        -70.6180   65.4460  -14.4570 C.3       1 VAL        -0.0063
     41 CG1       -69.8650   65.3320  -15.7700 C.3       1 VAL        -0.0584
     42 CG2       -71.3100   64.1340  -14.1070 C.3       1 VAL        -0.0584
     43 N         -67.9330   67.3840  -14.1170 N.am      1 23P        -0.2618
     44 CA        -67.3930   68.6660  -14.5590 C.3       1 23P         0.1509
     45 CB        -66.3920   69.1830  -13.5470 C.3       1 23P         0.0710
     46 NG        -65.6770   70.3120  -14.0990 N.am      1 23P        -0.2824
     47 CD        -65.9730   71.5650  -13.7660 C.2       1 23P         0.1759
     48 CE        -65.1090   72.6020  -14.4250 C.3       1 23P         0.0344
     49 CZ        -63.9790   72.8600  -13.4620 C.3       1 23P        -0.0482
     50 C         -66.7690   68.5640  -15.9190 C.2       1 23P         0.2059
     51 O         -65.9830   67.6620  -16.1870 O.2       1 23P        -0.3943
     52 OE        -66.8440   71.8920  -12.9690 O.2       1 23P        -0.3971
     53 N         -67.1260   69.5010  -16.7880 N.am      1 MET        -0.2636
     54 CA        -66.6840   69.5070  -18.1680 C.3       1 MET         0.1317
     55 C         -65.3940   70.2990  -18.1770 C.2       1 MET         0.2039
     56 O         -65.3450   71.3980  -17.6280 O.2       1 MET        -0.3944
     57 CB        -67.7440   70.2040  -19.0320 C.3       1 MET        -0.0034
     58 CG        -68.2070   69.4260  -20.2520 C.3       1 MET        -0.0024
     59 SD        -69.7930   70.0140  -20.9020 S.3       1 MET        -0.1639
     60 CE        -70.9620   69.2570  -19.7660 C.3       1 MET        -0.0181
     61 N         -64.3470   69.7360  -18.7740 N.am      1 VAL        -0.2635
     62 CA        -63.0490   70.4130  -18.8550 C.3       1 VAL         0.1332
     63 C         -62.6530   70.6600  -20.3060 C.2       1 VAL         0.2041
     64 O         -62.6040   69.7350  -21.1380 O.2       1 VAL        -0.3944
     65 CB        -61.9400   69.6100  -18.1610 C.3       1 VAL        -0.0063
     66 CG1       -60.6150   70.3530  -18.2360 C.3       1 VAL        -0.0584
     67 CG2       -62.3120   69.3480  -16.7120 C.3       1 VAL        -0.0584
     68 N         -62.3680   71.9250  -20.5870 N.am      1 ARG        -0.2637
     69 CA        -62.0840   72.3790  -21.9310 C.3       1 ARG         0.1313
     70 C         -60.6010   72.2150  -22.1770 C.2       1 ARG         0.2064
     71 O         -59.7960   72.4910  -21.2960 O.2       1 ARG        -0.3942
     72 CB        -62.4790   73.8490  -22.0870 C.3       1 ARG        -0.0092
     73 CG        -63.9380   74.1580  -21.7400 C.3       1 ARG        -0.0156
     74 CD        -64.9280   73.5090  -22.7010 C.3       1 ARG         0.0627
     75 NE        -64.7170   73.9510  -24.0790 N.pl3     1 ARG        -0.2723
     76 CZ        -65.3670   73.4760  -25.1400 C.cat     1 ARG         0.2882
     77 NH1       -66.2940   72.5330  -25.0020 N.pl3     1 ARG        -0.2849
     78 NH2       -65.0880   73.9490  -26.3510 N.pl3     1 ARG        -0.2849
     79 N         -60.2280   71.7590  -23.3750 N.am      1 PRO        -0.2498
     80 CA        -58.8240   71.5290  -23.6740 C.3       1 PRO         0.1338
     81 C         -58.0350   72.8010  -23.9540 C.2       1 PRO         0.2042
     82 O         -58.5980   73.8010  -24.3690 O.2       1 PRO        -0.3944
     83 CB        -58.8780   70.6850  -24.9480 C.3       1 PRO        -0.0104
     84 CG        -60.1080   71.1500  -25.6210 C.3       1 PRO        -0.0281
     85 CD        -61.0890   71.4000  -24.5120 C.3       1 PRO         0.0369
     86 N         -56.7290   72.7230  -23.7230 N.am      1 TRP        -0.2627
     87 CA        -55.7770   73.7550  -24.0960 C.3       1 TRP         0.1352
     88 C         -54.7420   73.1310  -24.9800 C.2       1 TRP         0.2052
     89 O         -54.1440   72.1120  -24.6240 O.2       1 TRP        -0.3942
     90 CB        -55.0930   74.3220  -22.8570 C.3       1 TRP         0.0042
     91 CG        -56.0160   75.0900  -21.9480 C.2       1 TRP        -0.0418
     92 CD1       -56.6580   74.6280  -20.8040 C.2       1 TRP         0.0167
     93 CD2       -56.4370   76.4880  -22.0820 C.ar      1 TRP        -0.0214
     94 NE1       -57.4200   75.6170  -20.2320 N.pl3     1 TRP        -0.2890
     95 CE2       -57.3340   76.7560  -20.9490 C.ar      1 TRP         0.0603
     96 CE3       -56.1710   77.5080  -22.9890 C.ar      1 TRP        -0.0747
     97 CZ2       -57.9240   77.9950  -20.7580 C.ar      1 TRP        -0.0443
     98 CZ3       -56.7740   78.7550  -22.7840 C.ar      1 TRP        -0.0792
     99 CH2       -57.6300   78.9890  -21.6960 C.ar      1 TRP        -0.0768
    100 N         -54.5150   73.7320  -26.1400 N.am      1 VAL        -0.2634
    101 CA        -53.4960   73.2530  -27.0670 C.3       1 VAL         0.1332
    102 C         -52.1760   73.9530  -26.7700 C.2       1 VAL         0.2036
    103 O         -52.1530   75.1640  -26.5520 O.2       1 VAL        -0.3944
    104 CB        -53.9080   73.5060  -28.5330 C.3       1 VAL        -0.0063
    105 CG1       -52.7380   73.2620  -29.4770 C.3       1 VAL        -0.0584
    106 CG2       -55.0870   72.6210  -28.9040 C.3       1 VAL        -0.0584
    107 N         -51.0890   73.1850  -26.7450 N.am      1 ARG        -0.2695
    108 CA        -49.7470   73.7420  -26.6320 C.3       1 ARG         0.0945
    109 C         -49.2720   74.1800  -28.0100 C.2       1 ARG         0.0601
    110 O         -48.5118   75.1765  -28.1389 O.co2     1 ARG        -0.5666
    111 CB        -48.7720   72.7130  -26.0640 C.3       1 ARG        -0.0148
    112 CG        -49.1020   72.2260  -24.6660 C.3       1 ARG        -0.0162
    113 CD        -47.9380   71.4490  -24.0660 C.3       1 ARG         0.0627
    114 NE        -48.3510   70.6600  -22.9160 N.pl3     1 ARG        -0.2723
    115 CZ        -47.5380   69.9250  -22.1660 C.cat     1 ARG         0.2882
    116 NH1       -46.2320   69.8610  -22.4190 N.pl3     1 ARG        -0.2849
    117 NH2       -48.0410   69.2490  -21.1430 N.pl3     1 ARG        -0.2849
    118 O         -49.6421   73.5406  -29.0307 O.co2     1 ARG        -0.5666
    119 H1        -71.0934   55.3037   -5.9746 H         1 LYS         0.2015
    120 H2        -70.7616   56.4383   -7.1201 H         1 LYS         0.2015
    121 H3        -72.2948   55.8636   -6.9506 H         1 LYS         0.2015
    122 H4        -72.5039   56.8197   -4.7711 H         1 LYS         0.1098
    123 H5        -70.6824   58.4939   -4.1433 H         1 LYS         0.0346
    124 H6        -69.6699   57.7291   -5.4147 H         1 LYS         0.0346
    125 H7        -69.6366   55.6430   -4.2525 H         1 LYS         0.0270
    126 H8        -70.8980   56.1922   -3.0975 H         1 LYS         0.0270
    127 H9        -69.3938   57.8212   -2.1317 H         1 LYS         0.0317
    128 H10       -68.1549   57.4925   -3.3902 H         1 LYS         0.0317
    129 H11       -68.0105   55.1388   -2.5720 H         1 LYS         0.0813
    130 H12       -69.1617   55.5575   -1.2581 H         1 LYS         0.0813
    131 H13       -66.8848   55.6608   -0.5242 H         1 LYS         0.1994
    132 H14       -67.5601   57.1609   -0.4686 H         1 LYS         0.1994
    133 H15       -66.5053   56.7773   -1.6727 H         1 LYS         0.1994
    134 H16       -72.8338   59.1751   -4.3671 H         1 LEU         0.1884
    135 H17       -73.9836   60.5459   -6.6070 H         1 LEU         0.0800
    136 H18       -73.0879   61.5826   -3.8939 H         1 LEU         0.0315
    137 H19       -74.6688   60.8103   -4.2557 H         1 LEU         0.0315
    138 H20       -73.6679   63.5472   -5.0586 H         1 LEU         0.0298
    139 H21       -75.7865   63.8542   -6.2749 H         1 LEU         0.0232
    140 H22       -76.1873   62.1226   -6.0148 H         1 LEU         0.0232
    141 H23       -74.7703   62.5751   -7.0218 H         1 LEU         0.0232
    142 H24       -74.6343   63.2341   -2.7923 H         1 LEU         0.0232
    143 H25       -76.1256   62.5581   -3.5310 H         1 LEU         0.0232
    144 H26       -75.6724   64.2705   -3.8289 H         1 LEU         0.0232
    145 H27       -72.8982   61.4925   -8.2234 H         1 ARG         0.1883
    146 H28       -70.0576   62.2973   -7.7545 H         1 ARG         0.0800
    147 H29       -69.8640   61.5326  -10.2817 H         1 ARG         0.0313
    148 H30       -71.3306   60.5680   -9.9001 H         1 ARG         0.0313
    149 H31       -70.1456   59.2903   -8.2469 H         1 ARG         0.0301
    150 H32       -68.7071   60.3585   -8.3741 H         1 ARG         0.0301
    151 H33       -68.3894   59.6545  -10.7206 H         1 ARG         0.0689
    152 H34       -69.8312   58.5902  -10.5980 H         1 ARG         0.0689
    153 H35       -68.6075   57.0450   -9.3284 H         1 ARG         0.2642
    154 H36       -65.0988   59.1150   -9.3726 H         1 ARG         0.2615
    155 H37       -66.5806   59.9490   -9.9126 H         1 ARG         0.2615
    156 H38       -66.7063   56.0658   -8.6631 H         1 ARG         0.2615
    157 H39       -65.1690   56.9708   -8.6821 H         1 ARG         0.2615
    158 H40       -71.6640   65.9509   -9.9447 H         1 PRO         0.0802
    159 H41       -70.8739   67.4147   -8.2964 H         1 PRO         0.0313
    160 H42       -69.4060   67.5053   -9.3278 H         1 PRO         0.0313
    161 H43       -69.2428   66.7125   -6.7799 H         1 PRO         0.0287
    162 H44       -68.2561   65.9202   -8.0548 H         1 PRO         0.0287
    163 H45       -69.3403   64.0404   -7.1417 H         1 PRO         0.0524
    164 H46       -70.8267   64.9672   -6.7438 H         1 PRO         0.0524
    165 H47       -71.2813   66.3082  -12.0187 H         1 VAL         0.1883
    166 H48       -68.8183   65.1807  -13.2588 H         1 VAL         0.0802
    167 H49       -71.3914   66.2198  -14.5711 H         1 VAL         0.0343
    168 H50       -70.5589   65.0207  -16.5647 H         1 VAL         0.0234
    169 H51       -69.0637   64.5851  -15.6695 H         1 VAL         0.0234
    170 H52       -69.4268   66.3076  -16.0273 H         1 VAL         0.0234
    171 H53       -71.8465   64.2455  -13.1532 H         1 VAL         0.0234
    172 H54       -70.5582   63.3364  -14.0137 H         1 VAL         0.0234
    173 H55       -72.0248   63.8731  -14.9014 H         1 VAL         0.0234
    174 H56       -67.3506   66.5718  -14.1512 H         1 23P         0.1884
    175 H57       -68.2240   69.3841  -14.6202 H         1 23P         0.0821
    176 H58       -65.6777   68.3842  -13.2988 H         1 23P         0.0568
    177 H59       -66.9225   69.4967  -12.6359 H         1 23P         0.0568
    178 H60       -64.9373   70.1456  -14.7511 H         1 23P         0.1853
    179 H61       -65.6822   73.5244  -14.6002 H         1 23P         0.0500
    180 H62       -64.7192   72.2251  -15.3821 H         1 23P         0.0500
    181 H63       -63.3020   73.6166  -13.8854 H         1 23P         0.0254
    182 H64       -63.4235   71.9263  -13.2898 H         1 23P         0.0254
    183 H65       -64.3865   73.2255  -12.5079 H         1 23P         0.0254
    184 H66       -67.7275   70.2366  -16.4764 H         1 MET         0.1883
    185 H67       -66.5150   68.4829  -18.5322 H         1 MET         0.0800
    186 H68       -67.3240   71.1597  -19.3787 H         1 MET         0.0320
    187 H69       -68.6230   70.3976  -18.3997 H         1 MET         0.0320
    188 H70       -68.3125   68.3670  -19.9739 H         1 MET         0.0378
    189 H71       -67.4463   69.5241  -21.0405 H         1 MET         0.0378
    190 H72       -71.9861   69.5384  -20.0523 H         1 MET         0.0340
    191 H73       -70.7582   69.6066  -18.7431 H         1 MET         0.0340
    192 H74       -70.8573   68.1628  -19.8073 H         1 MET         0.0340
    193 H75       -64.4479   68.8269  -19.1783 H         1 VAL         0.1883
    194 H76       -63.1411   71.3848  -18.3479 H         1 VAL         0.0802
    195 H77       -61.8306   68.6446  -18.6767 H         1 VAL         0.0343
    196 H78       -59.8345   69.7623  -17.7340 H         1 VAL         0.0234
    197 H79       -60.7132   71.3290  -17.7383 H         1 VAL         0.0234
    198 H80       -60.3389   70.5049  -19.2899 H         1 VAL         0.0234
    199 H81       -63.2710   68.8107  -16.6711 H         1 VAL         0.0234
    200 H82       -62.4051   70.3054  -16.1784 H         1 VAL         0.0234
    201 H83       -61.5295   68.7380  -16.2370 H         1 VAL         0.0234
    202 H84       -62.3488   72.5905  -19.8408 H         1 ARG         0.1883
    203 H85       -62.6494   71.7724  -22.6537 H         1 ARG         0.0800
    204 H86       -62.3060   74.1415  -23.1332 H         1 ARG         0.0313
    205 H87       -61.8351   74.4490  -21.4272 H         1 ARG         0.0313
    206 H88       -64.0826   75.2480  -21.7707 H         1 ARG         0.0301
    207 H89       -64.1425   73.7895  -20.7240 H         1 ARG         0.0301
    208 H90       -65.9498   73.7765  -22.3939 H         1 ARG         0.0689
    209 H91       -64.8053   72.4169  -22.6548 H         1 ARG         0.0689
    210 H92       -64.0127   74.6849  -24.2412 H         1 ARG         0.2642
    211 H93       -66.7901   72.1734  -25.8300 H         1 ARG         0.2615
    212 H94       -66.5161   72.1620  -24.0671 H         1 ARG         0.2615
    213 H95       -64.3711   74.6796  -26.4660 H         1 ARG         0.2615
    214 H96       -65.5888   73.5848  -27.1741 H         1 ARG         0.2615
    215 H97       -58.3433   70.9804  -22.8506 H         1 PRO         0.0802
    216 H98       -58.9433   69.6137  -24.7069 H         1 PRO         0.0313
    217 H99       -57.9939   70.8661  -25.5769 H         1 PRO         0.0313
    218 H100      -60.4885   70.3786  -26.3067 H         1 PRO         0.0287
    219 H101      -59.9149   72.0763  -26.1820 H         1 PRO         0.0287
    220 H102      -61.7702   72.2253  -24.7668 H         1 PRO         0.0524
    221 H103      -61.6750   70.4953  -24.2926 H         1 PRO         0.0524
    222 H104      -56.3805   71.9052  -23.2651 H         1 TRP         0.1884
    223 H105      -56.2953   74.5629  -24.6332 H         1 TRP         0.0815
    224 H106      -54.2883   74.9970  -23.1839 H         1 TRP         0.0397
    225 H107      -54.6615   73.4863  -22.2865 H         1 TRP         0.0397
    226 H108      -56.5683   73.6155  -20.4133 H         1 TRP         0.0795
    227 H109      -57.9795   75.5045  -19.3745 H         1 TRP         0.2216
    228 H110      -55.5129   77.3418  -23.8341 H         1 TRP         0.0540
    229 H111      -58.5838   78.1850  -19.9191 H         1 TRP         0.0541
    230 H112      -56.5750   79.5596  -23.4826 H         1 TRP         0.0510
    231 H113      -58.0764   79.9700  -21.5798 H         1 TRP         0.0530
    232 H114      -55.0572   74.5355  -26.3859 H         1 VAL         0.1883
    233 H115      -53.3674   72.1703  -26.9211 H         1 VAL         0.0802
    234 H116      -54.2171   74.5572  -28.6304 H         1 VAL         0.0343
    235 H117      -53.0575   73.4488  -30.5129 H         1 VAL         0.0234
    236 H118      -52.3997   72.2198  -29.3800 H         1 VAL         0.0234
    237 H119      -51.9117   73.9411  -29.2201 H         1 VAL         0.0234
    238 H120      -55.9205   72.8115  -28.2119 H         1 VAL         0.0234
    239 H121      -54.7882   71.5646  -28.8360 H         1 VAL         0.0234
    240 H122      -55.4055   72.8465  -29.9324 H         1 VAL         0.0234
    241 H123      -51.1969   72.1927  -26.8058 H         1 ARG         0.1875
    242 H124      -49.7763   74.6142  -25.9623 H         1 ARG         0.0726
    243 H125      -47.7706   73.1675  -26.0402 H         1 ARG         0.0307
    244 H126      -48.7637   71.8424  -26.7362 H         1 ARG         0.0307
    245 H127      -49.9846   71.5712  -24.7129 H         1 ARG         0.0301
    246 H128      -49.3224   73.0933  -24.0263 H         1 ARG         0.0301
    247 H129      -47.1608   72.1600  -23.7493 H         1 ARG         0.0689
    248 H130      -47.5278   70.7743  -24.8318 H         1 ARG         0.0689
    249 H131      -49.3497   70.6723  -22.6642 H         1 ARG         0.2642
    250 H132      -45.6198   69.2845  -21.8242 H         1 ARG         0.2615
    251 H133      -45.8341   70.3880  -23.2095 H         1 ARG         0.2615
    252 H134      -49.0502   69.2943  -20.9421 H         1 ARG         0.2615
    253 H135      -47.4227   68.6783  -20.5489 H         1 ARG         0.2615
@<TRIPOS>BOND
     1    1    2 1  
     2    2    3 1  
     3    2    5 1  
     4    3    4 2  
     5    3   10 am 
     6    5    6 1  
     7    6    7 1  
     8    7    8 1  
     9    8    9 1  
    10   10   11 1  
    11   11   12 1  
    12   11   14 1  
    13   12   13 2  
    14   12   18 am 
    15   14   15 1  
    16   15   16 1  
    17   15   17 1  
    18   18   19 1  
    19   19   20 1  
    20   19   22 1  
    21   20   21 2  
    22   20   29 am 
    23   22   23 1  
    24   23   24 1  
    25   24   25 1  
    26   25   26 ar 
    27   26   27 ar 
    28   26   28 ar 
    29   29   30 1  
    30   29   35 1  
    31   30   31 1  
    32   30   33 1  
    33   31   32 2  
    34   31   36 am 
    35   33   34 1  
    36   34   35 1  
    37   36   37 1  
    38   37   38 1  
    39   37   40 1  
    40   38   39 2  
    41   38   43 am 
    42   40   41 1  
    43   40   42 1  
    44   43   44 1  
    45   44   45 1  
    46   44   50 1  
    47   45   46 1  
    48   46   47 am 
    49   47   48 1  
    50   47   52 2  
    51   48   49 1  
    52   50   51 2  
    53   50   53 am 
    54   53   54 1  
    55   54   55 1  
    56   54   57 1  
    57   55   56 2  
    58   55   61 am 
    59   57   58 1  
    60   58   59 1  
    61   59   60 1  
    62   61   62 1  
    63   62   63 1  
    64   62   65 1  
    65   63   64 2  
    66   63   68 am 
    67   65   66 1  
    68   65   67 1  
    69   68   69 1  
    70   69   70 1  
    71   69   72 1  
    72   70   71 2  
    73   70   79 am 
    74   72   73 1  
    75   73   74 1  
    76   74   75 1  
    77   75   76 ar 
    78   76   77 ar 
    79   76   78 ar 
    80   79   80 1  
    81   79   85 1  
    82   80   81 1  
    83   80   83 1  
    84   81   82 2  
    85   81   86 am 
    86   83   84 1  
    87   84   85 1  
    88   86   87 1  
    89   87   88 1  
    90   87   90 1  
    91   88   89 2  
    92   88  100 am 
    93   90   91 1  
    94   91   92 2  
    95   91   93 1  
    96   92   94 1  
    97   93   95 ar 
    98   93   96 ar 
    99   94   95 1  
   100   95   97 ar 
   101   96   98 ar 
   102   97   99 ar 
   103   98   99 ar 
   104  100  101 1  
   105  101  102 1  
   106  101  104 1  
   107  102  103 2  
   108  102  107 am 
   109  104  105 1  
   110  104  106 1  
   111  107  108 1  
   112  108  109 1  
   113  108  111 1  
   114  109  110 ar 
   115  111  112 1  
   116  112  113 1  
   117  113  114 1  
   118  114  115 ar 
   119  115  116 ar 
   120  115  117 ar 
   121  109  118 ar 
   122    1  119 1  
   123    1  120 1  
   124    1  121 1  
   125    2  122 1  
   126    5  123 1  
   127    5  124 1  
   128    6  125 1  
   129    6  126 1  
   130    7  127 1  
   131    7  128 1  
   132    8  129 1  
   133    8  130 1  
   134    9  131 1  
   135    9  132 1  
   136    9  133 1  
   137   10  134 1  
   138   11  135 1  
   139   14  136 1  
   140   14  137 1  
   141   15  138 1  
   142   16  139 1  
   143   16  140 1  
   144   16  141 1  
   145   17  142 1  
   146   17  143 1  
   147   17  144 1  
   148   18  145 1  
   149   19  146 1  
   150   22  147 1  
   151   22  148 1  
   152   23  149 1  
   153   23  150 1  
   154   24  151 1  
   155   24  152 1  
   156   25  153 1  
   157   27  154 1  
   158   27  155 1  
   159   28  156 1  
   160   28  157 1  
   161   30  158 1  
   162   33  159 1  
   163   33  160 1  
   164   34  161 1  
   165   34  162 1  
   166   35  163 1  
   167   35  164 1  
   168   36  165 1  
   169   37  166 1  
   170   40  167 1  
   171   41  168 1  
   172   41  169 1  
   173   41  170 1  
   174   42  171 1  
   175   42  172 1  
   176   42  173 1  
   177   43  174 1  
   178   44  175 1  
   179   45  176 1  
   180   45  177 1  
   181   46  178 1  
   182   48  179 1  
   183   48  180 1  
   184   49  181 1  
   185   49  182 1  
   186   49  183 1  
   187   53  184 1  
   188   54  185 1  
   189   57  186 1  
   190   57  187 1  
   191   58  188 1  
   192   58  189 1  
   193   60  190 1  
   194   60  191 1  
   195   60  192 1  
   196   61  193 1  
   197   62  194 1  
   198   65  195 1  
   199   66  196 1  
   200   66  197 1  
   201   66  198 1  
   202   67  199 1  
   203   67  200 1  
   204   67  201 1  
   205   68  202 1  
   206   69  203 1  
   207   72  204 1  
   208   72  205 1  
   209   73  206 1  
   210   73  207 1  
   211   74  208 1  
   212   74  209 1  
   213   75  210 1  
   214   77  211 1  
   215   77  212 1  
   216   78  213 1  
   217   78  214 1  
   218   80  215 1  
   219   83  216 1  
   220   83  217 1  
   221   84  218 1  
   222   84  219 1  
   223   85  220 1  
   224   85  221 1  
   225   86  222 1  
   226   87  223 1  
   227   90  224 1  
   228   90  225 1  
   229   92  226 1  
   230   94  227 1  
   231   96  228 1  
   232   97  229 1  
   233   98  230 1  
   234   99  231 1  
   235  100  232 1  
   236  101  233 1  
   237  104  234 1  
   238  105  235 1  
   239  105  236 1  
   240  105  237 1  
   241  106  238 1  
   242  106  239 1  
   243  106  240 1  
   244  107  241 1  
   245  108  242 1  
   246  111  243 1  
   247  111  244 1  
   248  112  245 1  
   249  112  246 1  
   250  113  247 1  
   251  113  248 1  
   252  114  249 1  
   253  116  250 1  
   254  116  251 1  
   255  117  252 1  
   256  117  253 1  
@<TRIPOS>SUBSTRUCTURE
     1 LYS         1

