6fzg_ligand
  -I-interpret- 

 66 69  0  0  0  0  0  0  0  0999 V2000
   -6.8190  114.0820   29.1460 O   0  0  0  0  0
   -2.6520  114.8070   24.1990 C   0  0  0  0  0
   -3.2740  114.5390   25.4030 C   0  0  0  0  0
   -3.9760  113.3590   25.6000 C   0  0  0  0  0
   -6.3360  114.8310   26.4080 N   0  0  0  0  0
   -4.6670  113.0830   26.9130 C   0  0  0  0  0
   -6.1530  113.4720   26.8950 C   0  0  0  0  0
   -3.8230  114.0480   17.9400 N   0  0  0  0  0
   -7.5970  115.3380   26.1110 C   0  0  0  0  0
   -7.6860  116.6070   25.5020 C   0  0  0  0  0
   -8.9430  117.1060   25.1600 C   0  0  0  0  0
  -10.0860  116.3670   25.4120 C   0  0  0  0  0
   -9.9940  115.1240   25.9930 C   0  0  0  0  0
   -8.7590  114.6060   26.3440 C   0  0  0  0  0
   -6.4740  117.4070   25.1760 C   0  0  0  0  0
   -6.7680  113.2350   28.2670 C   0  0  0  0  0
   -7.2440  112.0200   28.3790 O   0  0  0  0  0
   -6.5910  118.7990   24.6550 C   0  0  0  0  0
   -7.3690  119.7600   25.2960 C   0  0  0  0  0
   -7.4010  121.0630   24.8270 C   0  0  0  0  0
   -6.6600  121.4230   23.7210 C   0  0  0  0  0
   -5.8880  120.4800   23.0780 C   0  0  0  0  0
   -5.8550  119.1730   23.5360 C   0  0  0  0  0
   -5.3680  116.9030   25.3200 O   0  0  0  0  0
   -4.0370  112.4440   24.5590 C   0  0  0  0  0
   -3.4300  112.7040   23.3430 C   0  0  0  0  0
   -2.7400  113.8910   23.1630 C   0  0  0  0  0
   -2.1650  114.2190   21.9590 O   0  0  0  0  0
   -2.2950  113.2930   20.8640 C   0  0  0  0  0
   -1.5920  113.9080   19.6850 C   0  0  0  0  0
   -2.2270  115.1730   19.3090 N   0  0  0  0  0
   -1.4610  116.4050   19.4500 C   0  0  0  0  0
   -3.3130  115.2170   18.3440 C   0  0  0  0  0
   -3.7920  116.4530   17.9250 C   0  0  0  0  0
   -4.8660  116.4580   17.0530 C   0  0  0  0  0
   -5.4200  115.2660   16.6320 C   0  0  0  0  0
   -4.8680  114.0930   17.0990 C   0  0  0  0  0
   -2.0949  115.7342   24.0646 H   0  0  0  0  0
   -3.2121  115.2671   26.2118 H   0  0  0  0  0
   -5.5184  115.4274   26.2811 H   0  0  0  0  0
   -4.1747  113.6787   27.6817 H   0  0  0  0  0
   -4.6040  112.0120   27.1054 H   0  0  0  0  0
   -6.6857  112.8329   26.1908 H   0  0  0  0  0
   -9.0258  118.0861   24.6904 H   0  0  0  0  0
  -11.0631  116.7720   25.1488 H   0  0  0  0  0
  -10.8979  114.5437   26.1781 H   0  0  0  0  0
   -8.6956  113.6203   26.8050 H   0  0  0  0  0
   -7.0878  111.5398   27.5625 H   0  0  0  0  0
   -7.9563  119.4851   26.1721 H   0  0  0  0  0
   -8.0147  121.8073   25.3345 H   0  0  0  0  0
   -6.6849  122.4500   23.3567 H   0  0  0  0  0
   -5.3005  120.7638   22.2048 H   0  0  0  0  0
   -5.2478  118.4324   23.0155 H   0  0  0  0  0
   -4.5718  111.5049   24.7013 H   0  0  0  0  0
   -3.4946  111.9789   22.5318 H   0  0  0  0  0
   -3.3449  113.1098   20.6354 H   0  0  0  0  0
   -1.8529  112.3296   21.1181 H   0  0  0  0  0
   -1.6486  113.2199   18.8416 H   0  0  0  0  0
   -0.5533  114.1003   19.9539 H   0  0  0  0  0
   -1.1749  116.5360   20.4936 H   0  0  0  0  0
   -0.5657  116.3476   18.8309 H   0  0  0  0  0
   -2.0716  117.2495   19.1306 H   0  0  0  0  0
   -3.3388  117.3823   18.2702 H   0  0  0  0  0
   -5.2750  117.4040   16.6982 H   0  0  0  0  0
   -6.2699  115.2529   15.9496 H   0  0  0  0  0
   -5.3037  113.1505   16.7674 H   0  0  0  0  0
 16  1  2  0  0  0
  2  3  4  0  0  0
 27  2  4  0  0  0
  3  4  4  0  0  0
  4  6  1  0  0  0
 25  4  4  0  0  0
  7  5  1  0  0  0
  5  9  1  0  0  0
  6  7  1  0  0  0
  7 16  1  0  0  0
 33  8  4  0  0  0
  8 37  4  0  0  0
  9 10  4  0  0  0
  9 14  4  0  0  0
 10 11  4  0  0  0
 10 15  1  0  0  0
 11 12  4  0  0  0
 13 12  4  0  0  0
 14 13  4  0  0  0
 15 18  1  0  0  0
 15 24  2  0  0  0
 16 17  1  0  0  0
 18 19  4  0  0  0
 18 23  4  0  0  0
 19 20  4  0  0  0
 20 21  4  0  0  0
 22 21  4  0  0  0
 23 22  4  0  0  0
 26 25  4  0  0  0
 27 26  4  0  0  0
 28 27  1  0  0  0
 29 28  1  0  0  0
 30 29  1  0  0  0
 31 30  1  0  0  0
 31 32  1  0  0  0
 31 33  1  0  0  0
 33 34  4  0  0  0
 34 35  4  0  0  0
 35 36  4  0  0  0
 36 37  4  0  0  0
  2 38  1  0  0  0
  3 39  1  0  0  0
  5 40  1  0  0  0
  6 41  1  0  0  0
  6 42  1  0  0  0
  7 43  1  0  0  0
 11 44  1  0  0  0
 12 45  1  0  0  0
 13 46  1  0  0  0
 14 47  1  0  0  0
 17 48  1  0  0  0
 19 49  1  0  0  0
 20 50  1  0  0  0
 21 51  1  0  0  0
 22 52  1  0  0  0
 23 53  1  0  0  0
 25 54  1  0  0  0
 26 55  1  0  0  0
 29 56  1  0  0  0
 29 57  1  0  0  0
 30 58  1  0  0  0
 30 59  1  0  0  0
 32 60  1  0  0  0
 32 61  1  0  0  0
 32 62  1  0  0  0
 34 63  1  0  0  0
 35 64  1  0  0  0
 36 65  1  0  0  0
 37 66  1  0  0  0
M  END
$$$$
