4w9e_ligand
  -I-interpret- 

 55 57  0  0  0  0  0  0  0  0999 V2000
   13.1750   52.4960   95.2110 C   0  0  0  0  0
   12.5860   52.3230   93.8120 C   0  0  0  0  0
   11.2720   51.5440   93.9320 C   0  0  0  0  0
   13.5640   51.5290   92.9320 C   0  0  0  0  0
   12.3190   53.7180   93.2880 C   0  0  0  0  0
   11.9460   53.6710   91.7790 C   0  0  0  0  0
   10.7790   53.4260   91.4650 O   0  0  0  0  0
   12.9010   53.9790   90.8600 N   0  0  0  0  0
   14.3550   54.3770   91.0090 C   0  0  0  0  0
   14.6720   55.1950   89.7790 C   0  0  0  0  0
   14.2730   56.5650   89.9670 O   0  0  0  0  0
   13.8230   54.5610   88.7050 C   0  0  0  0  0
   12.5460   54.0790   89.4010 C   0  0  0  0  0
   12.1230   52.8850   88.8080 C   0  0  0  0  0
   12.6460   51.8200   89.1280 O   0  0  0  0  0
   11.1610   53.0030   87.8510 N   0  0  0  0  0
   10.6850   51.8380   87.1110 C   0  0  0  0  0
   11.4910   51.6700   85.9510 C   0  0  0  0  0
   11.3940   50.4740   85.2370 C   0  0  0  0  0
   12.1790   50.2480   84.1070 C   0  0  0  0  0
   12.4000   52.6380   85.4910 C   0  0  0  0  0
   13.1810   52.4090   84.3550 C   0  0  0  0  0
   13.0760   51.2190   83.6470 C   0  0  0  0  0
   13.8200   51.0030   82.5550 C   0  0  0  0  0
   15.4190   51.4870   82.3140 S   0  0  0  0  0
   15.5370   50.8320   80.8020 C   0  0  0  0  0
   14.3620   50.2570   80.5100 N   0  0  0  0  0
   13.4100   50.3460   81.4640 C   0  0  0  0  0
   14.0972   53.0736   95.1467 H   0  0  0  0  0
   12.4590   53.0215   95.8429 H   0  0  0  0  0
   13.3876   51.5159   95.6381 H   0  0  0  0  0
   10.6048   52.0632   94.6200 H   0  0  0  0  0
   10.8017   51.4740   92.9512 H   0  0  0  0  0
   11.4780   50.5426   94.3099 H   0  0  0  0  0
   13.1514   51.4331   91.9277 H   0  0  0  0  0
   14.5178   52.0545   92.8857 H   0  0  0  0  0
   13.7141   50.5381   93.3606 H   0  0  0  0  0
   13.2186   54.3209   93.4118 H   0  0  0  0  0
   11.4886   54.1524   93.8446 H   0  0  0  0  0
   15.0037   53.5047   91.0891 H   0  0  0  0  0
   14.5238   54.9455   91.9236 H   0  0  0  0  0
   15.7361   55.2049   89.5429 H   0  0  0  0  0
   14.4815   57.0691   89.1771 H   0  0  0  0  0
   14.3468   53.7335   88.2266 H   0  0  0  0  0
   13.5943   55.2734   87.9124 H   0  0  0  0  0
   11.6942   54.7515   89.2996 H   0  0  0  0  0
   10.7663   53.9213   87.6478 H   0  0  0  0  0
    9.6451   51.9855   86.8196 H   0  0  0  0  0
   10.7519   50.9494   87.7388 H   0  0  0  0  0
   10.6947   49.7061   85.5677 H   0  0  0  0  0
   12.0928   49.3011   83.5740 H   0  0  0  0  0
   12.4973   53.5814   86.0282 H   0  0  0  0  0
   13.8815   53.1742   84.0204 H   0  0  0  0  0
   16.4147   50.8621   80.1564 H   0  0  0  0  0
   12.4101   49.9256   81.3561 H   0  0  0  0  0
  1  2  1  0  0  0
  2  3  1  0  0  0
  2  4  1  0  0  0
  2  5  1  0  0  0
  5  6  1  0  0  0
  6  7  2  0  0  0
  6  8  1  0  0  0
  8  9  1  0  0  0
  8 13  1  0  0  0
  9 10  1  0  0  0
 10 11  1  0  0  0
 10 12  1  0  0  0
 12 13  1  0  0  0
 13 14  1  0  0  0
 14 15  2  0  0  0
 14 16  1  0  0  0
 16 17  1  0  0  0
 17 18  1  0  0  0
 18 19  4  0  0  0
 18 21  4  0  0  0
 19 20  4  0  0  0
 20 23  4  0  0  0
 21 22  4  0  0  0
 22 23  4  0  0  0
 23 24  1  0  0  0
 24 25  4  0  0  0
 24 28  4  0  0  0
 25 26  4  0  0  0
 26 27  4  0  0  0
 27 28  4  0  0  0
  1 29  1  0  0  0
  1 30  1  0  0  0
  1 31  1  0  0  0
  3 32  1  0  0  0
  3 33  1  0  0  0
  3 34  1  0  0  0
  4 35  1  0  0  0
  4 36  1  0  0  0
  4 37  1  0  0  0
  5 38  1  0  0  0
  5 39  1  0  0  0
  9 40  1  0  0  0
  9 41  1  0  0  0
 10 42  1  0  0  0
 11 43  1  0  0  0
 12 44  1  0  0  0
 12 45  1  0  0  0
 13 46  1  0  0  0
 16 47  1  0  0  0
 17 48  1  0  0  0
 17 49  1  0  0  0
 19 50  1  0  0  0
 20 51  1  0  0  0
 21 52  1  0  0  0
 22 53  1  0  0  0
 26 54  1  0  0  0
 28 55  1  0  0  0
M  END
$$$$
