1a08_ligand
  -I-interpret- 

 83 83  0  0  0  0  0  0  0  0999 V2000
   41.3330    7.6410   24.6710 C   0  0  0  0  0
   41.0370    8.8260   24.9230 O   0  0  0  0  0
   41.5940    6.6140   25.7620 C   0  0  0  0  0
   41.6110    7.1210   23.4750 N   0  0  0  0  0
   41.4640    7.8470   22.2290 C   0  0  0  0  0
   40.2360    7.3890   21.4600 C   0  0  0  0  0
   39.7050    6.2960   21.6760 O   0  0  0  0  0
   42.7500    7.6550   21.4040 C   0  0  0  0  0
   43.9840    8.0510   22.2010 C   0  0  0  0  0
   44.7090    7.1450   23.0070 C   0  0  0  0  0
   44.3870    9.3440   22.1140 C   0  0  0  0  0
   45.8310    7.5360   23.7220 C   0  0  0  0  0
   45.4940    9.7320   22.8140 C   0  0  0  0  0
   46.2270    8.8610   23.6100 C   0  0  0  0  0
   47.4870    9.4350   24.2980 C   0  0  0  0  0
   48.6090    8.6190   24.1110 F   0  0  0  0  0
   47.8940   10.4980   23.4710 F   0  0  0  0  0
   47.4770    9.8790   26.0920 P   0  0  0  0  0
   48.7700   10.5430   26.2560 O   0  0  0  0  0
   47.4560    8.5560   26.7380 O   0  0  0  0  0
   46.2490   10.7280   26.2340 O   0  0  0  0  0
   39.8530    8.2640   20.5620 N   0  0  0  0  0
   38.7410    8.0620   19.6740 C   0  0  0  0  0
   39.1750    7.3110   18.4070 C   0  0  0  0  0
   40.3620    7.4490   18.0940 O   0  0  0  0  0
   38.1900    9.3900   19.3050 C   0  0  0  0  0
   37.6290   10.1980   20.4590 C   0  0  0  0  0
   36.4230    9.5560   21.1200 C   0  0  0  0  0
   35.4870    9.1800   20.4000 O   0  0  0  0  0
   36.4150    9.4710   22.3470 O   0  0  0  0  0
   38.3400    6.4580   17.6920 N   0  0  0  0  0
   37.0330    6.0690   18.2190 C   0  0  0  0  0
   37.3680    5.0290   19.2960 C   0  0  0  0  0
   36.2460    4.7760   20.2680 C   0  0  0  0  0
   35.1220    3.9400   19.7130 C   0  0  0  0  0
   35.2460    2.4610   20.1590 C   0  0  0  0  0
   38.6840    5.9690   16.3670 C   0  0  0  0  0
   37.8280    6.7260   15.3260 C   0  0  0  0  0
   38.3260    8.2080   15.1210 C   0  0  0  0  0
   37.7080    9.0520   13.9690 C   0  0  0  0  0
   38.5800   10.3120   13.7740 C   0  0  0  0  0
   42.4314    6.9439   26.3769 H   0  0  0  0  0
   40.7040    6.5111   26.3828 H   0  0  0  0  0
   41.8331    5.6535   25.3054 H   0  0  0  0  0
   41.9459    6.1584   23.4346 H   0  0  0  0  0
   41.3172    8.9068   22.4374 H   0  0  0  0  0
   42.6914    8.2881   20.5187 H   0  0  0  0  0
   42.8348    6.6023   21.1344 H   0  0  0  0  0
   44.3768    6.1087   23.0686 H   0  0  0  0  0
   43.8391   10.0576   21.4987 H   0  0  0  0  0
   46.3796    6.8310   24.3466 H   0  0  0  0  0
   45.8164   10.7709   22.7449 H   0  0  0  0  0
   46.5946    8.1521   26.6097 H   0  0  0  0  0
   45.4686   10.1838   26.1061 H   0  0  0  0  0
   40.3739    9.1380   20.4894 H   0  0  0  0  0
   37.9849    7.4593   20.1772 H   0  0  0  0  0
   37.3627    9.2066   18.6194 H   0  0  0  0  0
   39.0159    9.9678   18.8901 H   0  0  0  0  0
   37.3092   11.1603   20.0594 H   0  0  0  0  0
   38.4117   10.2775   21.2134 H   0  0  0  0  0
   35.7080    9.3411   19.4798 H   0  0  0  0  0
   36.3759    5.6697   17.4464 H   0  0  0  0  0
   36.4776    6.9171   18.6193 H   0  0  0  0  0
   38.2122    5.4142   19.8678 H   0  0  0  0  0
   37.5739    4.0880   18.7858 H   0  0  0  0  0
   35.8246    5.7462   20.5312 H   0  0  0  0  0
   36.6684    4.2275   21.1099 H   0  0  0  0  0
   35.1658    3.9788   18.6246 H   0  0  0  0  0
   34.1779    4.3367   20.0862 H   0  0  0  0  0
   36.1914    2.0530   19.8013 H   0  0  0  0  0
   35.2141    2.4071   21.2472 H   0  0  0  0  0
   34.4195    1.8863   19.7411 H   0  0  0  0  0
   38.4867    4.8989   16.3030 H   0  0  0  0  0
   39.7428    6.1386   16.1716 H   0  0  0  0  0
   36.8000    6.7578   15.6869 H   0  0  0  0  0
   37.9082    6.2036   14.3727 H   0  0  0  0  0
   39.3833    8.1194   14.8712 H   0  0  0  0  0
   38.0459    8.7299   16.0360 H   0  0  0  0  0
   36.6865    9.3379   14.2197 H   0  0  0  0  0
   37.6813    8.4682   13.0489 H   0  0  0  0  0
   38.5927   10.8900   14.6980 H   0  0  0  0  0
   39.5962   10.0128   13.5170 H   0  0  0  0  0
   38.1643   10.9191   12.9698 H   0  0  0  0  0
  1  2  2  0  0  0
  1  3  1  0  0  0
 22 23  1  0  0  0
 23 26  1  0  0  0
 23 24  1  0  0  0
 24 25  2  0  0  0
 26 27  1  0  0  0
 27 28  1  0  0  0
 28 30  2  0  0  0
 28 29  1  0  0  0
  4  1  1  0  0  0
  5  4  1  0  0  0
  6  5  1  0  0  0
  5  8  1  0  0  0
  6  7  2  0  0  0
  6 22  1  0  0  0
  8  9  1  0  0  0
  9 10  4  0  0  0
  9 11  4  0  0  0
 10 12  4  0  0  0
 11 13  4  0  0  0
 12 14  4  0  0  0
 13 14  4  0  0  0
 14 15  1  0  0  0
 15 16  1  0  0  0
 15 17  1  0  0  0
 15 18  1  0  0  0
 18 19  2  0  0  0
 18 20  1  0  0  0
 18 21  1  0  0  0
 24 31  1  0  0  0
 31 32  1  0  0  0
 31 37  1  0  0  0
 32 33  1  0  0  0
 33 34  1  0  0  0
 34 35  1  0  0  0
 35 36  1  0  0  0
 37 38  1  0  0  0
 38 39  1  0  0  0
 39 40  1  0  0  0
 40 41  1  0  0  0
  3 42  1  0  0  0
  3 43  1  0  0  0
  3 44  1  0  0  0
  4 45  1  0  0  0
  5 46  1  0  0  0
  8 47  1  0  0  0
  8 48  1  0  0  0
 10 49  1  0  0  0
 11 50  1  0  0  0
 12 51  1  0  0  0
 13 52  1  0  0  0
 20 53  1  0  0  0
 21 54  1  0  0  0
 22 55  1  0  0  0
 23 56  1  0  0  0
 26 57  1  0  0  0
 26 58  1  0  0  0
 27 59  1  0  0  0
 27 60  1  0  0  0
 29 61  1  0  0  0
 32 62  1  0  0  0
 32 63  1  0  0  0
 33 64  1  0  0  0
 33 65  1  0  0  0
 34 66  1  0  0  0
 34 67  1  0  0  0
 35 68  1  0  0  0
 35 69  1  0  0  0
 36 70  1  0  0  0
 36 71  1  0  0  0
 36 72  1  0  0  0
 37 73  1  0  0  0
 37 74  1  0  0  0
 38 75  1  0  0  0
 38 76  1  0  0  0
 39 77  1  0  0  0
 39 78  1  0  0  0
 40 79  1  0  0  0
 40 80  1  0  0  0
 41 81  1  0  0  0
 41 82  1  0  0  0
 41 83  1  0  0  0
M  END
$$$$
