3q44_ligand
  -I-interpret- 

 61 62  0  0  0  0  0  0  0  0999 V2000
   17.2420    9.0780    7.0360 C   0  0  0  0  0
   15.4250   10.7780   10.5820 N   0  0  0  0  0
   13.9390    9.6190   11.7240 O   0  0  0  0  0
   16.3420    9.0290    8.2410 C   0  0  0  0  0
   11.2460   12.7430   11.9840 N   0  3  0  0  0
   12.8170   12.1970    9.8930 O   0  0  0  0  0
   15.8120    7.6000    8.4500 C   0  0  0  0  0
   12.1540   10.1800   18.6040 O   0  0  0  0  0
   17.1690    9.5400    9.4170 C   0  0  0  0  0
   17.1020   10.7430   12.6490 O   0  0  0  0  0
   16.3490    9.6640   10.6690 C   0  0  0  0  0
   18.0750    8.8160   12.1410 O   0  0  0  0  0
   14.2660   10.6850   11.1690 C   0  0  0  0  0
   13.4490   11.9820   11.1860 C   0  0  0  0  0
   12.4360   11.9060   12.3170 C   0  0  0  0  0
   13.1310   12.5110   13.5140 C   0  0  0  0  0
   12.8380   11.8650   14.8410 C   0  0  0  0  0
   13.2690   10.5600   15.1310 C   0  0  0  0  0
   13.0230   10.0080   16.3840 C   0  0  0  0  0
   12.3690   10.7420   17.3480 C   0  0  0  0  0
   11.0280   10.4060   19.4460 C   0  0  0  0  0
   11.1280    9.4110   20.5780 C   0  0  0  0  0
   10.8140    9.7900   21.8870 C   0  0  0  0  0
   10.9110    8.8660   22.9270 C   0  0  0  0  0
   11.3270    7.5620   22.6600 C   0  0  0  0  0
   11.6540    7.1620   21.3580 C   0  0  0  0  0
   11.5460    8.1020   20.3210 C   0  0  0  0  0
   11.9620   12.0370   17.0600 C   0  0  0  0  0
   12.1930   12.6210   15.8070 C   0  0  0  0  0
   17.2050    9.7750   11.8940 C   0  0  0  0  0
   18.0843    8.4026    7.1855 H   0  0  0  0  0
   16.6815    8.7718    6.1527 H   0  0  0  0  0
   17.6098   10.0950    6.9000 H   0  0  0  0  0
   15.6789   11.6221   10.0687 H   0  0  0  0  0
   15.4566    9.6538    8.1232 H   0  0  0  0  0
   10.5697   12.6886   12.7456 H   0  0  0  0  0
   11.5383   13.7118   11.8558 H   0  0  0  0  0
   10.8196   12.3986   11.1238 H   0  0  0  0  0
   12.3094   13.0114    9.9177 H   0  0  0  0  0
   16.6519    6.9183    8.5841 H   0  0  0  0  0
   15.1772    7.5752    9.3358 H   0  0  0  0  0
   15.2327    7.2975    7.5777 H   0  0  0  0  0
   17.5519   10.5279    9.1609 H   0  0  0  0  0
   17.9720    8.8272    9.6045 H   0  0  0  0  0
   15.7689    8.7458   10.7611 H   0  0  0  0  0
   18.0174    8.1484   11.4536 H   0  0  0  0  0
   14.0989   12.8387   11.3642 H   0  0  0  0  0
   12.1031   10.8832   12.4937 H   0  0  0  0  0
   12.7754   13.5387   13.5880 H   0  0  0  0  0
   14.2003   12.3878   13.3424 H   0  0  0  0  0
   13.7964    9.9796   14.3740 H   0  0  0  0  0
   13.3490    8.9913   16.6033 H   0  0  0  0  0
   10.0971   10.2752   18.8942 H   0  0  0  0  0
   11.0248   11.4278   19.8254 H   0  0  0  0  0
   10.4925   10.8105   22.0950 H   0  0  0  0  0
   10.6623    9.1623   23.9460 H   0  0  0  0  0
   11.3988    6.8435   23.4765 H   0  0  0  0  0
   11.9849    6.1436   21.1546 H   0  0  0  0  0
   11.7916    7.8070   19.3008 H   0  0  0  0  0
   11.4491   12.6153   17.8285 H   0  0  0  0  0
   11.8740   13.6421   15.5980 H   0  0  0  0  0
  4  1  1  0  0  0
  2 11  1  0  0  0
 13  2  1  0  0  0
 13  3  2  0  0  0
  4  7  1  0  0  0
  9  4  1  0  0  0
 15  5  1  0  0  0
 14  6  1  0  0  0
 20  8  1  0  0  0
  8 21  1  0  0  0
 11  9  1  0  0  0
 30 10  2  0  0  0
 11 30  1  0  0  0
 30 12  1  0  0  0
 14 13  1  0  0  0
 15 14  1  0  0  0
 16 15  1  0  0  0
 17 16  1  0  0  0
 18 17  4  0  0  0
 17 29  4  0  0  0
 19 18  4  0  0  0
 19 20  4  0  0  0
 20 28  4  0  0  0
 21 22  1  0  0  0
 22 23  4  0  0  0
 22 27  4  0  0  0
 23 24  4  0  0  0
 24 25  4  0  0  0
 25 26  4  0  0  0
 26 27  4  0  0  0
 28 29  4  0  0  0
  1 31  1  0  0  0
  1 32  1  0  0  0
  1 33  1  0  0  0
  2 34  1  0  0  0
  4 35  1  0  0  0
  5 36  1  0  0  0
  5 37  1  0  0  0
  5 38  1  0  0  0
  6 39  1  0  0  0
  7 40  1  0  0  0
  7 41  1  0  0  0
  7 42  1  0  0  0
  9 43  1  0  0  0
  9 44  1  0  0  0
 11 45  1  0  0  0
 12 46  1  0  0  0
 14 47  1  0  0  0
 15 48  1  0  0  0
 16 49  1  0  0  0
 16 50  1  0  0  0
 18 51  1  0  0  0
 19 52  1  0  0  0
 21 53  1  0  0  0
 21 54  1  0  0  0
 23 55  1  0  0  0
 24 56  1  0  0  0
 25 57  1  0  0  0
 26 58  1  0  0  0
 27 59  1  0  0  0
 28 60  1  0  0  0
 29 61  1  0  0  0
M  END
$$$$
