5yc2_ligand
  -I-interpret- 

221222  0  0  0  0  0  0  0  0999 V2000
    3.2720   35.4410   52.2160 N   0  3  0  0  0
    3.3920   36.2800   53.4130 C   0  0  0  0  0
    4.2500   35.6260   54.4880 C   0  0  0  0  0
    5.0540   36.2980   55.1360 O   0  0  0  0  0
    1.9420   36.4270   53.8880 C   0  0  0  0  0
    1.1160   36.1710   52.6730 C   0  0  0  0  0
    1.8680   35.1360   51.8960 C   0  0  0  0  0
    4.0710   34.3200   54.6730 N   0  0  0  0  0
    4.8330   33.5510   55.6450 C   0  0  0  0  0
    5.9260   32.7100   55.0040 C   0  0  0  0  0
    6.6450   32.0040   55.7180 O   0  0  0  0  0
    3.8960   32.6520   56.4580 C   0  0  0  0  0
    2.8900   33.3840   57.3480 C   0  0  0  0  0
    1.9500   32.3990   58.0240 C   0  0  0  0  0
    3.6150   34.2310   58.3820 C   0  0  0  0  0
    6.0650   32.7630   53.6830 N   0  0  0  0  0
    7.1260   32.0330   53.0110 C   0  0  0  0  0
    8.4820   32.6600   53.3260 C   0  0  0  0  0
    8.5850   33.8350   53.6890 O   0  0  0  0  0
    6.8850   32.0140   51.5010 C   0  0  0  0  0
    5.4270   31.7850   51.1450 C   0  0  0  0  0
    4.6630   32.7730   51.1050 O   0  0  0  0  0
    5.0450   30.6200   50.9010 O   0  0  0  0  0
    9.5360   31.8510   53.1830 N   0  0  0  0  0
   10.8810   32.3110   53.5190 C   0  0  0  0  0
   11.2880   33.5080   52.6670 C   0  0  0  0  0
   11.8020   34.5070   53.1840 O   0  0  0  0  0
   11.8840   31.1680   53.3520 C   0  0  0  0  0
   11.8620   30.1930   54.5140 C   0  0  0  0  0
   10.8840   30.2070   55.2910 O   0  0  0  0  0
   12.8250   29.4100   54.6490 O   0  0  0  0  0
   11.0560   33.4280   51.3550 N   0  0  0  0  0
   11.5150   34.4850   50.4580 C   0  0  0  0  0
   10.7900   35.7990   50.7220 C   0  0  0  0  0
   11.4110   36.8680   50.7240 O   0  0  0  0  0
   11.3340   34.0510   49.0040 C   0  0  0  0  0
   12.1490   32.8270   48.6200 C   0  0  0  0  0
   13.1140   33.1010   47.4850 C   0  0  0  0  0
   12.8670   34.0470   46.7070 O   0  0  0  0  0
   14.1240   32.3740   47.3720 O   0  0  0  0  0
    9.4760   35.7420   50.9530 N   0  0  0  0  0
    8.7180   36.9730   51.1530 C   0  0  0  0  0
    8.9800   37.5720   52.5300 C   0  0  0  0  0
    9.1060   38.7950   52.6650 O   0  0  0  0  0
    7.2260   36.7130   50.9510 C   0  0  0  0  0
    6.3580   37.9380   51.1880 C   0  0  0  0  0
    4.9460   37.7640   50.6730 C   0  0  0  0  0
    4.7200   36.8540   49.8480 O   0  0  0  0  0
    4.0600   38.5360   51.0940 O   0  0  0  0  0
    9.0670   36.7310   53.5630 N   0  0  0  0  0
    9.3340   37.2410   54.9030 C   0  0  0  0  0
   10.7130   37.8810   54.9830 C   0  0  0  0  0
   10.8910   38.9120   55.6440 O   0  0  0  0  0
    9.2040   36.1180   55.9310 C   0  0  0  0  0
   11.7010   37.2870   54.3090 N   0  0  0  0  0
   13.0560   37.8280   54.3530 C   0  0  0  0  0
   13.1280   39.2020   53.7000 C   0  0  0  0  0
   13.8430   40.0880   54.1810 O   0  0  0  0  0
   14.0290   36.8640   53.6750 C   0  0  0  0  0
   15.4330   37.3860   53.5840 C   0  0  0  0  0
   16.2350   37.4500   54.7110 C   0  0  0  0  0
   15.9530   37.8120   52.3720 C   0  0  0  0  0
   17.5270   37.9310   54.6370 C   0  0  0  0  0
   17.2470   38.2940   52.2900 C   0  0  0  0  0
   18.0360   38.3520   53.4270 C   0  0  0  0  0
   12.3950   39.3980   52.6000 N   0  0  0  0  0
   12.4190   40.6860   51.9150 C   0  0  0  0  0
   11.8160   41.7820   52.7830 C   0  0  0  0  0
   12.3720   42.8820   52.8850 O   0  0  0  0  0
   11.6810   40.5920   50.5800 C   0  0  0  0  0
   11.5330   41.9330   49.8770 C   0  0  0  0  0
   11.0100   41.8070   48.4590 C   0  0  0  0  0
   10.6810   40.6770   48.0390 O   0  0  0  0  0
   10.9320   42.8410   47.7620 O   0  0  0  0  0
   10.6730   41.5040   53.4170 N   0  0  0  0  0
   10.0590   42.5090   54.2760 C   0  0  0  0  0
   10.9160   42.7840   55.5050 C   0  0  0  0  0
   10.8280   43.8660   56.0940 O   0  0  0  0  0
    8.6570   42.0560   54.6930 C   0  0  0  0  0
    7.7070   41.8300   53.5340 C   0  0  0  0  0
    6.5930   42.8640   53.4970 C   0  0  0  0  0
    7.1350   44.2550   53.2150 C   0  0  0  0  0
    6.0680   45.2890   53.2250 N   0  3  0  0  0
   11.7540   41.8210   55.9030 N   0  0  0  0  0
   12.5870   42.0090   57.0850 C   0  0  0  0  0
   13.7560   42.9500   56.8090 C   0  0  0  0  0
   14.2390   43.6210   57.7290 O   0  0  0  0  0
   13.0850   40.6510   57.5820 C   0  0  0  0  0
   13.8390   40.7030   58.9000 C   0  0  0  0  0
   14.2180   39.3280   59.4080 C   0  0  0  0  0
   13.5420   38.3380   59.1220 O   0  0  0  0  0
   15.3060   39.2580   60.1660 N   0  0  0  0  0
   14.2190   43.0240   55.5590 N   0  0  0  0  0
   15.3700   43.8610   55.2380 C   0  0  0  0  0
   14.9930   45.2760   54.8110 C   0  0  0  0  0
   15.8590   46.1610   54.8170 O   0  0  0  0  0
   16.2290   43.2230   54.1300 C   0  0  0  0  0
   16.5410   41.7740   54.4530 C   0  0  0  0  0
   15.5400   43.3420   52.7840 C   0  0  0  0  0
   13.7350   45.5180   54.4460 N   0  0  0  0  0
   13.3040   46.8150   53.9320 C   0  0  0  0  0
   12.1200   47.3510   54.7240 C   0  0  0  0  0
   11.1760   47.9140   54.1610 O   0  0  0  0  0
   12.9610   46.7300   52.4470 C   0  0  0  0  0
   12.1010   45.6070   52.2160 O   0  0  0  0  0
   14.2260   46.5810   51.6120 C   0  0  0  0  0
   12.1550   47.1890   56.0430 N   0  0  0  0  0
   11.1200   47.7270   56.9200 C   0  0  0  0  0
   11.6350   47.8250   58.3510 C   0  0  0  0  0
   11.3070   46.9950   59.1970 O   0  0  0  0  0
    9.8570   46.8630   56.8740 C   0  0  0  0  0
    9.2560   46.8960   55.5910 O   0  0  0  0  0
   12.3890   48.7360   58.6880 O   0  0  0  0  0
    3.7575   34.5615   52.3926 H   0  0  0  0  0
    3.6759   35.9483   51.4287 H   0  0  0  0  0
    3.8801   37.2318   53.2032 H   0  0  0  0  0
    1.7506   37.4143   54.3085 H   0  0  0  0  0
    1.7061   35.7314   54.6933 H   0  0  0  0  0
    0.9662   37.0801   52.0905 H   0  0  0  0  0
    0.1145   35.8285   52.9333 H   0  0  0  0  0
    1.5846   34.1178   52.1624 H   0  0  0  0  0
    1.6594   35.1747   50.8269 H   0  0  0  0  0
    3.3703   33.8382   54.1097 H   0  0  0  0  0
    5.3228   34.2696   56.3021 H   0  0  0  0  0
    4.5290   32.0644   57.1230 H   0  0  0  0  0
    3.3132   32.0784   55.7373 H   0  0  0  0  0
    2.2922   34.0437   56.7191 H   0  0  0  0  0
    1.4051   31.8387   57.2642 H   0  0  0  0  0
    2.5288   31.7105   58.6397 H   0  0  0  0  0
    1.2444   32.9440   58.6511 H   0  0  0  0  0
    4.2382   33.5884   59.0039 H   0  0  0  0  0
    4.2407   34.9651   57.8744 H   0  0  0  0  0
    2.8839   34.7446   59.0064 H   0  0  0  0  0
    5.4162   33.3253   53.1324 H   0  0  0  0  0
    7.1258   31.0054   53.3744 H   0  0  0  0  0
    7.4660   31.1940   51.0790 H   0  0  0  0  0
    7.1790   32.9849   51.1023 H   0  0  0  0  0
    5.7865   30.0165   50.9878 H   0  0  0  0  0
    9.3997   30.9018   52.8354 H   0  0  0  0  0
   10.8789   32.6322   54.5606 H   0  0  0  0  0
   12.8817   31.6039   53.3006 H   0  0  0  0  0
   11.6167   30.6182   52.4495 H   0  0  0  0  0
   10.2614   30.8806   55.0078 H   0  0  0  0  0
   10.5552   32.6239   50.9767 H   0  0  0  0  0
   12.5746   34.6547   50.6492 H   0  0  0  0  0
   11.6715   34.8751   48.3755 H   0  0  0  0  0
   10.2829   33.7951   48.8708 H   0  0  0  0  0
   11.4559   32.0527   48.2910 H   0  0  0  0  0
   12.7322   32.5263   49.4904 H   0  0  0  0  0
   14.1206   31.7130   48.0682 H   0  0  0  0  0
    9.0027   34.8392   50.9896 H   0  0  0  0  0
    9.0516   37.6989   50.4114 H   0  0  0  0  0
    6.9254   35.9544   51.6737 H   0  0  0  0  0
    7.0847   36.4076   49.9142 H   0  0  0  0  0
    6.8078   38.7746   50.6533 H   0  0  0  0  0
    6.3029   38.1053   52.2637 H   0  0  0  0  0
    5.5353   36.3826   49.6619 H   0  0  0  0  0
    8.9464   35.7291   53.4148 H   0  0  0  0  0
    8.5953   38.0105   55.1271 H   0  0  0  0  0
    8.1929   35.7123   55.8980 H   0  0  0  0  0
    9.9207   35.3302   55.6992 H   0  0  0  0  0
    9.4060   36.5133   56.9265 H   0  0  0  0  0
   11.5075   36.4496   53.7597 H   0  0  0  0  0
   13.3393   37.9430   55.3992 H   0  0  0  0  0
   13.6740   36.7062   52.6566 H   0  0  0  0  0
   14.0582   35.9551   54.2760 H   0  0  0  0  0
   15.8405   37.1158   55.6706 H   0  0  0  0  0
   15.3362   37.7668   51.4745 H   0  0  0  0  0
   18.1439   37.9778   55.5344 H   0  0  0  0  0
   17.6453   38.6278   51.3318 H   0  0  0  0  0
   19.0567   38.7295   53.3652 H   0  0  0  0  0
   11.8147   38.6419   52.2367 H   0  0  0  0  0
   13.4596   40.9469   51.7220 H   0  0  0  0  0
   10.6788   40.2151   50.7840 H   0  0  0  0  0
   12.2629   39.9410   49.9276 H   0  0  0  0  0
   12.5208   42.3911   49.8262 H   0  0  0  0  0
   10.8151   42.5263   50.4433 H   0  0  0  0  0
   10.8192   40.0267   48.7316 H   0  0  0  0  0
   10.2317   40.5918   53.3003 H   0  0  0  0  0
    9.9803   43.4377   53.7107 H   0  0  0  0  0
    8.2319   42.8498   55.3073 H   0  0  0  0  0
    8.7673   41.1023   55.2091 H   0  0  0  0  0
    7.2535   40.8460   53.6532 H   0  0  0  0  0
    8.2759   41.9101   52.6077 H   0  0  0  0  0
    6.0999   42.8757   54.4690 H   0  0  0  0  0
    5.8986   42.5956   52.7008 H   0  0  0  0  0
    7.5884   44.2466   52.2238 H   0  0  0  0  0
    7.8532   44.5028   53.9966 H   0  0  0  0  0
    6.4793   46.2021   53.0316 H   0  0  0  0  0
    5.3755   45.0682   52.5094 H   0  0  0  0  0
    5.6193   45.3040   54.1409 H   0  0  0  0  0
   11.8109   40.9493   55.3764 H   0  0  0  0  0
   11.9806   42.4752   57.8615 H   0  0  0  0  0
   13.7781   40.2704   56.8318 H   0  0  0  0  0
   12.2059   40.0265   57.7409 H   0  0  0  0  0
   13.1880   41.1669   59.6410 H   0  0  0  0  0
   14.7581   41.2663   58.7388 H   0  0  0  0  0
   15.6122   38.3585   60.5368 H   0  0  0  0  0
   15.8355   40.1037   60.3775 H   0  0  0  0  0
   13.7628   42.4892   54.8199 H   0  0  0  0  0
   15.9391   43.9327   56.1649 H   0  0  0  0  0
   17.1734   43.7648   54.0775 H   0  0  0  0  0
   17.0880   41.7226   55.3944 H   0  0  0  0  0
   15.6099   41.2142   54.5413 H   0  0  0  0  0
   17.1484   41.3478   53.6546 H   0  0  0  0  0
   14.5778   42.8314   52.8234 H   0  0  0  0  0
   15.3846   44.3949   52.5486 H   0  0  0  0  0
   16.1641   42.8850   52.0161 H   0  0  0  0  0
   13.0471   44.7694   54.5286 H   0  0  0  0  0
   14.1352   47.5102   54.0500 H   0  0  0  0  0
   12.4541   47.6493   52.1537 H   0  0  0  0  0
   11.8870   45.5561   51.2815 H   0  0  0  0  0
   14.8723   47.4431   51.7769 H   0  0  0  0  0
   14.7493   45.6714   51.9067 H   0  0  0  0  0
   13.9586   46.5223   50.5569 H   0  0  0  0  0
   12.9310   46.6715   56.4558 H   0  0  0  0  0
   10.8646   48.7257   56.5659 H   0  0  0  0  0
   10.7213   46.3474   58.7980 H   0  0  0  0  0
    9.1441   47.2522   57.6009 H   0  0  0  0  0
   10.1329   45.8333   57.1012 H   0  0  0  0  0
    8.4688   46.3465   55.5934 H   0  0  0  0  0
  1  2  1  0  0  0
  1  7  1  0  0  0
  2  3  1  0  0  0
  2  5  1  0  0  0
  3  4  2  0  0  0
  3  8  1  0  0  0
  5  6  1  0  0  0
  6  7  1  0  0  0
  8  9  1  0  0  0
  9 10  1  0  0  0
  9 12  1  0  0  0
 10 11  2  0  0  0
 10 16  1  0  0  0
 12 13  1  0  0  0
 13 14  1  0  0  0
 13 15  1  0  0  0
 16 17  1  0  0  0
 17 18  1  0  0  0
 17 20  1  0  0  0
 18 19  2  0  0  0
 18 24  1  0  0  0
 20 21  1  0  0  0
 21 22  2  0  0  0
 21 23  1  0  0  0
 24 25  1  0  0  0
 25 26  1  0  0  0
 25 28  1  0  0  0
 26 27  2  0  0  0
 26 32  1  0  0  0
 28 29  1  0  0  0
 29 30  1  0  0  0
 29 31  2  0  0  0
 32 33  1  0  0  0
 33 34  1  0  0  0
 33 36  1  0  0  0
 34 35  2  0  0  0
 34 41  1  0  0  0
 36 37  1  0  0  0
 37 38  1  0  0  0
 38 39  2  0  0  0
 38 40  1  0  0  0
 41 42  1  0  0  0
 42 43  1  0  0  0
 42 45  1  0  0  0
 43 44  2  0  0  0
 43 50  1  0  0  0
 45 46  1  0  0  0
 46 47  1  0  0  0
 47 48  1  0  0  0
 47 49  2  0  0  0
 50 51  1  0  0  0
 51 52  1  0  0  0
 51 54  1  0  0  0
 52 53  2  0  0  0
 52 55  1  0  0  0
 55 56  1  0  0  0
 56 57  1  0  0  0
 56 59  1  0  0  0
 57 58  2  0  0  0
 57 66  1  0  0  0
 59 60  1  0  0  0
 60 61  4  0  0  0
 60 62  4  0  0  0
 61 63  4  0  0  0
 62 64  4  0  0  0
 63 65  4  0  0  0
 64 65  4  0  0  0
 66 67  1  0  0  0
 67 68  1  0  0  0
 67 70  1  0  0  0
 68 69  2  0  0  0
 68 75  1  0  0  0
 70 71  1  0  0  0
 71 72  1  0  0  0
 72 73  1  0  0  0
 72 74  2  0  0  0
 75 76  1  0  0  0
 76 77  1  0  0  0
 76 79  1  0  0  0
 77 78  2  0  0  0
 77 84  1  0  0  0
 79 80  1  0  0  0
 80 81  1  0  0  0
 81 82  1  0  0  0
 82 83  1  0  0  0
 84 85  1  0  0  0
 85 86  1  0  0  0
 85 88  1  0  0  0
 86 87  2  0  0  0
 86 93  1  0  0  0
 88 89  1  0  0  0
 89 90  1  0  0  0
 90 91  2  0  0  0
 90 92  1  0  0  0
 93 94  1  0  0  0
 94 95  1  0  0  0
 94 97  1  0  0  0
 95 96  2  0  0  0
 95100  1  0  0  0
 97 98  1  0  0  0
 97 99  1  0  0  0
100101  1  0  0  0
101102  1  0  0  0
101104  1  0  0  0
102103  2  0  0  0
102107  1  0  0  0
104105  1  0  0  0
104106  1  0  0  0
107108  1  0  0  0
108109  1  0  0  0
108111  1  0  0  0
109110  1  0  0  0
109113  2  0  0  0
111112  1  0  0  0
  1114  1  0  0  0
  1115  1  0  0  0
  2116  1  0  0  0
  5117  1  0  0  0
  5118  1  0  0  0
  6119  1  0  0  0
  6120  1  0  0  0
  7121  1  0  0  0
  7122  1  0  0  0
  8123  1  0  0  0
  9124  1  0  0  0
 12125  1  0  0  0
 12126  1  0  0  0
 13127  1  0  0  0
 14128  1  0  0  0
 14129  1  0  0  0
 14130  1  0  0  0
 15131  1  0  0  0
 15132  1  0  0  0
 15133  1  0  0  0
 16134  1  0  0  0
 17135  1  0  0  0
 20136  1  0  0  0
 20137  1  0  0  0
 23138  1  0  0  0
 24139  1  0  0  0
 25140  1  0  0  0
 28141  1  0  0  0
 28142  1  0  0  0
 30143  1  0  0  0
 32144  1  0  0  0
 33145  1  0  0  0
 36146  1  0  0  0
 36147  1  0  0  0
 37148  1  0  0  0
 37149  1  0  0  0
 40150  1  0  0  0
 41151  1  0  0  0
 42152  1  0  0  0
 45153  1  0  0  0
 45154  1  0  0  0
 46155  1  0  0  0
 46156  1  0  0  0
 48157  1  0  0  0
 50158  1  0  0  0
 51159  1  0  0  0
 54160  1  0  0  0
 54161  1  0  0  0
 54162  1  0  0  0
 55163  1  0  0  0
 56164  1  0  0  0
 59165  1  0  0  0
 59166  1  0  0  0
 61167  1  0  0  0
 62168  1  0  0  0
 63169  1  0  0  0
 64170  1  0  0  0
 65171  1  0  0  0
 66172  1  0  0  0
 67173  1  0  0  0
 70174  1  0  0  0
 70175  1  0  0  0
 71176  1  0  0  0
 71177  1  0  0  0
 73178  1  0  0  0
 75179  1  0  0  0
 76180  1  0  0  0
 79181  1  0  0  0
 79182  1  0  0  0
 80183  1  0  0  0
 80184  1  0  0  0
 81185  1  0  0  0
 81186  1  0  0  0
 82187  1  0  0  0
 82188  1  0  0  0
 83189  1  0  0  0
 83190  1  0  0  0
 83191  1  0  0  0
 84192  1  0  0  0
 85193  1  0  0  0
 88194  1  0  0  0
 88195  1  0  0  0
 89196  1  0  0  0
 89197  1  0  0  0
 92198  1  0  0  0
 92199  1  0  0  0
 93200  1  0  0  0
 94201  1  0  0  0
 97202  1  0  0  0
 98203  1  0  0  0
 98204  1  0  0  0
 98205  1  0  0  0
 99206  1  0  0  0
 99207  1  0  0  0
 99208  1  0  0  0
100209  1  0  0  0
101210  1  0  0  0
104211  1  0  0  0
105212  1  0  0  0
106213  1  0  0  0
106214  1  0  0  0
106215  1  0  0  0
107216  1  0  0  0
108217  1  0  0  0
110218  1  0  0  0
111219  1  0  0  0
111220  1  0  0  0
112221  1  0  0  0
M  END
$$$$
