### 
### Created by X-TOOL on Wed Jan  1 15:39:37 2020
### 

@<TRIPOS>MOLECULE
5yc2_ligand
  215   216     1     0     0
SMALL
GAST_HUCK


@<TRIPOS>ATOM
      1 N           3.2720   35.4410   52.2160 N.4       1 PRO         0.2461
      2 CA          3.3920   36.2800   53.4130 C.3       1 PRO         0.0670
      3 C           4.2500   35.6260   54.4880 C.2       1 PRO         0.2268
      4 O           5.0540   36.2980   55.1360 O.2       1 PRO        -0.3907
      5 CB          1.9420   36.4270   53.8880 C.3       1 PRO         0.0127
      6 CG          1.1160   36.1710   52.6730 C.3       1 PRO        -0.0053
      7 CD          1.8680   35.1360   51.8960 C.3       1 PRO        -0.0313
      8 N           4.0710   34.3200   54.6730 N.am      1 LEU        -0.2610
      9 CA          4.8330   33.5510   55.6450 C.3       1 LEU         0.1313
     10 C           5.9260   32.7100   55.0040 C.2       1 LEU         0.2040
     11 O           6.6450   32.0040   55.7180 O.2       1 LEU        -0.3944
     12 CB          3.8960   32.6520   56.4580 C.3       1 LEU        -0.0101
     13 CG          2.8900   33.3840   57.3480 C.3       1 LEU        -0.0425
     14 CD1         1.9500   32.3990   58.0240 C.3       1 LEU        -0.0625
     15 CD2         3.6150   34.2310   58.3820 C.3       1 LEU        -0.0625
     16 N           6.0650   32.7630   53.6830 N.am      1 ASP        -0.2622
     17 CA          7.1260   32.0330   53.0110 C.3       1 ASP         0.1423
     18 C           8.4820   32.6600   53.3260 C.2       1 ASP         0.2057
     19 O           8.5850   33.8350   53.6890 O.2       1 ASP        -0.3943
     20 CB          6.8850   32.0140   51.5010 C.3       1 ASP         0.0406
     21 CG          5.4270   31.7850   51.1450 C.2       1 ASP         0.0393
     22 OD1         4.6630   32.7730   51.1050 O.co2     1 ASP        -0.5688
     23 OD2         5.0450   30.6200   50.9010 O.co2     1 ASP        -0.5688
     24 N           9.5360   31.8510   53.1830 N.am      1 ASP        -0.2621
     25 CA         10.8810   32.3110   53.5190 C.3       1 ASP         0.1423
     26 C          11.2880   33.5080   52.6670 C.2       1 ASP         0.2056
     27 O          11.8020   34.5070   53.1840 O.2       1 ASP        -0.3943
     28 CB         11.8840   31.1680   53.3520 C.3       1 ASP         0.0406
     29 CG         11.8620   30.1930   54.5140 C.2       1 ASP         0.0393
     30 OD1        10.8840   30.2070   55.2910 O.co2     1 ASP        -0.5688
     31 OD2        12.8250   29.4100   54.6490 O.co2     1 ASP        -0.5688
     32 N          11.0560   33.4280   51.3550 N.am      1 GLU        -0.2635
     33 CA         11.5150   34.4850   50.4580 C.3       1 GLU         0.1325
     34 C          10.7900   35.7990   50.7220 C.2       1 GLU         0.2040
     35 O          11.4110   36.8680   50.7240 O.2       1 GLU        -0.3944
     36 CB         11.3340   34.0510   49.0040 C.3       1 GLU        -0.0008
     37 CG         12.1490   32.8270   48.6200 C.3       1 GLU         0.0044
     38 CD         13.1140   33.1010   47.4850 C.2       1 GLU         0.0350
     39 OE1        12.8670   34.0470   46.7070 O.co2     1 GLU        -0.5690
     40 OE2        14.1240   32.3740   47.3720 O.co2     1 GLU        -0.5690
     41 N           9.4760   35.7420   50.9530 N.am      1 GLU        -0.2636
     42 CA          8.7180   36.9730   51.1530 C.3       1 GLU         0.1325
     43 C           8.9800   37.5720   52.5300 C.2       1 GLU         0.2040
     44 O           9.1060   38.7950   52.6650 O.2       1 GLU        -0.3944
     45 CB          7.2260   36.7130   50.9510 C.3       1 GLU        -0.0008
     46 CG          6.3580   37.9380   51.1880 C.3       1 GLU         0.0044
     47 CD          4.9460   37.7640   50.6730 C.2       1 GLU         0.0350
     48 OE1         4.7200   36.8540   49.8480 O.co2     1 GLU        -0.5690
     49 OE2         4.0600   38.5360   51.0940 O.co2     1 GLU        -0.5690
     50 N           9.0670   36.7310   53.5630 N.am      1 ALA        -0.2640
     51 CA          9.3340   37.2410   54.9030 C.3       1 ALA         0.1282
     52 C          10.7130   37.8810   54.9830 C.2       1 ALA         0.2037
     53 O          10.8910   38.9120   55.6440 O.2       1 ALA        -0.3944
     54 CB          9.2040   36.1180   55.9310 C.3       1 ALA        -0.0244
     55 N          11.7010   37.2870   54.3090 N.am      1 PHE        -0.2619
     56 CA         13.0560   37.8280   54.3530 C.3       1 PHE         0.1404
     57 C          13.1280   39.2020   53.7000 C.2       1 PHE         0.2060
     58 O          13.8430   40.0880   54.1810 O.2       1 PHE        -0.3942
     59 CB         14.0290   36.8640   53.6750 C.3       1 PHE         0.0214
     60 CG         15.4330   37.3860   53.5840 C.ar      1 PHE        -0.0386
     61 CD1        16.2350   37.4500   54.7110 C.ar      1 PHE        -0.0601
     62 CD2        15.9530   37.8120   52.3720 C.ar      1 PHE        -0.0601
     63 CE1        17.5270   37.9310   54.6370 C.ar      1 PHE        -0.0686
     64 CE2        17.2470   38.2940   52.2900 C.ar      1 PHE        -0.0686
     65 CZ         18.0360   38.3520   53.4270 C.ar      1 PHE        -0.0687
     66 N          12.3950   39.3980   52.6000 N.am      1 GLU        -0.2635
     67 CA         12.4190   40.6860   51.9150 C.3       1 GLU         0.1325
     68 C          11.8160   41.7820   52.7830 C.2       1 GLU         0.2040
     69 O          12.3720   42.8820   52.8850 O.2       1 GLU        -0.3944
     70 CB         11.6810   40.5920   50.5800 C.3       1 GLU        -0.0008
     71 CG         11.5330   41.9330   49.8770 C.3       1 GLU         0.0044
     72 CD         11.0100   41.8070   48.4590 C.2       1 GLU         0.0350
     73 OE1        10.6810   40.6770   48.0390 O.co2     1 GLU        -0.5690
     74 OE2        10.9320   42.8410   47.7620 O.co2     1 GLU        -0.5690
     75 N          10.6730   41.5040   53.4170 N.am      1 LYS        -0.2637
     76 CA         10.0590   42.5090   54.2760 C.3       1 LYS         0.1310
     77 C          10.9160   42.7840   55.5050 C.2       1 LYS         0.2039
     78 O          10.8280   43.8660   56.0940 O.2       1 LYS        -0.3944
     79 CB          8.6570   42.0560   54.6930 C.3       1 LYS        -0.0122
     80 CG          7.7070   41.8300   53.5340 C.3       1 LYS        -0.0440
     81 CD          6.5930   42.8640   53.4970 C.3       1 LYS        -0.0124
     82 CE          7.1350   44.2550   53.2150 C.3       1 LYS        -0.0354
     83 NZ          6.0680   45.2890   53.2250 N.4       1 LYS         0.2185
     84 N          11.7540   41.8210   55.9030 N.am      1 GLN        -0.2636
     85 CA         12.5870   42.0090   57.0850 C.3       1 GLN         0.1330
     86 C          13.7560   42.9500   56.8090 C.2       1 GLN         0.2041
     87 O          14.2390   43.6210   57.7290 O.2       1 GLN        -0.3944
     88 CB         13.0850   40.6510   57.5820 C.3       1 GLN         0.0045
     89 CG         13.8390   40.7030   58.9000 C.3       1 GLN         0.0412
     90 CD         14.2180   39.3280   59.4080 C.2       1 GLN         0.1737
     91 OE1        13.5420   38.3380   59.1220 O.2       1 GLN        -0.3973
     92 NE2        15.3060   39.2580   60.1660 N.am      1 GLN        -0.3009
     93 N          14.2190   43.0240   55.5590 N.am      1 VAL        -0.2635
     94 CA         15.3700   43.8610   55.2380 C.3       1 VAL         0.1333
     95 C          14.9930   45.2760   54.8110 C.2       1 VAL         0.2042
     96 O          15.8590   46.1610   54.8170 O.2       1 VAL        -0.3944
     97 CB         16.2290   43.2230   54.1300 C.3       1 VAL        -0.0063
     98 CG1        16.5410   41.7740   54.4530 C.3       1 VAL        -0.0584
     99 CG2        15.5400   43.3420   52.7840 C.3       1 VAL        -0.0584
    100 N          13.7350   45.5180   54.4460 N.am      1 THR        -0.2613
    101 CA         13.3040   46.8150   53.9320 C.3       1 THR         0.1564
    102 C          12.1200   47.3510   54.7240 C.2       1 THR         0.2060
    103 O          11.1760   47.9140   54.1610 O.2       1 THR        -0.3943
    104 CB         12.9610   46.7300   52.4470 C.3       1 THR         0.0924
    105 OG1        12.1010   45.6070   52.2160 O.3       1 THR        -0.3874
    106 CG2        14.2260   46.5810   51.6120 C.3       1 THR        -0.0346
    107 N          12.1550   47.1890   56.0430 N.am      1 SER        -0.2672
    108 CA         11.1200   47.7270   56.9200 C.3       1 SER         0.1173
    109 C          11.6350   47.8250   58.3510 C.2       1 SER         0.0623
    110 O          11.3070   46.9950   59.1970 O.co2     1 SER        -0.5665
    111 CB          9.8570   46.8630   56.8740 C.3       1 SER         0.0789
    112 OG          9.2560   46.8960   55.5910 O.3       1 SER        -0.3910
    113 OXT        12.3890   48.7360   58.6880 O.co2     1 SER        -0.5665
    114 H1          3.7652   34.5762   52.3737 H         1 PRO         0.2035
    115 H2          3.6858   35.9263   51.4354 H         1 PRO         0.2035
    116 H3          3.8211   37.2599   53.1567 H         1 PRO         0.1099
    117 H4          1.7611   37.4415   54.2729 H         1 PRO         0.0347
    118 H5          1.7148   35.6909   54.6732 H         1 PRO         0.0347
    119 H6          1.0049   37.0917   52.0814 H         1 PRO         0.0320
    120 H7          0.1218   35.7942   52.9552 H         1 PRO         0.0320
    121 H8          1.5986   34.1213   52.2244 H         1 PRO         0.0814
    122 H9          1.6774   35.2350   50.8172 H         1 PRO         0.0814
    123 H10         3.3840   33.8476   54.1208 H         1 LEU         0.1884
    124 H11         5.3143   34.2619   56.3327 H         1 LEU         0.0800
    125 H12         4.5157   32.0114   57.1027 H         1 LEU         0.0315
    126 H13         3.3310   32.0251   55.7525 H         1 LEU         0.0315
    127 H14         2.2897   34.0523   56.7132 H         1 LEU         0.0298
    128 H15         1.2374   32.9478   58.6573 H         1 LEU         0.0232
    129 H16         2.5329   31.7036   58.6458 H         1 LEU         0.0232
    130 H17         1.3994   31.8329   57.2582 H         1 LEU         0.0232
    131 H18         4.2886   34.9354   57.8719 H         1 LEU         0.0232
    132 H19         4.2013   33.5779   59.0451 H         1 LEU         0.0232
    133 H20         2.8796   34.7925   58.9769 H         1 LEU         0.0232
    134 H21         5.4289   33.3143   53.1432 H         1 ASP         0.1884
    135 H22         7.1255   30.9963   53.3786 H         1 ASP         0.0819
    136 H23         7.4866   31.2065   51.0584 H         1 ASP         0.0478
    137 H24         7.2025   32.9800   51.0814 H         1 ASP         0.0478
    138 H25         9.4024   30.9204   52.8422 H         1 ASP         0.1884
    139 H26        10.8841   32.6243   54.5734 H         1 ASP         0.0819
    140 H27        12.8942   31.5957   53.2711 H         1 ASP         0.0478
    141 H28        11.6426   30.6204   52.4290 H         1 ASP         0.0478
    142 H29        10.5650   32.6397   50.9842 H         1 GLU         0.1883
    143 H30        12.5878   34.6463   50.6396 H         1 GLU         0.0801
    144 H31        11.6351   34.8854   48.3536 H         1 GLU         0.0330
    145 H32        10.2702   33.8239   48.8403 H         1 GLU         0.0330
    146 H33        11.4595   32.0277   48.3106 H         1 GLU         0.0433
    147 H34        12.7231   32.4965   49.4982 H         1 GLU         0.0433
    148 H35         9.0120   34.8569   50.9889 H         1 GLU         0.1883
    149 H36         9.0455   37.7023   50.3975 H         1 GLU         0.0801
    150 H37         6.9125   35.9240   51.6504 H         1 GLU         0.0330
    151 H38         7.0694   36.3704   49.9175 H         1 GLU         0.0330
    152 H39         6.8155   38.7974   50.6760 H         1 GLU         0.0433
    153 H40         6.3159   38.1352   52.2693 H         1 GLU         0.0433
    154 H41         8.9488   35.7487   53.4177 H         1 ALA         0.1883
    155 H42         8.5838   38.0115   55.1343 H         1 ALA         0.0797
    156 H43         9.4076   36.5157   56.9362 H         1 ALA         0.0277
    157 H44         9.9269   35.3223   55.6982 H         1 ALA         0.0277
    158 H45         8.1839   35.7077   55.8988 H         1 ALA         0.0277
    159 H46        11.5113   36.4660   53.7705 H         1 PHE         0.1885
    160 H47        13.3500   37.9339   55.4077 H         1 PHE         0.0823
    161 H48        13.6663   36.6646   52.6558 H         1 PHE         0.0474
    162 H49        14.0443   35.9257   54.2489 H         1 PHE         0.0474
    163 H50        15.8427   37.1176   55.6653 H         1 PHE         0.0557
    164 H51        15.3396   37.7670   51.4794 H         1 PHE         0.0557
    165 H52        18.1406   37.9776   55.5294 H         1 PHE         0.0599
    166 H53        17.6431   38.6259   51.3371 H         1 PHE         0.0599
    167 H54        19.0510   38.7275   53.3655 H         1 PHE         0.0559
    168 H55        11.8261   38.6567   52.2438 H         1 GLU         0.1883
    169 H56        13.4680   40.9476   51.7123 H         1 GLU         0.0801
    170 H57        10.6770   40.1821   50.7644 H         1 GLU         0.0330
    171 H58        12.2392   39.9118   49.9199 H         1 GLU         0.0330
    172 H59        12.5178   42.4219   49.8447 H         1 GLU         0.0433
    173 H60        10.8334   42.5555   50.4541 H         1 GLU         0.0433
    174 H61        10.2404   40.6097   53.3026 H         1 LYS         0.1883
    175 H62         9.9677   43.4439   53.7037 H         1 LYS         0.0800
    176 H63         8.2254   42.8277   55.3473 H         1 LYS         0.0312
    177 H64         8.7509   41.1127   55.2510 H         1 LYS         0.0312
    178 H65         7.2594   40.8300   53.6321 H         1 LYS         0.0269
    179 H66         8.2749   41.8869   52.5937 H         1 LYS         0.0269
    180 H67         6.0790   42.8709   54.4695 H         1 LYS         0.0317
    181 H68         5.8783   42.5916   52.7064 H         1 LYS         0.0317
    182 H69         7.6165   44.2532   52.2260 H         1 LYS         0.0813
    183 H70         7.8792   44.5074   53.9847 H         1 LYS         0.0813
    184 H71         6.4733   46.1919   53.0340 H         1 LYS         0.1994
    185 H72         5.6238   45.3048   54.1297 H         1 LYS         0.1994
    186 H73         5.3830   45.0719   52.5181 H         1 LYS         0.1994
    187 H74        11.8098   40.9664   55.3867 H         1 GLN         0.1883
    188 H75        11.9674   42.4607   57.8737 H         1 GLN         0.0801
    189 H76        13.7556   40.2300   56.8184 H         1 GLN         0.0337
    190 H77        12.2144   39.9909   57.7096 H         1 GLN         0.0337
    191 H78        13.2022   41.1930   59.6512 H         1 GLN         0.0504
    192 H79        14.7573   41.2915   58.7577 H         1 GLN         0.0504
    193 H80        15.6056   38.3763   60.5305 H         1 GLN         0.1814
    194 H81        15.8258   40.0870   60.3724 H         1 GLN         0.1814
    195 H82        13.7717   42.4997   54.8344 H         1 VAL         0.1883
    196 H83        15.9831   43.9371   56.1481 H         1 VAL         0.0802
    197 H84        17.1804   43.7724   54.0764 H         1 VAL         0.0343
    198 H85        17.1541   41.3427   53.6479 H         1 VAL         0.0234
    199 H86        15.6021   41.2078   54.5423 H         1 VAL         0.0234
    200 H87        17.0931   41.7207   55.4029 H         1 VAL         0.0234
    201 H88        15.3253   44.4003   52.5743 H         1 VAL         0.0234
    202 H89        14.5984   42.7736   52.8025 H         1 VAL         0.0234
    203 H90        16.1965   42.9386   51.9990 H         1 VAL         0.0234
    204 H91        13.0606   44.7841   54.5270 H         1 THR         0.1884
    205 H92        14.1397   47.5207   54.0488 H         1 THR         0.0826
    206 H93        12.4408   47.6516   52.1470 H         1 THR         0.0639
    207 H94        12.5433   44.8103   52.4846 H         1 THR         0.2101
    208 H95        13.9574   46.5216   50.5470 H         1 THR         0.0257
    209 H96        14.7551   45.6633   51.9084 H         1 THR         0.0257
    210 H97        14.8791   47.4505   51.7775 H         1 THR         0.0257
    211 H98        12.9158   46.6816   56.4477 H         1 SER         0.1876
    212 H99        10.8620   48.7379   56.5713 H         1 SER         0.0749
    213 H100        9.1379   47.2400   57.6161 H         1 SER         0.0599
    214 H101       10.1246   45.8242   57.1175 H         1 SER         0.0599
    215 H102        9.8710   46.5672   54.9459 H         1 SER         0.2096
@<TRIPOS>BOND
     1    1    2 1  
     2    1    7 1  
     3    2    3 1  
     4    2    5 1  
     5    3    4 2  
     6    3    8 am 
     7    5    6 1  
     8    6    7 1  
     9    8    9 1  
    10    9   10 1  
    11    9   12 1  
    12   10   11 2  
    13   10   16 am 
    14   12   13 1  
    15   13   14 1  
    16   13   15 1  
    17   16   17 1  
    18   17   18 1  
    19   17   20 1  
    20   18   19 2  
    21   18   24 am 
    22   20   21 1  
    23   21   22 ar 
    24   21   23 ar 
    25   24   25 1  
    26   25   26 1  
    27   25   28 1  
    28   26   27 2  
    29   26   32 am 
    30   28   29 1  
    31   29   30 ar 
    32   29   31 ar 
    33   32   33 1  
    34   33   34 1  
    35   33   36 1  
    36   34   35 2  
    37   34   41 am 
    38   36   37 1  
    39   37   38 1  
    40   38   39 ar 
    41   38   40 ar 
    42   41   42 1  
    43   42   43 1  
    44   42   45 1  
    45   43   44 2  
    46   43   50 am 
    47   45   46 1  
    48   46   47 1  
    49   47   48 ar 
    50   47   49 ar 
    51   50   51 1  
    52   51   52 1  
    53   51   54 1  
    54   52   53 2  
    55   52   55 am 
    56   55   56 1  
    57   56   57 1  
    58   56   59 1  
    59   57   58 2  
    60   57   66 am 
    61   59   60 1  
    62   60   61 ar 
    63   60   62 ar 
    64   61   63 ar 
    65   62   64 ar 
    66   63   65 ar 
    67   64   65 ar 
    68   66   67 1  
    69   67   68 1  
    70   67   70 1  
    71   68   69 2  
    72   68   75 am 
    73   70   71 1  
    74   71   72 1  
    75   72   73 ar 
    76   72   74 ar 
    77   75   76 1  
    78   76   77 1  
    79   76   79 1  
    80   77   78 2  
    81   77   84 am 
    82   79   80 1  
    83   80   81 1  
    84   81   82 1  
    85   82   83 1  
    86   84   85 1  
    87   85   86 1  
    88   85   88 1  
    89   86   87 2  
    90   86   93 am 
    91   88   89 1  
    92   89   90 1  
    93   90   91 2  
    94   90   92 am 
    95   93   94 1  
    96   94   95 1  
    97   94   97 1  
    98   95   96 2  
    99   95  100 am 
   100   97   98 1  
   101   97   99 1  
   102  100  101 1  
   103  101  102 1  
   104  101  104 1  
   105  102  103 2  
   106  102  107 am 
   107  104  105 1  
   108  104  106 1  
   109  107  108 1  
   110  108  109 1  
   111  108  111 1  
   112  109  110 ar 
   113  109  113 ar 
   114  111  112 1  
   115    1  114 1  
   116    1  115 1  
   117    2  116 1  
   118    5  117 1  
   119    5  118 1  
   120    6  119 1  
   121    6  120 1  
   122    7  121 1  
   123    7  122 1  
   124    8  123 1  
   125    9  124 1  
   126   12  125 1  
   127   12  126 1  
   128   13  127 1  
   129   14  128 1  
   130   14  129 1  
   131   14  130 1  
   132   15  131 1  
   133   15  132 1  
   134   15  133 1  
   135   16  134 1  
   136   17  135 1  
   137   20  136 1  
   138   20  137 1  
   139   24  138 1  
   140   25  139 1  
   141   28  140 1  
   142   28  141 1  
   143   32  142 1  
   144   33  143 1  
   145   36  144 1  
   146   36  145 1  
   147   37  146 1  
   148   37  147 1  
   149   41  148 1  
   150   42  149 1  
   151   45  150 1  
   152   45  151 1  
   153   46  152 1  
   154   46  153 1  
   155   50  154 1  
   156   51  155 1  
   157   54  156 1  
   158   54  157 1  
   159   54  158 1  
   160   55  159 1  
   161   56  160 1  
   162   59  161 1  
   163   59  162 1  
   164   61  163 1  
   165   62  164 1  
   166   63  165 1  
   167   64  166 1  
   168   65  167 1  
   169   66  168 1  
   170   67  169 1  
   171   70  170 1  
   172   70  171 1  
   173   71  172 1  
   174   71  173 1  
   175   75  174 1  
   176   76  175 1  
   177   79  176 1  
   178   79  177 1  
   179   80  178 1  
   180   80  179 1  
   181   81  180 1  
   182   81  181 1  
   183   82  182 1  
   184   82  183 1  
   185   83  184 1  
   186   83  185 1  
   187   83  186 1  
   188   84  187 1  
   189   85  188 1  
   190   88  189 1  
   191   88  190 1  
   192   89  191 1  
   193   89  192 1  
   194   92  193 1  
   195   92  194 1  
   196   93  195 1  
   197   94  196 1  
   198   97  197 1  
   199   98  198 1  
   200   98  199 1  
   201   98  200 1  
   202   99  201 1  
   203   99  202 1  
   204   99  203 1  
   205  100  204 1  
   206  101  205 1  
   207  104  206 1  
   208  105  207 1  
   209  106  208 1  
   210  106  209 1  
   211  106  210 1  
   212  107  211 1  
   213  108  212 1  
   214  111  213 1  
   215  111  214 1  
   216  112  215 1  
@<TRIPOS>SUBSTRUCTURE
     1 PRO         1

