4djr_ligand
  -I-interpret- 

 76 79  0  0  0  0  0  0  0  0999 V2000
   21.8200   23.3930   11.4910 O   0  0  0  0  0
   21.7650   24.4410   10.8910 C   0  0  0  0  0
   22.8010   25.1420   10.4650 N   0  0  0  0  0
   22.4460   26.3660    9.7980 C   0  0  0  0  0
   20.9310   26.2580    9.6210 C   0  0  0  0  0
   20.4700   25.1100   10.5050 C   0  0  0  0  0
   22.8550   27.5520   10.6540 C   0  0  0  0  0
   22.2100   27.3810   11.9170 O   0  0  0  0  0
   21.3290   28.4180   12.4250 C   0  0  0  0  0
   21.3440   29.5100   11.8810 O   0  0  0  0  0
   20.5450   28.0630   13.4380 N   0  0  0  0  0
   19.5100   28.8850   14.0440 C   0  0  0  0  0
   18.1880   28.1130   13.9920 C   0  0  0  0  0
   17.7990   27.7770   12.5600 C   0  0  0  0  0
   17.7010   26.4470   12.1700 C   0  0  0  0  0
   17.3410   26.1240   10.8630 C   0  0  0  0  0
   17.0710   27.1300    9.9430 C   0  0  0  0  0
   17.1660   28.4610   10.3320 C   0  0  0  0  0
   17.5220   28.7780   11.6400 C   0  0  0  0  0
   19.9440   29.2990   15.4520 C   0  0  0  0  0
   19.8780   28.1760   16.3360 O   0  0  0  0  0
   19.0960   30.4320   16.0480 C   0  0  0  0  0
   19.3380   31.6740   15.2670 N   0  0  0  0  0
   20.1170   32.6720   16.0360 C   0  0  0  0  0
   21.6270   32.3790   15.9880 C   0  0  0  0  0
   22.2330   32.4320   14.5850 C   0  0  0  0  0
   22.3540   33.3630   16.9120 C   0  0  0  0  0
   22.2010   34.8180   16.4970 C   0  0  0  0  0
   18.0170   32.2920   14.5410 S   0  0  0  0  0
   17.2470   31.1870   14.0580 O   0  0  0  0  0
   18.5130   33.1710   13.5080 O   0  0  0  0  0
   17.1270   33.1930   15.5900 C   0  0  0  0  0
   16.1470   32.5440   16.3440 C   0  0  0  0  0
   15.3930   33.2270   17.2970 C   0  0  0  0  0
   17.3050   34.5670   15.8150 C   0  0  0  0  0
   16.5410   35.2630   16.7670 C   0  0  0  0  0
   16.6740   36.9330   17.1210 S   0  0  0  0  0
   15.4140   36.6730   18.2880 C   0  0  0  0  0
   14.9560   35.4140   18.3750 N   0  0  0  0  0
   15.5810   34.5770   17.5140 C   0  0  0  0  0
   23.7668   24.8418   10.5974 H   0  0  0  0  0
   22.9448   26.5138    8.8401 H   0  0  0  0  0
   20.6735   26.0734    8.5781 H   0  0  0  0  0
   20.4391   27.1886    9.9040 H   0  0  0  0  0
   19.8933   25.4449   11.3671 H   0  0  0  0  0
   19.7801   24.4357    9.9975 H   0  0  0  0  0
   22.5578   28.4913   10.1876 H   0  0  0  0  0
   23.9379   27.5944   10.7710 H   0  0  0  0  0
   20.6818   27.1294   13.8253 H   0  0  0  0  0
   19.3558   29.8154   13.4974 H   0  0  0  0  0
   17.4058   28.7353   14.4268 H   0  0  0  0  0
   18.3081   27.1821   14.5461 H   0  0  0  0  0
   17.9064   25.6536   12.8887 H   0  0  0  0  0
   17.2710   25.0789   10.5613 H   0  0  0  0  0
   16.7863   26.8766    8.9218 H   0  0  0  0  0
   16.9621   29.2554    9.6140 H   0  0  0  0  0
   17.5837   29.8228   11.9444 H   0  0  0  0  0
   20.9652   29.6668   15.3524 H   0  0  0  0  0
   20.1519   28.4460   17.2156 H   0  0  0  0  0
   19.3728   30.5914   17.0902 H   0  0  0  0  0
   18.0399   30.1664   16.0014 H   0  0  0  0  0
   19.7932   32.6318   17.0760 H   0  0  0  0  0
   19.9445   33.6542   15.5959 H   0  0  0  0  0
   21.7584   31.3506   16.3245 H   0  0  0  0  0
   21.7434   31.6928   13.9510 H   0  0  0  0  0
   22.0867   33.4270   14.1648 H   0  0  0  0  0
   23.2994   32.2138   14.6427 H   0  0  0  0  0
   23.4165   33.1228   16.8727 H   0  0  0  0  0
   21.9180   33.2599   17.9057 H   0  0  0  0  0
   22.6067   34.9531   15.4944 H   0  0  0  0  0
   21.1447   35.0868   16.5022 H   0  0  0  0  0
   22.7424   35.4533   17.1980 H   0  0  0  0  0
   15.9678   31.4808   16.1840 H   0  0  0  0  0
   14.6451   32.6878   17.8784 H   0  0  0  0  0
   18.0545   35.1075   15.2369 H   0  0  0  0  0
   15.0212   37.4785   18.9085 H   0  0  0  0  0
  1  2  2  0  0  0
  2  3  1  0  0  0
  2  6  1  0  0  0
  3  4  1  0  0  0
  4  5  1  0  0  0
  4  7  1  0  0  0
  5  6  1  0  0  0
  7  8  1  0  0  0
  8  9  1  0  0  0
  9 10  2  0  0  0
  9 11  1  0  0  0
 11 12  1  0  0  0
 12 13  1  0  0  0
 12 20  1  0  0  0
 13 14  1  0  0  0
 14 15  4  0  0  0
 14 19  4  0  0  0
 15 16  4  0  0  0
 16 17  4  0  0  0
 17 18  4  0  0  0
 18 19  4  0  0  0
 20 21  1  0  0  0
 20 22  1  0  0  0
 22 23  1  0  0  0
 23 24  1  0  0  0
 23 29  1  0  0  0
 24 25  1  0  0  0
 25 26  1  0  0  0
 25 27  1  0  0  0
 27 28  1  0  0  0
 29 30  2  0  0  0
 29 31  2  0  0  0
 29 32  1  0  0  0
 32 33  4  0  0  0
 32 35  4  0  0  0
 33 34  4  0  0  0
 34 40  4  0  0  0
 35 36  4  0  0  0
 36 37  4  0  0  0
 36 40  4  0  0  0
 37 38  4  0  0  0
 38 39  4  0  0  0
 39 40  4  0  0  0
  3 41  1  0  0  0
  4 42  1  0  0  0
  5 43  1  0  0  0
  5 44  1  0  0  0
  6 45  1  0  0  0
  6 46  1  0  0  0
  7 47  1  0  0  0
  7 48  1  0  0  0
 11 49  1  0  0  0
 12 50  1  0  0  0
 13 51  1  0  0  0
 13 52  1  0  0  0
 15 53  1  0  0  0
 16 54  1  0  0  0
 17 55  1  0  0  0
 18 56  1  0  0  0
 19 57  1  0  0  0
 20 58  1  0  0  0
 21 59  1  0  0  0
 22 60  1  0  0  0
 22 61  1  0  0  0
 24 62  1  0  0  0
 24 63  1  0  0  0
 25 64  1  0  0  0
 26 65  1  0  0  0
 26 66  1  0  0  0
 26 67  1  0  0  0
 27 68  1  0  0  0
 27 69  1  0  0  0
 28 70  1  0  0  0
 28 71  1  0  0  0
 28 72  1  0  0  0
 33 73  1  0  0  0
 34 74  1  0  0  0
 35 75  1  0  0  0
 38 76  1  0  0  0
M  END
$$$$
