### 
### Created by X-TOOL on Mon Sep 10 21:13:19 2018
### 

@<TRIPOS>MOLECULE
4nyt_ligand
   24    23     1     0     0
SMALL
GAST_HUCK


@<TRIPOS>ATOM
      1 P1         24.6980  -52.0860   19.5730 P.3       1 PC          0.2009
      2 O1         24.7350  -50.6300   19.8910 O.co2     1 PC         -0.5537
      3 O3         24.3040  -53.0080   20.7690 O.co2     1 PC         -0.5537
      4 O4         25.7480  -52.8580   18.8020 O.co2     1 PC         -0.5537
      5 O2         23.3370  -52.1070   18.6470 O.3       1 PC         -0.2708
      6 C1         22.1420  -52.2060   19.4970 C.3       1 PC          0.1181
      7 C2         20.7730  -51.9820   18.8340 C.3       1 PC         -0.0024
      8 N1         20.4870  -50.5220   18.9360 N.4       1 PC          0.2387
      9 C3         19.9980  -49.8520   20.1940 C.3       1 PC         -0.0417
     10 C4         20.7790  -49.6630   17.7430 C.3       1 PC         -0.0417
     11 C5         19.0560  -50.8340   18.4600 C.3       1 PC         -0.0417
     12 H          22.2454  -51.4588   20.2976 H         1 PC          0.0666
     13 H          22.1334  -53.2147   19.9357 H         1 PC          0.0666
     14 H          19.9974  -52.5587   19.3593 H         1 PC          0.0841
     15 H          20.8070  -52.2897   17.7785 H         1 PC          0.0841
     16 H          19.8643  -48.7761   20.0082 H         1 PC          0.0778
     17 H          20.7358  -49.9965   20.9970 H         1 PC          0.0778
     18 H          19.0369  -50.2942   20.4952 H         1 PC          0.0778
     19 H          21.1240  -50.2953   16.9116 H         1 PC          0.0778
     20 H          21.5622  -48.9342   17.9988 H         1 PC          0.0778
     21 H          19.8652  -49.1292   17.4430 H         1 PC          0.0778
     22 H          18.5623  -51.4927   19.1897 H         1 PC          0.0778
     23 H          19.0961  -51.3354   17.4818 H         1 PC          0.0778
     24 H          18.4874  -49.8968   18.3687 H         1 PC          0.0778
@<TRIPOS>BOND
     1    1    2 ar 
     2    1    3 ar 
     3    1    4 ar 
     4    1    5 1  
     5    5    6 1  
     6    6    7 1  
     7    7    8 1  
     8    8    9 1  
     9    8   10 1  
    10    8   11 1  
    11    6   12 1  
    12    6   13 1  
    13    7   14 1  
    14    7   15 1  
    15    9   16 1  
    16    9   17 1  
    17    9   18 1  
    18   10   19 1  
    19   10   20 1  
    20   10   21 1  
    21   11   22 1  
    22   11   23 1  
    23   11   24 1  
@<TRIPOS>SUBSTRUCTURE
     1 PC          1

