4nyt_ligand
  -I-interpret- 

 26 25  0  0  0  0  0  0  0  0999 V2000
   24.6980  -52.0860   19.5730 P   0  0  0  0  0
   24.7350  -50.6300   19.8910 O   0  0  0  0  0
   24.3040  -53.0080   20.7690 O   0  0  0  0  0
   25.7480  -52.8580   18.8020 O   0  0  0  0  0
   23.3370  -52.1070   18.6470 O   0  0  0  0  0
   22.1420  -52.2060   19.4970 C   0  0  0  0  0
   20.7730  -51.9820   18.8340 C   0  0  0  0  0
   20.4870  -50.5220   18.9360 N   0  3  0  0  0
   19.9980  -49.8520   20.1940 C   0  0  0  0  0
   20.7790  -49.6630   17.7430 C   0  0  0  0  0
   19.0560  -50.8340   18.4600 C   0  0  0  0  0
   24.3045  -53.9233   20.4796 H   0  0  0  0  0
   25.4833  -53.7785   18.7369 H   0  0  0  0  0
   22.2423  -51.4103   20.2352 H   0  0  0  0  0
   22.1260  -53.2339   19.8592 H   0  0  0  0  0
   19.9986  -52.5670   19.3303 H   0  0  0  0  0
   20.7859  -52.3054   17.7932 H   0  0  0  0  0
   19.0457  -50.2911   20.4914 H   0  0  0  0  0
   20.7299  -49.9959   20.9888 H   0  0  0  0  0
   19.8659  -48.7860   20.0086 H   0  0  0  0  0
   21.8397  -49.7284   17.5007 H   0  0  0  0  0
   20.1891  -50.0094   16.8944 H   0  0  0  0  0
   20.5198  -48.6288   17.9694 H   0  0  0  0  0
   19.0953  -51.2973   17.4741 H   0  0  0  0  0
   18.5807  -51.5162   19.1648 H   0  0  0  0  0
   18.4828  -49.9085   18.4053 H   0  0  0  0  0
  1  2  2  0  0  0
  1  3  1  0  0  0
  1  4  1  0  0  0
  1  5  1  0  0  0
  5  6  1  0  0  0
  6  7  1  0  0  0
  7  8  1  0  0  0
  8  9  1  0  0  0
  8 10  1  0  0  0
  8 11  1  0  0  0
  3 12  1  0  0  0
  4 13  1  0  0  0
  6 14  1  0  0  0
  6 15  1  0  0  0
  7 16  1  0  0  0
  7 17  1  0  0  0
  9 18  1  0  0  0
  9 19  1  0  0  0
  9 20  1  0  0  0
 10 21  1  0  0  0
 10 22  1  0  0  0
 10 23  1  0  0  0
 11 24  1  0  0  0
 11 25  1  0  0  0
 11 26  1  0  0  0
M  END
$$$$
