4b3b_ligand
  -I-interpret- 

 69 70  0  0  0  0  0  0  0  0999 V2000
   28.4970    1.8370   39.7100 C   0  0  0  0  0
   28.1370    2.9620   40.0540 O   0  0  0  0  0
   29.8520    1.5410   39.1350 C   0  0  0  0  0
   27.7330    0.8240   40.0860 N   0  0  0  0  0
   26.4920    0.9700   40.8140 C   0  0  0  0  0
   26.7530    1.3250   42.2800 C   0  0  0  0  0
   27.6980    0.8160   42.9090 O   0  0  0  0  0
   25.6710   -0.3200   40.7190 C   0  0  0  0  0
   25.1160   -0.5760   39.3510 C   0  0  0  0  0
   23.8770   -0.0700   39.0000 C   0  0  0  0  0
   25.8350   -1.2930   38.4230 C   0  0  0  0  0
   23.3520   -0.2910   37.7510 C   0  0  0  0  0
   25.3190   -1.5130   37.1630 C   0  0  0  0  0
   24.0820   -1.0010   36.8230 C   0  0  0  0  0
   25.9380    2.2300   42.8090 N   0  0  0  0  0
   26.0180    2.5670   44.2300 C   0  0  0  0  0
   24.6190    2.6060   44.7810 C   0  0  0  0  0
   23.6730    2.9530   44.0790 O   0  0  0  0  0
   26.6240    3.9440   44.4580 C   0  0  0  0  0
   27.9980    4.0980   43.9120 C   0  0  0  0  0
   29.1210    3.5890   44.5280 N   0  0  0  0  0
   28.4290    4.7150   42.7920 C   0  0  0  0  0
   30.1870    3.8890   43.8080 C   0  0  0  0  0
   29.7950    4.5690   42.7470 N   0  0  0  0  0
   24.4830    2.2990   46.0640 N   0  0  0  0  0
   23.1860    2.3780   46.7030 C   0  0  0  0  0
   22.6160    3.8000   46.5860 C   0  0  0  0  0
   23.3580    4.7890   46.6450 O   0  0  0  0  0
   23.2350    1.9070   48.1810 C   0  0  0  0  0
   21.9080    1.8980   48.6990 O   0  0  0  0  0
   24.0860    2.8170   49.0320 C   0  0  0  0  0
   21.2990    3.9030   46.4200 N   0  0  0  0  0
   20.6400    5.2010   46.5020 C   0  0  0  0  0
   20.3290    5.5780   47.9730 C   0  0  0  0  0
   19.8870    6.6860   48.2560 O   0  0  0  0  0
   19.3670    5.2170   45.6430 C   0  0  0  0  0
   20.5560    4.6490   48.8960 N   0  0  0  0  0
   29.9902    2.1158   38.2193 H   0  0  0  0  0
   30.6200    1.8164   39.8578 H   0  0  0  0  0
   29.9260    0.4766   38.9120 H   0  0  0  0  0
   28.0387   -0.1194   39.8473 H   0  0  0  0  0
   25.9266    1.7859   40.3639 H   0  0  0  0  0
   24.8271   -0.2222   41.4019 H   0  0  0  0  0
   26.3346   -1.1494   40.9637 H   0  0  0  0  0
   23.3095    0.5126   39.7258 H   0  0  0  0  0
   26.8164   -1.6888   38.6845 H   0  0  0  0  0
   22.3643    0.0926   37.4952 H   0  0  0  0  0
   25.8878   -2.0914   36.4349 H   0  0  0  0  0
   23.6835   -1.1586   35.8208 H   0  0  0  0  0
   25.2488    2.6951   42.2181 H   0  0  0  0  0
   26.6443    1.8191   44.7162 H   0  0  0  0  0
   26.6855    4.0957   45.5356 H   0  0  0  0  0
   25.9891    4.6657   43.9441 H   0  0  0  0  0
   27.8095    5.2326   42.0596 H   0  0  0  0  0
   31.2155    3.6206   44.0491 H   0  0  0  0  0
   25.2970    2.0054   46.6040 H   0  0  0  0  0
   22.5166    1.6952   46.1797 H   0  0  0  0  0
   23.6766    0.9108   48.2083 H   0  0  0  0  0
   21.9248    1.6080   49.6140 H   0  0  0  0  0
   25.1040    2.8295   48.6426 H   0  0  0  0  0
   23.6738    3.8258   49.0074 H   0  0  0  0  0
   24.0929    2.4508   50.0586 H   0  0  0  0  0
   20.7461    3.0663   46.2338 H   0  0  0  0  0
   21.3228    5.9536   46.1078 H   0  0  0  0  0
   19.6290    5.0186   44.6037 H   0  0  0  0  0
   18.6804    4.4489   45.9989 H   0  0  0  0  0
   18.8913    6.1948   45.7189 H   0  0  0  0  0
   20.3618    4.8471   49.8775 H   0  0  0  0  0
   20.9244    3.7380   48.6228 H   0  0  0  0  0
  1  2  2  0  0  0
  1  3  1  0  0  0
  1  4  1  0  0  0
  4  5  1  0  0  0
  5  6  1  0  0  0
  5  8  1  0  0  0
  6  7  2  0  0  0
  6 15  1  0  0  0
  8  9  1  0  0  0
  9 10  4  0  0  0
  9 11  4  0  0  0
 10 12  4  0  0  0
 11 13  4  0  0  0
 12 14  4  0  0  0
 13 14  4  0  0  0
 15 16  1  0  0  0
 16 17  1  0  0  0
 16 19  1  0  0  0
 17 18  2  0  0  0
 17 25  1  0  0  0
 19 20  1  0  0  0
 20 21  4  0  0  0
 20 22  4  0  0  0
 21 23  4  0  0  0
 22 24  4  0  0  0
 23 24  4  0  0  0
 25 26  1  0  0  0
 26 27  1  0  0  0
 26 29  1  0  0  0
 27 28  2  0  0  0
 27 32  1  0  0  0
 29 30  1  0  0  0
 29 31  1  0  0  0
 32 33  1  0  0  0
 33 34  1  0  0  0
 33 36  1  0  0  0
 34 35  2  0  0  0
 34 37  1  0  0  0
  3 38  1  0  0  0
  3 39  1  0  0  0
  3 40  1  0  0  0
  4 41  1  0  0  0
  5 42  1  0  0  0
  8 43  1  0  0  0
  8 44  1  0  0  0
 10 45  1  0  0  0
 11 46  1  0  0  0
 12 47  1  0  0  0
 13 48  1  0  0  0
 14 49  1  0  0  0
 15 50  1  0  0  0
 16 51  1  0  0  0
 19 52  1  0  0  0
 19 53  1  0  0  0
 22 54  1  0  0  0
 23 55  1  0  0  0
 25 56  1  0  0  0
 26 57  1  0  0  0
 29 58  1  0  0  0
 30 59  1  0  0  0
 31 60  1  0  0  0
 31 61  1  0  0  0
 31 62  1  0  0  0
 32 63  1  0  0  0
 33 64  1  0  0  0
 36 65  1  0  0  0
 36 66  1  0  0  0
 36 67  1  0  0  0
 37 68  1  0  0  0
 37 69  1  0  0  0
M  END
$$$$
