6byz_ligand
  -I-interpret- 

 73 77  0  0  0  0  0  0  0  0999 V2000
  106.4590  -48.5540   43.6470 C   0  0  0  0  0
  106.4240  -48.3960   45.0450 C   0  0  0  0  0
  105.4740  -47.5740   45.7010 C   0  0  0  0  0
  104.4880  -46.8780   44.9860 C   0  0  0  0  0
  105.5180  -47.4490   47.0990 C   0  0  0  0  0
  104.6180  -46.6680   47.8280 C   0  0  0  0  0
  106.4850  -48.1310   47.8290 C   0  0  0  0  0
  107.4180  -48.9360   47.1870 C   0  0  0  0  0
  107.3850  -49.0590   45.8000 C   0  0  0  0  0
  107.4380  -47.9160   42.8840 C   0  0  0  0  0
  113.3680  -51.3240   36.2410 C   0  0  0  0  0
  104.8230  -47.5740   38.1290 C   0  0  0  0  0
  105.1740  -48.9050   38.7900 C   0  0  0  0  0
  104.5910  -50.8030   37.3940 C   0  0  0  0  0
  104.9080  -52.0620   36.5460 C   0  0  0  0  0
  106.1760  -52.6920   37.0350 C   0  0  0  0  0
  107.2600  -51.8300   36.3950 C   0  0  0  0  0
  110.9480  -52.4030   37.1150 C   0  0  0  0  0
  112.0880  -53.2300   37.0330 C   0  0  0  0  0
  112.0950  -54.6050   37.3680 C   0  0  0  0  0
  113.2860  -52.6630   36.5910 C   0  0  0  0  0
  112.2550  -50.5210   36.3210 C   0  0  0  0  0
  111.0610  -51.0590   36.7560 C   0  0  0  0  0
  108.1200  -50.6540   38.4000 C   0  0  0  0  0
  106.6390  -50.3610   38.8580 C   0  0  0  0  0
  106.5820  -48.9400   39.4090 C   0  0  0  0  0
  106.5660  -48.8080   40.8270 C   0  0  0  0  0
  105.5870  -49.4460   41.5990 C   0  0  0  0  0
  105.5280  -49.3320   42.9810 C   0  0  0  0  0
  107.5010  -48.0290   41.4920 C   0  0  0  0  0
  113.3750  -55.0960   37.3130 F   0  0  0  0  0
  111.6260  -54.7870   38.6000 F   0  0  0  0  0
  111.3570  -55.2860   36.5150 F   0  0  0  0  0
  105.6880  -49.8610   37.8100 N   0  3  0  0  0
  108.4160  -51.5950   37.2740 N   0  0  0  0  0
  105.2690  -46.4820   38.9400 O   0  0  0  0  0
  108.6910  -54.0990   36.8920 O   0  0  0  0  0
  109.1860  -53.1490   39.1810 O   0  0  0  0  0
  109.2420  -52.8950   37.6670 S   0  0  0  0  0
  104.9648  -46.1949   44.2831 H   0  0  0  0  0
  103.8674  -47.5885   44.4400 H   0  0  0  0  0
  103.8684  -46.3117   45.6814 H   0  0  0  0  0
  104.6913  -45.6308   47.5011 H   0  0  0  0  0
  103.6044  -47.0322   47.6606 H   0  0  0  0  0
  104.8585  -46.7337   48.8891 H   0  0  0  0  0
  106.5114  -48.0333   48.9143 H   0  0  0  0  0
  108.1722  -49.4688   47.7661 H   0  0  0  0  0
  108.1237  -49.6845   45.2989 H   0  0  0  0  0
  108.1832  -47.3053   43.3937 H   0  0  0  0  0
  114.3164  -50.9073   35.9019 H   0  0  0  0  0
  103.7413  -47.5103   38.0109 H   0  0  0  0  0
  105.3146  -47.5191   37.1577 H   0  0  0  0  0
  104.2817  -49.0730   39.3930 H   0  0  0  0  0
  104.2121  -51.2032   38.3344 H   0  0  0  0  0
  103.9524  -50.2003   36.7483 H   0  0  0  0  0
  105.0263  -51.7743   35.5013 H   0  0  0  0  0
  104.0898  -52.7762   36.6388 H   0  0  0  0  0
  106.2571  -53.7437   36.7604 H   0  0  0  0  0
  106.2431  -52.7146   38.1227 H   0  0  0  0  0
  106.8171  -50.8600   36.1690 H   0  0  0  0  0
  107.6209  -52.3582   35.5125 H   0  0  0  0  0
  114.1764  -53.2876   36.5197 H   0  0  0  0  0
  112.3151  -49.4687   36.0433 H   0  0  0  0  0
  110.1825  -50.4171   36.8210 H   0  0  0  0  0
  108.5715  -51.1348   39.2678 H   0  0  0  0  0
  108.4762  -49.6904   38.0357 H   0  0  0  0  0
  106.4104  -51.2824   39.3936 H   0  0  0  0  0
  107.3705  -48.2161   39.2032 H   0  0  0  0  0
  104.8400  -50.0578   41.0932 H   0  0  0  0  0
  104.7510  -49.8535   43.5400 H   0  0  0  0  0
  108.2792  -47.5087   40.9335 H   0  0  0  0  0
  106.0621  -49.6053   36.8962 H   0  0  0  0  0
  105.0416  -45.6533   38.5121 H   0  0  0  0  0
  1  2  1  0  0  0
 10  1  4  0  0  0
 29  1  4  0  0  0
  2  3  4  0  0  0
  2  9  4  0  0  0
  3  4  1  0  0  0
  3  5  4  0  0  0
  5  6  1  0  0  0
  5  7  4  0  0  0
  8  7  4  0  0  0
  9  8  4  0  0  0
 30 10  4  0  0  0
 21 11  4  0  0  0
 22 11  4  0  0  0
 13 12  1  0  0  0
 12 36  1  0  0  0
 26 13  1  0  0  0
 34 13  1  0  0  0
 15 14  1  0  0  0
 34 14  1  0  0  0
 16 15  1  0  0  0
 17 16  1  0  0  0
 35 17  1  0  0  0
 18 19  4  0  0  0
 18 23  4  0  0  0
 39 18  1  0  0  0
 19 20  1  0  0  0
 19 21  4  0  0  0
 20 31  1  0  0  0
 20 32  1  0  0  0
 20 33  1  0  0  0
 23 22  4  0  0  0
 24 25  1  0  0  0
 35 24  1  0  0  0
 25 26  1  0  0  0
 25 34  1  0  0  0
 26 27  1  0  0  0
 27 28  4  0  0  0
 27 30  4  0  0  0
 28 29  4  0  0  0
 35 39  1  0  0  0
 39 37  2  0  0  0
 39 38  2  0  0  0
  4 40  1  0  0  0
  4 41  1  0  0  0
  4 42  1  0  0  0
  6 43  1  0  0  0
  6 44  1  0  0  0
  6 45  1  0  0  0
  7 46  1  0  0  0
  8 47  1  0  0  0
  9 48  1  0  0  0
 10 49  1  0  0  0
 11 50  1  0  0  0
 12 51  1  0  0  0
 12 52  1  0  0  0
 13 53  1  0  0  0
 14 54  1  0  0  0
 14 55  1  0  0  0
 15 56  1  0  0  0
 15 57  1  0  0  0
 16 58  1  0  0  0
 16 59  1  0  0  0
 17 60  1  0  0  0
 17 61  1  0  0  0
 21 62  1  0  0  0
 22 63  1  0  0  0
 23 64  1  0  0  0
 24 65  1  0  0  0
 24 66  1  0  0  0
 25 67  1  0  0  0
 26 68  1  0  0  0
 28 69  1  0  0  0
 29 70  1  0  0  0
 30 71  1  0  0  0
 34 72  1  0  0  0
 36 73  1  0  0  0
M  END
$$$$
