1utm_ligand
  -I-interpret- 

 21 21  0  0  0  0  0  0  0  0999 V2000
   93.9350   77.8830  -16.7310 C   0  0  0  0  0
   94.8120   78.2330  -17.7540 C   0  0  0  0  0
   94.6460   77.7290  -19.0430 C   0  0  0  0  0
   93.5850   76.8640  -19.3160 C   0  0  0  0  0
   92.7040   76.5110  -18.3000 C   0  0  0  0  0
   92.8830   77.0210  -17.0150 C   0  0  0  0  0
   94.1270   78.4200  -15.3370 C   0  0  0  0  0
   94.6600   79.8400  -15.2930 C   0  0  0  0  0
   94.8930   80.2770  -13.8970 N   0  3  0  0  0
   95.6398   78.9104  -17.5441 H   0  0  0  0  0
   95.3415   78.0091  -19.8341 H   0  0  0  0  0
   93.4477   76.4669  -20.3217 H   0  0  0  0  0
   91.8739   75.8359  -18.5081 H   0  0  0  0  0
   92.1888   76.7399  -16.2230 H   0  0  0  0  0
   94.8604   77.7831  -14.8424 H   0  0  0  0  0
   93.1497   78.4255  -14.8543 H   0  0  0  0  0
   93.9251   80.5035  -15.7489 H   0  0  0  0  0
   95.6063   79.8750  -15.8328 H   0  0  0  0  0
   95.2502   81.2324  -13.8962 H   0  0  0  0  0
   94.0148   80.2406  -13.3795 H   0  0  0  0  0
   95.5739   79.6578  -13.4573 H   0  0  0  0  0
  1  2  4  0  0  0
  1  6  4  0  0  0
  1  7  1  0  0  0
  2  3  4  0  0  0
  3  4  4  0  0  0
  4  5  4  0  0  0
  5  6  4  0  0  0
  7  8  1  0  0  0
  8  9  1  0  0  0
  2 10  1  0  0  0
  3 11  1  0  0  0
  4 12  1  0  0  0
  5 13  1  0  0  0
  6 14  1  0  0  0
  7 15  1  0  0  0
  7 16  1  0  0  0
  8 17  1  0  0  0
  8 18  1  0  0  0
  9 19  1  0  0  0
  9 20  1  0  0  0
  9 21  1  0  0  0
M  END
$$$$
