5tiu_ligand
  -I-interpret- 

 41 43  0  0  0  0  0  0  0  0999 V2000
   -4.0290    0.5640  -14.6520 C   0  0  0  0  0
   -4.9400    1.5240  -14.3700 N   0  0  0  0  0
   -3.9210   -1.3740  -16.1040 O   0  0  0  0  0
   -2.7190    0.6690  -14.2020 C   0  0  0  0  0
   -2.3280    1.7000  -13.4370 N   0  0  0  0  0
   -3.2210    2.6540  -13.1500 C   0  0  0  0  0
   -4.5120    2.5450  -13.6200 C   0  0  0  0  0
   -4.5740   -0.4820  -15.5500 C   0  0  0  0  0
   -2.8810    3.7710  -12.3770 N   0  0  0  0  0
   -1.4700    3.9810  -12.0940 C   0  0  0  0  0
   -0.6490    4.4360  -13.2920 C   0  0  0  0  0
   -1.0730    5.8120  -13.6740 N   0  3  0  0  0
   -1.5580   -0.2010  -14.4120 C   0  0  0  0  0
    0.8080    4.5780  -12.9360 C   0  0  0  0  0
   -1.4940   -1.3480  -15.1630 N   0  0  0  0  0
   -0.2210   -1.8720  -15.1180 C   0  0  0  0  0
    0.5520   -1.0600  -14.3030 C   0  0  0  0  0
   -0.3110   -0.0190  -13.8620 C   0  0  0  0  0
    0.3020   -2.9790  -15.7660 C   0  0  0  0  0
    1.6350   -3.2430  -15.5120 C   0  0  0  0  0
    2.4180   -2.4420  -14.7020 C   0  0  0  0  0
    1.9080   -1.3050  -14.0900 C   0  0  0  0  0
   -5.9140   -0.3510  -15.7810 N   0  0  0  0  0
   -5.2217    3.3327  -13.3670 H   0  0  0  0  0
   -3.5937    4.4111  -12.0268 H   0  0  0  0  0
   -1.0623    3.0226  -11.7724 H   0  0  0  0  0
   -1.4082    4.7709  -11.3455 H   0  0  0  0  0
   -0.7959    3.6974  -14.0800 H   0  0  0  0  0
   -0.5268    6.1242  -14.4769 H   0  0  0  0  0
   -2.0637    5.8061  -13.9168 H   0  0  0  0  0
   -0.9178    6.4445  -12.8890 H   0  0  0  0  0
    0.9162    5.3156  -12.1408 H   0  0  0  0  0
    1.1931    3.6165  -12.5963 H   0  0  0  0  0
    1.3652    4.9043  -13.8142 H   0  0  0  0  0
   -0.0285    0.7944  -13.1937 H   0  0  0  0  0
   -0.2973   -3.6003  -16.4315 H   0  0  0  0  0
    2.0886   -4.1216  -15.9707 H   0  0  0  0  0
    3.4621   -2.7098  -14.5397 H   0  0  0  0  0
    2.5279   -0.6461  -13.4820 H   0  0  0  0  0
   -6.3871   -0.9932  -16.4167 H   0  0  0  0  0
   -6.4414    0.3890  -15.3178 H   0  0  0  0  0
  1  2  4  0  0  0
  1  4  4  0  0  0
  1  8  1  0  0  0
  2  7  4  0  0  0
  8  3  2  0  0  0
  4  5  4  0  0  0
  4 13  1  0  0  0
  5  6  4  0  0  0
  6  7  4  0  0  0
  6  9  1  0  0  0
  8 23  1  0  0  0
  9 10  1  0  0  0
 10 11  1  0  0  0
 11 12  1  0  0  0
 11 14  1  0  0  0
 13 15  4  0  0  0
 13 18  4  0  0  0
 15 16  4  0  0  0
 16 17  4  0  0  0
 16 19  4  0  0  0
 17 18  4  0  0  0
 17 22  4  0  0  0
 19 20  4  0  0  0
 20 21  4  0  0  0
 21 22  4  0  0  0
  7 24  1  0  0  0
  9 25  1  0  0  0
 10 26  1  0  0  0
 10 27  1  0  0  0
 11 28  1  0  0  0
 12 29  1  0  0  0
 12 30  1  0  0  0
 12 31  1  0  0  0
 14 32  1  0  0  0
 14 33  1  0  0  0
 14 34  1  0  0  0
 18 35  1  0  0  0
 19 36  1  0  0  0
 20 37  1  0  0  0
 21 38  1  0  0  0
 22 39  1  0  0  0
 23 40  1  0  0  0
 23 41  1  0  0  0
M  END
$$$$
