5ugh_ligand
  -I-interpret- 

 45 48  0  0  0  0  0  0  0  0999 V2000
    2.0120    7.4200   18.1320 C   0  0  0  0  0
    3.3810    7.0660   18.4770 C   0  0  0  0  0
    6.4400    4.3190   15.7120 C   0  0  0  0  0
   -3.0170    8.9840   14.3510 C   0  0  0  0  0
    2.0550    6.7050   14.3930 N   0  0  0  0  0
    2.4660    6.8370   15.7680 C   0  0  0  0  0
    2.9130    6.2650   13.4260 C   0  0  0  0  0
    0.7800    6.9590   13.6840 C   0  0  0  0  0
    3.7890    6.5040   16.1300 C   0  0  0  0  0
    1.5740    7.3030   16.8010 C   0  0  0  0  0
    4.2720    5.9130   13.7490 C   0  0  0  0  0
    2.2150    6.2420   12.1690 N   0  0  0  0  0
    0.9510    6.6590   12.3650 N   0  0  0  0  0
   -0.5440    7.4530   14.2310 C   0  0  0  0  0
    4.7160    6.0390   15.1060 C   0  0  0  0  0
    4.2370    6.6240   17.5010 C   0  0  0  0  0
   -1.7350    7.2980   13.3420 C   0  0  0  0  0
    6.1540    5.6480   15.4580 C   0  0  0  0  0
   -3.0130    7.5940   13.9080 N   0  3  0  0  0
    7.1790    6.6290   15.5200 C   0  0  0  0  0
    3.9390    7.1910   20.0800 Cl  0  0  0  0  0
   -4.0380    7.3920   12.8960 C   0  0  0  0  0
    8.4410    6.2550   15.8340 C   0  0  0  0  0
    7.7450    3.9260   16.0400 C   0  0  0  0  0
    8.7500    4.8870   16.1020 C   0  0  0  0  0
    1.3283    7.7748   18.9032 H   0  0  0  0  0
    5.6468    3.5734   15.6569 H   0  0  0  0  0
   -2.2375    9.1278   15.0992 H   0  0  0  0  0
   -2.8287    9.6363   13.4983 H   0  0  0  0  0
   -3.9878    9.2228   14.7854 H   0  0  0  0  0
    0.5477    7.5678   16.5468 H   0  0  0  0  0
    4.9512    5.5568   12.9745 H   0  0  0  0  0
   -0.4235    8.5248   14.3885 H   0  0  0  0  0
   -0.7481    6.8496   15.1155 H   0  0  0  0  0
    5.2627    6.3610   17.7598 H   0  0  0  0  0
   -1.7677    6.2427   13.0713 H   0  0  0  0  0
   -1.5960    8.0145   12.5324 H   0  0  0  0  0
   -3.2015    6.9826   14.7024 H   0  0  0  0  0
    6.9509    7.6752   15.3162 H   0  0  0  0  0
   -3.8477    8.0535   12.0509 H   0  0  0  0  0
   -4.0156    6.3554   12.5599 H   0  0  0  0  0
   -5.0161    7.6163   13.3216 H   0  0  0  0  0
    9.2297    7.0057   15.8828 H   0  0  0  0  0
    7.9703    2.8793   16.2443 H   0  0  0  0  0
    9.7697    4.5962   16.3544 H   0  0  0  0  0
  1  2  4  0  0  0
 10  1  4  0  0  0
 16  2  4  0  0  0
  2 21  1  0  0  0
 18  3  4  0  0  0
  3 24  4  0  0  0
 19  4  1  0  0  0
  5  6  4  0  0  0
  5  7  4  0  0  0
  8  5  4  0  0  0
  6  9  4  0  0  0
  6 10  4  0  0  0
  7 11  4  0  0  0
 12  7  4  0  0  0
  8 13  4  0  0  0
 14  8  1  0  0  0
  9 15  4  0  0  0
  9 16  4  0  0  0
 11 15  4  0  0  0
 13 12  4  0  0  0
 17 14  1  0  0  0
 15 18  1  0  0  0
 17 19  1  0  0  0
 18 20  4  0  0  0
 19 22  1  0  0  0
 20 23  4  0  0  0
 23 25  4  0  0  0
 24 25  4  0  0  0
  1 26  1  0  0  0
  3 27  1  0  0  0
  4 28  1  0  0  0
  4 29  1  0  0  0
  4 30  1  0  0  0
 10 31  1  0  0  0
 11 32  1  0  0  0
 14 33  1  0  0  0
 14 34  1  0  0  0
 16 35  1  0  0  0
 17 36  1  0  0  0
 17 37  1  0  0  0
 19 38  1  0  0  0
 20 39  1  0  0  0
 22 40  1  0  0  0
 22 41  1  0  0  0
 22 42  1  0  0  0
 23 43  1  0  0  0
 24 44  1  0  0  0
 25 45  1  0  0  0
M  END
$$$$
