3q4l_ligand
  -I-interpret- 

103104  0  0  0  0  0  0  0  0999 V2000
  -14.1480    1.3680   29.3780 C   0  0  0  0  0
  -13.8350    1.7130   30.5020 O   0  0  0  0  0
  -15.0350    0.1340   29.1410 C   0  0  0  0  0
  -13.7460    1.9570   28.2900 N   0  0  0  0  0
  -12.8730    3.1000   28.1150 C   0  0  0  0  0
  -13.2830    4.3490   28.8530 C   0  0  0  0  0
  -14.3300    4.8210   28.6220 O   0  0  0  0  0
  -12.6170    3.4430   26.6590 C   0  0  0  0  0
  -11.4700    4.5020   26.4580 C   0  0  0  0  0
  -10.0870    4.2180   27.0960 C   0  0  0  0  0
   -9.4950    4.9160   28.0050 O   0  0  0  0  0
   -9.5140    3.2310   26.6660 N   0  0  0  0  0
  -12.3480    4.7830   29.7100 N   0  0  0  0  0
  -12.5000    6.0040   30.5480 C   0  0  0  0  0
  -11.8780    7.1920   29.7520 C   0  0  0  0  0
  -10.9840    7.0690   28.8690 O   0  0  0  0  0
  -11.7390    5.8300   31.8890 C   0  0  0  0  0
  -12.2650    4.5590   32.6500 C   0  0  0  0  0
  -11.3230    4.2060   33.8350 C   0  0  0  0  0
  -11.9110    3.0200   34.5140 C   0  0  0  0  0
  -13.0670    3.5880   35.2950 C   0  0  0  0  0
  -14.2140    3.9640   34.3020 C   0  0  0  0  0
  -13.8080    4.6540   32.9620 C   0  0  0  0  0
  -12.4060    8.3340   30.1450 N   0  0  0  0  0
  -12.0540    9.6700   29.6290 C   0  0  0  0  0
  -10.9050   10.2380   30.4940 C   0  0  0  0  0
  -10.9000   10.0940   31.7060 O   0  0  0  0  0
  -13.1940   10.6090   29.7910 C   0  0  0  0  0
  -14.3980   10.2330   29.0030 C   0  0  0  0  0
  -14.3730    9.3360   28.0840 O   0  0  0  0  0
  -15.3980   10.8730   29.3600 O   0  0  0  0  0
   -9.9290   10.9170   29.8820 N   0  0  0  0  0
   -8.7850   11.7870   30.6060 C   0  0  0  0  0
   -9.3350   12.9110   31.3300 C   0  0  0  0  0
   -8.8080   13.2710   32.3770 O   0  0  0  0  0
   -7.6210   12.2650   29.7260 C   0  0  0  0  0
   -6.5990   11.2060   29.2510 C   0  0  0  0  0
   -5.8410   11.6220   27.9960 C   0  0  0  0  0
   -5.7120   10.6880   30.3700 C   0  0  0  0  0
  -10.3310   13.5890   30.7960 N   0  0  0  0  0
  -13.3910   14.1040   31.2740 O   0  0  0  0  0
   -5.5070   16.5250   27.9660 Cl  0  0  0  0  0
   -7.3470   17.1720   29.9840 C   0  0  0  0  0
   -8.0880   15.8030   28.0890 C   0  0  0  0  0
   -7.8030   15.0450   26.6350 Cl  0  0  0  0  0
   -8.6630   17.0200   30.4940 C   0  0  0  0  0
   -9.3470   15.6820   28.5740 C   0  0  0  0  0
  -11.0910   16.0850   30.2880 C   0  0  0  0  0
  -12.3560   14.3430   31.9820 C   0  0  0  0  0
   -7.0570   16.5150   28.7460 C   0  0  0  0  0
   -9.6720   16.2910   29.7990 C   0  0  0  0  0
  -11.0070   14.8330   31.2710 C   0  0  0  0  0
  -12.3390   14.1600   33.2540 O   0  0  0  0  0
  -14.5427   -0.7493   29.5478 H   0  0  0  0  0
  -15.9949    0.2774   29.6371 H   0  0  0  0  0
  -15.1938    0.0024   28.0707 H   0  0  0  0  0
  -14.1010    1.5505   27.4245 H   0  0  0  0  0
  -11.9472    2.7516   28.5729 H   0  0  0  0  0
  -13.5345    3.8723   26.2566 H   0  0  0  0  0
  -12.3099    2.5267   26.1549 H   0  0  0  0  0
  -11.8290    5.4089   26.9446 H   0  0  0  0  0
  -11.2896    4.5283   25.3833 H   0  0  0  0  0
   -8.5934    2.9786   27.0256 H   0  0  0  0  0
   -9.9553    2.6579   25.9468 H   0  0  0  0  0
  -11.4843    4.2467   29.7925 H   0  0  0  0  0
  -13.5517    6.1849   30.7698 H   0  0  0  0  0
  -11.9031    6.7110   32.5095 H   0  0  0  0  0
  -10.6756    5.7081   31.6828 H   0  0  0  0  0
  -12.2135    3.6846   32.0012 H   0  0  0  0  0
  -11.2382    5.0451   34.5255 H   0  0  0  0  0
  -10.3164    3.9883   33.4779 H   0  0  0  0  0
  -11.1908    2.5085   35.1525 H   0  0  0  0  0
  -12.2255    2.2516   33.8078 H   0  0  0  0  0
  -12.7437    4.4764   35.8375 H   0  0  0  0  0
  -13.4269    2.8484   36.0102 H   0  0  0  0  0
  -14.8337    4.6889   34.8298 H   0  0  0  0  0
  -14.6777    3.0195   34.0174 H   0  0  0  0  0
  -14.3377    4.1447   32.1569 H   0  0  0  0  0
  -14.0613    5.7108   33.0470 H   0  0  0  0  0
  -13.1216    8.2898   30.8705 H   0  0  0  0  0
  -11.7826    9.5735   28.5777 H   0  0  0  0  0
  -12.8643   11.5850   29.4350 H   0  0  0  0  0
  -13.4776   10.5974   30.8434 H   0  0  0  0  0
  -13.4811    8.9912   27.9991 H   0  0  0  0  0
   -9.9077   10.8801   28.8629 H   0  0  0  0  0
   -8.3459   11.0647   31.2941 H   0  0  0  0  0
   -7.0543   12.9614   30.3440 H   0  0  0  0  0
   -8.0818   12.6543   28.8181 H   0  0  0  0  0
   -7.1879   10.3422   28.9424 H   0  0  0  0  0
   -6.5485   11.7849   27.1830 H   0  0  0  0  0
   -5.2931   12.5435   28.1927 H   0  0  0  0  0
   -5.1411   10.8340   27.7179 H   0  0  0  0  0
   -5.1518   11.5175   30.8014 H   0  0  0  0  0
   -6.3316   10.2273   31.1394 H   0  0  0  0  0
   -5.0183    9.9488   29.9694 H   0  0  0  0  0
  -10.6962   13.2051   29.9244 H   0  0  0  0  0
   -6.5945   17.7601   30.5093 H   0  0  0  0  0
   -8.9111   17.4773   31.4518 H   0  0  0  0  0
  -10.0992   15.1192   28.0212 H   0  0  0  0  0
  -11.7819   15.9074   29.4638 H   0  0  0  0  0
  -11.4785   16.9705   30.7918 H   0  0  0  0  0
  -10.3637   15.3472   31.9850 H   0  0  0  0  0
  -11.4747   14.3962   33.5986 H   0  0  0  0  0
  1  2  2  0  0  0
  1  3  1  0  0  0
  4  1  1  0  0  0
  5  4  1  0  0  0
  6  5  1  0  0  0
  5  8  1  0  0  0
  6  7  2  0  0  0
 13  6  1  0  0  0
  8  9  1  0  0  0
  9 10  1  0  0  0
 10 11  2  0  0  0
 10 12  1  0  0  0
 14 13  1  0  0  0
 15 14  1  0  0  0
 14 17  1  0  0  0
 15 16  2  0  0  0
 24 15  1  0  0  0
 17 18  1  0  0  0
 18 19  1  0  0  0
 18 23  1  0  0  0
 19 20  1  0  0  0
 20 21  1  0  0  0
 22 21  1  0  0  0
 23 22  1  0  0  0
 25 24  1  0  0  0
 26 25  1  0  0  0
 25 28  1  0  0  0
 26 27  2  0  0  0
 32 26  1  0  0  0
 28 29  1  0  0  0
 29 30  1  0  0  0
 29 31  2  0  0  0
 33 32  1  0  0  0
 34 33  1  0  0  0
 33 36  1  0  0  0
 34 35  2  0  0  0
 40 34  1  0  0  0
 36 37  1  0  0  0
 37 38  1  0  0  0
 37 39  1  0  0  0
 52 40  1  0  0  0
 49 41  2  0  0  0
 50 42  1  0  0  0
 46 43  4  0  0  0
 43 50  4  0  0  0
 44 45  1  0  0  0
 47 44  4  0  0  0
 44 50  4  0  0  0
 51 46  4  0  0  0
 51 47  4  0  0  0
 48 51  1  0  0  0
 52 48  1  0  0  0
 49 52  1  0  0  0
 49 53  1  0  0  0
  3 54  1  0  0  0
  3 55  1  0  0  0
  3 56  1  0  0  0
  4 57  1  0  0  0
  5 58  1  0  0  0
  8 59  1  0  0  0
  8 60  1  0  0  0
  9 61  1  0  0  0
  9 62  1  0  0  0
 12 63  1  0  0  0
 12 64  1  0  0  0
 13 65  1  0  0  0
 14 66  1  0  0  0
 17 67  1  0  0  0
 17 68  1  0  0  0
 18 69  1  0  0  0
 19 70  1  0  0  0
 19 71  1  0  0  0
 20 72  1  0  0  0
 20 73  1  0  0  0
 21 74  1  0  0  0
 21 75  1  0  0  0
 22 76  1  0  0  0
 22 77  1  0  0  0
 23 78  1  0  0  0
 23 79  1  0  0  0
 24 80  1  0  0  0
 25 81  1  0  0  0
 28 82  1  0  0  0
 28 83  1  0  0  0
 30 84  1  0  0  0
 32 85  1  0  0  0
 33 86  1  0  0  0
 36 87  1  0  0  0
 36 88  1  0  0  0
 37 89  1  0  0  0
 38 90  1  0  0  0
 38 91  1  0  0  0
 38 92  1  0  0  0
 39 93  1  0  0  0
 39 94  1  0  0  0
 39 95  1  0  0  0
 40 96  1  0  0  0
 43 97  1  0  0  0
 46 98  1  0  0  0
 47 99  1  0  0  0
 48100  1  0  0  0
 48101  1  0  0  0
 52102  1  0  0  0
 53103  1  0  0  0
M  END
$$$$
