### 
### Created by X-TOOL on Mon Sep 10 21:13:07 2018
### 

@<TRIPOS>MOLECULE
3q4l_ligand
  101   102     1     0     0
SMALL
GAST_HUCK


@<TRIPOS>ATOM
      1 C         -14.1480    1.3680   29.3780 C.2       1 ACE         0.1751
      2 O         -13.8350    1.7130   30.5020 O.2       1 ACE        -0.3972
      3 CH3       -15.0350    0.1340   29.1410 C.3       1 ACE         0.0258
      4 N         -13.7460    1.9570   28.2900 N.am      1 GLN        -0.2657
      5 CA        -12.8730    3.1000   28.1150 C.3       1 GLN         0.1329
      6 C         -13.2830    4.3490   28.8530 C.2       1 GLN         0.2040
      7 O         -14.3300    4.8210   28.6220 O.2       1 GLN        -0.3944
      8 CB        -12.6170    3.4430   26.6590 C.3       1 GLN         0.0045
      9 CG        -11.4700    4.5020   26.4580 C.3       1 GLN         0.0412
     10 CD        -10.0870    4.2180   27.0960 C.2       1 GLN         0.1737
     11 OE1        -9.4950    4.9160   28.0050 O.2       1 GLN        -0.3973
     12 NE2        -9.5140    3.2310   26.6660 N.am      1 GLN        -0.3009
     13 N         -12.3480    4.7830   29.7100 N.am      1 ALC        -0.2637
     14 CA        -12.5000    6.0040   30.5480 C.3       1 ALC         0.1312
     15 C         -11.8780    7.1920   29.7520 C.2       1 ALC         0.2040
     16 O         -10.9840    7.0690   28.8690 O.2       1 ALC        -0.3944
     17 CB        -11.7390    5.8300   31.8890 C.3       1 ALC        -0.0096
     18 CG        -12.2650    4.5590   32.6500 C.3       1 ALC        -0.0368
     19 CD2       -11.3230    4.2060   33.8350 C.3       1 ALC        -0.0500
     20 CE2       -11.9110    3.0200   34.5140 C.3       1 ALC        -0.0528
     21 CZ        -13.0670    3.5880   35.2950 C.3       1 ALC        -0.0530
     22 CE1       -14.2140    3.9640   34.3020 C.3       1 ALC        -0.0528
     23 CD1       -13.8080    4.6540   32.9620 C.3       1 ALC        -0.0500
     24 N         -12.4060    8.3340   30.1450 N.am      1 ASP        -0.2622
     25 CA        -12.0540    9.6700   29.6290 C.3       1 ASP         0.1423
     26 C         -10.9050   10.2380   30.4940 C.2       1 ASP         0.2056
     27 O         -10.9000   10.0940   31.7060 O.2       1 ASP        -0.3943
     28 CB        -13.1940   10.6090   29.7910 C.3       1 ASP         0.0406
     29 CG        -14.3980   10.2330   29.0030 C.2       1 ASP         0.0393
     30 OD1       -14.3730    9.3360   28.0840 O.co2     1 ASP        -0.5688
     31 OD2       -15.3980   10.8730   29.3600 O.co2     1 ASP        -0.5688
     32 N          -9.9290   10.9170   29.8820 N.am      1 LEU        -0.2636
     33 CA         -8.7850   11.7870   30.6060 C.3       1 LEU         0.1312
     34 C          -9.3350   12.9110   31.3300 C.2       1 LEU         0.2035
     35 O          -8.8080   13.2710   32.3770 O.2       1 LEU        -0.3944
     36 CB         -7.6210   12.2650   29.7260 C.3       1 LEU        -0.0101
     37 CG         -6.5990   11.2060   29.2510 C.3       1 LEU        -0.0425
     38 CD1        -5.8410   11.6220   27.9960 C.3       1 LEU        -0.0625
     39 CD2        -5.7120   10.6880   30.3700 C.3       1 LEU        -0.0625
     40 N         -10.3310   13.5890   30.7960 N.am      1 ZCL        -0.2677
     41 O         -13.3910   14.1040   31.2740 O.co2     1 ZCL        -0.5664
     42 CLZ        -5.5070   16.5250   27.9660 Cl        1 ZCL        -0.0764
     43 CE2        -7.3470   17.1720   29.9840 C.ar      1 ZCL        -0.0541
     44 CE1        -8.0880   15.8030   28.0890 C.ar      1 ZCL         0.0477
     45 CLE1       -7.8030   15.0450   26.6350 Cl        1 ZCL        -0.0718
     46 CD2        -8.6630   17.0200   30.4940 C.ar      1 ZCL        -0.0594
     47 CD1        -9.3470   15.6820   28.5740 C.ar      1 ZCL        -0.0457
     48 CB        -11.0910   16.0850   30.2880 C.3       1 ZCL         0.0161
     49 C         -12.3560   14.3430   31.9820 C.2       1 ZCL         0.0621
     50 CZ         -7.0570   16.5150   28.7460 C.ar      1 ZCL         0.0469
     51 CG         -9.6720   16.2910   29.7990 C.ar      1 ZCL        -0.0385
     52 CA        -11.0070   14.8330   31.2710 C.3       1 ZCL         0.1040
     53 OXT       -12.3390   14.1600   33.2540 O.co2     1 ZCL        -0.5664
     54 H1        -15.1960    0.0002   28.0611 H         1 ACE         0.0467
     55 H2        -16.0041    0.2775   29.6412 H         1 ACE         0.0467
     56 H3        -14.5392   -0.7582   29.5511 H         1 ACE         0.0467
     57 H4        -14.0941    1.5584   27.4415 H         1 GLN         0.1883
     58 H5        -11.9055    2.7960   28.5411 H         1 GLN         0.0801
     59 H6        -13.5445    3.8478   26.2279 H         1 GLN         0.0337
     60 H7        -12.3374    2.5213   26.1277 H         1 GLN         0.0337
     61 H8        -11.8303    5.4549   26.8729 H         1 GLN         0.0504
     62 H9        -11.3127    4.6099   25.3747 H         1 GLN         0.0504
     63 H10        -8.6158    2.9780   27.0255 H         1 GLN         0.1814
     64 H11        -9.9423    2.6747   25.9539 H         1 GLN         0.1814
     65 H12       -11.5012    4.2573   29.7909 H         1 ALC         0.1883
     66 H13       -13.5646    6.1952   30.7481 H         1 ALC         0.0800
     67 H14       -11.8979    6.7202   32.5153 H         1 ALC         0.0315
     68 H15       -10.6646    5.7125   31.6846 H         1 ALC         0.0315
     69 H16       -12.1701    3.7188   31.9464 H         1 ALC         0.0303
     70 H17       -11.2626    5.0519   34.5355 H         1 ALC         0.0268
     71 H18       -10.3166    3.9674   33.4605 H         1 ALC         0.0268
     72 H19       -11.1778    2.5498   35.1859 H         1 ALC         0.0265
     73 H20       -12.2609    2.2809   33.7783 H         1 ALC         0.0265
     74 H21       -12.7395    4.4869   35.8379 H         1 ALC         0.0265
     75 H22       -13.4313    2.8384   36.0128 H         1 ALC         0.0265
     76 H23       -14.8971    4.6456   34.8300 H         1 ALC         0.0265
     77 H24       -14.7467    3.0360   34.0468 H         1 ALC         0.0265
     78 H25       -14.3599    4.1728   32.1411 H         1 ALC         0.0268
     79 H26       -14.0874    5.7164   33.0185 H         1 ALC         0.0268
     80 H27       -13.1076    8.2907   30.8562 H         1 ASP         0.1884
     81 H28       -11.7564    9.6017   28.5722 H         1 ASP         0.0819
     82 H29       -12.8678   11.6092   29.4698 H         1 ASP         0.0478
     83 H30       -13.4711   10.6378   30.8551 H         1 ASP         0.0478
     84 H31        -9.9081   10.8808   28.8829 H         1 LEU         0.1883
     85 H32        -8.3389   11.1155   31.3544 H         1 LEU         0.0800
     86 H33        -7.0666   13.0238   30.2977 H         1 LEU         0.0315
     87 H34        -8.0562   12.7279   28.8281 H         1 LEU         0.0315
     88 H35        -7.2038   10.3401   28.9436 H         1 LEU         0.0298
     89 H36        -5.1343   10.8275   27.7143 H         1 LEU         0.0232
     90 H37        -5.2876   12.5520   28.1932 H         1 LEU         0.0232
     91 H38        -6.5539   11.7867   27.1747 H         1 LEU         0.0232
     92 H39        -6.3349   10.4114   31.2334 H         1 LEU         0.0232
     93 H40        -5.0009   11.4728   30.6674 H         1 LEU         0.0232
     94 H41        -5.1579    9.8047   30.0197 H         1 LEU         0.0232
     95 H42       -10.6891   13.2126   29.9415 H         1 ZCL         0.1877
     96 H43        -6.5986   17.7568   30.5064 H         1 ZCL         0.0606
     97 H44        -8.9097   17.4748   31.4466 H         1 ZCL         0.0559
     98 H45       -10.0951   15.1223   28.0243 H         1 ZCL         0.0562
     99 H46       -11.7639   15.8707   29.4447 H         1 ZCL         0.0467
    100 H47       -11.4486   16.9758   30.8253 H         1 ZCL         0.0467
    101 H48       -10.3718   15.2089   32.0866 H         1 ZCL         0.0749
@<TRIPOS>BOND
     1    1    2 2  
     2    1    3 1  
     3    4    1 am 
     4    5    4 1  
     5    6    5 1  
     6    5    8 1  
     7    6    7 2  
     8   13    6 am 
     9    8    9 1  
    10    9   10 1  
    11   10   11 2  
    12   10   12 am 
    13   14   13 1  
    14   15   14 1  
    15   14   17 1  
    16   15   16 2  
    17   24   15 am 
    18   17   18 1  
    19   18   19 1  
    20   18   23 1  
    21   19   20 1  
    22   20   21 1  
    23   22   21 1  
    24   23   22 1  
    25   25   24 1  
    26   26   25 1  
    27   25   28 1  
    28   26   27 2  
    29   32   26 am 
    30   28   29 1  
    31   29   30 ar 
    32   29   31 ar 
    33   33   32 1  
    34   34   33 1  
    35   33   36 1  
    36   34   35 2  
    37   40   34 am 
    38   36   37 1  
    39   37   38 1  
    40   37   39 1  
    41   52   40 1  
    42   49   41 ar 
    43   50   42 1  
    44   46   43 ar 
    45   43   50 ar 
    46   44   45 1  
    47   47   44 ar 
    48   44   50 ar 
    49   51   46 ar 
    50   51   47 ar 
    51   48   51 1  
    52   52   48 1  
    53   49   52 1  
    54   49   53 ar 
    55    3   54 1  
    56    3   55 1  
    57    3   56 1  
    58    4   57 1  
    59    5   58 1  
    60    8   59 1  
    61    8   60 1  
    62    9   61 1  
    63    9   62 1  
    64   12   63 1  
    65   12   64 1  
    66   13   65 1  
    67   14   66 1  
    68   17   67 1  
    69   17   68 1  
    70   18   69 1  
    71   19   70 1  
    72   19   71 1  
    73   20   72 1  
    74   20   73 1  
    75   21   74 1  
    76   21   75 1  
    77   22   76 1  
    78   22   77 1  
    79   23   78 1  
    80   23   79 1  
    81   24   80 1  
    82   25   81 1  
    83   28   82 1  
    84   28   83 1  
    85   32   84 1  
    86   33   85 1  
    87   36   86 1  
    88   36   87 1  
    89   37   88 1  
    90   38   89 1  
    91   38   90 1  
    92   38   91 1  
    93   39   92 1  
    94   39   93 1  
    95   39   94 1  
    96   40   95 1  
    97   43   96 1  
    98   46   97 1  
    99   47   98 1  
   100   48   99 1  
   101   48  100 1  
   102   52  101 1  
@<TRIPOS>SUBSTRUCTURE
     1 ACE         1

