5z89_ligand
  -I-interpret- 

 75 75  0  0  0  0  0  0  0  0999 V2000
  -26.1090   30.1630   15.7980 C   0  0  0  0  0
  -24.2770   31.6860   15.8560 C   0  0  0  0  0
  -22.7760   31.6480   15.5640 C   0  0  0  0  0
  -21.1430   31.2260   13.8630 C   0  0  0  0  0
  -20.9310   30.9240   12.3860 C   0  0  0  0  0
  -18.6360   30.0110   12.5750 C   0  0  0  0  0
  -18.1920   28.7200   13.2640 C   0  0  0  0  0
  -18.3860   26.3810   12.6690 C   0  0  0  0  0
  -17.9570   25.4290   11.5510 C   0  0  0  0  0
  -16.1670   23.8580   11.0080 C   0  0  0  0  0
  -14.9690   24.4840   10.3520 C   0  0  0  0  0
  -14.4630   26.3770    8.9010 C   0  0  0  0  0
  -14.9290   27.5240    8.3420 C   0  0  0  0  0
  -14.0810   28.3100    7.5540 C   0  0  0  0  0
  -12.7430   27.9540    7.3440 C   0  0  0  0  0
  -12.3070   26.7740    7.9180 C   0  0  0  0  0
  -13.1320   25.9930    8.7140 C   0  0  0  0  0
  -11.8220   28.7830    6.5020 C   0  0  0  0  0
  -12.5070   29.9830    5.8790 C   0  0  0  0  0
  -11.3950   27.9290    5.2890 C   0  0  0  0  0
  -10.4980   29.1510    7.2430 C   0  0  0  0  0
  -10.4450   29.9900    8.5380 C   0  0  0  0  0
   -9.0310   29.9640    9.0480 C   0  0  0  0  0
  -10.8110   31.4440    8.2560 C   0  0  0  0  0
  -11.2520   29.3880    9.7030 C   0  0  0  0  0
  -24.7350   30.3650   16.1630 O   0  0  0  0  0
  -22.5240   31.2320   14.2160 O   0  0  0  0  0
  -20.0000   29.8450   12.1780 O   0  0  0  0  0
  -18.0560   27.6980   12.2690 O   0  0  0  0  0
  -16.7560   24.7520   11.9730 O   0  0  0  0  0
  -15.3720   25.6630    9.6470 O   0  0  0  0  0
  -26.7355   30.8714   16.3400 H   0  0  0  0  0
  -26.2255   30.3194   14.7256 H   0  0  0  0  0
  -26.4053   29.1454   16.0523 H   0  0  0  0  0
  -24.8086   32.0616   14.9817 H   0  0  0  0  0
  -24.4663   32.3434   16.7046 H   0  0  0  0  0
  -22.3062   30.9362   16.2427 H   0  0  0  0  0
  -22.3679   32.6492   15.7025 H   0  0  0  0  0
  -20.7348   32.2153   14.0698 H   0  0  0  0  0
  -20.6469   30.4483   14.4437 H   0  0  0  0  0
  -20.5247   31.8178   11.9126 H   0  0  0  0  0
  -21.8902   30.6306   11.9593 H   0  0  0  0  0
  -18.0097   30.2118   11.7058 H   0  0  0  0  0
  -18.5393   30.8569   13.2556 H   0  0  0  0  0
  -18.9318   28.4207   14.0064 H   0  0  0  0  0
  -17.2391   28.8765   13.7696 H   0  0  0  0  0
  -17.8734   26.1287   13.5973 H   0  0  0  0  0
  -19.4584   26.2974   12.8454 H   0  0  0  0  0
  -17.7701   25.9876   10.6339 H   0  0  0  0  0
  -18.7462   24.7039   11.3525 H   0  0  0  0  0
  -15.8493   22.9505   11.5215 H   0  0  0  0  0
  -16.9084   23.6352   10.2407 H   0  0  0  0  0
  -14.5268   23.7754    9.6517 H   0  0  0  0  0
  -14.2352   24.7490   11.1132 H   0  0  0  0  0
  -15.9616   27.8315    8.5070 H   0  0  0  0  0
  -14.4700   29.2184    7.0940 H   0  0  0  0  0
  -11.2826   26.4472    7.7393 H   0  0  0  0  0
  -12.7468   25.0903    9.1882 H   0  0  0  0  0
  -13.3233   29.6434    5.2414 H   0  0  0  0  0
  -12.9023   30.6238    6.6671 H   0  0  0  0  0
  -11.7863   30.5418    5.2820 H   0  0  0  0  0
  -10.8838   27.0324    5.6395 H   0  0  0  0  0
  -12.2784   27.6450    4.7172 H   0  0  0  0  0
  -10.7223   28.5087    4.6569 H   0  0  0  0  0
   -9.9849   29.7866    6.5213 H   0  0  0  0  0
  -10.1241   28.1800    7.5678 H   0  0  0  0  0
   -8.7389   28.9340    9.2528 H   0  0  0  0  0
   -8.3668   30.3886    8.2953 H   0  0  0  0  0
   -8.9658   30.5506    9.9644 H   0  0  0  0  0
  -10.1066   31.8617    7.5366 H   0  0  0  0  0
  -11.8204   31.4905    7.8472 H   0  0  0  0  0
  -10.7666   32.0150    9.1834 H   0  0  0  0  0
  -12.2995   29.3054    9.4132 H   0  0  0  0  0
  -10.8607   28.3990    9.9416 H   0  0  0  0  0
  -11.1651   30.0349   10.5760 H   0  0  0  0  0
 26  1  1  0  0  0
  3  2  1  0  0  0
  2 26  1  0  0  0
 27  3  1  0  0  0
  5  4  1  0  0  0
  4 27  1  0  0  0
 28  5  1  0  0  0
  7  6  1  0  0  0
  6 28  1  0  0  0
 29  7  1  0  0  0
  9  8  1  0  0  0
  8 29  1  0  0  0
 30  9  1  0  0  0
 11 10  1  0  0  0
 10 30  1  0  0  0
 31 11  1  0  0  0
 12 13  4  0  0  0
 12 17  4  0  0  0
 12 31  1  0  0  0
 13 14  4  0  0  0
 14 15  4  0  0  0
 15 16  4  0  0  0
 15 18  1  0  0  0
 16 17  4  0  0  0
 18 19  1  0  0  0
 18 20  1  0  0  0
 18 21  1  0  0  0
 21 22  1  0  0  0
 22 23  1  0  0  0
 22 24  1  0  0  0
 22 25  1  0  0  0
  1 32  1  0  0  0
  1 33  1  0  0  0
  1 34  1  0  0  0
  2 35  1  0  0  0
  2 36  1  0  0  0
  3 37  1  0  0  0
  3 38  1  0  0  0
  4 39  1  0  0  0
  4 40  1  0  0  0
  5 41  1  0  0  0
  5 42  1  0  0  0
  6 43  1  0  0  0
  6 44  1  0  0  0
  7 45  1  0  0  0
  7 46  1  0  0  0
  8 47  1  0  0  0
  8 48  1  0  0  0
  9 49  1  0  0  0
  9 50  1  0  0  0
 10 51  1  0  0  0
 10 52  1  0  0  0
 11 53  1  0  0  0
 11 54  1  0  0  0
 13 55  1  0  0  0
 14 56  1  0  0  0
 16 57  1  0  0  0
 17 58  1  0  0  0
 19 59  1  0  0  0
 19 60  1  0  0  0
 19 61  1  0  0  0
 20 62  1  0  0  0
 20 63  1  0  0  0
 20 64  1  0  0  0
 21 65  1  0  0  0
 21 66  1  0  0  0
 23 67  1  0  0  0
 23 68  1  0  0  0
 23 69  1  0  0  0
 24 70  1  0  0  0
 24 71  1  0  0  0
 24 72  1  0  0  0
 25 73  1  0  0  0
 25 74  1  0  0  0
 25 75  1  0  0  0
M  END
$$$$
