### 
### Created by X-TOOL on Mon Sep 10 21:13:26 2018
### 

@<TRIPOS>MOLECULE
5ee8_ligand
   34    35     1     0     0
SMALL
GAST_HUCK


@<TRIPOS>ATOM
      1 B1          7.5140    6.6180    5.9920 B         1 ZXM         3.0000
      2 O1          8.9210    6.8710    6.4980 O.3       1 ZXM        -0.4105
      3 O2          6.5560    6.8410    7.1070 O.3       1 ZXM        -0.4105
      4 N4          9.0490    6.5720    3.2390 N.pl3     1 ZXM        -0.1650
      5 N5          9.4810    5.2970    3.4590 N.2       1 ZXM        -0.0910
      6 N6         10.7700    5.2240    3.4070 N.2       1 ZXM        -0.2131
      7 C7          7.0660    7.3840    4.6590 C.3       1 ZXM         0.0619
      8 C8          7.6040    6.8290    3.3180 C.3       1 ZXM         0.0998
      9 N10         7.5690    8.7660    4.7520 N.am      1 ZXM        -0.2822
     10 C11         6.9670    9.7760    4.1410 C.2       1 ZXM         0.1896
     11 C12         7.6560   11.1170    4.3130 C.3       1 ZXM         0.0817
     12 C13         6.7670   12.2320    4.8150 C.2       1 ZXM         0.0307
     13 C14         6.8590   13.1380    5.8810 C.2       1 ZXM        -0.0791
     14 C15         5.7890   14.0380    5.9520 C.2       1 ZXM        -0.0924
     15 C16         4.8600   13.8610    4.9370 C.2       1 ZXM        -0.0189
     16 O18         5.9320    9.6300    3.4850 O.2       1 ZXM        -0.3937
     17 C19        11.2140    6.3950    3.0210 C.2       1 ZXM         0.0942
     18 C20        10.1490    7.2810    2.9010 C.2       1 ZXM         0.0912
     19 C21        12.6450    6.6750    2.7440 C.2       1 ZXM         0.0602
     20 O22        12.9150    7.7850    2.2070 O.co2     1 ZXM        -0.5671
     21 O23        13.4950    5.8080    3.0230 O.co2     1 ZXM        -0.5671
     22 S24         5.3390   12.5550    3.9130 S.3       1 ZXM        -0.0419
     23 H1          8.9889    7.7668    6.8070 H         1 ZXM         0.2052
     24 H4          5.6711    6.6846    6.7988 H         1 ZXM         0.2052
     25 H6          5.9661    7.3756    4.6634 H         1 ZXM         0.0550
     26 H7          7.0857    5.8794    3.1191 H         1 ZXM         0.0676
     27 H8          7.3518    7.5560    2.5320 H         1 ZXM         0.0676
     28 H9          8.3902    8.9472    5.2931 H         1 ZXM         0.1853
     29 H10         8.0638   11.4189    3.3370 H         1 ZXM         0.0685
     30 H11         8.4797   10.9880    5.0306 H         1 ZXM         0.0685
     31 H12         7.6867   13.1413    6.5887 H         1 ZXM         0.0284
     32 H13         5.6955   14.7993    6.7251 H         1 ZXM         0.0373
     33 H14         3.9593   14.4588    4.8050 H         1 ZXM         0.0603
     34 H15        10.1921    8.3262    2.5984 H         1 ZXM         0.1089
@<TRIPOS>BOND
     1    1    2 1  
     2    1    3 1  
     3    7    1 1  
     4    4    5 1  
     5    8    4 1  
     6    4   18 1  
     7    5    6 2  
     8    6   17 1  
     9    7    8 1  
    10    7    9 1  
    11    9   10 am 
    12   10   11 1  
    13   10   16 2  
    14   11   12 1  
    15   12   13 2  
    16   12   22 1  
    17   13   14 1  
    18   14   15 2  
    19   15   22 1  
    20   17   18 2  
    21   17   19 1  
    22   19   20 ar 
    23   19   21 ar 
    24    2   23 1  
    25    3   24 1  
    26    7   25 1  
    27    8   26 1  
    28    8   27 1  
    29    9   28 1  
    30   11   29 1  
    31   11   30 1  
    32   13   31 1  
    33   14   32 1  
    34   15   33 1  
    35   18   34 1  
@<TRIPOS>SUBSTRUCTURE
     1 ZXM         1

