5ee8_ligand
  -I-interpret- 

 35 36  0  0  0  0  0  0  0  0999 V2000
    7.5140    6.6180    5.9920 B   0  0  0  0  0
    8.9210    6.8710    6.4980 O   0  0  0  0  0
    6.5560    6.8410    7.1070 O   0  0  0  0  0
    9.0490    6.5720    3.2390 N   0  0  0  0  0
    9.4810    5.2970    3.4590 N   0  0  0  0  0
   10.7700    5.2240    3.4070 N   0  0  0  0  0
    7.0660    7.3840    4.6590 C   0  0  0  0  0
    7.6040    6.8290    3.3180 C   0  0  0  0  0
    7.5690    8.7660    4.7520 N   0  0  0  0  0
    6.9670    9.7760    4.1410 C   0  0  0  0  0
    7.6560   11.1170    4.3130 C   0  0  0  0  0
    6.7670   12.2320    4.8150 C   0  0  0  0  0
    6.8590   13.1380    5.8810 C   0  0  0  0  0
    5.7890   14.0380    5.9520 C   0  0  0  0  0
    4.8600   13.8610    4.9370 C   0  0  0  0  0
    5.9320    9.6300    3.4850 O   0  0  0  0  0
   11.2140    6.3950    3.0210 C   0  0  0  0  0
   10.1490    7.2810    2.9010 C   0  0  0  0  0
   12.6450    6.6750    2.7440 C   0  0  0  0  0
   12.9150    7.7850    2.2070 O   0  0  0  0  0
   13.4950    5.8080    3.0230 O   0  0  0  0  0
    5.3390   12.5550    3.9130 S   0  0  0  0  0
    9.0695    6.3594    7.2966 H   0  0  0  0  0
    6.8575    6.3677    7.8859 H   0  0  0  0  0
    5.9824    7.2711    4.6264 H   0  0  0  0  0
    7.1201    5.8623    3.1786 H   0  0  0  0  0
    7.3952    7.5954    2.5716 H   0  0  0  0  0
    8.4066    8.9509    5.3039 H   0  0  0  0  0
    8.0111   11.4172    3.3272 H   0  0  0  0  0
    8.4368   10.9762    5.0605 H   0  0  0  0  0
    7.6874   13.1413    6.5894 H   0  0  0  0  0
    5.6954   14.8000    6.7258 H   0  0  0  0  0
    3.9585   14.4593    4.8049 H   0  0  0  0  0
   10.1922    8.3272    2.5981 H   0  0  0  0  0
   12.1053    8.2868    2.0876 H   0  0  0  0  0
  1  2  1  0  0  0
  1  3  1  0  0  0
  7  1  1  0  0  0
  4  5  4  0  0  0
  8  4  1  0  0  0
  4 18  4  0  0  0
  5  6  4  0  0  0
  6 17  4  0  0  0
  7  8  1  0  0  0
  7  9  1  0  0  0
  9 10  1  0  0  0
 10 11  1  0  0  0
 10 16  2  0  0  0
 11 12  1  0  0  0
 12 13  4  0  0  0
 12 22  4  0  0  0
 13 14  4  0  0  0
 14 15  4  0  0  0
 15 22  4  0  0  0
 17 18  4  0  0  0
 17 19  1  0  0  0
 19 20  1  0  0  0
 19 21  2  0  0  0
  2 23  1  0  0  0
  3 24  1  0  0  0
  7 25  1  0  0  0
  8 26  1  0  0  0
  8 27  1  0  0  0
  9 28  1  0  0  0
 11 29  1  0  0  0
 11 30  1  0  0  0
 13 31  1  0  0  0
 14 32  1  0  0  0
 15 33  1  0  0  0
 18 34  1  0  0  0
 20 35  1  0  0  0
M  END
$$$$
