2bba_ligand
  -I-interpret- 

223228  0  0  0  0  0  0  0  0999 V2000
   43.1640    4.3520   44.0850 N   0  3  0  0  0
   42.1320    5.3150   44.4800 C   0  0  0  0  0
   40.7510    4.6480   44.1420 C   0  0  0  0  0
   40.3220    4.5560   42.9720 O   0  0  0  0  0
   42.3560    6.6960   43.8090 C   0  0  0  0  0
   41.4590    7.8470   44.4170 C   0  0  0  0  0
   41.3130    8.9300   43.8050 O   0  0  0  0  0
   40.9060    7.6210   45.6250 N   0  0  0  0  0
   40.1020    4.1380   45.1740 N   0  0  0  0  0
   38.7680    3.5920   45.0470 C   0  0  0  0  0
   37.7700    4.6960   44.6180 C   0  0  0  0  0
   37.6350    5.7180   45.3090 O   0  0  0  0  0
   38.3210    3.0120   46.4100 C   0  0  0  0  0
   36.9780    2.3670   46.3450 C   0  0  0  0  0
   36.8340    1.0150   45.9830 C   0  0  0  0  0
   35.8500    3.0720   46.6170 C   0  0  0  0  0
   35.6090    0.4120   45.8870 C   0  0  0  0  0
   34.5780    2.4670   46.5350 C   0  0  0  0  0
   34.4660    1.1530   46.1360 C   0  0  0  0  0
   33.2030    0.6110   46.0800 O   0  0  0  0  0
   37.0690    4.4700   43.5180 N   0  0  0  0  0
   36.0580    5.4230   43.0180 C   0  0  0  0  0
   34.6440    4.8420   43.1200 C   0  0  0  0  0
   33.7220    5.5670   43.4080 O   0  0  0  0  0
   36.3580    5.8440   41.5760 C   0  0  0  0  0
   37.7060    6.5660   41.4000 C   0  0  0  0  0
   38.0710    6.8590   39.9250 C   0  0  0  0  0
   37.7400    7.8220   42.1730 C   0  0  0  0  0
   34.4680    3.5500   42.8280 N   0  0  0  0  0
   33.1960    2.8700   42.8690 C   0  0  0  0  0
   33.4090    1.3540   42.8400 C   0  0  0  0  0
   34.5430    0.8590   42.6650 O   0  0  0  0  0
   32.2610    3.3200   41.7400 C   0  0  0  0  0
   32.8040    3.1250   40.3410 C   0  0  0  0  0
   32.7320    1.8990   39.7070 C   0  0  0  0  0
   33.3930    4.1780   39.6760 C   0  0  0  0  0
   33.2050    1.7310   38.4330 C   0  0  0  0  0
   33.8590    4.0260   38.3980 C   0  0  0  0  0
   33.7800    2.7820   37.7600 C   0  0  0  0  0
   32.3130    0.6340   43.0500 N   0  0  0  0  0
   32.3540   -0.8150   43.2830 C   0  0  0  0  0
   32.3610   -1.5690   41.9750 C   0  0  0  0  0
   31.7160   -1.1630   41.0150 O   0  0  0  0  0
   31.1300   -1.2720   44.0710 C   0  0  0  0  0
   30.9980   -2.6800   44.1180 O   0  0  0  0  0
   33.0720   -2.6970   41.9330 N   0  0  0  0  0
   32.9370   -3.5290   40.7400 C   0  0  0  0  0
   31.5800   -4.2130   40.5960 C   0  0  0  0  0
   31.2740   -4.7460   39.5170 O   0  0  0  0  0
   34.0240   -4.5710   40.9120 C   0  0  0  0  0
   34.3040   -4.6200   42.3590 C   0  0  0  0  0
   33.9860   -3.2660   42.9370 C   0  0  0  0  0
   30.7750   -4.1920   41.6490 N   0  0  0  0  0
   29.4920   -4.9320   41.7310 C   0  0  0  0  0
   28.2370   -4.0870   41.8340 C   0  0  0  0  0
   27.1680   -4.6300   42.1270 O   0  0  0  0  0
   29.5230   -5.7720   43.0050 C   0  0  0  0  0
   30.7150   -6.7020   43.0610 C   0  0  0  0  0
   31.1480   -7.2250   42.0450 O   0  0  0  0  0
   31.2400   -6.9270   44.2630 N   0  0  0  0  0
   28.3530   -2.7800   41.6020 N   0  0  0  0  0
   27.2400   -1.8670   41.7870 C   0  0  0  0  0
   26.6340   -1.3270   40.5000 C   0  0  0  0  0
   26.9760   -1.7860   39.4150 O   0  0  0  0  0
   25.6680   -0.3720   40.6480 N   0  0  0  0  0
   24.9220    0.1500   39.4950 C   0  0  0  0  0
   25.7850    0.9750   38.5460 C   0  0  0  0  0
   25.4650    1.1060   37.3270 O   0  0  0  0  0
   23.8320    1.0390   40.1230 C   0  0  0  0  0
   24.2070    1.2500   41.4920 C   0  0  0  0  0
   25.1680    0.1790   41.9190 C   0  0  0  0  0
   26.8790    1.5150   39.0800 N   0  0  0  0  0
   27.8090    2.2450   38.2330 C   0  0  0  0  0
   28.5370    1.2920   37.2740 C   0  0  0  0  0
   28.5410    1.4820   36.0480 O   0  0  0  0  0
   28.8240    3.0710   39.0670 C   0  0  0  0  0
   28.0680    4.1390   39.8720 C   0  0  0  0  0
   29.7990    3.7610   38.1360 C   0  0  0  0  0
   28.8700    4.8200   40.9430 C   0  0  0  0  0
   29.1400    0.2390   37.8260 N   0  0  0  0  0
   29.7800   -0.7690   36.9940 C   0  0  0  0  0
   28.8240   -1.3460   35.9600 C   0  0  0  0  0
   29.2250   -1.6300   34.8320 O   0  0  0  0  0
   30.3870   -1.8710   37.8470 C   0  0  0  0  0
   27.5610   -1.5170   36.3270 N   0  0  0  0  0
   26.5610   -2.0760   35.4200 C   0  0  0  0  0
   26.2300   -1.1610   34.2400 C   0  0  0  0  0
   25.6530   -1.6390   33.2300 O   0  0  0  0  0
   25.2820   -2.4280   36.2090 C   0  0  0  0  0
   25.4520   -3.6690   37.0740 C   0  0  0  0  0
   24.1110   -4.2360   37.5380 C   0  0  0  0  0
   23.4490   -3.3700   38.5090 N   0  0  0  0  0
   23.6390   -3.3910   39.8190 C   0  0  0  0  0
   24.5280   -4.1910   40.3800 N   0  0  0  0  0
   22.9560   -2.5470   40.5800 N   0  0  0  0  0
   26.6040    0.1190   34.3200 N   0  0  0  0  0
   26.3790    1.0270   33.2070 C   0  0  0  0  0
   27.1160    0.5450   31.9450 C   0  0  0  0  0
   26.7390    0.9280   30.8310 O   0  0  0  0  0
   26.7900    2.4470   33.5340 C   0  0  0  0  0
   28.2010   -0.2100   32.1130 N   0  0  0  0  0
   29.0290   -0.6630   30.9610 C   0  0  0  0  0
   28.7890   -2.1290   30.6530 C   0  0  0  0  0
   27.8860   -2.7190   31.2460 O   0  0  0  0  0
   30.5120   -0.3770   31.2240 C   0  0  0  0  0
   30.7350    1.0860   31.4540 C   0  0  0  0  0
   30.6440    2.0820   30.5370 C   0  0  0  0  0
   31.0540    1.7120   32.6870 C   0  0  0  0  0
   30.8780    3.2970   31.1300 N   0  0  0  0  0
   31.1570    3.1010   32.4410 C   0  0  0  0  0
   31.3240    1.2380   33.9660 C   0  0  0  0  0
   31.4360    4.0210   33.4470 C   0  0  0  0  0
   31.6300    2.1550   34.9740 C   0  0  0  0  0
   31.6840    3.5310   34.7070 C   0  0  0  0  0
   29.4550   -2.7300   29.7800 O   0  0  0  0  0
   42.9864    3.4581   44.5430 H   0  0  0  0  0
   43.1414    4.2272   43.0729 H   0  0  0  0  0
   44.0799    4.7029   44.3652 H   0  0  0  0  0
   42.1680    5.5379   45.5464 H   0  0  0  0  0
   42.0901    6.5954   42.7567 H   0  0  0  0  0
   43.3977    6.9731   43.9707 H   0  0  0  0  0
   40.3452    8.3458   46.0728 H   0  0  0  0  0
   41.0483    6.7251   46.0915 H   0  0  0  0  0
   40.5551    4.1290   46.0878 H   0  0  0  0  0
   38.7804    2.8085   44.2893 H   0  0  0  0  0
   38.2642    3.8348   47.1227 H   0  0  0  0  0
   39.0445    2.2520   46.7051 H   0  0  0  0  0
   37.7280    0.4281   45.7719 H   0  0  0  0  0
   35.9282    4.1209   46.9030 H   0  0  0  0  0
   35.5339   -0.6414   45.6171 H   0  0  0  0  0
   33.6848    3.0386   46.7871 H   0  0  0  0  0
   32.5554    1.2897   46.2841 H   0  0  0  0  0
   37.2329    3.6080   42.9980 H   0  0  0  0  0
   36.1081    6.3087   43.6513 H   0  0  0  0  0
   35.5766    6.5415   41.2744 H   0  0  0  0  0
   36.3983    4.9348   40.9762 H   0  0  0  0  0
   38.4547    5.8721   41.7821 H   0  0  0  0  0
   38.1320    5.9206   39.3738 H   0  0  0  0  0
   37.3036    7.4933   39.4813 H   0  0  0  0  0
   39.0336    7.3688   39.8846 H   0  0  0  0  0
   36.9430    8.4809   41.8284 H   0  0  0  0  0
   37.5979    7.6001   43.2307 H   0  0  0  0  0
   38.7041    8.3097   42.0291 H   0  0  0  0  0
   35.2885    3.0076   42.5578 H   0  0  0  0  0
   32.7055    3.1390   43.8045 H   0  0  0  0  0
   32.1050    4.3910   41.8697 H   0  0  0  0  0
   31.3613    2.7094   41.8154 H   0  0  0  0  0
   32.2909    1.0508   40.2304 H   0  0  0  0  0
   33.4890    5.1432   40.1733 H   0  0  0  0  0
   33.1249    0.7573   37.9496 H   0  0  0  0  0
   34.2937    4.8774   37.8744 H   0  0  0  0  0
   34.1669    2.6500   36.7496 H   0  0  0  0  0
   31.4085    1.1055   43.0494 H   0  0  0  0  0
   33.2650   -1.0225   43.8443 H   0  0  0  0  0
   30.2463   -0.8717   43.5741 H   0  0  0  0  0
   31.2410   -0.9142   45.0946 H   0  0  0  0  0
   30.2151   -2.9102   44.6237 H   0  0  0  0  0
   33.0224   -2.9197   39.8403 H   0  0  0  0  0
   34.9168   -4.3120   40.3428 H   0  0  0  0  0
   33.7061   -5.5432   40.5354 H   0  0  0  0  0
   35.3508   -4.8688   42.5331 H   0  0  0  0  0
   33.6943   -5.3873   42.8361 H   0  0  0  0  0
   33.5462   -3.3196   43.9329 H   0  0  0  0  0
   34.8725   -2.6538   43.1028 H   0  0  0  0  0
   31.0556   -3.6316   42.4537 H   0  0  0  0  0
   29.4284   -5.4897   40.7966 H   0  0  0  0  0
   28.6203   -6.3826   43.0258 H   0  0  0  0  0
   29.5890   -5.0912   43.8537 H   0  0  0  0  0
   32.0356   -7.5575   44.3621 H   0  0  0  0  0
   30.8468   -6.4689   45.0852 H   0  0  0  0  0
   29.2495   -2.4106   41.2854 H   0  0  0  0  0
   27.6238   -1.0093   42.3393 H   0  0  0  0  0
   26.4544   -2.4259   42.2956 H   0  0  0  0  0
   24.5310   -0.6649   38.8858 H   0  0  0  0  0
   22.8555    0.5590   40.0582 H   0  0  0  0  0
   23.7524    1.9878   39.5923 H   0  0  0  0  0
   23.3182    1.2124   42.1218 H   0  0  0  0  0
   24.6828    2.2256   41.5919 H   0  0  0  0  0
   25.9699    0.5675   42.5468 H   0  0  0  0  0
   24.6939   -0.5794   42.5420 H   0  0  0  0  0
   27.0638    1.4171   40.0783 H   0  0  0  0  0
   27.2252    2.9501   37.6413 H   0  0  0  0  0
   29.3637    2.4066   39.7418 H   0  0  0  0  0
   27.2459    3.6286   40.3738 H   0  0  0  0  0
   27.7714    4.9127   39.1638 H   0  0  0  0  0
   30.3327    3.0120   37.5509 H   0  0  0  0  0
   29.2522    4.4250   37.4665 H   0  0  0  0  0
   30.5114    4.3408   38.7229 H   0  0  0  0  0
   29.2183    4.0780   41.6615 H   0  0  0  0  0
   29.7266    5.3201   40.4911 H   0  0  0  0  0
   28.2453    5.5546   41.4512 H   0  0  0  0  0
   29.1529    0.1389   38.8410 H   0  0  0  0  0
   30.5838   -0.2743   36.4488 H   0  0  0  0  0
   31.1336   -1.4419   38.5153 H   0  0  0  0  0
   29.6025   -2.3476   38.4348 H   0  0  0  0  0
   30.8587   -2.6110   37.2005 H   0  0  0  0  0
   27.2794   -1.2504   37.2704 H   0  0  0  0  0
   26.9934   -2.9785   34.9879 H   0  0  0  0  0
   24.4876   -2.6264   35.4896 H   0  0  0  0  0
   25.0515   -1.5896   36.8663 H   0  0  0  0  0
   26.0270   -3.3910   37.9573 H   0  0  0  0  0
   25.9553   -4.4312   36.4791 H   0  0  0  0  0
   24.2977   -5.1981   38.0152 H   0  0  0  0  0
   23.4620   -4.3250   36.6668 H   0  0  0  0  0
   22.7816   -2.6891   38.1464 H   0  0  0  0  0
   25.0902   -4.8146   39.8008 H   0  0  0  0  0
   23.1198   -2.5207   41.5864 H   0  0  0  0  0
   22.2667   -1.9240   40.1590 H   0  0  0  0  0
   27.0515    0.4625   35.1698 H   0  0  0  0  0
   25.3059    1.0268   33.0156 H   0  0  0  0  0
   26.2109    2.8046   34.3854 H   0  0  0  0  0
   27.8516    2.4691   33.7800 H   0  0  0  0  0
   26.6023    3.0860   32.6712 H   0  0  0  0  0
   28.4720   -0.4854   33.0570 H   0  0  0  0  0
   28.7281   -0.0977   30.0790 H   0  0  0  0  0
   31.0911   -0.6899   30.3552 H   0  0  0  0  0
   30.8250   -0.9256   32.1124 H   0  0  0  0  0
   30.4175    1.9376   29.4806 H   0  0  0  0  0
   31.2973    0.1692   34.1783 H   0  0  0  0  0
   31.4571    5.0916   33.2432 H   0  0  0  0  0
   31.8299    1.7959   35.9836 H   0  0  0  0  0
   31.9269    4.2237   35.5128 H   0  0  0  0  0
   30.1144   -2.1348   29.4161 H   0  0  0  0  0
  1  2  1  0  0  0
  2  3  1  0  0  0
  2  5  1  0  0  0
  3  4  2  0  0  0
  3  9  1  0  0  0
  5  6  1  0  0  0
  6  7  2  0  0  0
  6  8  1  0  0  0
  9 10  1  0  0  0
 10 11  1  0  0  0
 10 13  1  0  0  0
 11 12  2  0  0  0
 11 21  1  0  0  0
 13 14  1  0  0  0
 14 15  4  0  0  0
 14 16  4  0  0  0
 15 17  4  0  0  0
 16 18  4  0  0  0
 17 19  4  0  0  0
 18 19  4  0  0  0
 19 20  1  0  0  0
 21 22  1  0  0  0
 22 23  1  0  0  0
 22 25  1  0  0  0
 23 24  2  0  0  0
 23 29  1  0  0  0
 25 26  1  0  0  0
 26 27  1  0  0  0
 26 28  1  0  0  0
 29 30  1  0  0  0
 30 31  1  0  0  0
 30 33  1  0  0  0
 31 32  2  0  0  0
 31 40  1  0  0  0
 33 34  1  0  0  0
 34 35  4  0  0  0
 34 36  4  0  0  0
 35 37  4  0  0  0
 36 38  4  0  0  0
 37 39  4  0  0  0
 38 39  4  0  0  0
 40 41  1  0  0  0
 41 42  1  0  0  0
 41 44  1  0  0  0
 42 43  2  0  0  0
 42 46  1  0  0  0
 44 45  1  0  0  0
 46 47  1  0  0  0
 46 52  1  0  0  0
 47 48  1  0  0  0
 47 50  1  0  0  0
 48 49  2  0  0  0
 48 53  1  0  0  0
 50 51  1  0  0  0
 51 52  1  0  0  0
 53 54  1  0  0  0
 54 55  1  0  0  0
 54 57  1  0  0  0
 55 56  2  0  0  0
 55 61  1  0  0  0
 57 58  1  0  0  0
 58 59  2  0  0  0
 58 60  1  0  0  0
 61 62  1  0  0  0
 62 63  1  0  0  0
 63 64  2  0  0  0
 63 65  1  0  0  0
 65 66  1  0  0  0
 65 71  1  0  0  0
 66 67  1  0  0  0
 66 69  1  0  0  0
 67 68  2  0  0  0
 67 72  1  0  0  0
 69 70  1  0  0  0
 70 71  1  0  0  0
 72 73  1  0  0  0
 73 74  1  0  0  0
 73 76  1  0  0  0
 74 75  2  0  0  0
 74 80  1  0  0  0
 76 77  1  0  0  0
 76 78  1  0  0  0
 77 79  1  0  0  0
 80 81  1  0  0  0
 81 82  1  0  0  0
 81 84  1  0  0  0
 82 83  2  0  0  0
 82 85  1  0  0  0
 85 86  1  0  0  0
 86 87  1  0  0  0
 86 89  1  0  0  0
 87 88  2  0  0  0
 87 96  1  0  0  0
 89 90  1  0  0  0
 90 91  1  0  0  0
 91 92  1  0  0  0
 92 93  1  0  0  0
 93 94  2  0  0  0
 93 95  1  0  0  0
 96 97  1  0  0  0
 97 98  1  0  0  0
 97100  1  0  0  0
 98 99  2  0  0  0
 98101  1  0  0  0
101102  1  0  0  0
102103  1  0  0  0
102105  1  0  0  0
103104  2  0  0  0
103115  1  0  0  0
105106  1  0  0  0
106107  4  0  0  0
106108  4  0  0  0
107109  4  0  0  0
108110  4  0  0  0
108111  4  0  0  0
109110  4  0  0  0
110112  4  0  0  0
111113  4  0  0  0
112114  4  0  0  0
113114  4  0  0  0
  1116  1  0  0  0
  1117  1  0  0  0
  1118  1  0  0  0
  2119  1  0  0  0
  5120  1  0  0  0
  5121  1  0  0  0
  8122  1  0  0  0
  8123  1  0  0  0
  9124  1  0  0  0
 10125  1  0  0  0
 13126  1  0  0  0
 13127  1  0  0  0
 15128  1  0  0  0
 16129  1  0  0  0
 17130  1  0  0  0
 18131  1  0  0  0
 20132  1  0  0  0
 21133  1  0  0  0
 22134  1  0  0  0
 25135  1  0  0  0
 25136  1  0  0  0
 26137  1  0  0  0
 27138  1  0  0  0
 27139  1  0  0  0
 27140  1  0  0  0
 28141  1  0  0  0
 28142  1  0  0  0
 28143  1  0  0  0
 29144  1  0  0  0
 30145  1  0  0  0
 33146  1  0  0  0
 33147  1  0  0  0
 35148  1  0  0  0
 36149  1  0  0  0
 37150  1  0  0  0
 38151  1  0  0  0
 39152  1  0  0  0
 40153  1  0  0  0
 41154  1  0  0  0
 44155  1  0  0  0
 44156  1  0  0  0
 45157  1  0  0  0
 47158  1  0  0  0
 50159  1  0  0  0
 50160  1  0  0  0
 51161  1  0  0  0
 51162  1  0  0  0
 52163  1  0  0  0
 52164  1  0  0  0
 53165  1  0  0  0
 54166  1  0  0  0
 57167  1  0  0  0
 57168  1  0  0  0
 60169  1  0  0  0
 60170  1  0  0  0
 61171  1  0  0  0
 62172  1  0  0  0
 62173  1  0  0  0
 66174  1  0  0  0
 69175  1  0  0  0
 69176  1  0  0  0
 70177  1  0  0  0
 70178  1  0  0  0
 71179  1  0  0  0
 71180  1  0  0  0
 72181  1  0  0  0
 73182  1  0  0  0
 76183  1  0  0  0
 77184  1  0  0  0
 77185  1  0  0  0
 78186  1  0  0  0
 78187  1  0  0  0
 78188  1  0  0  0
 79189  1  0  0  0
 79190  1  0  0  0
 79191  1  0  0  0
 80192  1  0  0  0
 81193  1  0  0  0
 84194  1  0  0  0
 84195  1  0  0  0
 84196  1  0  0  0
 85197  1  0  0  0
 86198  1  0  0  0
 89199  1  0  0  0
 89200  1  0  0  0
 90201  1  0  0  0
 90202  1  0  0  0
 91203  1  0  0  0
 91204  1  0  0  0
 92205  1  0  0  0
 94206  1  0  0  0
 95207  1  0  0  0
 95208  1  0  0  0
 96209  1  0  0  0
 97210  1  0  0  0
100211  1  0  0  0
100212  1  0  0  0
100213  1  0  0  0
101214  1  0  0  0
102215  1  0  0  0
105216  1  0  0  0
105217  1  0  0  0
107218  1  0  0  0
111219  1  0  0  0
112220  1  0  0  0
113221  1  0  0  0
114222  1  0  0  0
115223  1  0  0  0
M  END
$$$$
