### 
### Created by X-TOOL on Mon Sep 10 21:12:53 2018
### 

@<TRIPOS>MOLECULE
2bba_ligand
  224   229     1     0     0
SMALL
GAST_HUCK


@<TRIPOS>ATOM
      1 N          43.1640    4.3520   44.0850 N.4       1 ASN         0.2396
      2 CA         42.1320    5.3150   44.4800 C.3       1 ASN         0.0818
      3 C          40.7510    4.6480   44.1420 C.2       1 ASN         0.2292
      4 O          40.3220    4.5560   42.9720 O.2       1 ASN        -0.3905
      5 CB         42.3560    6.6960   43.8090 C.3       1 ASN         0.0972
      6 CG         41.4590    7.8470   44.4170 C.2       1 ASN         0.1813
      7 OD1        41.3130    8.9300   43.8050 O.2       1 ASN        -0.3969
      8 ND2        40.9060    7.6210   45.6250 N.am      1 ASN        -0.3006
      9 N          40.1020    4.1380   45.1740 N.am      1 TYR        -0.2593
     10 CA         38.7680    3.5920   45.0470 C.3       1 TYR         0.1391
     11 C          37.7700    4.6960   44.6180 C.2       1 TYR         0.2057
     12 O          37.6350    5.7180   45.3090 O.2       1 TYR        -0.3942
     13 CB         38.3210    3.0120   46.4100 C.3       1 TYR         0.0164
     14 CG         36.9780    2.3670   46.3450 C.ar      1 TYR        -0.0493
     15 CD1        36.8340    1.0150   45.9830 C.ar      1 TYR        -0.0685
     16 CD2        35.8500    3.0720   46.6170 C.ar      1 TYR        -0.0685
     17 CE1        35.6090    0.4120   45.8870 C.ar      1 TYR        -0.0398
     18 CE2        34.5780    2.4670   46.5350 C.ar      1 TYR        -0.0398
     19 CZ         34.4660    1.1530   46.1360 C.ar      1 TYR         0.0805
     20 OH         33.2030    0.6110   46.0800 O.3       1 TYR        -0.3376
     21 N          37.0690    4.4700   43.5180 N.am      1 LEU        -0.2636
     22 CA         36.0580    5.4230   43.0180 C.3       1 LEU         0.1312
     23 C          34.6440    4.8420   43.1200 C.2       1 LEU         0.2040
     24 O          33.7220    5.5670   43.4080 O.2       1 LEU        -0.3944
     25 CB         36.3580    5.8440   41.5760 C.3       1 LEU        -0.0101
     26 CG         37.7060    6.5660   41.4000 C.3       1 LEU        -0.0425
     27 CD1        38.0710    6.8590   39.9250 C.3       1 LEU        -0.0625
     28 CD2        37.7400    7.8220   42.1730 C.3       1 LEU        -0.0625
     29 N          34.4680    3.5500   42.8280 N.am      1 PHE        -0.2619
     30 CA         33.1960    2.8700   42.8690 C.3       1 PHE         0.1404
     31 C          33.4090    1.3540   42.8400 C.2       1 PHE         0.2060
     32 O          34.5430    0.8590   42.6650 O.2       1 PHE        -0.3942
     33 CB         32.2610    3.3200   41.7400 C.3       1 PHE         0.0214
     34 CG         32.8040    3.1250   40.3410 C.ar      1 PHE        -0.0386
     35 CD1        32.7320    1.8990   39.7070 C.ar      1 PHE        -0.0601
     36 CD2        33.3930    4.1780   39.6760 C.ar      1 PHE        -0.0601
     37 CE1        33.2050    1.7310   38.4330 C.ar      1 PHE        -0.0686
     38 CE2        33.8590    4.0260   38.3980 C.ar      1 PHE        -0.0686
     39 CZ         33.7800    2.7820   37.7600 C.ar      1 PHE        -0.0687
     40 N          32.3130    0.6340   43.0500 N.am      1 SER        -0.2614
     41 CA         32.3540   -0.8150   43.2830 C.3       1 SER         0.1541
     42 C          32.3610   -1.5690   41.9750 C.2       1 SER         0.2087
     43 O          31.7160   -1.1630   41.0150 O.2       1 SER        -0.3941
     44 CB         31.1300   -1.2720   44.0710 C.3       1 SER         0.0843
     45 OG         30.9980   -2.6800   44.1180 O.3       1 SER        -0.3903
     46 N          33.0720   -2.6970   41.9330 N.am      1 PRO        -0.2498
     47 CA         32.9370   -3.5290   40.7400 C.3       1 PRO         0.1338
     48 C          31.5800   -4.2130   40.5960 C.2       1 PRO         0.2042
     49 O          31.2740   -4.7460   39.5170 O.2       1 PRO        -0.3944
     50 CB         34.0240   -4.5710   40.9120 C.3       1 PRO        -0.0104
     51 CG         34.3040   -4.6200   42.3590 C.3       1 PRO        -0.0281
     52 CD         33.9860   -3.2660   42.9370 C.3       1 PRO         0.0369
     53 N          30.7750   -4.1920   41.6490 N.am      1 ASN        -0.2616
     54 CA         29.4920   -4.9320   41.7310 C.3       1 ASN         0.1476
     55 C          28.2370   -4.0870   41.8340 C.2       1 ASN         0.2061
     56 O          27.1680   -4.6300   42.1270 O.2       1 ASN        -0.3942
     57 CB         29.5230   -5.7720   43.0050 C.3       1 ASN         0.0773
     58 CG         30.7150   -6.7020   43.0610 C.2       1 ASN         0.1780
     59 OD1        31.1480   -7.2250   42.0450 O.2       1 ASN        -0.3970
     60 ND2        31.2400   -6.9270   44.2630 N.am      1 ASN        -0.3007
     61 N          28.3530   -2.7800   41.6020 N.am      1 GLY        -0.2663
     62 CA         27.2400   -1.8670   41.7870 C.3       1 GLY         0.1203
     63 C          26.6340   -1.3270   40.5000 C.2       1 GLY         0.2032
     64 O          26.9760   -1.7860   39.4150 O.2       1 GLY        -0.3945
     65 N          25.6680   -0.3720   40.6480 N.am      1 PRO        -0.2501
     66 CA         24.9220    0.1500   39.4950 C.3       1 PRO         0.1338
     67 C          25.7850    0.9750   38.5460 C.2       1 PRO         0.2041
     68 O          25.4650    1.1060   37.3270 O.2       1 PRO        -0.3944
     69 CB         23.8320    1.0390   40.1230 C.3       1 PRO        -0.0104
     70 CG         24.2070    1.2500   41.4920 C.3       1 PRO        -0.0281
     71 CD         25.1680    0.1790   41.9190 C.3       1 PRO         0.0369
     72 N          26.8790    1.5150   39.0800 N.am      1 ILE        -0.2635
     73 CA         27.8090    2.2450   38.2330 C.3       1 ILE         0.1335
     74 C          28.5370    1.2920   37.2740 C.2       1 ILE         0.2041
     75 O          28.5410    1.4820   36.0480 O.2       1 ILE        -0.3944
     76 CB         28.8240    3.0710   39.0670 C.3       1 ILE        -0.0037
     77 CG1        28.0680    4.1390   39.8720 C.3       1 ILE        -0.0491
     78 CG2        29.7990    3.7610   38.1360 C.3       1 ILE        -0.0582
     79 CD1        28.8700    4.8200   40.9430 C.3       1 ILE        -0.0648
     80 N          29.1400    0.2390   37.8260 N.am      1 ALA        -0.2640
     81 CA         29.7800   -0.7690   36.9940 C.3       1 ALA         0.1282
     82 C          28.8240   -1.3460   35.9600 C.2       1 ALA         0.2036
     83 O          29.2250   -1.6300   34.8320 O.2       1 ALA        -0.3944
     84 CB         30.3870   -1.8710   37.8470 C.3       1 ALA        -0.0244
     85 N          27.5610   -1.5170   36.3270 N.am      1 ARG        -0.2637
     86 CA         26.5610   -2.0760   35.4200 C.3       1 ARG         0.1311
     87 C          26.2300   -1.1610   34.2400 C.2       1 ARG         0.2039
     88 O          25.6530   -1.6390   33.2300 O.2       1 ARG        -0.3944
     89 CB         25.2820   -2.4280   36.2090 C.3       1 ARG        -0.0092
     90 CG         25.4520   -3.6690   37.0740 C.3       1 ARG        -0.0156
     91 CD         24.1110   -4.2360   37.5380 C.3       1 ARG         0.0627
     92 NE         23.4490   -3.3700   38.5090 N.pl3     1 ARG        -0.2723
     93 CZ         23.6390   -3.3910   39.8190 C.cat     1 ARG         0.2882
     94 NH1        24.5280   -4.1910   40.3800 N.pl3     1 ARG        -0.2849
     95 NH2        22.9560   -2.5470   40.5800 N.pl3     1 ARG        -0.2849
     96 N          26.6040    0.1190   34.3200 N.am      1 ALA        -0.2640
     97 CA         26.3790    1.0270   33.2070 C.3       1 ALA         0.1282
     98 C          27.1160    0.5450   31.9450 C.2       1 ALA         0.2031
     99 O          26.7390    0.9280   30.8310 O.2       1 ALA        -0.3944
    100 CB         26.7900    2.4470   33.5340 C.3       1 ALA        -0.0244
    101 N          28.2010   -0.2100   32.1130 N.am      1 TRP        -0.2684
    102 CA         29.0290   -0.6630   30.9610 C.3       1 TRP         0.0986
    103 C          28.7890   -2.1290   30.6530 C.2       1 TRP         0.0613
    104 O          27.8860   -2.7190   31.2460 O.co2     1 TRP        -0.5665
    105 CB         30.5120   -0.3770   31.2240 C.3       1 TRP        -0.0013
    106 CG         30.7350    1.0860   31.4540 C.2       1 TRP        -0.0424
    107 CD1        30.6440    2.0820   30.5370 C.2       1 TRP         0.0166
    108 CD2        31.0540    1.7120   32.6870 C.ar      1 TRP        -0.0214
    109 NE1        30.8780    3.2970   31.1300 N.pl3     1 TRP        -0.2891
    110 CE2        31.1570    3.1010   32.4410 C.ar      1 TRP         0.0603
    111 CE3        31.3240    1.2380   33.9660 C.ar      1 TRP        -0.0747
    112 CZ2        31.4360    4.0210   33.4470 C.ar      1 TRP        -0.0443
    113 CZ3        31.6300    2.1550   34.9740 C.ar      1 TRP        -0.0792
    114 CH2        31.6840    3.5310   34.7070 C.ar      1 TRP        -0.0768
    115 OXT        29.4550   -2.7300   29.7800 O.co2     1 TRP        -0.5665
    116 H1         44.0749    4.7356   44.2830 H         1 ASN         0.2017
    117 H2         43.0866    4.1624   43.0980 H         1 ASN         0.2017
    118 H3         43.0403    3.4958   44.6024 H         1 ASN         0.2017
    119 H4         42.1850    5.4673   45.5681 H         1 ASN         0.1125
    120 H5         42.1246    6.6039   42.7376 H         1 ASN         0.0585
    121 H6         43.4125    6.9759   43.9333 H         1 ASN         0.0585
    122 H7         40.3307    8.3197   46.0501 H         1 ASN         0.1814
    123 H8         41.0710    6.7546   46.0962 H         1 ASN         0.1814
    124 H9         40.5463    4.1291   46.0699 H         1 TYR         0.1886
    125 H10        38.7736    2.7929   44.2911 H         1 TYR         0.0821
    126 H11        38.2844    3.8289   47.1458 H         1 TYR         0.0453
    127 H12        39.0574    2.2611   46.7321 H         1 TYR         0.0453
    128 H13        37.7230    0.4314   45.7731 H         1 TYR         0.0530
    129 H14        35.9278    4.1151   46.9014 H         1 TYR         0.0530
    130 H15        35.5343   -0.6356   45.6186 H         1 TYR         0.0525
    131 H16        33.6897    3.0355   46.7857 H         1 TYR         0.0525
    132 H17        32.6740    1.1063   45.4657 H         1 TYR         0.2458
    133 H18        37.2297    3.6249   43.0082 H         1 LEU         0.1883
    134 H19        36.1018    6.3219   43.6504 H         1 LEU         0.0800
    135 H20        35.5577    6.5196   41.2397 H         1 LEU         0.0315
    136 H21        36.3647    4.9417   40.9469 H         1 LEU         0.0315
    137 H22        38.4828    5.9000   41.8036 H         1 LEU         0.0298
    138 H23        39.0424    7.3735   39.8829 H         1 LEU         0.0232
    139 H24        37.2973    7.4991   39.4760 H         1 LEU         0.0232
    140 H25        38.1329    5.9127   39.3676 H         1 LEU         0.0232
    141 H26        37.4806    7.6143   43.2216 H         1 LEU         0.0232
    142 H27        37.0149    8.5328   41.7498 H         1 LEU         0.0232
    143 H28        38.7498    8.2555   42.1241 H         1 LEU         0.0232
    144 H29        35.2724    3.0183   42.5631 H         1 PHE         0.1885
    145 H30        32.7103    3.1255   43.8223 H         1 PHE         0.0823
    146 H31        32.0510    4.3909   41.8778 H         1 PHE         0.0474
    147 H32        31.3247    2.7489   41.8248 H         1 PHE         0.0474
    148 H33        32.2933    1.0554   40.2276 H         1 PHE         0.0557
    149 H34        33.4885    5.1379   40.1705 H         1 PHE         0.0557
    150 H35        33.1253    0.7627   37.9523 H         1 PHE         0.0599
    151 H36        34.2913    4.8728   37.8772 H         1 PHE         0.0599
    152 H37        34.1648    2.6507   36.7551 H         1 PHE         0.0559
    153 H38        31.4263    1.0963   43.0494 H         1 SER         0.1884
    154 H39        33.2652   -1.0570   43.8497 H         1 SER         0.0823
    155 H40        30.2308   -0.8511   43.5975 H         1 SER         0.0606
    156 H41        31.2139   -0.8931   45.1003 H         1 SER         0.0606
    157 H42        31.7659   -3.0553   44.5327 H         1 SER         0.2097
    158 H43        33.1191   -2.9219   39.8410 H         1 PRO         0.0802
    159 H44        34.9271   -4.2786   40.3563 H         1 PRO         0.0313
    160 H45        33.6754   -5.5515   40.5554 H         1 PRO         0.0313
    161 H46        35.3646   -4.8584   42.5268 H         1 PRO         0.0287
    162 H47        33.6759   -5.3869   42.8357 H         1 PRO         0.0287
    163 H48        33.4934   -3.3577   43.9162 H         1 PRO         0.0524
    164 H49        34.8945   -2.6543   43.0394 H         1 PRO         0.0524
    165 H50        31.0501   -3.6425   42.4380 H         1 ASN         0.1885
    166 H51        29.4097   -5.5794   40.8455 H         1 ASN         0.0826
    167 H52        28.6039   -6.3745   43.0520 H         1 ASN         0.0551
    168 H53        29.5630   -5.0959   43.8717 H         1 ASN         0.0551
    169 H54        32.0292   -7.5336   44.3583 H         1 ASN         0.1814
    170 H55        30.8453   -6.4894   45.0709 H         1 ASN         0.1814
    171 H56        29.2319   -2.4179   41.2916 H         1 GLY         0.1881
    172 H57        27.5941   -1.0127   42.3827 H         1 GLY         0.0763
    173 H58        26.4509   -2.3977   42.3399 H         1 GLY         0.0763
    174 H59        24.4692   -0.6801   38.9329 H         1 PRO         0.0802
    175 H60        22.8557    0.5348   40.0712 H         1 PRO         0.0313
    176 H61        23.7763    2.0013   39.5930 H         1 PRO         0.0313
    177 H62        23.3101    1.2123   42.1277 H         1 PRO         0.0287
    178 H63        24.6870    2.2346   41.5930 H         1 PRO         0.0287
    179 H64        25.9908    0.6047   42.5121 H         1 PRO         0.0524
    180 H65        24.6548   -0.5960   42.5071 H         1 PRO         0.0524
    181 H66        27.0602    1.4190   40.0588 H         1 ILE         0.1883
    182 H67        27.2234    2.9513   37.6262 H         1 ILE         0.0803
    183 H68        29.3703    2.4052   39.7513 H         1 ILE         0.0345
    184 H69        27.2032    3.6558   40.3501 H         1 ILE         0.0267
    185 H70        27.7160    4.9087   39.1694 H         1 ILE         0.0267
    186 H71        30.3469    3.0056   37.5536 H         1 ILE         0.0235
    187 H72        30.5111    4.3562   38.7264 H         1 ILE         0.0235
    188 H73        29.2472    4.4223   37.4517 H         1 ILE         0.0235
    189 H74        28.2406    5.5616   41.4567 H         1 ILE         0.0230
    190 H75        29.7348    5.3251   40.4882 H         1 ILE         0.0230
    191 H76        29.2221    4.0722   41.6689 H         1 ILE         0.0230
    192 H77        29.1527    0.1408   38.8211 H         1 ALA         0.1883
    193 H78        30.5994   -0.2772   36.4493 H         1 ALA         0.0797
    194 H79        30.8634   -2.6185   37.1956 H         1 ALA         0.0277
    195 H80        29.5962   -2.3528   38.4407 H         1 ALA         0.0277
    196 H81        31.1407   -1.4392   38.5219 H         1 ALA         0.0277
    197 H82        27.2849   -1.2556   37.2519 H         1 ARG         0.1883
    198 H83        26.9739   -3.0078   35.0062 H         1 ARG         0.0800
    199 H84        24.4647   -2.6056   35.4945 H         1 ARG         0.0313
    200 H85        25.0233   -1.5786   36.8583 H         1 ARG         0.0313
    201 H86        26.0504   -3.4053   37.9585 H         1 ARG         0.0301
    202 H87        25.9792   -4.4382   36.4906 H         1 ARG         0.0301
    203 H88        24.2837   -5.2189   38.0007 H         1 ARG         0.0689
    204 H89        23.4546   -4.3528   36.6631 H         1 ARG         0.0689
    205 H90        22.7751   -2.6825   38.1429 H         1 ARG         0.2642
    206 H91        24.6535   -4.1851   41.4023 H         1 ARG         0.2615
    207 H92        25.0957   -4.8207   39.7951 H         1 ARG         0.2615
    208 H93        22.2600   -1.9179   40.1549 H         1 ARG         0.2615
    209 H94        23.1214   -2.5204   41.5963 H         1 ARG         0.2615
    210 H95        27.0428    0.4557   35.1531 H         1 ALA         0.1883
    211 H96        25.3002    1.0297   32.9922 H         1 ALA         0.0797
    212 H97        26.6011    3.0930   32.6639 H         1 ALA         0.0277
    213 H98        27.8613    2.4707   33.7824 H         1 ALA         0.0277
    214 H99        26.2062    2.8091   34.3931 H         1 ALA         0.0277
    215 H100       28.4667   -0.4800   33.0385 H         1 TRP         0.1876
    216 H101       28.7255   -0.0823   30.0774 H         1 TRP         0.0741
    217 H102       31.1022   -0.7000   30.3537 H         1 TRP         0.0390
    218 H103       30.8355   -0.9361   32.1144 H         1 TRP         0.0390
    219 H104       30.4177    1.9377   29.4816 H         1 TRP         0.0795
    220 H105       30.8466    4.2104   30.6551 H         1 TRP         0.2216
    221 H106       31.2974    0.1751   34.1771 H         1 TRP         0.0540
    222 H107       31.4570    5.0857   33.2443 H         1 TRP         0.0541
    223 H108       31.8288    1.7979   35.9780 H         1 TRP         0.0510
    224 H109       31.9255    4.2199   35.5083 H         1 TRP         0.0530
@<TRIPOS>BOND
     1    1    2 1  
     2    2    3 1  
     3    2    5 1  
     4    3    4 2  
     5    3    9 am 
     6    5    6 1  
     7    6    7 2  
     8    6    8 am 
     9    9   10 1  
    10   10   11 1  
    11   10   13 1  
    12   11   12 2  
    13   11   21 am 
    14   13   14 1  
    15   14   15 ar 
    16   14   16 ar 
    17   15   17 ar 
    18   16   18 ar 
    19   17   19 ar 
    20   18   19 ar 
    21   19   20 1  
    22   21   22 1  
    23   22   23 1  
    24   22   25 1  
    25   23   24 2  
    26   23   29 am 
    27   25   26 1  
    28   26   27 1  
    29   26   28 1  
    30   29   30 1  
    31   30   31 1  
    32   30   33 1  
    33   31   32 2  
    34   31   40 am 
    35   33   34 1  
    36   34   35 ar 
    37   34   36 ar 
    38   35   37 ar 
    39   36   38 ar 
    40   37   39 ar 
    41   38   39 ar 
    42   40   41 1  
    43   41   42 1  
    44   41   44 1  
    45   42   43 2  
    46   42   46 am 
    47   44   45 1  
    48   46   47 1  
    49   46   52 1  
    50   47   48 1  
    51   47   50 1  
    52   48   49 2  
    53   48   53 am 
    54   50   51 1  
    55   51   52 1  
    56   53   54 1  
    57   54   55 1  
    58   54   57 1  
    59   55   56 2  
    60   55   61 am 
    61   57   58 1  
    62   58   59 2  
    63   58   60 am 
    64   61   62 1  
    65   62   63 1  
    66   63   64 2  
    67   63   65 am 
    68   65   66 1  
    69   65   71 1  
    70   66   67 1  
    71   66   69 1  
    72   67   68 2  
    73   67   72 am 
    74   69   70 1  
    75   70   71 1  
    76   72   73 1  
    77   73   74 1  
    78   73   76 1  
    79   74   75 2  
    80   74   80 am 
    81   76   77 1  
    82   76   78 1  
    83   77   79 1  
    84   80   81 1  
    85   81   82 1  
    86   81   84 1  
    87   82   83 2  
    88   82   85 am 
    89   85   86 1  
    90   86   87 1  
    91   86   89 1  
    92   87   88 2  
    93   87   96 am 
    94   89   90 1  
    95   90   91 1  
    96   91   92 1  
    97   92   93 ar 
    98   93   94 ar 
    99   93   95 ar 
   100   96   97 1  
   101   97   98 1  
   102   97  100 1  
   103   98   99 2  
   104   98  101 am 
   105  101  102 1  
   106  102  103 1  
   107  102  105 1  
   108  103  104 ar 
   109  103  115 ar 
   110  105  106 1  
   111  106  107 2  
   112  106  108 1  
   113  107  109 1  
   114  108  110 ar 
   115  108  111 ar 
   116  109  110 1  
   117  110  112 ar 
   118  111  113 ar 
   119  112  114 ar 
   120  113  114 ar 
   121    1  116 1  
   122    1  117 1  
   123    1  118 1  
   124    2  119 1  
   125    5  120 1  
   126    5  121 1  
   127    8  122 1  
   128    8  123 1  
   129    9  124 1  
   130   10  125 1  
   131   13  126 1  
   132   13  127 1  
   133   15  128 1  
   134   16  129 1  
   135   17  130 1  
   136   18  131 1  
   137   20  132 1  
   138   21  133 1  
   139   22  134 1  
   140   25  135 1  
   141   25  136 1  
   142   26  137 1  
   143   27  138 1  
   144   27  139 1  
   145   27  140 1  
   146   28  141 1  
   147   28  142 1  
   148   28  143 1  
   149   29  144 1  
   150   30  145 1  
   151   33  146 1  
   152   33  147 1  
   153   35  148 1  
   154   36  149 1  
   155   37  150 1  
   156   38  151 1  
   157   39  152 1  
   158   40  153 1  
   159   41  154 1  
   160   44  155 1  
   161   44  156 1  
   162   45  157 1  
   163   47  158 1  
   164   50  159 1  
   165   50  160 1  
   166   51  161 1  
   167   51  162 1  
   168   52  163 1  
   169   52  164 1  
   170   53  165 1  
   171   54  166 1  
   172   57  167 1  
   173   57  168 1  
   174   60  169 1  
   175   60  170 1  
   176   61  171 1  
   177   62  172 1  
   178   62  173 1  
   179   66  174 1  
   180   69  175 1  
   181   69  176 1  
   182   70  177 1  
   183   70  178 1  
   184   71  179 1  
   185   71  180 1  
   186   72  181 1  
   187   73  182 1  
   188   76  183 1  
   189   77  184 1  
   190   77  185 1  
   191   78  186 1  
   192   78  187 1  
   193   78  188 1  
   194   79  189 1  
   195   79  190 1  
   196   79  191 1  
   197   80  192 1  
   198   81  193 1  
   199   84  194 1  
   200   84  195 1  
   201   84  196 1  
   202   85  197 1  
   203   86  198 1  
   204   89  199 1  
   205   89  200 1  
   206   90  201 1  
   207   90  202 1  
   208   91  203 1  
   209   91  204 1  
   210   92  205 1  
   211   94  206 1  
   212   94  207 1  
   213   95  208 1  
   214   95  209 1  
   215   96  210 1  
   216   97  211 1  
   217  100  212 1  
   218  100  213 1  
   219  100  214 1  
   220  101  215 1  
   221  102  216 1  
   222  105  217 1  
   223  105  218 1  
   224  107  219 1  
   225  109  220 1  
   226  111  221 1  
   227  112  222 1  
   228  113  223 1  
   229  114  224 1  
@<TRIPOS>SUBSTRUCTURE
     1 ASN         1

