3ao2_ligand
  -I-interpret- 

 27 29  0  0  0  0  0  0  0  0999 V2000
    8.5180  -22.2800   -5.6960 C   0  0  0  0  0
    9.6330  -22.2010   -6.5780 C   0  0  0  0  0
   10.6110  -21.2110   -6.4820 C   0  0  0  0  0
   10.5430  -20.2270   -5.5330 C   0  0  0  0  0
    9.4210  -20.2350   -4.6000 C   0  0  0  0  0
    8.4270  -21.2810   -4.7080 C   0  0  0  0  0
    7.5400  -21.0060   -3.7100 O   0  0  0  0  0
    7.9950  -19.9210   -2.8750 C   0  0  0  0  0
    9.1330  -19.3870   -3.5670 O   0  0  0  0  0
    9.9500  -23.1890   -7.6470 C   0  0  0  0  0
   11.2490  -23.6360   -7.7740 N   0  0  0  0  0
   11.2570  -24.5530   -8.8270 N   0  0  0  0  0
   10.0070  -24.6320   -9.2800 C   0  0  0  0  0
    9.1160  -23.8120   -8.5900 C   0  0  0  0  0
   11.8100  -18.8850   -5.3540 Br  0  0  0  0  0
   12.5700  -25.1820   -9.1680 C   0  0  0  0  0
    9.6610  -25.4450  -10.3170 N   0  0  0  0  0
    7.7741  -23.0721   -5.7812 H   0  0  0  0  0
   11.4490  -21.2213   -7.1790 H   0  0  0  0  0
    8.2494  -20.2581   -1.8702 H   0  0  0  0  0
    7.2199  -19.1698   -2.7233 H   0  0  0  0  0
    8.0442  -23.6861   -8.7432 H   0  0  0  0  0
   13.2814  -24.4054   -9.4489 H   0  0  0  0  0
   12.9469  -25.7257   -8.3017 H   0  0  0  0  0
   12.4355  -25.8718  -10.0011 H   0  0  0  0  0
   10.3698  -26.0192  -10.7734 H   0  0  0  0  0
    8.6931  -25.4795  -10.6370 H   0  0  0  0  0
  1  2  4  0  0  0
  1  6  4  0  0  0
  2  3  4  0  0  0
  2 10  1  0  0  0
  3  4  4  0  0  0
  4  5  4  0  0  0
  4 15  1  0  0  0
  5  6  4  0  0  0
  5  9  1  0  0  0
  6  7  1  0  0  0
  7  8  1  0  0  0
  8  9  1  0  0  0
 10 11  4  0  0  0
 10 14  4  0  0  0
 11 12  4  0  0  0
 12 13  4  0  0  0
 12 16  1  0  0  0
 13 14  4  0  0  0
 13 17  1  0  0  0
  1 18  1  0  0  0
  3 19  1  0  0  0
  8 20  1  0  0  0
  8 21  1  0  0  0
 14 22  1  0  0  0
 16 23  1  0  0  0
 16 24  1  0  0  0
 16 25  1  0  0  0
 17 26  1  0  0  0
 17 27  1  0  0  0
M  END
$$$$
