3vd4_ligand
  -I-interpret- 

 33 33  0  0  0  0  0  0  0  0999 V2000
  -14.6700  -27.5650  -26.3070 C   0  0  0  0  0
  -13.3560  -27.3730  -25.5420 C   0  0  0  0  0
  -13.4580  -26.1820  -24.7590 O   0  0  0  0  0
  -12.1600  -27.2510  -26.4940 C   0  0  0  0  0
  -10.9280  -27.3470  -25.7590 O   0  0  0  0  0
  -12.1820  -28.3050  -27.6100 C   0  0  0  0  0
  -11.8520  -29.5850  -27.0510 O   0  0  0  0  0
  -13.5710  -28.3350  -28.2620 C   0  0  0  0  0
  -14.5280  -28.6260  -27.2490 O   0  0  0  0  0
  -13.7790  -29.3590  -29.3730 C   0  0  0  0  0
  -12.6910  -29.3540  -30.3060 O   0  0  0  0  0
  -16.0120  -27.9980  -25.2420 S   0  0  0  0  0
  -17.5270  -27.5400  -26.0430 C   0  0  0  0  0
  -17.7430  -28.3350  -27.3330 C   0  0  0  0  0
  -18.6920  -27.7510  -25.0820 C   0  0  0  0  0
  -14.8875  -26.6138  -26.7928 H   0  0  0  0  0
  -13.1912  -28.2449  -24.9089 H   0  0  0  0  0
  -14.2062  -26.2559  -24.1621 H   0  0  0  0  0
  -12.2335  -26.2730  -26.9696 H   0  0  0  0  0
  -10.9197  -26.6860  -25.0628 H   0  0  0  0  0
  -11.4490  -28.0556  -28.3772 H   0  0  0  0  0
  -10.9810  -29.5427  -26.6495 H   0  0  0  0  0
  -13.6813  -27.3560  -28.7284 H   0  0  0  0  0
  -14.6933  -29.1045  -29.9090 H   0  0  0  0  0
  -13.8407  -30.3491  -28.9214 H   0  0  0  0  0
  -12.8541  -30.0081  -30.9895 H   0  0  0  0  0
  -17.4683  -26.4868  -26.3178 H   0  0  0  0  0
  -16.9180  -28.1431  -28.0190 H   0  0  0  0  0
  -17.7835  -29.3990  -27.1001 H   0  0  0  0  0
  -18.6808  -28.0270  -27.7954 H   0  0  0  0  0
  -18.7361  -28.8006  -24.7914 H   0  0  0  0  0
  -18.5468  -27.1331  -24.1959 H   0  0  0  0  0
  -19.6229  -27.4696  -25.5742 H   0  0  0  0  0
  1  2  1  0  0  0
  1  9  1  0  0  0
  1 12  1  0  0  0
  2  3  1  0  0  0
  2  4  1  0  0  0
  4  5  1  0  0  0
  4  6  1  0  0  0
  6  7  1  0  0  0
  6  8  1  0  0  0
  8  9  1  0  0  0
  8 10  1  0  0  0
 10 11  1  0  0  0
 12 13  1  0  0  0
 13 14  1  0  0  0
 13 15  1  0  0  0
  1 16  1  0  0  0
  2 17  1  0  0  0
  3 18  1  0  0  0
  4 19  1  0  0  0
  5 20  1  0  0  0
  6 21  1  0  0  0
  7 22  1  0  0  0
  8 23  1  0  0  0
 10 24  1  0  0  0
 10 25  1  0  0  0
 11 26  1  0  0  0
 13 27  1  0  0  0
 14 28  1  0  0  0
 14 29  1  0  0  0
 14 30  1  0  0  0
 15 31  1  0  0  0
 15 32  1  0  0  0
 15 33  1  0  0  0
M  END
$$$$
