3dkj_ligand
  -I-interpret- 

 35 35  0  0  0  0  0  0  0  0999 V2000
   10.8970   18.9080   10.1140 C   0  0  0  0  0
   10.4530   18.6390    8.6980 C   0  0  0  0  0
    9.1120   17.9020    8.9310 C   0  0  0  0  0
    9.3120   17.1420   10.2580 C   0  0  0  0  0
    9.3810   15.5860   10.3320 C   0  0  0  0  0
   10.1880   20.0700   10.6020 O   0  0  0  0  0
   10.5060   19.8810    7.9210 O   0  0  0  0  0
    8.0600   18.8880    9.0900 O   0  0  0  0  0
   10.5330   17.7010   10.7860 O   0  0  0  0  0
    9.6870   15.1350   11.6990 O   0  0  0  0  0
    8.7310   14.4310   12.8590 P   0  0  0  0  0
    9.2410   13.0410   12.9170 O   0  0  0  0  0
    8.9340   14.9090   14.3040 O   0  0  0  0  0
    7.3230   14.5250   12.3050 O   0  0  0  0  0
   10.5360   20.9280   11.9670 P   0  0  0  0  0
   11.6860   20.2680   12.6250 O   0  0  0  0  0
   10.5910   22.3590   11.5240 O   0  0  0  0  0
    9.1860   20.6770   12.7980 O   0  0  0  0  0
    7.7780   21.3520   12.3730 P   0  0  0  0  0
    7.9360   22.8150   12.6640 O   0  0  0  0  0
    6.7140   20.6570   13.2200 O   0  0  0  0  0
    7.5220   21.0350   10.9060 O   0  0  0  0  0
   11.9554   19.1317   10.2474 H   0  0  0  0  0
   11.0680   18.0084    8.0559 H   0  0  0  0  0
    8.8408   17.2379    8.1103 H   0  0  0  0  0
    8.3805   17.2861   10.8054 H   0  0  0  0  0
   10.1702   15.2392    9.6649 H   0  0  0  0  0
    8.4134   15.1791   10.0383 H   0  0  0  0  0
   11.4128   20.1937    7.8810 H   0  0  0  0  0
    7.9374   19.3597    8.2629 H   0  0  0  0  0
    8.6317   15.8166   14.3851 H   0  0  0  0  0
    7.0465   15.4442   12.2910 H   0  0  0  0  0
    9.7533   22.6008   11.1222 H   0  0  0  0  0
    6.6706   19.7288   12.9788 H   0  0  0  0  0
    7.4319   20.0856   10.7959 H   0  0  0  0  0
  1  2  1  0  0  0
  1  6  1  0  0  0
  1  9  1  0  0  0
  2  3  1  0  0  0
  2  7  1  0  0  0
  3  4  1  0  0  0
  3  8  1  0  0  0
  4  5  1  0  0  0
  4  9  1  0  0  0
  5 10  1  0  0  0
  6 15  1  0  0  0
 10 11  1  0  0  0
 11 12  2  0  0  0
 11 13  1  0  0  0
 11 14  1  0  0  0
 15 16  2  0  0  0
 15 17  1  0  0  0
 15 18  1  0  0  0
 18 19  1  0  0  0
 19 20  2  0  0  0
 19 21  1  0  0  0
 19 22  1  0  0  0
  1 23  1  0  0  0
  2 24  1  0  0  0
  3 25  1  0  0  0
  4 26  1  0  0  0
  5 27  1  0  0  0
  5 28  1  0  0  0
  7 29  1  0  0  0
  8 30  1  0  0  0
 13 31  1  0  0  0
 14 32  1  0  0  0
 17 33  1  0  0  0
 21 34  1  0  0  0
 22 35  1  0  0  0
M  END
$$$$
