### 
### Created by X-TOOL on Mon Sep 10 21:12:59 2018
### 

@<TRIPOS>MOLECULE
3dkj_ligand
   30    30     1     0     0
SMALL
GAST_HUCK


@<TRIPOS>ATOM
      1 C1         10.8970   18.9080   10.1140 C.3       1 PRP         0.2230
      2 C2         10.4530   18.6390    8.6980 C.3       1 PRP         0.1392
      3 C3          9.1120   17.9020    8.9310 C.3       1 PRP         0.1148
      4 C4          9.3120   17.1420   10.2580 C.3       1 PRP         0.1181
      5 C5          9.3810   15.5860   10.3320 C.3       1 PRP         0.1071
      6 O1         10.1880   20.0700   10.6020 O.3       1 PRP        -0.2114
      7 O2         10.5060   19.8810    7.9210 O.3       1 PRP        -0.3837
      8 O3          8.0600   18.8880    9.0900 O.3       1 PRP        -0.3864
      9 O4         10.5330   17.7010   10.7860 O.3       1 PRP        -0.3361
     10 O5          9.6870   15.1350   11.6990 O.3       1 PRP        -0.2734
     11 P           8.7310   14.4310   12.8590 P.3       1 PRP         0.2008
     12 O1P         9.2410   13.0410   12.9170 O.co2     1 PRP        -0.5537
     13 O2P         8.9340   14.9090   14.3040 O.co2     1 PRP        -0.5537
     14 O3P         7.3230   14.5250   12.3050 O.co2     1 PRP        -0.5537
     15 PA         10.5360   20.9280   11.9670 P.3       1 PRP         0.3301
     16 O1A        11.6860   20.2680   12.6250 O.co2     1 PRP        -0.5555
     17 O2A        10.5910   22.3590   11.5240 O.co2     1 PRP        -0.5555
     18 O3A         9.1860   20.6770   12.7980 O.3       1 PRP        -0.1548
     19 PB          7.7780   21.3520   12.3730 P.3       1 PRP         0.2069
     20 O1B         7.9360   22.8150   12.6640 O.co2     1 PRP        -0.5891
     21 O2B         6.7140   20.6570   13.2200 O.co2     1 PRP        -0.5891
     22 O3B         7.5220   21.0350   10.9060 O.co2     1 PRP        -0.5891
     23 H1         11.9815   19.0807   10.1783 H         1 PRP         0.0999
     24 H2         11.1439   17.9369    8.2084 H         1 PRP         0.0675
     25 H3          8.8777   17.2148    8.1047 H         1 PRP         0.0648
     26 H4          8.4729   17.4276   10.9094 H         1 PRP         0.0650
     27 H5         10.1672   15.2282    9.6510 H         1 PRP         0.0639
     28 H6          8.4112   15.1681   10.0242 H         1 PRP         0.0639
     29 H7          9.9615   20.5380    8.3386 H         1 PRP         0.2101
     30 H8          7.9386   19.3548    8.2715 H         1 PRP         0.2100
@<TRIPOS>BOND
     1    1    2 1  
     2    1    6 1  
     3    1    9 1  
     4    2    3 1  
     5    2    7 1  
     6    3    4 1  
     7    3    8 1  
     8    4    5 1  
     9    4    9 1  
    10    5   10 1  
    11    6   15 1  
    12   10   11 1  
    13   11   12 ar 
    14   11   13 ar 
    15   11   14 ar 
    16   15   16 ar 
    17   15   17 ar 
    18   15   18 1  
    19   18   19 1  
    20   19   20 ar 
    21   19   21 ar 
    22   19   22 ar 
    23    1   23 1  
    24    2   24 1  
    25    3   25 1  
    26    4   26 1  
    27    5   27 1  
    28    5   28 1  
    29    7   29 1  
    30    8   30 1  
@<TRIPOS>SUBSTRUCTURE
     1 PRP         1

