5uci_ligand
  -I-interpret- 

 43 45  0  0  0  0  0  0  0  0999 V2000
   28.9920   27.8710   28.7850 C   0  0  0  0  0
   28.4650   27.2850   27.6060 C   0  0  0  0  0
   28.3450   27.7350   26.2700 C   0  0  0  0  0
   28.2550   25.8740   29.3380 C   0  0  0  0  0
   27.3120   25.6290   25.6720 C   0  0  0  0  0
   29.2040   27.2010   31.1020 C   0  0  0  0  0
   31.0090   30.9150   32.1080 C   0  0  0  0  0
   28.8240   26.9930   29.7460 N   0  0  0  0  0
   27.7750   26.9050   25.3130 C   0  0  0  0  0
   27.4190   25.1720   26.9890 C   0  0  0  0  0
   34.0530   29.6090   32.6950 C   0  0  0  0  0
   33.3130   30.0960   31.4480 C   0  0  0  0  0
   33.8140   29.2960   30.2530 C   0  0  0  0  0
   31.8000   29.8980   31.6180 C   0  0  0  0  0
   31.2320   28.6850   31.2890 C   0  0  0  0  0
   29.8650   28.5170   31.4670 C   0  0  0  0  0
   29.0820   29.5410   31.9580 C   0  0  0  0  0
   27.7290   29.3120   32.1060 O   0  0  0  0  0
   29.6470   30.7530   32.2810 C   0  0  0  0  0
   31.6180   32.1120   32.4310 O   0  0  0  0  0
   28.7810   31.8760   32.8220 C   0  0  0  0  0
   29.6130   32.9460   33.2100 O   0  0  0  0  0
   29.0130   26.3400   31.8770 O   0  0  0  0  0
   28.0040   26.0210   27.9550 C   0  0  0  0  0
   29.4473   28.8572   28.8754 H   0  0  0  0  0
   28.6982   28.7283   25.9930 H   0  0  0  0  0
   28.0230   25.0029   29.9508 H   0  0  0  0  0
   26.8634   24.9865   24.9143 H   0  0  0  0  0
   27.6870   27.2450   24.2811 H   0  0  0  0  0
   27.0585   24.1810   27.2648 H   0  0  0  0  0
   33.8525   28.5480   32.8437 H   0  0  0  0  0
   35.1241   29.7628   32.5636 H   0  0  0  0  0
   33.7079   30.1705   33.5632 H   0  0  0  0  0
   33.5016   31.1584   31.2937 H   0  0  0  0  0
   34.8866   29.4518   30.1370 H   0  0  0  0  0
   33.6150   28.2370   30.4172 H   0  0  0  0  0
   33.2978   29.6287   29.3525 H   0  0  0  0  0
   31.8446   27.8733   30.8966 H   0  0  0  0  0
   27.3081   30.1016   32.4538 H   0  0  0  0  0
   30.9578   32.7277   32.7575 H   0  0  0  0  0
   28.2111   31.5215   33.6809 H   0  0  0  0  0
   28.0858   32.2097   32.0517 H   0  0  0  0  0
   29.0730   33.6614   33.5537 H   0  0  0  0  0
  1  2  4  0  0  0
  8  1  4  0  0  0
  2  3  4  0  0  0
 24  2  4  0  0  0
  3  9  4  0  0  0
  8  4  4  0  0  0
  4 24  4  0  0  0
  5  9  4  0  0  0
 10  5  4  0  0  0
  6  8  1  0  0  0
 16  6  1  0  0  0
  6 23  2  0  0  0
 14  7  4  0  0  0
  7 19  4  0  0  0
  7 20  1  0  0  0
 24 10  4  0  0  0
 12 11  1  0  0  0
 12 13  1  0  0  0
 14 12  1  0  0  0
 15 14  4  0  0  0
 15 16  4  0  0  0
 16 17  4  0  0  0
 17 18  1  0  0  0
 17 19  4  0  0  0
 19 21  1  0  0  0
 21 22  1  0  0  0
  1 25  1  0  0  0
  3 26  1  0  0  0
  4 27  1  0  0  0
  5 28  1  0  0  0
  9 29  1  0  0  0
 10 30  1  0  0  0
 11 31  1  0  0  0
 11 32  1  0  0  0
 11 33  1  0  0  0
 12 34  1  0  0  0
 13 35  1  0  0  0
 13 36  1  0  0  0
 13 37  1  0  0  0
 15 38  1  0  0  0
 18 39  1  0  0  0
 20 40  1  0  0  0
 21 41  1  0  0  0
 21 42  1  0  0  0
 22 43  1  0  0  0
M  END
$$$$
