3vzd_ligand
  -I-interpret- 

 31 33  0  0  0  0  0  0  0  0999 V2000
    1.5590  -31.1530   -6.8870 C   0  0  0  0  0
    1.5330  -29.9210   -6.2260 C   0  0  0  0  0
    2.6640  -29.1040   -6.3360 C   0  0  0  0  0
    2.7350  -27.9200   -5.6920 O   0  0  0  0  0
    3.7780  -29.4900   -7.0730 C   0  0  0  0  0
    3.7920  -30.7060   -7.7180 C   0  0  0  0  0
    2.6810  -31.5380   -7.6520 C   0  0  0  0  0
    2.7860  -32.7080   -8.3190 N   0  0  0  0  0
    2.2300  -33.8860   -7.9700 C   0  0  0  0  0
    1.4250  -34.1280   -6.9130 N   0  0  0  0  0
    2.4050  -35.3480   -8.8700 S   0  0  0  0  0
    1.3650  -36.2360   -7.8310 C   0  0  0  0  0
    0.9800  -35.4160   -6.8040 C   0  0  0  0  0
    0.1580  -35.8070   -5.7490 C   0  0  0  0  0
   -0.0170  -34.9190   -4.6830 C   0  0  0  0  0
   -0.8570  -35.2230   -3.6160 C   0  0  0  0  0
   -1.5150  -36.4580   -3.6000 C   0  0  0  0  0
   -2.5470  -36.8280   -2.2560 Cl  0  0  0  0  0
   -1.3330  -37.3380   -4.6630 C   0  0  0  0  0
   -0.5080  -37.0400   -5.7390 C   0  0  0  0  0
    0.7031  -31.8236   -6.8106 H   0  0  0  0  0
    0.6642  -29.6086   -5.6466 H   0  0  0  0  0
    3.5779  -27.5026   -5.8840 H   0  0  0  0  0
    4.6418  -28.8286   -7.1402 H   0  0  0  0  0
    4.6733  -31.0158   -8.2797 H   0  0  0  0  0
    3.3426  -32.6996   -9.1737 H   0  0  0  0  0
    1.0630  -37.2746   -7.9659 H   0  0  0  0  0
    0.5160  -33.9682   -4.6880 H   0  0  0  0  0
   -1.0004  -34.5096   -2.8045 H   0  0  0  0  0
   -1.8563  -38.2941   -4.6501 H   0  0  0  0  0
   -0.3812  -37.7488   -6.5573 H   0  0  0  0  0
  1  2  4  0  0  0
  1  7  4  0  0  0
  2  3  4  0  0  0
  3  4  1  0  0  0
  3  5  4  0  0  0
  5  6  4  0  0  0
  6  7  4  0  0  0
  7  8  1  0  0  0
  8  9  1  0  0  0
  9 10  4  0  0  0
  9 11  4  0  0  0
 10 13  4  0  0  0
 11 12  4  0  0  0
 12 13  4  0  0  0
 13 14  1  0  0  0
 14 15  4  0  0  0
 14 20  4  0  0  0
 15 16  4  0  0  0
 16 17  4  0  0  0
 17 18  1  0  0  0
 17 19  4  0  0  0
 19 20  4  0  0  0
  1 21  1  0  0  0
  2 22  1  0  0  0
  4 23  1  0  0  0
  5 24  1  0  0  0
  6 25  1  0  0  0
  8 26  1  0  0  0
 12 27  1  0  0  0
 15 28  1  0  0  0
 16 29  1  0  0  0
 19 30  1  0  0  0
 20 31  1  0  0  0
M  END
$$$$
