3blu_ligand
  -I-interpret- 

 21 21  0  0  0  0  0  0  0  0999 V2000
   18.0480   35.1940   73.2850 S   0  0  0  0  0
   17.2400   36.3440   73.0290 O   0  0  0  0  0
   17.9250   34.3040   72.1610 O   0  0  0  0  0
   17.5530   34.5340   74.4340 C   0  0  0  0  0
   19.6790   35.7470   73.4340 C   0  0  0  0  0
   20.3170   36.4480   72.3610 C   0  0  0  0  0
   21.6640   36.9300   72.4590 C   0  0  0  0  0
   22.4170   36.7170   73.6500 C   0  0  0  0  0
   21.8020   36.0170   74.7350 C   0  0  0  0  0
   20.4490   35.5380   74.6200 C   0  0  0  0  0
   15.8330   34.2340   74.3700 C   0  0  0  0  0
   17.7437   35.1783   75.2923 H   0  0  0  0  0
   18.0539   33.5683   74.5011 H   0  0  0  0  0
   19.7608   36.6209   71.4397 H   0  0  0  0  0
   22.1134   37.4610   71.6198 H   0  0  0  0  0
   23.4413   37.0804   73.7324 H   0  0  0  0  0
   22.3610   35.8450   75.6548 H   0  0  0  0  0
   20.0012   35.0031   75.4575 H   0  0  0  0  0
   15.3031   35.1824   74.2811 H   0  0  0  0  0
   15.6066   33.6076   73.5072 H   0  0  0  0  0
   15.5200   33.7256   75.2819 H   0  0  0  0  0
  1  2  2  0  0  0
  1  3  2  0  0  0
  1  4  1  0  0  0
  1  5  1  0  0  0
  4 11  1  0  0  0
  5  6  4  0  0  0
  5 10  4  0  0  0
  6  7  4  0  0  0
  7  8  4  0  0  0
  8  9  4  0  0  0
  9 10  4  0  0  0
  4 12  1  0  0  0
  4 13  1  0  0  0
  6 14  1  0  0  0
  7 15  1  0  0  0
  8 16  1  0  0  0
  9 17  1  0  0  0
 10 18  1  0  0  0
 11 19  1  0  0  0
 11 20  1  0  0  0
 11 21  1  0  0  0
M  END
$$$$
