2gcd_ligand
  -I-interpret- 

 62 69  0  0  0  0  0  0  0  0999 V2000
   50.3040   56.5340    3.5080 C   0  0  0  0  0
   50.8970   57.7600    3.6300 C   0  0  0  0  0
   50.3620   58.8870    3.0010 C   0  0  0  0  0
   49.1880   58.7900    2.2170 C   0  0  0  0  0
   48.5730   57.5210    2.0740 C   0  0  0  0  0
   47.4080   57.0880    1.3760 N   0  0  0  0  0
   47.3120   55.7080    1.5690 C   0  0  0  0  0
   46.3380   54.8060    1.1170 C   0  0  0  0  0
   45.2490   54.9700    0.3480 N   0  0  0  0  0
   44.5950   53.7720    0.1880 C   0  0  0  0  0
   43.4730   53.4330   -0.5360 C   0  0  0  0  0
   43.1170   52.0490   -0.4960 C   0  0  0  0  0
   43.8220   51.0700    0.2270 C   0  0  0  0  0
   44.9750   51.3900    0.9140 C   0  0  0  0  0
   45.3390   52.7680    0.8630 C   0  0  0  0  0
   46.4370   53.4730    1.5050 C   0  0  0  0  0
   47.5030   52.9960    2.3080 C   0  0  0  0  0
   47.8460   51.6470    2.8320 C   0  0  0  0  0
   48.9840   51.7480    3.6020 N   0  0  0  0  0
   49.4910   53.1480    3.5980 C   0  0  0  0  0
   48.4840   53.9090    2.7280 C   0  0  0  0  0
   48.3680   55.2730    2.4030 C   0  0  0  0  0
   49.1680   56.4210    2.7270 C   0  0  0  0  0
   46.3690   57.8040    0.5660 C   0  0  0  0  0
   45.2440   58.1740    1.5710 C   0  0  0  0  0
   43.8720   58.2270    0.8050 C   0  0  0  0  0
   43.5290   56.7670    0.4440 C   0  0  0  0  0
   44.7410   56.1840   -0.2990 C   0  0  0  0  0
   45.8590   57.0510   -0.5390 O   0  0  0  0  0
   47.2230   50.6040    2.6690 O   0  0  0  0  0
   42.7720   59.0010    1.4850 N   0  3  0  0  0
   41.4360   58.5830    0.8720 C   0  0  0  0  0
   45.0890   57.1480    2.5980 O   0  0  0  0  0
   45.6380   57.6520    3.8340 C   0  0  0  0  0
   46.8520   59.1810    0.0540 C   0  0  0  0  0
   50.7182   55.6631    4.0160 H   0  0  0  0  0
   51.8027   57.8598    4.2283 H   0  0  0  0  0
   50.8548   59.8525    3.1156 H   0  0  0  0  0
   48.7661   59.6713    1.7339 H   0  0  0  0  0
   42.8977   54.1677   -1.0992 H   0  0  0  0  0
   42.2418   51.7317   -1.0630 H   0  0  0  0  0
   43.4525   50.0447    0.2448 H   0  0  0  0  0
   45.5622   50.6471    1.4539 H   0  0  0  0  0
   49.4179   50.9732    4.1039 H   0  0  0  0  0
   50.5066   53.2170    3.2082 H   0  0  0  0  0
   49.5626   53.5628    4.6034 H   0  0  0  0  0
   45.5118   59.1285    2.0242 H   0  0  0  0  0
   43.9742   58.8263   -0.0997 H   0  0  0  0  0
   42.6389   56.7265   -0.1838 H   0  0  0  0  0
   43.3170   56.1895    1.3438 H   0  0  0  0  0
   44.3059   55.9827   -1.2779 H   0  0  0  0  0
   42.9177   60.0020    1.3538 H   0  0  0  0  0
   42.7736   58.8028    2.4856 H   0  0  0  0  0
   41.4425   58.8038   -0.1954 H   0  0  0  0  0
   41.2875   57.5137    1.0222 H   0  0  0  0  0
   40.6284   59.1345    1.3535 H   0  0  0  0  0
   46.6940   57.8827    3.6937 H   0  0  0  0  0
   45.1030   58.5557    4.1259 H   0  0  0  0  0
   45.5301   56.8969    4.6126 H   0  0  0  0  0
   46.0213   59.7020   -0.4220 H   0  0  0  0  0
   47.2193   59.7710    0.8937 H   0  0  0  0  0
   47.6546   59.0371   -0.6693 H   0  0  0  0  0
  1  2  4  0  0  0
  1 23  4  0  0  0
  2  3  4  0  0  0
  3  4  4  0  0  0
  4  5  4  0  0  0
  5  6  4  0  0  0
  5 23  4  0  0  0
  6  7  4  0  0  0
  6 24  1  0  0  0
  7  8  4  0  0  0
  7 22  4  0  0  0
  8  9  4  0  0  0
  8 16  4  0  0  0
  9 10  4  0  0  0
  9 28  1  0  0  0
 10 11  4  0  0  0
 10 15  4  0  0  0
 11 12  4  0  0  0
 12 13  4  0  0  0
 13 14  4  0  0  0
 14 15  4  0  0  0
 15 16  4  0  0  0
 16 17  4  0  0  0
 17 18  1  0  0  0
 17 21  4  0  0  0
 18 19  1  0  0  0
 18 30  2  0  0  0
 19 20  1  0  0  0
 20 21  1  0  0  0
 21 22  4  0  0  0
 22 23  4  0  0  0
 24 25  1  0  0  0
 24 29  1  0  0  0
 24 35  1  0  0  0
 25 26  1  0  0  0
 25 33  1  0  0  0
 26 27  1  0  0  0
 26 31  1  0  0  0
 27 28  1  0  0  0
 28 29  1  0  0  0
 31 32  1  0  0  0
 33 34  1  0  0  0
  1 36  1  0  0  0
  2 37  1  0  0  0
  3 38  1  0  0  0
  4 39  1  0  0  0
 11 40  1  0  0  0
 12 41  1  0  0  0
 13 42  1  0  0  0
 14 43  1  0  0  0
 19 44  1  0  0  0
 20 45  1  0  0  0
 20 46  1  0  0  0
 25 47  1  0  0  0
 26 48  1  0  0  0
 27 49  1  0  0  0
 27 50  1  0  0  0
 28 51  1  0  0  0
 31 52  1  0  0  0
 31 53  1  0  0  0
 32 54  1  0  0  0
 32 55  1  0  0  0
 32 56  1  0  0  0
 34 57  1  0  0  0
 34 58  1  0  0  0
 34 59  1  0  0  0
 35 60  1  0  0  0
 35 61  1  0  0  0
 35 62  1  0  0  0
M  END
$$$$
