2aoi_ligand
  -I-interpret- 

169171  0  0  0  0  0  0  0  0999 V2000
   30.0790   24.8920   18.6880 N   0  3  0  0  0
   29.2010   25.8780   18.0980 C   0  0  0  0  0
   27.7210   25.5420   18.1620 C   0  0  0  0  0
   26.9670   26.2870   17.4980 O   0  0  0  0  0
   29.5850   26.0710   16.6090 C   0  0  0  0  0
   29.0930   27.4000   16.0700 C   0  0  0  0  0
   28.3810   27.2330   14.7280 C   0  0  0  0  0
   28.7610   28.3820   13.8940 N   0  0  0  0  0
   30.0020   28.4950   13.4270 C   0  0  0  0  0
   30.9090   27.5630   13.6990 N   0  0  0  0  0
   30.3360   29.5370   12.6810 N   0  0  0  0  0
   27.1790   24.5460   18.8430 N   0  0  0  0  0
   25.7730   24.2390   18.5360 C   0  0  0  0  0
   24.8860   25.2960   19.1750 C   0  0  0  0  0
   25.0030   25.6780   20.3400 O   0  0  0  0  0
   25.5380   22.8650   19.1580 C   0  0  0  0  0
   26.4070   22.9230   20.3670 C   0  0  0  0  0
   27.6510   23.6480   19.9110 C   0  0  0  0  0
   23.9730   25.8150   18.3470 N   0  0  0  0  0
   23.0560   26.7710   18.8180 C   0  0  0  0  0
   21.6960   26.7870   18.1670 C   0  0  0  0  0
   21.0500   27.8350   18.3150 O   0  0  0  0  0
   21.2380   25.7330   17.4960 N   0  0  0  0  0
   19.8890   25.7310   16.9240 C   0  0  0  0  0
   19.0780   24.5120   17.3660 C   0  0  0  0  0
   19.1850   23.4360   16.7900 O   0  0  0  0  0
   19.9080   25.8480   15.3950 C   0  0  0  0  0
   20.7050   27.0920   15.0370 C   0  0  0  0  0
   20.2870   28.2230   15.2400 O   0  0  0  0  0
   21.9100   26.8450   14.5330 N   0  0  0  0  0
   18.2950   24.7570   18.4040 N   0  0  0  0  0
   17.5200   23.7200   19.0590 C   0  0  0  0  0
   16.0330   23.8990   18.7520 C   0  0  0  0  0
   17.8710   23.8390   20.5660 C   0  0  0  0  0
   19.3720   23.6310   20.7140 C   0  0  0  0  0
   20.2330   24.6220   21.1120 C   0  0  0  0  0
   19.9090   22.3850   20.4230 C   0  0  0  0  0
   21.5930   24.4030   21.2340 C   0  0  0  0  0
   21.2610   22.1570   20.5370 C   0  0  0  0  0
   22.1140   23.1600   20.9260 C   0  0  0  0  0
   15.7150   23.7580   17.4440 N   0  3  0  0  0
   14.7010   22.8650   16.8940 C   0  0  0  0  0
   14.7360   21.4920   17.5490 C   0  0  0  0  0
   15.7790   20.8620   17.6700 O   0  0  0  0  0
   14.9080   22.6050   15.3930 C   0  0  0  0  0
   14.0050   21.5660   14.7210 C   0  0  0  0  0
   12.5840   22.1250   14.7650 C   0  0  0  0  0
   14.4030   21.2880   13.2970 C   0  0  0  0  0
   13.5660   21.0300   18.0040 N   0  0  0  0  0
   13.4360   19.6440   18.4600 C   0  0  0  0  0
   12.0430   19.1510   18.0380 C   0  0  0  0  0
   11.0720   19.8770   18.2490 O   0  0  0  0  0
   13.6500   19.5150   19.9640 C   0  0  0  0  0
   13.6060   18.0580   20.4580 C   0  0  0  0  0
   12.1920   17.7140   20.9640 C   0  0  0  0  0
   11.4470   18.6220   21.3420 O   0  0  0  0  0
   11.7570   16.5040   20.8910 N   0  0  0  0  0
   11.9960   17.9290   17.4890 N   0  0  0  0  0
   10.7250   17.3740   17.0400 C   0  0  0  0  0
   10.4650   15.9850   17.6060 C   0  0  0  0  0
   11.3860   15.1440   17.6260 O   0  0  0  0  0
   10.7060   17.3080   15.5060 C   0  0  0  0  0
   10.8990   18.6080   14.9480 O   0  0  0  0  0
    9.2420   15.7250   18.0450 N   0  0  0  0  0
    8.8600   14.3870   18.5030 C   0  0  0  0  0
    8.9510   13.4100   17.3410 C   0  0  0  0  0
    8.9910   13.8500   16.2050 O   0  0  0  0  0
    7.4640   14.3690   19.1160 C   0  0  0  0  0
    6.3580   14.4430   18.0610 C   0  0  0  0  0
    5.0090   14.5190   18.7050 C   0  0  0  0  0
    4.7250   15.7930   19.3840 N   0  0  0  0  0
    4.2150   16.8490   18.7830 C   0  0  0  0  0
    4.0000   17.9300   19.5390 N   0  0  0  0  0
    3.9340   16.8710   17.4840 N   0  0  0  0  0
    9.0310   12.1010   17.5450 N   0  0  0  0  0
    9.0150   11.1430   16.4410 C   0  0  0  0  0
    7.7300   11.2600   15.6100 C   0  0  0  0  0
    6.7040   11.6480   16.1810 O   0  0  0  0  0
    9.0370    9.7720   17.1050 C   0  0  0  0  0
    8.9260    9.9740   18.5580 C   0  0  0  0  0
    9.1660   11.4220   18.8560 C   0  0  0  0  0
    7.7780   10.9390   14.3990 N   0  0  0  0  0
   29.8307   24.7608   19.6686 H   0  0  0  0  0
   29.9790   24.0078   18.1895 H   0  0  0  0  0
   31.0444   25.2144   18.6206 H   0  0  0  0  0
   29.3396   26.7820   18.6910 H   0  0  0  0  0
   29.1219   25.2728   16.0289 H   0  0  0  0  0
   30.6719   26.0495   16.5293 H   0  0  0  0  0
   29.9536   28.0529   15.9247 H   0  0  0  0  0
   28.3865   27.8216   16.7849 H   0  0  0  0  0
   27.3004   27.1976   14.8665 H   0  0  0  0  0
   28.6720   26.2972   14.2509 H   0  0  0  0  0
   28.0689   29.0975   13.6717 H   0  0  0  0  0
   31.8572   27.6521   13.3337 H   0  0  0  0  0
   30.6571   26.7584   14.2731 H   0  0  0  0  0
   29.6421   30.2526   12.4645 H   0  0  0  0  0
   25.5484   24.2353   17.4694 H   0  0  0  0  0
   25.7816   22.0396   18.4890 H   0  0  0  0  0
   24.4909   22.6668   19.3867 H   0  0  0  0  0
   26.6340   21.9291   20.7525 H   0  0  0  0  0
   25.9179   23.4361   21.1950 H   0  0  0  0  0
   28.1288   24.1940   20.7244 H   0  0  0  0  0
   28.4202   22.9608   19.5587 H   0  0  0  0  0
   23.9419   25.5167   17.3721 H   0  0  0  0  0
   23.5011   27.7429   18.6052 H   0  0  0  0  0
   22.8831   26.5287   19.8666 H   0  0  0  0  0
   21.8349   24.9143   17.3781 H   0  0  0  0  0
   19.3921   26.6185   17.3159 H   0  0  0  0  0
   18.8920   25.9237   15.0076 H   0  0  0  0  0
   20.3660   24.9635   14.9524 H   0  0  0  0  0
   22.5323   27.6179   14.2970 H   0  0  0  0  0
   22.2123   25.8826   14.3823 H   0  0  0  0  0
   18.2338   25.7119   18.7574 H   0  0  0  0  0
   17.7547   22.7156   18.7065 H   0  0  0  0  0
   15.7655   24.9157   19.0399 H   0  0  0  0  0
   15.4964   23.1235   19.2986 H   0  0  0  0  0
   17.3273   23.0893   21.1408 H   0  0  0  0  0
   17.5867   24.8212   20.9437 H   0  0  0  0  0
   19.8337   25.6106   21.3386 H   0  0  0  0  0
   19.2519   21.5774   20.1003 H   0  0  0  0  0
   22.2498   25.2051   21.5708 H   0  0  0  0  0
   21.6601   21.1672   20.3156 H   0  0  0  0  0
   23.1869   22.9789   20.9911 H   0  0  0  0  0
   16.5729   23.3590   17.0628 H   0  0  0  0  0
   15.3265   24.6751   17.2240 H   0  0  0  0  0
   13.7556   23.3742   17.0812 H   0  0  0  0  0
   15.9215   22.2146   15.3010 H   0  0  0  0  0
   14.6838   23.5504   14.8989 H   0  0  0  0  0
   14.0891   20.6167   15.2501 H   0  0  0  0  0
   12.2890   22.2829   15.8024 H   0  0  0  0  0
   12.5511   23.0731   14.2283 H   0  0  0  0  0
   11.9015   21.4165   14.2956 H   0  0  0  0  0
   14.3427   22.2094   12.7177 H   0  0  0  0  0
   15.4248   20.9091   13.2740 H   0  0  0  0  0
   13.7289   20.5448   12.8712 H   0  0  0  0  0
   12.7560   21.6492   18.0337 H   0  0  0  0  0
   14.2093   19.0267   18.0027 H   0  0  0  0  0
   12.8453   20.0573   20.4605 H   0  0  0  0  0
   14.6388   19.9124   20.1929 H   0  0  0  0  0
   14.3181   17.9349   21.2740 H   0  0  0  0  0
   13.8631   17.3926   19.6339 H   0  0  0  0  0
   10.7924   16.2926   21.1463 H   0  0  0  0  0
   12.3771   15.7571   20.5779 H   0  0  0  0  0
   12.8528   17.3854   17.3850 H   0  0  0  0  0
    9.9365   18.0320   17.4054 H   0  0  0  0  0
    9.7402   16.9220   15.1798 H   0  0  0  0  0
   11.5109   16.6547   15.1693 H   0  0  0  0  0
   10.8845   18.5491   13.9899 H   0  0  0  0  0
    8.5502   16.4743   18.0645 H   0  0  0  0  0
    9.5528   14.0852   19.2886 H   0  0  0  0  0
    7.3700   15.2414   19.7627 H   0  0  0  0  0
    7.3478   13.4310   19.6590 H   0  0  0  0  0
    6.4016   13.5454   17.4442 H   0  0  0  0  0
    6.5090   15.3380   17.4574 H   0  0  0  0  0
    4.9753   13.7389   19.4655 H   0  0  0  0  0
    4.2707   14.4106   17.9104 H   0  0  0  0  0
    4.9355   15.8630   20.3796 H   0  0  0  0  0
    3.6183   18.7779   19.1197 H   0  0  0  0  0
    4.2176   17.9071   20.5353 H   0  0  0  0  0
    4.1126   16.0473   16.9096 H   0  0  0  0  0
    9.8551   11.3172   15.7688 H   0  0  0  0  0
    9.9635    9.2503   16.8652 H   0  0  0  0  0
    8.2084    9.1631   16.7433 H   0  0  0  0  0
    9.6627    9.3603   19.0764 H   0  0  0  0  0
    7.9324    9.6835   18.8993 H   0  0  0  0  0
    8.4597   11.8095   19.5903 H   0  0  0  0  0
   10.1462   11.5892   19.3025 H   0  0  0  0  0
    6.9370   10.9903   13.8241 H   0  0  0  0  0
    8.6580   10.6265   13.9887 H   0  0  0  0  0
  1  2  1  0  0  0
  2  3  1  0  0  0
  2  5  1  0  0  0
  3  4  2  0  0  0
  3 12  1  0  0  0
  5  6  1  0  0  0
  6  7  1  0  0  0
  7  8  1  0  0  0
  8  9  1  0  0  0
  9 10  1  0  0  0
  9 11  2  0  0  0
 12 13  1  0  0  0
 12 18  1  0  0  0
 13 14  1  0  0  0
 13 16  1  0  0  0
 14 15  2  0  0  0
 14 19  1  0  0  0
 16 17  1  0  0  0
 17 18  1  0  0  0
 19 20  1  0  0  0
 20 21  1  0  0  0
 21 22  2  0  0  0
 21 23  1  0  0  0
 23 24  1  0  0  0
 24 25  1  0  0  0
 24 27  1  0  0  0
 25 26  2  0  0  0
 25 31  1  0  0  0
 27 28  1  0  0  0
 28 29  2  0  0  0
 28 30  1  0  0  0
 31 32  1  0  0  0
 32 33  1  0  0  0
 32 34  1  0  0  0
 33 41  1  0  0  0
 34 35  1  0  0  0
 35 36  4  0  0  0
 35 37  4  0  0  0
 36 38  4  0  0  0
 37 39  4  0  0  0
 38 40  4  0  0  0
 39 40  4  0  0  0
 41 42  1  0  0  0
 42 43  1  0  0  0
 42 45  1  0  0  0
 43 44  2  0  0  0
 43 49  1  0  0  0
 45 46  1  0  0  0
 46 47  1  0  0  0
 46 48  1  0  0  0
 49 50  1  0  0  0
 50 51  1  0  0  0
 50 53  1  0  0  0
 51 52  2  0  0  0
 51 58  1  0  0  0
 53 54  1  0  0  0
 54 55  1  0  0  0
 55 56  2  0  0  0
 55 57  1  0  0  0
 58 59  1  0  0  0
 59 60  1  0  0  0
 59 62  1  0  0  0
 60 61  2  0  0  0
 60 64  1  0  0  0
 62 63  1  0  0  0
 64 65  1  0  0  0
 65 66  1  0  0  0
 65 68  1  0  0  0
 66 67  2  0  0  0
 66 75  1  0  0  0
 68 69  1  0  0  0
 69 70  1  0  0  0
 70 71  1  0  0  0
 71 72  1  0  0  0
 72 73  1  0  0  0
 72 74  2  0  0  0
 75 76  1  0  0  0
 75 81  1  0  0  0
 76 77  1  0  0  0
 76 79  1  0  0  0
 77 78  2  0  0  0
 77 82  1  0  0  0
 79 80  1  0  0  0
 80 81  1  0  0  0
  1 83  1  0  0  0
  1 84  1  0  0  0
  1 85  1  0  0  0
  2 86  1  0  0  0
  5 87  1  0  0  0
  5 88  1  0  0  0
  6 89  1  0  0  0
  6 90  1  0  0  0
  7 91  1  0  0  0
  7 92  1  0  0  0
  8 93  1  0  0  0
 10 94  1  0  0  0
 10 95  1  0  0  0
 11 96  1  0  0  0
 13 97  1  0  0  0
 16 98  1  0  0  0
 16 99  1  0  0  0
 17100  1  0  0  0
 17101  1  0  0  0
 18102  1  0  0  0
 18103  1  0  0  0
 19104  1  0  0  0
 20105  1  0  0  0
 20106  1  0  0  0
 23107  1  0  0  0
 24108  1  0  0  0
 27109  1  0  0  0
 27110  1  0  0  0
 30111  1  0  0  0
 30112  1  0  0  0
 31113  1  0  0  0
 32114  1  0  0  0
 33115  1  0  0  0
 33116  1  0  0  0
 34117  1  0  0  0
 34118  1  0  0  0
 36119  1  0  0  0
 37120  1  0  0  0
 38121  1  0  0  0
 39122  1  0  0  0
 40123  1  0  0  0
 41124  1  0  0  0
 41125  1  0  0  0
 42126  1  0  0  0
 45127  1  0  0  0
 45128  1  0  0  0
 46129  1  0  0  0
 47130  1  0  0  0
 47131  1  0  0  0
 47132  1  0  0  0
 48133  1  0  0  0
 48134  1  0  0  0
 48135  1  0  0  0
 49136  1  0  0  0
 50137  1  0  0  0
 53138  1  0  0  0
 53139  1  0  0  0
 54140  1  0  0  0
 54141  1  0  0  0
 57142  1  0  0  0
 57143  1  0  0  0
 58144  1  0  0  0
 59145  1  0  0  0
 62146  1  0  0  0
 62147  1  0  0  0
 63148  1  0  0  0
 64149  1  0  0  0
 65150  1  0  0  0
 68151  1  0  0  0
 68152  1  0  0  0
 69153  1  0  0  0
 69154  1  0  0  0
 70155  1  0  0  0
 70156  1  0  0  0
 71157  1  0  0  0
 73158  1  0  0  0
 73159  1  0  0  0
 74160  1  0  0  0
 76161  1  0  0  0
 79162  1  0  0  0
 79163  1  0  0  0
 80164  1  0  0  0
 80165  1  0  0  0
 81166  1  0  0  0
 81167  1  0  0  0
 82168  1  0  0  0
 82169  1  0  0  0
M  END
$$$$
