### 
### Created by X-TOOL on Mon Sep 10 21:12:53 2018
### 

@<TRIPOS>MOLECULE
2aoi_ligand
  171   173     1     0     0
SMALL
GAST_HUCK


@<TRIPOS>ATOM
      1 N          30.0790   24.8920   18.6880 N.4       1 ARG         0.2379
      2 CA         29.2010   25.8780   18.0980 C.3       1 ARG         0.0653
      3 C          27.7210   25.5420   18.1620 C.2       1 ARG         0.2292
      4 O          26.9670   26.2870   17.4980 O.2       1 ARG        -0.3905
      5 CB         29.5850   26.0710   16.6090 C.3       1 ARG         0.0110
      6 CG         29.0930   27.4000   16.0700 C.3       1 ARG        -0.0125
      7 CD         28.3810   27.2330   14.7280 C.3       1 ARG         0.0629
      8 NE         28.7610   28.3820   13.8940 N.pl3     1 ARG        -0.2723
      9 CZ         30.0020   28.4950   13.4270 C.cat     1 ARG         0.2882
     10 NH1        30.9090   27.5630   13.6990 N.pl3     1 ARG        -0.2849
     11 NH2        30.3360   29.5370   12.6810 N.pl3     1 ARG        -0.2849
     12 N          27.1790   24.5460   18.8430 N.am      1 PRO        -0.2471
     13 CA         25.7730   24.2390   18.5360 C.3       1 PRO         0.1339
     14 C          24.8860   25.2960   19.1750 C.2       1 PRO         0.2039
     15 O          25.0030   25.6780   20.3400 O.2       1 PRO        -0.3944
     16 CB         25.5380   22.8650   19.1580 C.3       1 PRO        -0.0104
     17 CG         26.4070   22.9230   20.3670 C.3       1 PRO        -0.0281
     18 CD         27.6510   23.6480   19.9110 C.3       1 PRO         0.0371
     19 N          23.9730   25.8150   18.3470 N.am      1 GLY        -0.2664
     20 CA         23.0560   26.7710   18.8180 C.3       1 GLY         0.1201
     21 C          21.6960   26.7870   18.1670 C.2       1 GLY         0.2009
     22 O          21.0500   27.8350   18.3150 O.2       1 GLY        -0.3947
     23 N          21.2380   25.7330   17.4960 N.am      1 ASN        -0.2618
     24 CA         19.8890   25.7310   16.9240 C.3       1 ASN         0.1474
     25 C          19.0780   24.5120   17.3660 C.2       1 ASN         0.2046
     26 O          19.1850   23.4360   16.7900 O.2       1 ASN        -0.3943
     27 CB         19.9080   25.8480   15.3950 C.3       1 ASN         0.0773
     28 CG         20.7050   27.0920   15.0370 C.2       1 ASN         0.1780
     29 OD1        20.2870   28.2230   15.2400 O.2       1 ASN        -0.3970
     30 ND2        21.9100   26.8450   14.5330 N.am      1 ASN        -0.3007
     31 N          18.2950   24.7570   18.4040 N.am      1 FRD        -0.2748
     32 CA         17.5200   23.7200   19.0590 C.3       1 FRD         0.0911
     33 C          16.0330   23.8990   18.7520 C.3       1 FRD        -0.0062
     34 CB         17.8710   23.8390   20.5660 C.3       1 FRD         0.0089
     35 CG         19.3720   23.6310   20.7140 C.ar      1 FRD        -0.0406
     36 CD1        20.2330   24.6220   21.1120 C.ar      1 FRD        -0.0603
     37 CD2        19.9090   22.3850   20.4230 C.ar      1 FRD        -0.0603
     38 CE1        21.5930   24.4030   21.2340 C.ar      1 FRD        -0.0686
     39 CE2        21.2610   22.1570   20.5370 C.ar      1 FRD        -0.0686
     40 CZ         22.1140   23.1600   20.9260 C.ar      1 FRD        -0.0687
     41 N          15.7150   23.7580   17.4440 N.4       1 LEU         0.2479
     42 CA         14.7010   22.8650   16.8940 C.3       1 LEU         0.0671
     43 C          14.7360   21.4920   17.5490 C.2       1 LEU         0.2268
     44 O          15.7790   20.8620   17.6700 O.2       1 LEU        -0.3907
     45 CB         14.9080   22.6050   15.3930 C.3       1 LEU         0.0103
     46 CG         14.0050   21.5660   14.7210 C.3       1 LEU        -0.0394
     47 CD1        12.5840   22.1250   14.7650 C.3       1 LEU        -0.0623
     48 CD2        14.4030   21.2880   13.2970 C.3       1 LEU        -0.0623
     49 N          13.5660   21.0300   18.0040 N.am      1 GLN        -0.2609
     50 CA         13.4360   19.6440   18.4600 C.3       1 GLN         0.1331
     51 C          12.0430   19.1510   18.0380 C.2       1 GLN         0.2041
     52 O          11.0720   19.8770   18.2490 O.2       1 GLN        -0.3944
     53 CB         13.6500   19.5150   19.9640 C.3       1 GLN         0.0045
     54 CG         13.6060   18.0580   20.4580 C.3       1 GLN         0.0412
     55 CD         12.1920   17.7140   20.9640 C.2       1 GLN         0.1737
     56 OE1        11.4470   18.6220   21.3420 O.2       1 GLN        -0.3973
     57 NE2        11.7570   16.5040   20.8910 N.am      1 GLN        -0.3009
     58 N          11.9960   17.9290   17.4890 N.am      1 SER        -0.2616
     59 CA         10.7250   17.3740   17.0400 C.3       1 SER         0.1539
     60 C          10.4650   15.9850   17.6060 C.2       1 SER         0.2062
     61 O          11.3860   15.1440   17.6260 O.2       1 SER        -0.3943
     62 CB         10.7060   17.3080   15.5060 C.3       1 SER         0.0843
     63 OG         10.8990   18.6080   14.9480 O.3       1 SER        -0.3903
     64 N           9.2420   15.7250   18.0450 N.am      1 ARG        -0.2637
     65 CA          8.8600   14.3870   18.5030 C.3       1 ARG         0.1313
     66 C           8.9510   13.4100   17.3410 C.2       1 ARG         0.2064
     67 O           8.9910   13.8500   16.2050 O.2       1 ARG        -0.3942
     68 CB          7.4640   14.3690   19.1160 C.3       1 ARG        -0.0092
     69 CG          6.3580   14.4430   18.0610 C.3       1 ARG        -0.0156
     70 CD          5.0090   14.5190   18.7050 C.3       1 ARG         0.0627
     71 NE          4.7250   15.7930   19.3840 N.pl3     1 ARG        -0.2723
     72 CZ          4.2150   16.8490   18.7830 C.cat     1 ARG         0.2882
     73 NH1         4.0000   17.9300   19.5390 N.pl3     1 ARG        -0.2849
     74 NH2         3.9340   16.8710   17.4840 N.pl3     1 ARG        -0.2849
     75 N           9.0310   12.1010   17.5450 N.am      1 PRO        -0.2498
     76 CA          9.0150   11.1430   16.4410 C.3       1 PRO         0.1334
     77 C           7.7300   11.2600   15.6100 C.2       1 PRO         0.1994
     78 O           6.7040   11.6480   16.1810 O.2       1 PRO        -0.3947
     79 CB          9.0370    9.7720   17.1050 C.3       1 PRO        -0.0104
     80 CG          8.9260    9.9740   18.5580 C.3       1 PRO        -0.0281
     81 CD          9.1660   11.4220   18.8560 C.3       1 PRO         0.0369
     82 N           7.7780   10.9390   14.3990 N.am      1 NH2        -0.2990
     83 H1         31.0354   25.1980   18.5996 H         1 ARG         0.2015
     84 H2         29.9628   24.0110   18.2122 H         1 ARG         0.2015
     85 H3         29.8510   24.7798   19.6634 H         1 ARG         0.2015
     86 H4         29.3552   26.8258   18.6346 H         1 ARG         0.1098
     87 H5         29.1374   25.2589   16.0174 H         1 ARG         0.0347
     88 H6         30.6803   26.0321   16.5155 H         1 ARG         0.0347
     89 H7         29.9536   28.0719   15.9364 H         1 ARG         0.0302
     90 H8         28.3920   27.8414   16.7937 H         1 ARG         0.0302
     91 H9         27.2913   27.2189   14.8777 H         1 ARG         0.0689
     92 H10        28.6972   26.2959   14.2466 H         1 ARG         0.0689
     93 H11        28.0621   29.1046   13.6695 H         1 ARG         0.2642
     94 H12        31.8680   27.6558   13.3348 H         1 ARG         0.2615
     95 H13        30.6532   26.7477   14.2741 H         1 ARG         0.2615
     96 H14        29.6368   30.2625   12.4670 H         1 ARG         0.2615
     97 H15        31.2949   29.6220   12.3148 H         1 ARG         0.2615
     98 H16        25.5985   24.2106   17.4503 H         1 PRO         0.0802
     99 H17        25.8514   22.0590   18.4782 H         1 PRO         0.0313
    100 H18        24.4817   22.7246   19.4308 H         1 PRO         0.0313
    101 H19        26.6546   21.9095   20.7157 H         1 PRO         0.0287
    102 H20        25.9094   23.4778   21.1761 H         1 PRO         0.0287
    103 H21        28.0913   24.2242   20.7381 H         1 PRO         0.0524
    104 H22        28.3953   22.9376   19.5220 H         1 PRO         0.0524
    105 H23        23.9425   25.5226   17.3912 H         1 GLY         0.1881
    106 H24        23.5062   27.7640   18.6725 H         1 GLY         0.0763
    107 H25        22.9083   26.5893   19.8928 H         1 GLY         0.0763
    108 H26        21.8232   24.9304   17.3804 H         1 ASN         0.1885
    109 H27        19.3747   26.6225   17.3121 H         1 ASN         0.0826
    110 H28        18.8804   25.9387   15.0133 H         1 ASN         0.0551
    111 H29        20.3847   24.9587   14.9570 H         1 ASN         0.0551
    112 H30        22.5062   27.6029   14.2682 H         1 ASN         0.1814
    113 H31        22.2203   25.9013   14.4186 H         1 ASN         0.1814
    114 H32        18.2350   25.6931   18.7505 H         1 FRD         0.1859
    115 H33        17.8306   22.7305   18.6923 H         1 FRD         0.0632
    116 H34        15.7336   24.9077   19.0728 H         1 FRD         0.0839
    117 H35        15.4695   23.1491   19.3266 H         1 FRD         0.0839
    118 H36        17.3291   23.0714   21.1379 H         1 FRD         0.0450
    119 H37        17.5935   24.8367   20.9369 H         1 FRD         0.0450
    120 H38        19.8359   25.6051   21.3374 H         1 FRD         0.0557
    121 H39        19.2556   21.5818   20.1021 H         1 FRD         0.0557
    122 H40        22.2462   25.2006   21.5689 H         1 FRD         0.0599
    123 H41        21.6579   21.1726   20.3168 H         1 FRD         0.0599
    124 H42        23.1810   22.9798   20.9907 H         1 FRD         0.0559
    125 H43        16.5749   23.4898   16.9916 H         1 LEU         0.2036
    126 H44        15.4475   24.6802   17.1374 H         1 LEU         0.2036
    127 H45        13.7146   23.3246   17.0545 H         1 LEU         0.1099
    128 H46        15.9481   22.2739   15.2569 H         1 LEU         0.0348
    129 H47        14.7559   23.5605   14.8696 H         1 LEU         0.0348
    130 H48        14.0520   20.6247   15.2881 H         1 LEU         0.0299
    131 H49        11.8942   21.4108   14.2916 H         1 LEU         0.0232
    132 H50        12.5495   23.0819   14.2236 H         1 LEU         0.0232
    133 H51        12.2850   22.2847   15.8115 H         1 LEU         0.0232
    134 H52        15.4267   20.8861   13.2742 H         1 LEU         0.0232
    135 H53        14.3625   22.2212   12.7161 H         1 LEU         0.0232
    136 H54        13.7109   20.5534   12.8595 H         1 LEU         0.0232
    137 H55        12.7719   21.6371   18.0332 H         1 GLN         0.1885
    138 H56        14.1979   19.0316   17.9555 H         1 GLN         0.0801
    139 H57        12.8619   20.0833   20.4797 H         1 GLN         0.0337
    140 H58        14.6329   19.9402   20.2154 H         1 GLN         0.0337
    141 H59        14.3273   17.9299   21.2785 H         1 GLN         0.0504
    142 H60        13.8698   17.3845   19.6293 H         1 GLN         0.0504
    143 H61        10.8391   16.2820   21.2198 H         1 GLN         0.1814
    144 H62        12.3372   15.7865   20.5056 H         1 GLN         0.1814
    145 H63        12.8360   17.3961   17.3871 H         1 SER         0.1884
    146 H64         9.9187   18.0416   17.3779 H         1 SER         0.0823
    147 H65         9.7358   16.9112   15.1725 H         1 SER         0.0606
    148 H66        11.5119   16.6430   15.1621 H         1 SER         0.0606
    149 H67        10.2029   19.1839   15.2416 H         1 SER         0.2097
    150 H68         8.5638   16.4596   18.0641 H         1 ARG         0.1883
    151 H69         9.5741   14.0728   19.2785 H         1 ARG         0.0800
    152 H70         7.3646   15.2312   19.7918 H         1 ARG         0.0313
    153 H71         7.3427   13.4380   19.6891 H         1 ARG         0.0313
    154 H72         6.4043   13.5451   17.4272 H         1 ARG         0.0301
    155 H73         6.5116   15.3382   17.4405 H         1 ARG         0.0301
    156 H74         4.9375   13.7110   19.4480 H         1 ARG         0.0689
    157 H75         4.2477   14.3687   17.9254 H         1 ARG         0.0689
    158 H76         4.9376   15.8637   20.3894 H         1 ARG         0.2642
    159 H77         3.6028   18.7821   19.1181 H         1 ARG         0.2615
    160 H78         4.2315   17.9110   20.5425 H         1 ARG         0.2615
    161 H79         4.1019   16.0348   16.9065 H         1 ARG         0.2615
    162 H80         3.5484   17.7243   17.0549 H         1 ARG         0.2615
    163 H81         9.8930   11.2853   15.7939 H         1 PRO         0.0802
    164 H82         9.9803    9.2574   16.8698 H         1 PRO         0.0313
    165 H83         8.1906    9.1685   16.7455 H         1 PRO         0.0313
    166 H84         9.6764    9.3591   19.0765 H         1 PRO         0.0287
    167 H85         7.9195    9.6874   18.8967 H         1 PRO         0.0287
    168 H86         8.4184   11.8009   19.5684 H         1 PRO         0.0524
    169 H87        10.1746   11.5715   19.2687 H         1 PRO         0.0524
    170 H88         6.9572   11.0044   13.8315 H         1 NH2         0.1815
    171 H89         8.6371   10.6176   14.0006 H         1 NH2         0.1815
@<TRIPOS>BOND
     1    1    2 1  
     2    2    3 1  
     3    2    5 1  
     4    3    4 2  
     5    3   12 am 
     6    5    6 1  
     7    6    7 1  
     8    7    8 1  
     9    8    9 ar 
    10    9   10 ar 
    11    9   11 ar 
    12   12   13 1  
    13   12   18 1  
    14   13   14 1  
    15   13   16 1  
    16   14   15 2  
    17   14   19 am 
    18   16   17 1  
    19   17   18 1  
    20   19   20 1  
    21   20   21 1  
    22   21   22 2  
    23   21   23 am 
    24   23   24 1  
    25   24   25 1  
    26   24   27 1  
    27   25   26 2  
    28   25   31 am 
    29   27   28 1  
    30   28   29 2  
    31   28   30 am 
    32   31   32 1  
    33   32   33 1  
    34   32   34 1  
    35   33   41 1  
    36   34   35 1  
    37   35   36 ar 
    38   35   37 ar 
    39   36   38 ar 
    40   37   39 ar 
    41   38   40 ar 
    42   39   40 ar 
    43   41   42 1  
    44   42   43 1  
    45   42   45 1  
    46   43   44 2  
    47   43   49 am 
    48   45   46 1  
    49   46   47 1  
    50   46   48 1  
    51   49   50 1  
    52   50   51 1  
    53   50   53 1  
    54   51   52 2  
    55   51   58 am 
    56   53   54 1  
    57   54   55 1  
    58   55   56 2  
    59   55   57 am 
    60   58   59 1  
    61   59   60 1  
    62   59   62 1  
    63   60   61 2  
    64   60   64 am 
    65   62   63 1  
    66   64   65 1  
    67   65   66 1  
    68   65   68 1  
    69   66   67 2  
    70   66   75 am 
    71   68   69 1  
    72   69   70 1  
    73   70   71 1  
    74   71   72 ar 
    75   72   73 ar 
    76   72   74 ar 
    77   75   76 1  
    78   75   81 1  
    79   76   77 1  
    80   76   79 1  
    81   77   78 2  
    82   77   82 am 
    83   79   80 1  
    84   80   81 1  
    85    1   83 1  
    86    1   84 1  
    87    1   85 1  
    88    2   86 1  
    89    5   87 1  
    90    5   88 1  
    91    6   89 1  
    92    6   90 1  
    93    7   91 1  
    94    7   92 1  
    95    8   93 1  
    96   10   94 1  
    97   10   95 1  
    98   11   96 1  
    99   11   97 1  
   100   13   98 1  
   101   16   99 1  
   102   16  100 1  
   103   17  101 1  
   104   17  102 1  
   105   18  103 1  
   106   18  104 1  
   107   19  105 1  
   108   20  106 1  
   109   20  107 1  
   110   23  108 1  
   111   24  109 1  
   112   27  110 1  
   113   27  111 1  
   114   30  112 1  
   115   30  113 1  
   116   31  114 1  
   117   32  115 1  
   118   33  116 1  
   119   33  117 1  
   120   34  118 1  
   121   34  119 1  
   122   36  120 1  
   123   37  121 1  
   124   38  122 1  
   125   39  123 1  
   126   40  124 1  
   127   41  125 1  
   128   41  126 1  
   129   42  127 1  
   130   45  128 1  
   131   45  129 1  
   132   46  130 1  
   133   47  131 1  
   134   47  132 1  
   135   47  133 1  
   136   48  134 1  
   137   48  135 1  
   138   48  136 1  
   139   49  137 1  
   140   50  138 1  
   141   53  139 1  
   142   53  140 1  
   143   54  141 1  
   144   54  142 1  
   145   57  143 1  
   146   57  144 1  
   147   58  145 1  
   148   59  146 1  
   149   62  147 1  
   150   62  148 1  
   151   63  149 1  
   152   64  150 1  
   153   65  151 1  
   154   68  152 1  
   155   68  153 1  
   156   69  154 1  
   157   69  155 1  
   158   70  156 1  
   159   70  157 1  
   160   71  158 1  
   161   73  159 1  
   162   73  160 1  
   163   74  161 1  
   164   74  162 1  
   165   76  163 1  
   166   79  164 1  
   167   79  165 1  
   168   80  166 1  
   169   80  167 1  
   170   81  168 1  
   171   81  169 1  
   172   82  170 1  
   173   82  171 1  
@<TRIPOS>SUBSTRUCTURE
     1 ARG         1

