6eq2_ligand
  -I-interpret- 

 15 16  0  0  0  0  0  0  0  0999 V2000
  -13.2260   13.0340   12.6870 C   0  0  0  0  0
  -13.8530   11.6830   14.3040 C   0  0  0  0  0
  -14.4670   10.9040   15.2760 C   0  0  0  0  0
  -13.6480   10.1170   16.0760 C   0  0  0  0  0
  -12.2730   10.1350   15.8950 C   0  0  0  0  0
  -12.4200   11.6230   14.1980 C   0  0  0  0  0
  -13.2140   13.9610   11.6420 N   0  0  0  0  0
  -14.3650   12.5760   13.3470 N   0  0  0  0  0
  -11.6250   10.8740   14.9700 N   0  0  0  0  0
  -12.1010   12.4920   13.1770 N   0  0  0  0  0
  -15.5492   10.9098   15.4062 H   0  0  0  0  0
  -14.0869    9.4842   16.8474 H   0  0  0  0  0
  -11.6703    9.5049   16.5491 H   0  0  0  0  0
  -14.0898   14.3599   11.3040 H   0  0  0  0  0
  -12.3294   14.2389   11.2169 H   0  0  0  0  0
  1  7  1  0  0  0
  8  1  4  0  0  0
  1 10  4  0  0  0
  2  3  4  0  0  0
  2  6  4  0  0  0
  2  8  4  0  0  0
  3  4  4  0  0  0
  4  5  4  0  0  0
  5  9  4  0  0  0
  6  9  4  0  0  0
  6 10  4  0  0  0
  3 11  1  0  0  0
  4 12  1  0  0  0
  5 13  1  0  0  0
  7 14  1  0  0  0
  7 15  1  0  0  0
M  END
$$$$
