4u4x_ligand
  -I-interpret- 

 25 26  0  0  0  0  0  0  0  0999 V2000
  -24.3710  -18.9470   18.0010 C   0  0  0  0  0
  -23.7260  -18.4710   16.7710 N   0  0  0  0  0
  -23.4560  -16.8650   16.8340 S   0  0  0  0  0
  -24.7540  -16.1490   16.9290 O   0  0  0  0  0
  -22.5900  -16.5560   15.6660 O   0  0  0  0  0
  -22.5940  -16.6970   18.3290 C   0  0  0  0  0
  -21.8460  -15.5820   18.4630 N   0  0  0  0  0
  -21.1330  -15.3860   19.6490 C   0  0  0  0  0
  -21.1940  -16.3240   20.6560 C   0  0  0  0  0
  -21.9670  -17.4660   20.5200 C   0  0  0  0  0
  -22.7000  -17.6900   19.3410 C   0  0  0  0  0
  -23.4880  -18.7880   19.1750 N   0  0  0  0  0
  -23.6070  -19.8530   20.2050 C   0  0  0  0  0
  -22.3180  -20.6860   20.2460 C   0  0  0  0  0
  -24.5989  -20.0063   17.8825 H   0  0  0  0  0
  -25.2733  -18.3584   18.1666 H   0  0  0  0  0
  -23.4793  -19.0671   15.9809 H   0  0  0  0  0
  -20.5273  -14.4889   19.7774 H   0  0  0  0  0
  -20.6261  -16.1657   21.5728 H   0  0  0  0  0
  -22.0071  -18.1938   21.3304 H   0  0  0  0  0
  -24.4468  -20.5018   19.9562 H   0  0  0  0  0
  -23.7696  -19.3938   21.1801 H   0  0  0  0  0
  -22.1521  -21.1445   19.2711 H   0  0  0  0  0
  -21.4763  -20.0388   20.4925 H   0  0  0  0  0
  -22.4137  -21.4641   21.0033 H   0  0  0  0  0
  1  2  1  0  0  0
  1 12  1  0  0  0
  2  3  1  0  0  0
  3  4  2  0  0  0
  3  5  2  0  0  0
  3  6  1  0  0  0
  6  7  4  0  0  0
  6 11  4  0  0  0
  7  8  4  0  0  0
  8  9  4  0  0  0
  9 10  4  0  0  0
 10 11  4  0  0  0
 11 12  1  0  0  0
 12 13  1  0  0  0
 13 14  1  0  0  0
  1 15  1  0  0  0
  1 16  1  0  0  0
  2 17  1  0  0  0
  8 18  1  0  0  0
  9 19  1  0  0  0
 10 20  1  0  0  0
 13 21  1  0  0  0
 13 22  1  0  0  0
 14 23  1  0  0  0
 14 24  1  0  0  0
 14 25  1  0  0  0
M  END
$$$$
