6db4_ligand
  -I-interpret- 

 43 47  0  0  0  0  0  0  0  0999 V2000
    1.2570   12.1540   -3.5690 N   0  0  0  0  0
   -2.8670   18.1060   -5.2920 C   0  0  0  0  0
    2.6440   14.1190   -3.2560 N   0  0  0  0  0
   -3.7680   18.9970   -5.9800 C   0  0  0  0  0
   -0.5070   17.6080   -5.2980 C   0  0  0  0  0
   -1.5760   19.7130   -6.4370 C   0  0  0  0  0
    0.3060   14.1820   -4.1000 C   0  0  0  0  0
   -3.3830   14.1430   -6.8090 C   0  0  0  0  0
   -2.1300   14.0160   -6.2160 C   0  0  0  0  0
   -3.0740   19.8810   -6.6920 C   0  0  0  0  0
   -0.0290   22.1040   -7.2830 N   0  0  0  0  0
   -4.3100   12.6340   -5.2060 C   0  0  0  0  0
   -1.9610   13.2090   -5.0930 C   0  0  0  0  0
   -4.4680   13.4530   -6.3020 C   0  0  0  0  0
   -0.7150   16.4940   -4.4780 C   0  0  0  0  0
   -2.0130   16.2380   -4.0270 C   0  0  0  0  0
   -3.0790   17.0180   -4.4380 C   0  0  0  0  0
   -1.5630   18.4280   -5.7070 C   0  0  0  0  0
    0.4150   15.5890   -4.1350 C   0  0  0  0  0
    1.5690   16.2000   -3.8150 N   0  0  0  0  0
    2.5980   15.4450   -3.4110 C   0  0  0  0  0
    1.4940   13.4960   -3.5910 C   0  0  0  0  0
    0.0000   11.9070   -4.0710 C   0  0  0  0  0
   -0.6320   13.1050   -4.4250 C   0  0  0  0  0
   -3.0680   12.5120   -4.5940 C   0  0  0  0  0
   -0.6460   19.7230   -7.5620 N   0  0  0  0  0
    0.0380   20.9160   -7.8730 C   0  0  0  0  0
   -4.8557   18.9529   -5.9250 H   0  0  0  0  0
    0.5053   17.8430   -5.6269 H   0  0  0  0  0
   -1.1869   20.5902   -5.9201 H   0  0  0  0  0
   -3.5091   14.7897   -7.6773 H   0  0  0  0  0
   -1.2765   14.5508   -6.6325 H   0  0  0  0  0
   -3.5117   20.6206   -7.3625 H   0  0  0  0  0
   -0.6457   22.2417   -6.4823 H   0  0  0  0  0
   -5.1633   12.0787   -4.8166 H   0  0  0  0  0
   -5.4474   13.5569   -6.7689 H   0  0  0  0  0
   -2.1882   15.4100   -3.3401 H   0  0  0  0  0
   -4.0871   16.7844   -4.0956 H   0  0  0  0  0
    3.5176   15.9819   -3.1783 H   0  0  0  0  0
   -0.4422   10.9165   -4.1782 H   0  0  0  0  0
   -2.9552   11.8699   -3.7204 H   0  0  0  0  0
   -0.4933   18.8795   -8.1149 H   0  0  0  0  0
    0.7207   20.8544   -8.7205 H   0  0  0  0  0
 22  1  4  0  0  0
 23  1  4  0  0  0
  2  4  1  0  0  0
  2 17  4  0  0  0
 18  2  4  0  0  0
 21  3  4  0  0  0
 22  3  4  0  0  0
 10  4  2  0  0  0
  5 15  4  0  0  0
 18  5  4  0  0  0
  6 10  1  0  0  0
  6 18  1  0  0  0
 26  6  1  0  0  0
 19  7  4  0  0  0
  7 22  4  0  0  0
  7 24  4  0  0  0
  9  8  4  0  0  0
  8 14  4  0  0  0
 13  9  4  0  0  0
 27 11  2  0  0  0
 12 14  4  0  0  0
 25 12  4  0  0  0
 24 13  1  0  0  0
 13 25  4  0  0  0
 15 16  4  0  0  0
 15 19  1  0  0  0
 17 16  4  0  0  0
 19 20  4  0  0  0
 20 21  4  0  0  0
 24 23  4  0  0  0
 26 27  1  0  0  0
  4 28  1  0  0  0
  5 29  1  0  0  0
  6 30  1  0  0  0
  8 31  1  0  0  0
  9 32  1  0  0  0
 10 33  1  0  0  0
 11 34  1  0  0  0
 12 35  1  0  0  0
 14 36  1  0  0  0
 16 37  1  0  0  0
 17 38  1  0  0  0
 21 39  1  0  0  0
 23 40  1  0  0  0
 25 41  1  0  0  0
 26 42  1  0  0  0
 27 43  1  0  0  0
M  END
$$$$
