### 
### Created by X-TOOL on Wed Jan  1 15:39:36 2020
### 

@<TRIPOS>MOLECULE
6db4_ligand
   27    31     1     0     0
SMALL
GAST_HUCK


@<TRIPOS>ATOM
      1 N3          1.2570   12.1540   -3.5690 N.pl3     1 G4Y        -0.4690
      2 C4         -2.8670   18.1060   -5.2920 C.ar      1 G4Y        -0.5051
      3 N2          2.6440   14.1190   -3.2560 N.ar      1 G4Y        -0.7691
      4 C7         -3.7680   18.9970   -5.9800 C.2       1 G4Y        -0.4594
      5 C6         -0.5070   17.6080   -5.2980 C.ar      1 G4Y        -0.5769
      6 C9         -1.5760   19.7130   -6.4370 C.3       1 G4Y        -0.9387
      7 C13         0.3060   14.1820   -4.1000 C.ar      1 G4Y        -0.3978
      8 C20        -3.3830   14.1430   -6.8090 C.ar      1 G4Y        -0.5788
      9 C21        -2.1300   14.0160   -6.2160 C.ar      1 G4Y        -0.5928
     10 C8         -3.0740   19.8810   -6.6920 C.2       1 G4Y        -0.7343
     11 N5         -0.0290   22.1040   -7.2830 N.pl3     1 G4Y        -0.5811
     12 C18        -4.3100   12.6340   -5.2060 C.ar      1 G4Y        -0.5788
     13 C16        -1.9610   13.2090   -5.0930 C.ar      1 G4Y        -0.5063
     14 C19        -4.4680   13.4530   -6.3020 C.ar      1 G4Y        -0.5388
     15 C1         -0.7150   16.4940   -4.4780 C.ar      1 G4Y        -0.5413
     16 C2         -2.0130   16.2380   -4.0270 C.ar      1 G4Y        -0.6250
     17 C3         -3.0790   17.0180   -4.4380 C.ar      1 G4Y        -0.5935
     18 C5         -1.5630   18.4280   -5.7070 C.ar      1 G4Y        -0.7042
     19 C10         0.4150   15.5890   -4.1350 C.ar      1 G4Y        -0.4811
     20 N1          1.5690   16.2000   -3.8150 N.ar      1 G4Y        -0.8310
     21 C11         2.5980   15.4450   -3.4110 C.ar      1 G4Y        -0.5613
     22 C12         1.4940   13.4960   -3.5910 C.ar      1 G4Y        -0.2793
     23 C14         0.0000   11.9070   -4.0710 C.2       1 G4Y        -0.2770
     24 C15        -0.6320   13.1050   -4.4250 C.2       1 G4Y        -0.3902
     25 C17        -3.0680   12.5120   -4.5940 C.ar      1 G4Y        -0.5928
     26 N4         -0.6460   19.7230   -7.5620 N.pl3     1 G4Y        -0.9668
     27 C22         0.0380   20.9160   -7.8730 C.cat     1 G4Y        -0.9293
@<TRIPOS>BOND
     1   22    1 1  
     2   23    1 1  
     3    2    4 1  
     4    2   17 ar 
     5   18    2 ar 
     6   21    3 ar 
     7   22    3 ar 
     8   10    4 2  
     9    5   15 ar 
    10   18    5 ar 
    11    6   10 1  
    12    6   18 1  
    13   26    6 1  
    14   19    7 ar 
    15    7   22 ar 
    16    7   24 1  
    17    9    8 ar 
    18    8   14 ar 
    19   13    9 ar 
    20   27   11 ar 
    21   12   14 ar 
    22   25   12 ar 
    23   24   13 1  
    24   13   25 ar 
    25   15   16 ar 
    26   15   19 1  
    27   17   16 ar 
    28   19   20 ar 
    29   20   21 ar 
    30   24   23 2  
    31   26   27 ar 
@<TRIPOS>SUBSTRUCTURE
     1 G4Y         1

