4qt1_ligand
  -I-interpret- 

 49 51  0  0  0  0  0  0  0  0999 V2000
    4.6240  -15.7030   -5.5220 S   0  0  0  0  0
    3.4380  -16.6520   -6.2020 N   0  0  0  0  0
   -0.4080  -18.0550   -4.3940 C   0  0  0  0  0
   -1.3470  -17.3490   -3.7080 N   0  0  0  0  0
   -0.1790  -15.2870   -3.9880 N   0  0  0  0  0
   -1.3100  -13.2330   -3.4000 C   0  0  0  0  0
   -1.2610  -15.9620   -3.5850 C   0  0  0  0  0
   -0.1690  -13.9360   -3.9100 C   0  0  0  0  0
   -2.3910  -13.9250   -3.0020 N   0  0  0  0  0
    3.0850  -17.9250   -5.5140 C   0  0  0  0  0
   -1.0260  -11.8900   -3.4250 N   0  0  0  0  0
    0.8260  -12.9110   -4.2410 C   0  0  0  0  0
    0.6870  -17.4740   -4.9290 N   0  0  0  0  0
    4.3270  -14.3800   -5.9930 O   0  0  0  0  0
    4.5620  -15.9840   -4.1390 O   0  0  0  0  0
    0.2480  -11.7280   -3.9410 C   0  0  0  0  0
   -0.5330  -19.2570   -4.5350 O   0  0  0  0  0
    1.6140  -18.3040   -5.7100 C   0  0  0  0  0
   -2.3800  -15.2610   -3.0910 C   0  0  0  0  0
    6.0840  -16.4680   -6.2820 C   0  0  0  0  0
    2.8400  -16.2100   -7.4860 C   0  0  0  0  0
    1.3500  -16.5690   -7.5620 C   0  0  0  0  0
    1.1880  -18.0540   -7.1750 C   0  0  0  0  0
    7.3430  -15.6820   -5.9300 C   0  0  0  0  0
    7.6190  -15.8890   -4.4480 C   0  0  0  0  0
    8.5240  -16.2820   -6.7170 C   0  0  0  0  0
   -2.1280  -17.8426   -3.2758 H   0  0  0  0  0
    3.2603  -17.7920   -4.4464 H   0  0  0  0  0
    3.6982  -18.7199   -5.9386 H   0  0  0  0  0
    1.8254  -13.0709   -4.6455 H   0  0  0  0  0
    0.8669  -16.4792   -4.7937 H   0  0  0  0  0
    0.7278  -10.7604   -4.0878 H   0  0  0  0  0
    1.5563  -19.3478   -5.4014 H   0  0  0  0  0
   -3.2593  -15.8213   -2.7732 H   0  0  0  0  0
    5.9593  -16.4706   -7.3648 H   0  0  0  0  0
    6.1859  -17.4864   -5.9071 H   0  0  0  0  0
    3.3595  -16.7132   -8.3014 H   0  0  0  0  0
    2.9395  -15.1271   -7.5598 H   0  0  0  0  0
    0.9770  -16.4036   -8.5728 H   0  0  0  0  0
    0.7790  -15.9405   -6.8786 H   0  0  0  0  0
    0.1383  -18.3274   -7.2820 H   0  0  0  0  0
    1.8229  -18.6533   -7.8275 H   0  0  0  0  0
    7.2186  -14.6252   -6.1660 H   0  0  0  0  0
    6.7706  -15.5264   -3.8676 H   0  0  0  0  0
    7.7675  -16.9509   -4.2522 H   0  0  0  0  0
    8.5159  -15.3374   -4.1663 H   0  0  0  0  0
    8.6475  -17.3295   -6.4419 H   0  0  0  0  0
    8.3224  -16.2070   -7.7856 H   0  0  0  0  0
    9.4346  -15.7325   -6.4783 H   0  0  0  0  0
  2  1  1  0  0  0
  1 14  2  0  0  0
  1 15  2  0  0  0
  1 20  1  0  0  0
 10  2  1  0  0  0
  2 21  1  0  0  0
  3  4  1  0  0  0
 13  3  1  0  0  0
  3 17  2  0  0  0
  4  7  1  0  0  0
  7  5  4  0  0  0
  5  8  4  0  0  0
  8  6  4  0  0  0
  9  6  4  0  0  0
  6 11  4  0  0  0
  7 19  4  0  0  0
  8 12  4  0  0  0
 19  9  4  0  0  0
 18 10  1  0  0  0
 11 16  4  0  0  0
 12 16  4  0  0  0
 13 18  1  0  0  0
 18 23  1  0  0  0
 20 24  1  0  0  0
 21 22  1  0  0  0
 22 23  1  0  0  0
 24 25  1  0  0  0
 24 26  1  0  0  0
  4 27  1  0  0  0
 10 28  1  0  0  0
 10 29  1  0  0  0
 12 30  1  0  0  0
 13 31  1  0  0  0
 16 32  1  0  0  0
 18 33  1  0  0  0
 19 34  1  0  0  0
 20 35  1  0  0  0
 20 36  1  0  0  0
 21 37  1  0  0  0
 21 38  1  0  0  0
 22 39  1  0  0  0
 22 40  1  0  0  0
 23 41  1  0  0  0
 23 42  1  0  0  0
 24 43  1  0  0  0
 25 44  1  0  0  0
 25 45  1  0  0  0
 25 46  1  0  0  0
 26 47  1  0  0  0
 26 48  1  0  0  0
 26 49  1  0  0  0
M  END
$$$$
