4occ_ligand
  -I-interpret- 

 67 69  0  0  0  0  0  0  0  0999 V2000
  -15.8840    2.9300  -15.8020 C   0  0  0  0  0
  -16.7940    3.9780  -15.5720 C   0  0  0  0  0
  -16.4680    5.3530  -14.5920 Cl  0  0  0  0  0
  -18.0460    3.9840  -16.1630 C   0  0  0  0  0
  -18.4030    2.9190  -17.0100 C   0  0  0  0  0
  -17.5030    1.8550  -17.2680 C   0  0  0  0  0
  -16.2270    1.8550  -16.6620 C   0  0  0  0  0
  -15.2070    0.7630  -16.9530 C   0  0  0  0  0
  -15.7060   -0.5590  -16.8230 O   0  0  0  0  0
  -14.7370   -1.6070  -16.8840 C   0  0  0  0  0
  -14.0990   -1.9370  -15.5440 C   0  0  0  0  0
  -15.0610   -2.5410  -14.4970 C   0  0  0  0  0
  -15.3120   -1.6580  -13.5120 O   0  0  0  0  0
  -15.5240   -3.6430  -14.5460 O   0  0  0  0  0
  -13.6390   -1.4090  -17.9360 C   0  0  0  0  0
  -12.8750   -2.3440  -18.1600 O   0  0  0  0  0
  -13.5560   -0.2090  -18.5850 N   0  0  0  0  0
  -12.6630   -0.0900  -19.7410 C   0  0  0  0  0
  -13.0570   -1.0100  -20.8850 C   0  0  0  0  0
  -14.3620    0.9850  -18.2220 C   0  0  0  0  0
  -13.6740    2.3370  -18.2760 C   0  0  0  0  0
  -12.5800    2.6600  -17.4350 C   0  0  0  0  0
  -11.9520    3.9210  -17.5060 C   0  0  0  0  0
  -12.4190    4.8670  -18.4300 C   0  0  0  0  0
  -11.6020    6.3530  -18.5680 Cl  0  0  0  0  0
  -13.5110    4.5710  -19.2680 C   0  0  0  0  0
  -14.1350    3.3150  -19.1930 C   0  0  0  0  0
  -14.7390   -0.7230  -21.3740 S   0  0  0  0  0
  -14.9540    0.6880  -21.5360 O   0  0  0  0  0
  -15.5820   -1.4940  -20.4970 O   0  0  0  0  0
  -14.8170   -1.4420  -23.0150 C   0  0  0  0  0
  -11.1600   -0.1760  -19.3780 C   0  0  0  0  0
  -10.2450    0.5150  -20.3310 C   0  0  0  0  0
  -16.3040   -1.4290  -23.3820 C   0  0  0  0  0
  -14.3080   -2.9010  -23.0060 C   0  0  0  0  0
  -14.0400   -0.4970  -23.9460 C   0  0  0  0  0
  -14.9084    2.9440  -15.3160 H   0  0  0  0  0
  -18.7435    4.8003  -15.9752 H   0  0  0  0  0
  -19.3885    2.9120  -17.4757 H   0  0  0  0  0
  -17.7941    1.0403  -17.9311 H   0  0  0  0  0
  -14.4927    0.8690  -16.1365 H   0  0  0  0  0
  -15.3404   -2.4587  -17.1980 H   0  0  0  0  0
  -13.7309   -0.9983  -15.1300 H   0  0  0  0  0
  -13.3309   -2.6861  -15.7361 H   0  0  0  0  0
  -14.8331   -0.8439  -13.6839 H   0  0  0  0  0
  -12.8027    0.9256  -20.1113 H   0  0  0  0  0
  -12.9587   -2.0440  -20.5543 H   0  0  0  0  0
  -12.4050   -0.8120  -21.7358 H   0  0  0  0  0
  -15.0522    1.0731  -19.0610 H   0  0  0  0  0
  -12.2174    1.9209  -16.7206 H   0  0  0  0  0
  -11.1138    4.1574  -16.8506 H   0  0  0  0  0
  -13.8724    5.3172  -19.9755 H   0  0  0  0  0
  -14.9796    3.0906  -19.8444 H   0  0  0  0  0
  -10.8915   -1.2323  -19.3916 H   0  0  0  0  0
  -11.0395    0.3146  -18.4121 H   0  0  0  0  0
  -10.3548    0.0747  -21.3221 H   0  0  0  0  0
  -10.4983    1.5743  -20.3725 H   0  0  0  0  0
   -9.2153    0.3993  -19.9927 H   0  0  0  0  0
  -16.8614   -2.0206  -22.6557 H   0  0  0  0  0
  -16.6700   -0.4023  -23.3738 H   0  0  0  0  0
  -16.4352   -1.8549  -24.3767 H   0  0  0  0  0
  -13.2733   -2.9214  -22.6639 H   0  0  0  0  0
  -14.9261   -3.4959  -22.3336 H   0  0  0  0  0
  -14.3669   -3.3112  -24.0141 H   0  0  0  0  0
  -14.5044    0.4890  -23.9306 H   0  0  0  0  0
  -13.0080   -0.4193  -23.6038 H   0  0  0  0  0
  -14.0586   -0.8930  -24.9613 H   0  0  0  0  0
  1  2  4  0  0  0
  1  7  4  0  0  0
  2  3  1  0  0  0
  2  4  4  0  0  0
  4  5  4  0  0  0
  5  6  4  0  0  0
  6  7  4  0  0  0
  7  8  1  0  0  0
  8  9  1  0  0  0
  8 20  1  0  0  0
  9 10  1  0  0  0
 10 11  1  0  0  0
 10 15  1  0  0  0
 11 12  1  0  0  0
 12 13  1  0  0  0
 12 14  2  0  0  0
 15 16  2  0  0  0
 15 17  1  0  0  0
 17 18  1  0  0  0
 17 20  1  0  0  0
 18 19  1  0  0  0
 18 32  1  0  0  0
 19 28  1  0  0  0
 20 21  1  0  0  0
 21 22  4  0  0  0
 21 27  4  0  0  0
 22 23  4  0  0  0
 23 24  4  0  0  0
 24 25  1  0  0  0
 24 26  4  0  0  0
 26 27  4  0  0  0
 28 29  2  0  0  0
 28 30  2  0  0  0
 28 31  1  0  0  0
 31 34  1  0  0  0
 31 35  1  0  0  0
 31 36  1  0  0  0
 32 33  1  0  0  0
  1 37  1  0  0  0
  4 38  1  0  0  0
  5 39  1  0  0  0
  6 40  1  0  0  0
  8 41  1  0  0  0
 10 42  1  0  0  0
 11 43  1  0  0  0
 11 44  1  0  0  0
 13 45  1  0  0  0
 18 46  1  0  0  0
 19 47  1  0  0  0
 19 48  1  0  0  0
 20 49  1  0  0  0
 22 50  1  0  0  0
 23 51  1  0  0  0
 26 52  1  0  0  0
 27 53  1  0  0  0
 32 54  1  0  0  0
 32 55  1  0  0  0
 33 56  1  0  0  0
 33 57  1  0  0  0
 33 58  1  0  0  0
 34 59  1  0  0  0
 34 60  1  0  0  0
 34 61  1  0  0  0
 35 62  1  0  0  0
 35 63  1  0  0  0
 35 64  1  0  0  0
 36 65  1  0  0  0
 36 66  1  0  0  0
 36 67  1  0  0  0
M  END
$$$$
