4prp_ligand
  -I-interpret- 

175179  0  0  0  0  0  0  0  0999 V2000
  -12.0570   19.3440    2.3510 N   0  3  0  0  0
  -11.7980   18.9040    0.9790 C   0  0  0  0  0
  -12.9030   19.4480    0.0430 C   0  0  0  0  0
  -14.0850   19.1610    0.2600 O   0  0  0  0  0
  -11.7130   17.3620    0.9030 C   0  0  0  0  0
  -11.0330   16.8320   -0.3260 C   0  0  0  0  0
  -11.5880   16.9890   -1.5950 N   0  0  0  0  0
   -9.8830   16.1250   -0.4420 C   0  0  0  0  0
  -10.7530   16.3940   -2.4320 C   0  0  0  0  0
   -9.7190   15.8450   -1.7870 N   0  0  0  0  0
  -12.5710   20.2100   -1.0140 N   0  0  0  0  0
  -13.6370   20.6740   -1.9250 C   0  0  0  0  0
  -14.2360   19.5220   -2.7690 C   0  0  0  0  0
  -13.7470   18.3750   -2.7340 O   0  0  0  0  0
  -12.9050   21.6950   -2.8130 C   0  0  0  0  0
  -11.5010   21.2550   -2.8190 C   0  0  0  0  0
  -11.2360   20.6600   -1.4650 C   0  0  0  0  0
  -15.2910   19.8420   -3.5360 N   0  0  0  0  0
  -15.9370   18.9080   -4.4360 C   0  0  0  0  0
  -15.3910   19.1580   -5.8260 C   0  0  0  0  0
  -15.1440   20.2960   -6.2100 O   0  0  0  0  0
  -17.5120   18.9610   -4.4020 C   0  0  0  0  0
  -18.0730   20.2910   -4.8870 C   0  0  0  0  0
  -18.1430   17.7970   -5.1860 C   0  0  0  0  0
  -15.2400   18.0810   -6.5770 N   0  0  0  0  0
  -14.8180   18.1420   -7.9550 C   0  0  0  0  0
  -16.0600   18.2500   -8.7930 C   0  0  0  0  0
  -17.0290   17.5110   -8.5870 O   0  0  0  0  0
  -16.0500   19.2110   -9.7030 N   0  0  0  0  0
  -17.1160   19.4520  -10.6500 C   0  0  0  0  0
  -16.8850   18.5590  -11.8440 C   0  0  0  0  0
  -15.7710   18.5320  -12.4100 O   0  0  0  0  0
  -17.1650   20.9380  -11.0690 C   0  0  0  0  0
  -17.2990   21.9350   -9.9030 C   0  0  0  0  0
  -17.7270   23.3310  -10.3100 C   0  0  0  0  0
  -17.8060   23.6880  -11.4970 O   0  0  0  0  0
  -17.9900   24.1720   -9.3180 N   0  0  0  0  0
  -17.9230   17.7920  -12.2240 N   0  0  0  0  0
  -17.8250   16.9290  -13.4140 C   0  0  0  0  0
  -17.9750   17.8200  -14.6360 C   0  0  0  0  0
  -17.8850   19.0360  -14.5040 O   0  0  0  0  0
  -18.8830   15.8310  -13.3810 C   0  0  0  0  0
  -18.1070   17.2390  -15.8160 N   0  0  0  0  0
  -18.2500   17.9470  -17.0710 C   0  0  0  0  0
  -19.6620   18.5900  -17.1360 C   0  0  0  0  0
  -20.6060   18.0690  -16.5100 O   0  0  0  0  0
  -18.0570   16.9490  -18.2260 C   0  0  0  0  0
  -16.6640   16.3880  -18.5560 C   0  0  0  0  0
  -15.6930   16.7180  -17.8390 O   0  0  0  0  0
  -16.5370   15.6970  -19.6020 O   0  0  0  0  0
  -19.8060   19.7140  -17.9110 N   0  0  0  0  0
  -21.0750   20.4440  -18.1030 C   0  0  0  0  0
  -21.6410   20.9520  -16.7670 C   0  0  0  0  0
  -22.8650   20.9200  -16.5590 O   0  0  0  0  0
  -22.1290   19.5720  -18.8250 C   0  0  0  0  0
  -21.6120   18.7800  -20.0090 C   0  0  0  0  0
  -21.1820   17.4660  -19.8610 C   0  0  0  0  0
  -21.5690   19.3390  -21.2820 C   0  0  0  0  0
  -20.7010   16.7350  -20.9420 C   0  0  0  0  0
  -21.1280   18.5990  -22.3820 C   0  0  0  0  0
  -20.7070   17.2910  -22.2080 C   0  0  0  0  0
  -20.2560   16.5600  -23.2820 O   0  0  0  0  0
  -20.7590   21.4070  -15.8550 N   0  0  0  0  0
  -21.2000   21.9090  -14.5450 C   0  0  0  0  0
  -21.2930   23.4430  -14.5380 C   0  0  0  0  0
  -21.6980   24.0230  -13.5230 O   0  0  0  0  0
  -20.2950   21.3960  -13.4130 C   0  0  0  0  0
  -20.8320   20.1730  -12.7130 C   0  0  0  0  0
  -21.3240   19.0850  -13.4450 C   0  0  0  0  0
  -20.8050   20.0790  -11.3290 C   0  0  0  0  0
  -21.8460   17.9570  -12.7980 C   0  0  0  0  0
  -21.3140   18.9440  -10.6780 C   0  0  0  0  0
  -21.8330   17.8900  -11.4170 C   0  0  0  0  0
  -20.9790   24.0820  -15.6910 N   0  0  0  0  0
  -21.0150   25.5400  -15.9180 C   0  0  0  0  0
  -22.4050   26.1410  -15.6510 C   0  0  0  0  0
  -23.3890   25.4240  -15.6420 O   0  0  0  0  0
  -20.5960   25.8780  -17.3770 C   0  0  0  0  0
  -19.1170   25.6260  -17.6760 C   0  0  0  0  0
  -18.7120   24.2290  -18.1280 C   0  0  0  0  0
  -19.6020   23.4120  -18.4700 O   0  0  0  0  0
  -17.4880   23.9860  -18.2320 O   0  0  0  0  0
  -22.4690   27.4490  -15.4210 N   0  0  0  0  0
  -23.7190   28.1780  -15.2370 C   0  0  0  0  0
  -24.3640   28.3870  -16.6290 C   0  0  0  0  0
  -23.6090   28.4900  -17.6270 O   0  0  0  0  0
  -23.4600   29.5220  -14.5260 C   0  0  0  0  0
  -23.0350   29.4040  -13.0780 C   0  0  0  0  0
  -21.7850   28.8900  -12.7350 C   0  0  0  0  0
  -23.8700   29.8280  -12.0480 C   0  0  0  0  0
  -21.4080   28.7270  -11.4030 C   0  0  0  0  0
  -23.5040   29.6730  -10.7080 C   0  0  0  0  0
  -22.2560   29.1550  -10.3930 C   0  0  0  0  0
  -21.8550   29.0520   -9.0850 O   0  0  0  0  0
  -25.6100   28.4660  -16.7250 O   0  0  0  0  0
  -12.1088   20.3624    2.3761 H   0  0  0  0  0
  -12.9410   18.9494    2.6722 H   0  0  0  0  0
  -11.3010   19.0257    2.9573 H   0  0  0  0  0
  -10.8364   19.3008    0.6536 H   0  0  0  0  0
  -12.7367   16.9879    0.8859 H   0  0  0  0  0
  -11.1231   17.0338    1.7589 H   0  0  0  0  0
   -9.2153   15.8329    0.3686 H   0  0  0  0  0
  -10.8913   16.3564   -3.5125 H   0  0  0  0  0
  -14.4920   21.0899   -1.3920 H   0  0  0  0  0
  -13.0089   22.7107   -2.4314 H   0  0  0  0  0
  -13.3226   21.7286   -3.8193 H   0  0  0  0  0
  -10.8303   22.0912   -3.0164 H   0  0  0  0  0
  -11.3238   20.5244   -3.6083 H   0  0  0  0  0
  -10.5127   19.8454   -1.5025 H   0  0  0  0  0
  -10.7833   21.3746   -0.7776 H   0  0  0  0  0
  -15.6568   20.7926   -3.4822 H   0  0  0  0  0
  -15.7055   17.8955   -4.1054 H   0  0  0  0  0
  -17.7849   18.8580   -3.3517 H   0  0  0  0  0
  -17.7002   21.0944   -4.2517 H   0  0  0  0  0
  -17.7573   20.4635   -5.9159 H   0  0  0  0  0
  -19.1616   20.2638   -4.8393 H   0  0  0  0  0
  -17.8218   17.8451   -6.2265 H   0  0  0  0  0
  -17.8234   16.8509   -4.7491 H   0  0  0  0  0
  -19.2292   17.8734   -5.1358 H   0  0  0  0  0
  -15.4300   17.1677   -6.1646 H   0  0  0  0  0
  -14.2493   17.2516   -8.2230 H   0  0  0  0  0
  -14.1666   19.0002   -8.1202 H   0  0  0  0  0
  -15.2350   19.8233   -9.7388 H   0  0  0  0  0
  -18.0788   19.2238  -10.1927 H   0  0  0  0  0
  -18.0499   21.0612  -11.6934 H   0  0  0  0  0
  -16.2199   21.1576  -11.5655 H   0  0  0  0  0
  -16.3128   22.0254   -9.4477 H   0  0  0  0  0
  -18.0723   21.5464   -9.2403 H   0  0  0  0  0
  -18.2634   25.1330   -9.5231 H   0  0  0  0  0
  -17.9188   23.8575   -8.3503 H   0  0  0  0  0
  -18.7871   17.8082  -11.6823 H   0  0  0  0  0
  -16.8608   16.4215  -13.4424 H   0  0  0  0  0
  -18.7409   15.2179  -12.4910 H   0  0  0  0  0
  -19.8742   16.2839  -13.3574 H   0  0  0  0  0
  -18.7874   15.2092  -14.2711 H   0  0  0  0  0
  -18.1082   16.2194  -15.8445 H   0  0  0  0  0
  -17.5026   18.7363  -17.1519 H   0  0  0  0  0
  -18.3339   17.5146  -19.1157 H   0  0  0  0  0
  -18.6309   16.0741  -17.9206 H   0  0  0  0  0
  -17.3999   15.5583  -19.9993 H   0  0  0  0  0
  -18.9777   20.0700  -18.3880 H   0  0  0  0  0
  -20.8501   21.3048  -18.7327 H   0  0  0  0  0
  -22.8864   20.2537  -19.2119 H   0  0  0  0  0
  -22.4862   18.8455  -18.0952 H   0  0  0  0  0
  -21.2228   16.9990  -18.8770 H   0  0  0  0  0
  -21.8849   20.3725  -21.4239 H   0  0  0  0  0
  -20.3198   15.7250  -20.7914 H   0  0  0  0  0
  -21.1153   19.0498  -23.3743 H   0  0  0  0  0
  -20.3274   17.0887  -24.0801 H   0  0  0  0  0
  -19.7638   21.4030  -16.0784 H   0  0  0  0  0
  -22.2013   21.5183  -14.3637 H   0  0  0  0  0
  -20.2212   22.1902  -12.6701 H   0  0  0  0  0
  -19.3390   21.1221  -13.8593 H   0  0  0  0  0
  -21.3005   19.1162  -14.5343 H   0  0  0  0  0
  -20.3843   20.8947  -10.7411 H   0  0  0  0  0
  -22.2609   17.1351  -13.3814 H   0  0  0  0  0
  -21.3016   18.8904   -9.5894 H   0  0  0  0  0
  -22.2297   17.0108  -10.9094 H   0  0  0  0  0
  -20.6902   23.4998  -16.4771 H   0  0  0  0  0
  -20.3098   25.9788  -15.2121 H   0  0  0  0  0
  -20.7787   26.9421  -17.5268 H   0  0  0  0  0
  -21.1734   25.2304  -18.0367 H   0  0  0  0  0
  -18.5975   25.7883  -16.7316 H   0  0  0  0  0
  -18.8726   26.2839  -18.5100 H   0  0  0  0  0
  -20.4667   23.7959  -18.3073 H   0  0  0  0  0
  -21.5948   27.9721  -15.3704 H   0  0  0  0  0
  -24.4011   27.6099  -14.6044 H   0  0  0  0  0
  -22.6953   28.4020  -17.3460 H   0  0  0  0  0
  -24.4016   30.0710  -14.5352 H   0  0  0  0  0
  -22.6414   30.0078  -15.0570 H   0  0  0  0  0
  -21.0882   28.6098  -13.5249 H   0  0  0  0  0
  -24.8271   30.2895  -12.2911 H   0  0  0  0  0
  -20.4517   28.2656  -11.1567 H   0  0  0  0  0
  -24.1953   29.9575   -9.9147 H   0  0  0  0  0
  -22.5479   29.3877   -8.5117 H   0  0  0  0  0
  1  2  1  0  0  0
  2  3  1  0  0  0
  2  5  1  0  0  0
  3  4  2  0  0  0
  3 11  1  0  0  0
  5  6  1  0  0  0
  6  7  4  0  0  0
  6  8  4  0  0  0
  7  9  4  0  0  0
  8 10  4  0  0  0
  9 10  4  0  0  0
 11 12  1  0  0  0
 11 17  1  0  0  0
 12 13  1  0  0  0
 12 15  1  0  0  0
 13 14  2  0  0  0
 13 18  1  0  0  0
 15 16  1  0  0  0
 16 17  1  0  0  0
 18 19  1  0  0  0
 19 20  1  0  0  0
 19 22  1  0  0  0
 20 21  2  0  0  0
 20 25  1  0  0  0
 22 23  1  0  0  0
 22 24  1  0  0  0
 25 26  1  0  0  0
 26 27  1  0  0  0
 27 28  2  0  0  0
 27 29  1  0  0  0
 29 30  1  0  0  0
 30 31  1  0  0  0
 30 33  1  0  0  0
 31 32  2  0  0  0
 31 38  1  0  0  0
 33 34  1  0  0  0
 34 35  1  0  0  0
 35 36  2  0  0  0
 35 37  1  0  0  0
 38 39  1  0  0  0
 39 40  1  0  0  0
 39 42  1  0  0  0
 40 41  2  0  0  0
 40 43  1  0  0  0
 43 44  1  0  0  0
 44 45  1  0  0  0
 44 47  1  0  0  0
 45 46  2  0  0  0
 45 51  1  0  0  0
 47 48  1  0  0  0
 48 49  2  0  0  0
 48 50  1  0  0  0
 51 52  1  0  0  0
 52 53  1  0  0  0
 52 55  1  0  0  0
 53 54  2  0  0  0
 53 63  1  0  0  0
 55 56  1  0  0  0
 56 57  4  0  0  0
 56 58  4  0  0  0
 57 59  4  0  0  0
 58 60  4  0  0  0
 59 61  4  0  0  0
 60 61  4  0  0  0
 61 62  1  0  0  0
 63 64  1  0  0  0
 64 65  1  0  0  0
 64 67  1  0  0  0
 65 66  2  0  0  0
 65 74  1  0  0  0
 67 68  1  0  0  0
 68 69  4  0  0  0
 68 70  4  0  0  0
 69 71  4  0  0  0
 70 72  4  0  0  0
 71 73  4  0  0  0
 72 73  4  0  0  0
 74 75  1  0  0  0
 75 76  1  0  0  0
 75 78  1  0  0  0
 76 77  2  0  0  0
 76 83  1  0  0  0
 78 79  1  0  0  0
 79 80  1  0  0  0
 80 81  1  0  0  0
 80 82  2  0  0  0
 83 84  1  0  0  0
 84 85  1  0  0  0
 84 87  1  0  0  0
 85 86  1  0  0  0
 85 95  2  0  0  0
 87 88  1  0  0  0
 88 89  4  0  0  0
 88 90  4  0  0  0
 89 91  4  0  0  0
 90 92  4  0  0  0
 91 93  4  0  0  0
 92 93  4  0  0  0
 93 94  1  0  0  0
  1 96  1  0  0  0
  1 97  1  0  0  0
  1 98  1  0  0  0
  2 99  1  0  0  0
  5100  1  0  0  0
  5101  1  0  0  0
  8102  1  0  0  0
  9103  1  0  0  0
 12104  1  0  0  0
 15105  1  0  0  0
 15106  1  0  0  0
 16107  1  0  0  0
 16108  1  0  0  0
 17109  1  0  0  0
 17110  1  0  0  0
 18111  1  0  0  0
 19112  1  0  0  0
 22113  1  0  0  0
 23114  1  0  0  0
 23115  1  0  0  0
 23116  1  0  0  0
 24117  1  0  0  0
 24118  1  0  0  0
 24119  1  0  0  0
 25120  1  0  0  0
 26121  1  0  0  0
 26122  1  0  0  0
 29123  1  0  0  0
 30124  1  0  0  0
 33125  1  0  0  0
 33126  1  0  0  0
 34127  1  0  0  0
 34128  1  0  0  0
 37129  1  0  0  0
 37130  1  0  0  0
 38131  1  0  0  0
 39132  1  0  0  0
 42133  1  0  0  0
 42134  1  0  0  0
 42135  1  0  0  0
 43136  1  0  0  0
 44137  1  0  0  0
 47138  1  0  0  0
 47139  1  0  0  0
 50140  1  0  0  0
 51141  1  0  0  0
 52142  1  0  0  0
 55143  1  0  0  0
 55144  1  0  0  0
 57145  1  0  0  0
 58146  1  0  0  0
 59147  1  0  0  0
 60148  1  0  0  0
 62149  1  0  0  0
 63150  1  0  0  0
 64151  1  0  0  0
 67152  1  0  0  0
 67153  1  0  0  0
 69154  1  0  0  0
 70155  1  0  0  0
 71156  1  0  0  0
 72157  1  0  0  0
 73158  1  0  0  0
 74159  1  0  0  0
 75160  1  0  0  0
 78161  1  0  0  0
 78162  1  0  0  0
 79163  1  0  0  0
 79164  1  0  0  0
 81165  1  0  0  0
 83166  1  0  0  0
 84167  1  0  0  0
 86168  1  0  0  0
 87169  1  0  0  0
 87170  1  0  0  0
 89171  1  0  0  0
 90172  1  0  0  0
 91173  1  0  0  0
 92174  1  0  0  0
 94175  1  0  0  0
M  END
$$$$
