### 
### Created by X-TOOL on Mon Sep 10 21:13:18 2018
### 

@<TRIPOS>MOLECULE
4prp_ligand
  173   177     1     0     0
SMALL
GAST_HUCK


@<TRIPOS>ATOM
      1 N         -12.0570   19.3440    2.3510 N.4       1 HIS         0.2394
      2 CA        -11.7980   18.9040    0.9790 C.3       1 HIS         0.0763
      3 C         -12.9030   19.4480    0.0430 C.2       1 HIS         0.2313
      4 O         -14.0850   19.1610    0.2600 O.2       1 HIS        -0.3903
      5 CB        -11.7130   17.3620    0.9030 C.3       1 HIS         0.0628
      6 CG        -11.0330   16.8320   -0.3260 C.2       1 HIS         0.0593
      7 ND1       -11.5880   16.9890   -1.5950 N.pl3     1 HIS        -0.2622
      8 CD2        -9.8830   16.1250   -0.4420 C.2       1 HIS        -0.0274
      9 CE1       -10.7530   16.3940   -2.4320 C.2       1 HIS         0.0875
     10 NE2        -9.7190   15.8450   -1.7870 N.2       1 HIS        -0.3437
     11 N         -12.5710   20.2100   -1.0140 N.am      1 PRO        -0.2470
     12 CA        -13.6370   20.6740   -1.9250 C.3       1 PRO         0.1339
     13 C         -14.2360   19.5220   -2.7690 C.2       1 PRO         0.2041
     14 O         -13.7470   18.3750   -2.7340 O.2       1 PRO        -0.3944
     15 CB        -12.9050   21.6950   -2.8130 C.3       1 PRO        -0.0104
     16 CG        -11.5010   21.2550   -2.8190 C.3       1 PRO        -0.0281
     17 CD        -11.2360   20.6600   -1.4650 C.3       1 PRO         0.0371
     18 N         -15.2910   19.8420   -3.5360 N.am      1 VAL        -0.2635
     19 CA        -15.9370   18.9080   -4.4360 C.3       1 VAL         0.1332
     20 C         -15.3910   19.1580   -5.8260 C.2       1 VAL         0.2039
     21 O         -15.1440   20.2960   -6.2100 O.2       1 VAL        -0.3944
     22 CB        -17.5120   18.9610   -4.4020 C.3       1 VAL        -0.0063
     23 CG1       -18.0730   20.2910   -4.8870 C.3       1 VAL        -0.0584
     24 CG2       -18.1430   17.7970   -5.1860 C.3       1 VAL        -0.0584
     25 N         -15.2400   18.0810   -6.5770 N.am      1 GLY        -0.2664
     26 CA        -14.8180   18.1420   -7.9550 C.3       1 GLY         0.1201
     27 C         -16.0600   18.2500   -8.7930 C.2       1 GLY         0.2007
     28 O         -17.0290   17.5110   -8.5870 O.2       1 GLY        -0.3947
     29 N         -16.0500   19.2110   -9.7030 N.am      1 GLN        -0.2638
     30 CA        -17.1160   19.4520  -10.6500 C.3       1 GLN         0.1330
     31 C         -16.8850   18.5590  -11.8440 C.2       1 GLN         0.2040
     32 O         -15.7710   18.5320  -12.4100 O.2       1 GLN        -0.3944
     33 CB        -17.1650   20.9380  -11.0690 C.3       1 GLN         0.0045
     34 CG        -17.2990   21.9350   -9.9030 C.3       1 GLN         0.0412
     35 CD        -17.7270   23.3310  -10.3100 C.2       1 GLN         0.1737
     36 OE1       -17.8060   23.6880  -11.4970 O.2       1 GLN        -0.3973
     37 NE2       -17.9900   24.1720   -9.3180 N.am      1 GLN        -0.3009
     38 N         -17.9230   17.7920  -12.2240 N.am      1 ALA        -0.2640
     39 CA        -17.8250   16.9290  -13.4140 C.3       1 ALA         0.1282
     40 C         -17.9750   17.8200  -14.6360 C.2       1 ALA         0.2037
     41 O         -17.8850   19.0360  -14.5040 O.2       1 ALA        -0.3944
     42 CB        -18.8830   15.8310  -13.3810 C.3       1 ALA        -0.0244
     43 N         -18.1070   17.2390  -15.8160 N.am      1 ASP        -0.2622
     44 CA        -18.2500   17.9470  -17.0710 C.3       1 ASP         0.1423
     45 C         -19.6620   18.5900  -17.1360 C.2       1 ASP         0.2057
     46 O         -20.6060   18.0690  -16.5100 O.2       1 ASP        -0.3943
     47 CB        -18.0570   16.9490  -18.2260 C.3       1 ASP         0.0406
     48 CG        -16.6640   16.3880  -18.5560 C.2       1 ASP         0.0393
     49 OD1       -15.6930   16.7180  -17.8390 O.co2     1 ASP        -0.5688
     50 OD2       -16.5370   15.6970  -19.6020 O.co2     1 ASP        -0.5688
     51 N         -19.8060   19.7140  -17.9110 N.am      1 TYR        -0.2620
     52 CA        -21.0750   20.4440  -18.1030 C.3       1 TYR         0.1390
     53 C         -21.6410   20.9520  -16.7670 C.2       1 TYR         0.2059
     54 O         -22.8650   20.9200  -16.5590 O.2       1 TYR        -0.3942
     55 CB        -22.1290   19.5720  -18.8250 C.3       1 TYR         0.0163
     56 CG        -21.6120   18.7800  -20.0090 C.ar      1 TYR        -0.0493
     57 CD1       -21.1820   17.4660  -19.8610 C.ar      1 TYR        -0.0685
     58 CD2       -21.5690   19.3390  -21.2820 C.ar      1 TYR        -0.0685
     59 CE1       -20.7010   16.7350  -20.9420 C.ar      1 TYR        -0.0398
     60 CE2       -21.1280   18.5990  -22.3820 C.ar      1 TYR        -0.0398
     61 CZ        -20.7070   17.2910  -22.2080 C.ar      1 TYR         0.0805
     62 OH        -20.2560   16.5600  -23.2820 O.3       1 TYR        -0.3376
     63 N         -20.7590   21.4070  -15.8550 N.am      1 PHE        -0.2618
     64 CA        -21.2000   21.9090  -14.5450 C.3       1 PHE         0.1404
     65 C         -21.2930   23.4430  -14.5380 C.2       1 PHE         0.2060
     66 O         -21.6980   24.0230  -13.5230 O.2       1 PHE        -0.3942
     67 CB        -20.2950   21.3960  -13.4130 C.3       1 PHE         0.0214
     68 CG        -20.8320   20.1730  -12.7130 C.ar      1 PHE        -0.0386
     69 CD1       -21.3240   19.0850  -13.4450 C.ar      1 PHE        -0.0601
     70 CD2       -20.8050   20.0790  -11.3290 C.ar      1 PHE        -0.0601
     71 CE1       -21.8460   17.9570  -12.7980 C.ar      1 PHE        -0.0686
     72 CE2       -21.3140   18.9440  -10.6780 C.ar      1 PHE        -0.0686
     73 CZ        -21.8330   17.8900  -11.4170 C.ar      1 PHE        -0.0687
     74 N         -20.9790   24.0820  -15.6910 N.am      1 GLU        -0.2635
     75 CA        -21.0150   25.5400  -15.9180 C.3       1 GLU         0.1324
     76 C         -22.4050   26.1410  -15.6510 C.2       1 GLU         0.2036
     77 O         -23.3890   25.4240  -15.6420 O.2       1 GLU        -0.3944
     78 CB        -20.5960   25.8780  -17.3770 C.3       1 GLU        -0.0008
     79 CG        -19.1170   25.6260  -17.6760 C.3       1 GLU         0.0044
     80 CD        -18.7120   24.2290  -18.1280 C.2       1 GLU         0.0350
     81 OE1       -19.6020   23.4120  -18.4700 O.co2     1 GLU        -0.5690
     82 OE2       -17.4880   23.9860  -18.2320 O.co2     1 GLU        -0.5690
     83 N         -22.4690   27.4490  -15.4210 N.am      1 TYR        -0.2679
     84 CA        -23.7190   28.1780  -15.2370 C.3       1 TYR         0.1025
     85 C         -24.3640   28.3870  -16.6290 C.2       1 TYR         0.0619
     86 O         -23.6090   28.4900  -17.6270 O.co2     1 TYR        -0.5665
     87 CB        -23.4600   29.5220  -14.5260 C.3       1 TYR         0.0108
     88 CG        -23.0350   29.4040  -13.0780 C.ar      1 TYR        -0.0499
     89 CD1       -21.7850   28.8900  -12.7350 C.ar      1 TYR        -0.0686
     90 CD2       -23.8700   29.8280  -12.0480 C.ar      1 TYR        -0.0686
     91 CE1       -21.4080   28.7270  -11.4030 C.ar      1 TYR        -0.0398
     92 CE2       -23.5040   29.6730  -10.7080 C.ar      1 TYR        -0.0398
     93 CZ        -22.2560   29.1550  -10.3930 C.ar      1 TYR         0.0805
     94 OH        -21.8550   29.0520   -9.0850 O.3       1 TYR        -0.3376
     95 OXT       -25.6100   28.4660  -16.7250 O.co2     1 TYR        -0.5665
     96 H         -11.3362   18.9887    2.9595 H         1 HIS         0.2017
     97 H         -12.9533   18.9948    2.6523 H         1 HIS         0.2017
     98 H         -12.0598   20.3514    2.3859 H         1 HIS         0.2017
     99 H         -10.8318   19.3183    0.6554 H         1 HIS         0.1123
    100 H         -12.7368   16.9605    0.9284 H         1 HIS         0.0525
    101 H         -11.1574   17.0055    1.7829 H         1 HIS         0.0525
    102 H         -12.4675   17.4695   -1.8326 H         1 HIS         0.2386
    103 H          -9.2159   15.8332    0.3678 H         1 HIS         0.0324
    104 H         -10.8912   16.3564   -3.5115 H         1 HIS         0.1149
    105 H         -14.4459   21.1583   -1.3583 H         1 PRO         0.0802
    106 H         -12.9914   22.7071   -2.3908 H         1 PRO         0.0313
    107 H         -13.3173   21.6866   -3.8327 H         1 PRO         0.0313
    108 H         -10.8346   22.1123   -2.9946 H         1 PRO         0.0287
    109 H         -11.3423   20.5005   -3.6035 H         1 PRO         0.0287
    110 H         -10.5399   19.8115   -1.5386 H         1 PRO         0.0524
    111 H         -10.8235   21.4143   -0.7788 H         1 PRO         0.0524
    112 H         -15.6496   20.7740   -3.4832 H         1 VAL         0.1883
    113 H         -15.6452   17.8924   -4.1304 H         1 VAL         0.0802
    114 H         -17.8115   18.8477   -3.3496 H         1 VAL         0.0343
    115 H         -19.1717   20.2647   -4.8393 H         1 VAL         0.0234
    116 H         -17.7552   20.4662   -5.9254 H         1 VAL         0.0234
    117 H         -17.6975   21.1027   -4.2466 H         1 VAL         0.0234
    118 H         -17.7284   16.8443   -4.8248 H         1 VAL         0.0234
    119 H         -17.9188   17.9119   -6.2568 H         1 VAL         0.0234
    120 H         -19.2328   17.8026   -5.0368 H         1 VAL         0.0234
    121 H         -15.4263   17.1856   -6.1726 H         1 GLY         0.1881
    122 H         -14.2621   17.2306   -8.2201 H         1 GLY         0.0763
    123 H         -14.1774   19.0218   -8.1148 H         1 GLY         0.0763
    124 H         -15.2510   19.8113   -9.7381 H         1 GLN         0.1883
    125 H         -18.0774   19.1895  -10.1843 H         1 GLN         0.0801
    126 H         -18.0271   21.0764  -11.7380 H         1 GLN         0.0337
    127 H         -16.2377   21.1707  -11.6129 H         1 GLN         0.0337
    128 H         -16.3230   22.0085   -9.4010 H         1 GLN         0.0504
    129 H         -18.0451   21.5397   -9.1980 H         1 GLN         0.0504
    130 H         -18.2774   25.1084   -9.5193 H         1 GLN         0.1814
    131 H         -17.9008   23.8694   -8.3691 H         1 GLN         0.1814
    132 H         -18.7702   17.8079  -11.6930 H         1 ALA         0.1883
    133 H         -16.8332   16.4537  -13.4358 H         1 ALA         0.0797
    134 H         -18.7875   15.2027  -14.2789 H         1 ALA         0.0277
    135 H         -19.8838   16.2868  -13.3572 H         1 ALA         0.0277
    136 H         -18.7407   15.2115  -12.4833 H         1 ALA         0.0277
    137 H         -18.1082   16.2394  -15.8439 H         1 ASP         0.1884
    138 H         -17.4874   18.7367  -17.1396 H         1 ASP         0.0819
    139 H         -18.4177   17.4494  -19.1368 H         1 ASP         0.0478
    140 H         -18.6992   16.0840  -18.0040 H         1 ASP         0.0478
    141 H         -18.9939   20.0631  -18.3786 H         1 TYR         0.1885
    142 H         -20.8650   21.3178  -18.7373 H         1 TYR         0.0821
    143 H         -22.9307   20.2345  -19.1832 H         1 TYR         0.0453
    144 H         -22.5404   18.8607  -18.0937 H         1 TYR         0.0453
    145 H         -21.2225   17.0015  -18.8824 H         1 TYR         0.0530
    146 H         -21.8832   20.3668  -21.4231 H         1 TYR         0.0530
    147 H         -20.3219   15.7306  -20.7922 H         1 TYR         0.0525
    148 H         -21.1154   19.0473  -23.3689 H         1 TYR         0.0525
    149 H         -20.0085   15.6904  -22.9903 H         1 TYR         0.2458
    150 H         -19.7833   21.4031  -16.0740 H         1 PHE         0.1885
    151 H         -22.2110   21.5155  -14.3633 H         1 PHE         0.0823
    152 H         -20.1800   22.1987  -12.6698 H         1 PHE         0.0474
    153 H         -19.3121   21.1479  -13.8399 H         1 PHE         0.0474
    154 H         -21.3006   19.1160  -14.5283 H         1 PHE         0.0557
    155 H         -20.3866   20.8903  -10.7443 H         1 PHE         0.0557
    156 H         -22.2586   17.1396  -13.3782 H         1 PHE         0.0599
    157 H         -21.3016   18.8907   -9.5954 H         1 PHE         0.0599
    158 H         -22.2276   17.0156  -10.9122 H         1 PHE         0.0559
    159 H         -20.6958   23.5112  -16.4617 H         1 GLU         0.1883
    160 H         -20.2976   26.0083  -15.2281 H         1 GLU         0.0801
    161 H         -20.8092   26.9415  -17.5601 H         1 GLU         0.0330
    162 H         -21.1968   25.2605  -18.0609 H         1 GLU         0.0330
    163 H         -18.5538   25.8499  -16.7580 H         1 GLU         0.0433
    164 H         -18.8186   26.3269  -18.4695 H         1 GLU         0.0433
    165 H         -21.6120   27.9619  -15.3714 H         1 TYR         0.1877
    166 H         -24.3990   27.5785  -14.6139 H         1 TYR         0.0747
    167 H         -24.3871   30.1128  -14.5631 H         1 TYR         0.0446
    168 H         -22.6659   30.0510  -15.0734 H         1 TYR         0.0446
    169 H         -21.0920   28.6114  -13.5206 H         1 TYR         0.0530
    170 H         -24.8218   30.2870  -12.2897 H         1 TYR         0.0530
    171 H         -20.4570   28.2681  -11.1581 H         1 TYR         0.0525
    172 H         -24.1915   29.9560   -9.9191 H         1 TYR         0.0525
    173 H         -22.4585   28.4901   -8.6132 H         1 TYR         0.2458
@<TRIPOS>BOND
     1    1    2 1  
     2    2    3 1  
     3    2    5 1  
     4    3    4 2  
     5    3   11 am 
     6    5    6 1  
     7    6    7 1  
     8    6    8 2  
     9    7    9 1  
    10    8   10 1  
    11    9   10 2  
    12   11   12 1  
    13   11   17 1  
    14   12   13 1  
    15   12   15 1  
    16   13   14 2  
    17   13   18 am 
    18   15   16 1  
    19   16   17 1  
    20   18   19 1  
    21   19   20 1  
    22   19   22 1  
    23   20   21 2  
    24   20   25 am 
    25   22   23 1  
    26   22   24 1  
    27   25   26 1  
    28   26   27 1  
    29   27   28 2  
    30   27   29 am 
    31   29   30 1  
    32   30   31 1  
    33   30   33 1  
    34   31   32 2  
    35   31   38 am 
    36   33   34 1  
    37   34   35 1  
    38   35   36 2  
    39   35   37 am 
    40   38   39 1  
    41   39   40 1  
    42   39   42 1  
    43   40   41 2  
    44   40   43 am 
    45   43   44 1  
    46   44   45 1  
    47   44   47 1  
    48   45   46 2  
    49   45   51 am 
    50   47   48 1  
    51   48   49 ar 
    52   48   50 ar 
    53   51   52 1  
    54   52   53 1  
    55   52   55 1  
    56   53   54 2  
    57   53   63 am 
    58   55   56 1  
    59   56   57 ar 
    60   56   58 ar 
    61   57   59 ar 
    62   58   60 ar 
    63   59   61 ar 
    64   60   61 ar 
    65   61   62 1  
    66   63   64 1  
    67   64   65 1  
    68   64   67 1  
    69   65   66 2  
    70   65   74 am 
    71   67   68 1  
    72   68   69 ar 
    73   68   70 ar 
    74   69   71 ar 
    75   70   72 ar 
    76   71   73 ar 
    77   72   73 ar 
    78   74   75 1  
    79   75   76 1  
    80   75   78 1  
    81   76   77 2  
    82   76   83 am 
    83   78   79 1  
    84   79   80 1  
    85   80   81 ar 
    86   80   82 ar 
    87   83   84 1  
    88   84   85 1  
    89   84   87 1  
    90   85   86 ar 
    91   85   95 ar 
    92   87   88 1  
    93   88   89 ar 
    94   88   90 ar 
    95   89   91 ar 
    96   90   92 ar 
    97   91   93 ar 
    98   92   93 ar 
    99   93   94 1  
   100    1   96 1  
   101    1   97 1  
   102    1   98 1  
   103    2   99 1  
   104    5  100 1  
   105    5  101 1  
   106    7  102 1  
   107    8  103 1  
   108    9  104 1  
   109   12  105 1  
   110   15  106 1  
   111   15  107 1  
   112   16  108 1  
   113   16  109 1  
   114   17  110 1  
   115   17  111 1  
   116   18  112 1  
   117   19  113 1  
   118   22  114 1  
   119   23  115 1  
   120   23  116 1  
   121   23  117 1  
   122   24  118 1  
   123   24  119 1  
   124   24  120 1  
   125   25  121 1  
   126   26  122 1  
   127   26  123 1  
   128   29  124 1  
   129   30  125 1  
   130   33  126 1  
   131   33  127 1  
   132   34  128 1  
   133   34  129 1  
   134   37  130 1  
   135   37  131 1  
   136   38  132 1  
   137   39  133 1  
   138   42  134 1  
   139   42  135 1  
   140   42  136 1  
   141   43  137 1  
   142   44  138 1  
   143   47  139 1  
   144   47  140 1  
   145   51  141 1  
   146   52  142 1  
   147   55  143 1  
   148   55  144 1  
   149   57  145 1  
   150   58  146 1  
   151   59  147 1  
   152   60  148 1  
   153   62  149 1  
   154   63  150 1  
   155   64  151 1  
   156   67  152 1  
   157   67  153 1  
   158   69  154 1  
   159   70  155 1  
   160   71  156 1  
   161   72  157 1  
   162   73  158 1  
   163   74  159 1  
   164   75  160 1  
   165   78  161 1  
   166   78  162 1  
   167   79  163 1  
   168   79  164 1  
   169   83  165 1  
   170   84  166 1  
   171   87  167 1  
   172   87  168 1  
   173   89  169 1  
   174   90  170 1  
   175   91  171 1  
   176   92  172 1  
   177   94  173 1  
@<TRIPOS>SUBSTRUCTURE
     1 HIS         1

