3lzu_ligand
  -I-interpret- 

 75 78  0  0  0  0  0  0  0  0999 V2000
    8.9630  -16.2910   -7.9310 N   0  0  0  0  0
    8.8030  -16.0010   -6.6240 C   0  0  0  0  0
    7.5340  -15.8130   -6.0870 C   0  0  0  0  0
    7.3980  -15.5000   -4.7360 C   0  0  0  0  0
    8.5400  -15.3880   -3.9490 C   0  0  0  0  0
    9.7980  -15.5710   -4.5040 C   0  0  0  0  0
    9.9370  -15.8820   -5.8440 C   0  0  0  0  0
    8.4700  -15.0480   -2.3950 S   0  0  0  0  0
    9.6710  -14.3460   -2.0590 O   0  0  0  0  0
    7.3100  -14.2510   -2.1400 O   0  0  0  0  0
    8.3160  -16.3440   -1.4310 N   0  0  0  0  0
    7.1740  -17.1870   -1.8270 C   0  0  0  0  0
    6.6310  -17.9590   -0.6290 C   0  0  0  0  0
    6.2750  -17.0200    0.5160 C   0  0  0  0  0
    5.4090  -18.7900   -1.0160 C   0  0  0  0  0
    9.5510  -17.1450   -1.3220 C   0  0  0  0  0
    9.9820  -17.1410    0.1440 C   0  0  0  0  0
   11.0550  -18.0650    0.3350 O   0  0  0  0  0
   10.4380  -15.7720    0.6320 C   0  0  0  0  0
   10.5840  -15.8550    2.0680 N   0  0  0  0  0
    9.7690  -15.2500    2.9200 C   0  0  0  0  0
    8.7960  -14.5570    2.6300 O   0  0  0  0  0
   10.1670  -15.5040    4.2900 O   0  0  0  0  0
    9.5010  -14.7070    5.2530 C   0  0  0  0  0
    9.1030  -15.6180    6.3950 C   0  0  0  0  0
   10.3110  -15.7140    7.1450 O   0  0  0  0  0
   11.0480  -14.4960    7.0400 C   0  0  0  0  0
   12.4220  -14.8100    6.8090 O   0  0  0  0  0
   12.7650  -14.5840    5.4510 C   0  0  0  0  0
   11.7670  -13.5410    4.9610 C   0  0  0  0  0
   10.5340  -13.7550    5.8250 C   0  0  0  0  0
   11.7870  -15.3360    0.0700 C   0  0  0  0  0
   13.2830  -14.0060    1.5940 C   0  0  0  0  0
   13.6800  -12.8060    2.1660 C   0  0  0  0  0
   13.0200  -11.6290    1.8390 C   0  0  0  0  0
   11.9620  -11.6590    0.9410 C   0  0  0  0  0
   11.5650  -12.8590    0.3660 C   0  0  0  0  0
   12.2210  -14.0340    0.6920 C   0  0  0  0  0
    8.1478  -16.3749   -8.5383 H   0  0  0  0  0
    9.8992  -16.4265   -8.3124 H   0  0  0  0  0
    6.6512  -15.9099   -6.7190 H   0  0  0  0  0
    6.4104  -15.3450   -4.3016 H   0  0  0  0  0
   10.6846  -15.4687   -3.8783 H   0  0  0  0  0
   10.9257  -16.0309   -6.2781 H   0  0  0  0  0
    7.5072  -17.8986   -2.5825 H   0  0  0  0  0
    6.3842  -16.5472   -2.2206 H   0  0  0  0  0
    7.4199  -18.6328   -0.2948 H   0  0  0  0  0
    7.1660  -16.4750    0.8277 H   0  0  0  0  0
    5.5141  -16.3144    0.1824 H   0  0  0  0  0
    5.8910  -17.6009    1.3546 H   0  0  0  0  0
    4.6259  -18.1301   -1.3895 H   0  0  0  0  0
    5.6868  -19.5023   -1.7929 H   0  0  0  0  0
    5.0454  -19.3284   -0.1408 H   0  0  0  0  0
   10.3349  -16.7191   -1.9482 H   0  0  0  0  0
    9.3716  -18.1653   -1.6610 H   0  0  0  0  0
    9.1031  -17.4264    0.7221 H   0  0  0  0  0
   11.3214  -18.0581    1.2573 H   0  0  0  0  0
    9.6948  -15.0460    0.3024 H   0  0  0  0  0
   11.3540  -16.4077    2.4447 H   0  0  0  0  0
    8.6455  -14.1901    4.8182 H   0  0  0  0  0
    8.7290  -16.5856    6.0603 H   0  0  0  0  0
    8.2666  -15.2328    6.9782 H   0  0  0  0  0
   10.9400  -13.9019    7.9475 H   0  0  0  0  0
   12.7133  -15.5004    4.8631 H   0  0  0  0  0
   13.7938  -14.2397    5.3459 H   0  0  0  0  0
   11.5460  -13.6551    3.8998 H   0  0  0  0  0
   12.1582  -12.5277    5.0526 H   0  0  0  0  0
   10.0658  -12.7810    5.9669 H   0  0  0  0  0
   11.6950  -15.2007   -1.0076 H   0  0  0  0  0
   12.5293  -16.1016    0.2960 H   0  0  0  0  0
   13.8029  -14.9290    1.8507 H   0  0  0  0  0
   14.5101  -12.7872    2.8722 H   0  0  0  0  0
   13.3316  -10.6849    2.2858 H   0  0  0  0  0
   11.4405  -10.7365    0.6860 H   0  0  0  0  0
   10.7366  -12.8760   -0.3423 H   0  0  0  0  0
  2  1  1  0  0  0
  3  2  4  0  0  0
  7  2  4  0  0  0
  4  3  4  0  0  0
  5  4  4  0  0  0
  5  6  4  0  0  0
  8  5  1  0  0  0
  6  7  4  0  0  0
  8  9  2  0  0  0
  8 10  2  0  0  0
 11  8  1  0  0  0
 11 12  1  0  0  0
 16 11  1  0  0  0
 12 13  1  0  0  0
 13 14  1  0  0  0
 13 15  1  0  0  0
 17 16  1  0  0  0
 17 18  1  0  0  0
 19 17  1  0  0  0
 19 20  1  0  0  0
 32 19  1  0  0  0
 20 21  1  0  0  0
 21 22  2  0  0  0
 21 23  1  0  0  0
 23 24  1  0  0  0
 24 25  1  0  0  0
 24 31  1  0  0  0
 25 26  1  0  0  0
 27 26  1  0  0  0
 27 28  1  0  0  0
 31 27  1  0  0  0
 29 28  1  0  0  0
 30 29  1  0  0  0
 31 30  1  0  0  0
 38 32  1  0  0  0
 33 34  4  0  0  0
 33 38  4  0  0  0
 34 35  4  0  0  0
 35 36  4  0  0  0
 36 37  4  0  0  0
 37 38  4  0  0  0
  1 39  1  0  0  0
  1 40  1  0  0  0
  3 41  1  0  0  0
  4 42  1  0  0  0
  6 43  1  0  0  0
  7 44  1  0  0  0
 12 45  1  0  0  0
 12 46  1  0  0  0
 13 47  1  0  0  0
 14 48  1  0  0  0
 14 49  1  0  0  0
 14 50  1  0  0  0
 15 51  1  0  0  0
 15 52  1  0  0  0
 15 53  1  0  0  0
 16 54  1  0  0  0
 16 55  1  0  0  0
 17 56  1  0  0  0
 18 57  1  0  0  0
 19 58  1  0  0  0
 20 59  1  0  0  0
 24 60  1  0  0  0
 25 61  1  0  0  0
 25 62  1  0  0  0
 27 63  1  0  0  0
 29 64  1  0  0  0
 29 65  1  0  0  0
 30 66  1  0  0  0
 30 67  1  0  0  0
 31 68  1  0  0  0
 32 69  1  0  0  0
 32 70  1  0  0  0
 33 71  1  0  0  0
 34 72  1  0  0  0
 35 73  1  0  0  0
 36 74  1  0  0  0
 37 75  1  0  0  0
M  END
$$$$
