4b8p_ligand
  -I-interpret- 

127126  0  0  0  0  0  0  0  0999 V2000
    6.8020  -18.1970   23.0630 N   0  3  0  0  0
    7.2560  -17.5110   21.8570 C   0  0  0  0  0
    7.4140  -16.0090   22.1320 C   0  0  0  0  0
    8.2060  -15.3310   21.4900 O   0  0  0  0  0
    6.2890  -17.7350   20.6550 C   0  0  0  0  0
    5.9170  -19.1130   20.5730 O   0  0  0  0  0
    6.9330  -17.3090   19.3260 C   0  0  0  0  0
    6.6570  -15.4920   23.0900 N   0  0  0  0  0
    6.7680  -14.0950   23.4830 C   0  0  0  0  0
    7.6960  -13.9780   24.6940 C   0  0  0  0  0
    8.4600  -13.0230   24.8150 O   0  0  0  0  0
    5.3820  -13.5130   23.8360 C   0  0  0  0  0
    5.4970  -12.1080   24.3960 C   0  0  0  0  0
    4.4810  -13.5290   22.6160 C   0  0  0  0  0
    7.6600  -14.9930   25.5540 N   0  0  0  0  0
    8.3640  -14.9790   26.8310 C   0  0  0  0  0
    9.7700  -15.5260   26.6760 C   0  0  0  0  0
    9.9850  -16.4400   25.8910 O   0  0  0  0  0
    7.6010  -15.8110   27.8650 C   0  0  0  0  0
    6.2230  -15.3040   28.2810 C   0  0  0  0  0
    5.5270  -16.3210   29.1400 C   0  0  0  0  0
    6.3560  -14.0000   29.0110 C   0  0  0  0  0
   10.7260  -14.9660   27.4140 N   0  0  0  0  0
   12.0930  -15.4650   27.3900 C   0  0  0  0  0
   13.0960  -14.4480   27.8840 C   0  0  0  0  0
   12.7470  -13.5600   28.6500 O   0  0  0  0  0
   14.3390  -14.5580   27.4350 N   0  0  0  0  0
   15.3580  -13.5760   27.8050 C   0  0  0  0  0
   15.3340  -12.3190   26.9250 C   0  0  0  0  0
   14.9880  -12.3750   25.7510 O   0  0  0  0  0
   16.7470  -14.2120   27.8080 C   0  0  0  0  0
   16.8540  -15.2650   28.8800 C   0  0  0  0  0
   18.2200  -15.4110   29.4470 C   0  0  0  0  0
   18.2190  -16.4430   30.5550 C   0  0  0  0  0
   19.4070  -16.3430   31.4150 N   0  3  0  0  0
   15.6800  -11.1860   27.5350 N   0  0  0  0  0
   15.6470   -9.8710   26.9010 C   0  0  0  0  0
   16.9640   -9.1430   27.0840 C   0  0  0  0  0
   17.4130   -8.9420   28.2110 O   0  0  0  0  0
   14.5470   -8.9980   27.5120 C   0  0  0  0  0
   13.1250   -9.4260   27.1960 C   0  0  0  0  0
   12.1100   -8.5700   27.9280 C   0  0  0  0  0
   12.1470   -8.7610   29.3660 N   0  0  0  0  0
   11.9050   -7.7890   30.2340 C   0  0  0  0  0
   11.6460   -6.5740   29.7840 N   0  0  0  0  0
   11.9450   -8.0230   31.5440 N   0  0  0  0  0
   17.5600   -8.7170   25.9810 N   0  0  0  0  0
   18.7320   -7.8680   26.0370 C   0  0  0  0  0
   18.3390   -6.4330   26.3830 C   0  0  0  0  0
   19.1760   -5.6410   26.8926 O   0  0  0  0  0
   19.4650   -7.9190   24.7000 C   0  0  0  0  0
   20.0750   -9.2720   24.3800 C   0  0  0  0  0
   21.4000   -9.4810   25.0590 C   0  0  0  0  0
   21.8950  -10.8760   24.8170 C   0  0  0  0  0
   23.1270  -11.1210   25.5810 N   0  3  0  0  0
   17.1646   -6.0369   26.1562 O   0  0  0  0  0
    7.4625  -18.0232   23.8206 H   0  0  0  0  0
    5.8811  -17.8461   23.3260 H   0  0  0  0  0
    6.7464  -19.1993   22.8821 H   0  0  0  0  0
    8.2218  -17.9363   21.5840 H   0  0  0  0  0
    5.4058  -17.1195   20.8261 H   0  0  0  0  0
    5.5140  -19.3843   21.4010 H   0  0  0  0  0
    7.8177  -17.9182   19.1407 H   0  0  0  0  0
    6.2175  -17.4491   18.5157 H   0  0  0  0  0
    7.2189  -16.2587   19.3825 H   0  0  0  0  0
    5.9792  -16.0889   23.5639 H   0  0  0  0  0
    7.1780  -13.5298   22.6460 H   0  0  0  0  0
    4.9399  -14.1409   24.6096 H   0  0  0  0  0
    6.1049  -12.1274   25.3005 H   0  0  0  0  0
    5.9660  -11.4603   23.6553 H   0  0  0  0  0
    4.5024  -11.7302   24.6331 H   0  0  0  0  0
    4.9306  -12.9274   21.8260 H   0  0  0  0  0
    4.3599  -14.5551   22.2688 H   0  0  0  0  0
    3.5073  -13.1159   22.8795 H   0  0  0  0  0
    7.1146  -15.8192   25.3085 H   0  0  0  0  0
    8.4252  -13.9458   27.1730 H   0  0  0  0  0
    8.2099  -15.7940   28.7689 H   0  0  0  0  0
    7.4330  -16.7825   27.4002 H   0  0  0  0  0
    5.6214  -15.1445   27.3862 H   0  0  0  0  0
    5.4100  -17.2487   28.5799 H   0  0  0  0  0
    6.1217  -16.5075   30.0342 H   0  0  0  0  0
    4.5461  -15.9421   29.4270 H   0  0  0  0  0
    6.9698  -14.1438   29.9002 H   0  0  0  0  0
    6.8272  -13.2657   28.3576 H   0  0  0  0  0
    5.3673  -13.6464   29.3037 H   0  0  0  0  0
   10.4955  -14.1702   28.0090 H   0  0  0  0  0
   12.3426  -15.7055   26.3566 H   0  0  0  0  0
   12.1438  -16.3316   28.0492 H   0  0  0  0  0
   14.5874  -15.3365   26.8245 H   0  0  0  0  0
   15.1166  -13.2468   28.8157 H   0  0  0  0  0
   17.4872  -13.4362   28.0037 H   0  0  0  0  0
   16.9204  -14.6797   26.8388 H   0  0  0  0  0
   16.5885  -16.2191   28.4247 H   0  0  0  0  0
   16.1951  -14.9657   29.6951 H   0  0  0  0  0
   18.5420  -14.4521   29.8530 H   0  0  0  0  0
   18.9005  -15.7341   28.6592 H   0  0  0  0  0
   18.2176  -17.4313   30.0953 H   0  0  0  0  0
   17.3387  -16.2717   31.1746 H   0  0  0  0  0
   19.3595  -17.0562   32.1426 H   0  0  0  0  0
   20.2457  -16.4851   30.8521 H   0  0  0  0  0
   19.4372  -15.4185   31.8449 H   0  0  0  0  0
   15.9873  -11.2407   28.5061 H   0  0  0  0  0
   15.4546  -10.0374   25.8411 H   0  0  0  0  0
   14.6723   -8.0001   27.0918 H   0  0  0  0  0
   14.6597   -9.0673   28.5939 H   0  0  0  0  0
   12.9974  -10.4605   27.5147 H   0  0  0  0  0
   12.9614   -9.3141   26.1242 H   0  0  0  0  0
   11.1179   -8.8558   27.5785 H   0  0  0  0  0
   12.3446   -7.5254   27.7236 H   0  0  0  0  0
   12.3702   -9.6887   29.7265 H   0  0  0  0  0
   11.6341   -6.3937   28.7801 H   0  0  0  0  0
   11.7755   -7.2633   32.2032 H   0  0  0  0  0
   12.1452   -8.9620   31.8885 H   0  0  0  0  0
   17.1859   -8.9925   25.0730 H   0  0  0  0  0
   19.3981   -8.2314   26.8195 H   0  0  0  0  0
   20.2829   -7.2004   24.7525 H   0  0  0  0  0
   18.7329   -7.7027   23.9219 H   0  0  0  0  0
   20.2372   -9.3217   23.3033 H   0  0  0  0  0
   19.3901  -10.0422   24.7347 H   0  0  0  0  0
   21.2783   -9.3277   26.1313 H   0  0  0  0  0
   22.1226   -8.7720   24.6549 H   0  0  0  0  0
   22.1051  -10.9994   23.7546 H   0  0  0  0  0
   21.1313  -11.5848   25.1371 H   0  0  0  0  0
   23.4506  -12.0724   25.4061 H   0  0  0  0  0
   23.8445  -10.4575   25.2888 H   0  0  0  0  0
   22.9377  -11.0026   26.5763 H   0  0  0  0  0
   16.6554   -6.7533   25.7702 H   0  0  0  0  0
  1  2  1  0  0  0
  2  3  1  0  0  0
  2  5  1  0  0  0
  3  4  2  0  0  0
  3  8  1  0  0  0
  5  6  1  0  0  0
  5  7  1  0  0  0
  8  9  1  0  0  0
  9 10  1  0  0  0
  9 12  1  0  0  0
 10 11  2  0  0  0
 10 15  1  0  0  0
 12 13  1  0  0  0
 12 14  1  0  0  0
 15 16  1  0  0  0
 16 17  1  0  0  0
 16 19  1  0  0  0
 17 18  2  0  0  0
 17 23  1  0  0  0
 19 20  1  0  0  0
 20 21  1  0  0  0
 20 22  1  0  0  0
 23 24  1  0  0  0
 24 25  1  0  0  0
 25 26  2  0  0  0
 25 27  1  0  0  0
 27 28  1  0  0  0
 28 29  1  0  0  0
 28 31  1  0  0  0
 29 30  2  0  0  0
 29 36  1  0  0  0
 31 32  1  0  0  0
 32 33  1  0  0  0
 33 34  1  0  0  0
 34 35  1  0  0  0
 36 37  1  0  0  0
 37 38  1  0  0  0
 37 40  1  0  0  0
 38 39  2  0  0  0
 38 47  1  0  0  0
 40 41  1  0  0  0
 41 42  1  0  0  0
 42 43  1  0  0  0
 43 44  1  0  0  0
 44 45  2  0  0  0
 44 46  1  0  0  0
 47 48  1  0  0  0
 48 49  1  0  0  0
 48 51  1  0  0  0
 49 50  2  0  0  0
 51 52  1  0  0  0
 52 53  1  0  0  0
 53 54  1  0  0  0
 54 55  1  0  0  0
 49 56  1  0  0  0
  1 57  1  0  0  0
  1 58  1  0  0  0
  1 59  1  0  0  0
  2 60  1  0  0  0
  5 61  1  0  0  0
  6 62  1  0  0  0
  7 63  1  0  0  0
  7 64  1  0  0  0
  7 65  1  0  0  0
  8 66  1  0  0  0
  9 67  1  0  0  0
 12 68  1  0  0  0
 13 69  1  0  0  0
 13 70  1  0  0  0
 13 71  1  0  0  0
 14 72  1  0  0  0
 14 73  1  0  0  0
 14 74  1  0  0  0
 15 75  1  0  0  0
 16 76  1  0  0  0
 19 77  1  0  0  0
 19 78  1  0  0  0
 20 79  1  0  0  0
 21 80  1  0  0  0
 21 81  1  0  0  0
 21 82  1  0  0  0
 22 83  1  0  0  0
 22 84  1  0  0  0
 22 85  1  0  0  0
 23 86  1  0  0  0
 24 87  1  0  0  0
 24 88  1  0  0  0
 27 89  1  0  0  0
 28 90  1  0  0  0
 31 91  1  0  0  0
 31 92  1  0  0  0
 32 93  1  0  0  0
 32 94  1  0  0  0
 33 95  1  0  0  0
 33 96  1  0  0  0
 34 97  1  0  0  0
 34 98  1  0  0  0
 35 99  1  0  0  0
 35100  1  0  0  0
 35101  1  0  0  0
 36102  1  0  0  0
 37103  1  0  0  0
 40104  1  0  0  0
 40105  1  0  0  0
 41106  1  0  0  0
 41107  1  0  0  0
 42108  1  0  0  0
 42109  1  0  0  0
 43110  1  0  0  0
 45111  1  0  0  0
 46112  1  0  0  0
 46113  1  0  0  0
 47114  1  0  0  0
 48115  1  0  0  0
 51116  1  0  0  0
 51117  1  0  0  0
 52118  1  0  0  0
 52119  1  0  0  0
 53120  1  0  0  0
 53121  1  0  0  0
 54122  1  0  0  0
 54123  1  0  0  0
 55124  1  0  0  0
 55125  1  0  0  0
 55126  1  0  0  0
 56127  1  0  0  0
M  END
$$$$
