### 
### Created by X-TOOL on Mon Sep 10 21:13:14 2018
### 

@<TRIPOS>MOLECULE
4b8p_ligand
  127   126     1     0     0
SMALL
GAST_HUCK


@<TRIPOS>ATOM
      1 N           6.8020  -18.1970   23.0630 N.4       1 THR         0.2398
      2 CA          7.2560  -17.5110   21.8570 C.3       1 THR         0.0910
      3 C           7.4140  -16.0090   22.1320 C.2       1 THR         0.2293
      4 O           8.2060  -15.3310   21.4900 O.2       1 THR        -0.3906
      5 CB          6.2890  -17.7350   20.6550 C.3       1 THR         0.1120
      6 OG1         5.9170  -19.1130   20.5730 O.3       1 THR        -0.3840
      7 CG2         6.9330  -17.3090   19.3260 C.3       1 THR        -0.0314
      8 N           6.6570  -15.4920   23.0900 N.am      1 VAL        -0.2607
      9 CA          6.7680  -14.0950   23.4830 C.3       1 VAL         0.1334
     10 C           7.6960  -13.9780   24.6940 C.2       1 VAL         0.2042
     11 O           8.4600  -13.0230   24.8150 O.2       1 VAL        -0.3944
     12 CB          5.3820  -13.5130   23.8360 C.3       1 VAL        -0.0063
     13 CG1         5.4970  -12.1080   24.3960 C.3       1 VAL        -0.0584
     14 CG2         4.4810  -13.5290   22.6160 C.3       1 VAL        -0.0584
     15 N           7.6600  -14.9930   25.5540 N.am      1 LEU        -0.2637
     16 CA          8.3640  -14.9790   26.8310 C.3       1 LEU         0.1312
     17 C           9.7700  -15.5260   26.6760 C.2       1 LEU         0.2037
     18 O           9.9850  -16.4400   25.8910 O.2       1 LEU        -0.3944
     19 CB          7.6010  -15.8110   27.8650 C.3       1 LEU        -0.0101
     20 CG          6.2230  -15.3040   28.2810 C.3       1 LEU        -0.0425
     21 CD1         5.5270  -16.3210   29.1400 C.3       1 LEU        -0.0625
     22 CD2         6.3560  -14.0000   29.0110 C.3       1 LEU        -0.0625
     23 N          10.7260  -14.9660   27.4140 N.am      1 GLY        -0.2664
     24 CA         12.0930  -15.4650   27.3900 C.3       1 GLY         0.1201
     25 C          13.0960  -14.4480   27.8840 C.2       1 GLY         0.2007
     26 O          12.7470  -13.5600   28.6500 O.2       1 GLY        -0.3947
     27 N          14.3390  -14.5580   27.4350 N.am      1 LYS        -0.2640
     28 CA         15.3580  -13.5760   27.8050 C.3       1 LYS         0.1310
     29 C          15.3340  -12.3190   26.9250 C.2       1 LYS         0.2039
     30 O          14.9880  -12.3750   25.7510 O.2       1 LYS        -0.3944
     31 CB         16.7470  -14.2120   27.8080 C.3       1 LYS        -0.0122
     32 CG         16.8540  -15.2650   28.8800 C.3       1 LYS        -0.0440
     33 CD         18.2200  -15.4110   29.4470 C.3       1 LYS        -0.0124
     34 CE         18.2190  -16.4430   30.5550 C.3       1 LYS        -0.0354
     35 NZ         19.4070  -16.3430   31.4150 N.4       1 LYS         0.2185
     36 N          15.6800  -11.1860   27.5350 N.am      1 ARG        -0.2637
     37 CA         15.6470   -9.8710   26.9010 C.3       1 ARG         0.1310
     38 C          16.9640   -9.1430   27.0840 C.2       1 ARG         0.2033
     39 O          17.4130   -8.9420   28.2110 O.2       1 ARG        -0.3944
     40 CB         14.5470   -8.9980   27.5120 C.3       1 ARG        -0.0092
     41 CG         13.1250   -9.4260   27.1960 C.3       1 ARG        -0.0156
     42 CD         12.1100   -8.5700   27.9280 C.3       1 ARG         0.0627
     43 NE         12.1470   -8.7610   29.3660 N.pl3     1 ARG        -0.2723
     44 CZ         11.9050   -7.7890   30.2340 C.cat     1 ARG         0.2882
     45 NH1        11.6460   -6.5740   29.7840 N.pl3     1 ARG        -0.2849
     46 NH2        11.9450   -8.0230   31.5440 N.pl3     1 ARG        -0.2849
     47 N          17.5600   -8.7170   25.9810 N.am      1 LYS        -0.2695
     48 CA         18.7320   -7.8680   26.0370 C.3       1 LYS         0.0944
     49 C          18.3390   -6.4330   26.3830 C.2       1 LYS         0.0601
     50 O          19.1760   -5.6410   26.8926 O.co2     1 LYS        -0.5666
     51 CB         19.4650   -7.9190   24.7000 C.3       1 LYS        -0.0177
     52 CG         20.0750   -9.2720   24.3800 C.3       1 LYS        -0.0446
     53 CD         21.4000   -9.4810   25.0590 C.3       1 LYS        -0.0125
     54 CE         21.8950  -10.8760   24.8170 C.3       1 LYS        -0.0354
     55 NZ         23.1270  -11.1210   25.5810 N.4       1 LYS         0.2185
     56 O          17.1646   -6.0369   26.1562 O.co2     1 LYS        -0.5666
     57 H1          7.4540  -18.0259   23.8124 H         1 THR         0.2016
     58 H2          6.7467  -19.1877   22.8854 H         1 THR         0.2016
     59 H3          5.8919  -17.8510   23.3239 H         1 THR         0.2016
     60 H4          8.2398  -17.9197   21.5831 H         1 THR         0.1125
     61 H5          5.3849  -17.1300   20.8179 H         1 THR         0.0674
     62 H6          5.3283  -19.2377   19.8379 H         1 THR         0.2102
     63 H7          6.2236  -17.4810   18.5031 H         1 THR         0.0258
     64 H8          7.8444  -17.9004   19.1540 H         1 THR         0.0258
     65 H9          7.1918  -16.2408   19.3697 H         1 THR         0.0258
     66 H10         5.9924  -16.0772   23.5546 H         1 VAL         0.1885
     67 H11         7.1926  -13.5216   22.6458 H         1 VAL         0.0802
     68 H12         4.9289  -14.1519   24.6084 H         1 VAL         0.0343
     69 H13         4.4938  -11.7256   24.6357 H         1 VAL         0.0234
     70 H14         5.9702  -11.4533   23.6494 H         1 VAL         0.0234
     71 H15         6.1103  -12.1262   25.3090 H         1 VAL         0.0234
     72 H16         4.4107  -14.5550   22.2256 H         1 VAL         0.0234
     73 H17         4.9005  -12.8700   21.8416 H         1 VAL         0.0234
     74 H18         3.4783  -13.1738   22.8960 H         1 VAL         0.0234
     75 H19         7.1253  -15.8030   25.3133 H         1 LEU         0.1883
     76 H20         8.4260  -13.9399   27.1865 H         1 LEU         0.0800
     77 H21         8.2222  -15.8653   28.7712 H         1 LEU         0.0315
     78 H22         7.4713  -16.8207   27.4483 H         1 LEU         0.0315
     79 H23         5.6204  -15.1399   27.3755 H         1 LEU         0.0298
     80 H24         4.5369  -15.9398   29.4303 H         1 LEU         0.0232
     81 H25         6.1262  -16.5101   30.0429 H         1 LEU         0.0232
     82 H26         5.4082  -17.2578   28.5759 H         1 LEU         0.0232
     83 H27         6.8672  -13.2696   28.3667 H         1 LEU         0.0232
     84 H28         6.9419  -14.1520   29.9295 H         1 LEU         0.0232
     85 H29         5.3564  -13.6223   29.2720 H         1 LEU         0.0232
     86 H30        10.5001  -14.1858   27.9973 H         1 GLY         0.1881
     87 H31        12.3495  -15.7380   26.3557 H         1 GLY         0.0763
     88 H32        12.1528  -16.3574   28.0304 H         1 GLY         0.0763
     89 H33        14.5825  -15.3212   26.8365 H         1 LYS         0.1883
     90 H34        15.1384  -13.2542   28.8337 H         1 LYS         0.0800
     91 H35        17.4999  -13.4318   27.9933 H         1 LYS         0.0312
     92 H36        16.9329  -14.6757   26.8280 H         1 LYS         0.0312
     93 H37        16.5534  -16.2309   28.4479 H         1 LYS         0.0269
     94 H38        16.1668  -14.9989   29.6966 H         1 LYS         0.0269
     95 H39        18.5505  -14.4433   29.8522 H         1 LYS         0.0317
     96 H40        18.9106  -15.7312   28.6530 H         1 LYS         0.0317
     97 H41        18.1930  -17.4458   30.1037 H         1 LYS         0.0813
     98 H42        17.3216  -16.2960   31.1739 H         1 LYS         0.0813
     99 H43        19.3611  -17.0474   32.1345 H         1 LYS         0.1994
    100 H44        19.4379  -15.4297   31.8404 H         1 LYS         0.1994
    101 H45        20.2365  -16.4834   30.8598 H         1 LYS         0.1994
    102 H46        15.9813  -11.2396   28.4870 H         1 ARG         0.1883
    103 H47        15.4517  -10.0037   25.8267 H         1 ARG         0.0800
    104 H48        14.6828   -7.9716   27.1406 H         1 ARG         0.0313
    105 H49        14.6706   -9.0119   28.6049 H         1 ARG         0.0313
    106 H50        12.9921  -10.4751   27.4988 H         1 ARG         0.0301
    107 H51        12.9562   -9.3327   26.1131 H         1 ARG         0.0301
    108 H52        11.1045   -8.8289   27.5648 H         1 ARG         0.0689
    109 H53        12.3183   -7.5125   27.7084 H         1 ARG         0.0689
    110 H54        12.3724   -9.6978   29.7300 H         1 ARG         0.2642
    111 H55        11.4561   -5.8089   30.4469 H         1 ARG         0.2615
    112 H56        11.6340   -6.3920   28.7703 H         1 ARG         0.2615
    113 H57        12.1471   -8.9712   31.8918 H         1 ARG         0.2615
    114 H58        11.7738   -7.2559   32.2097 H         1 ARG         0.2615
    115 H59        17.1932   -8.9871   25.0908 H         1 LYS         0.1875
    116 H60        19.4040   -8.2449   26.8221 H         1 LYS         0.0726
    117 H61        20.2721   -7.1719   24.7196 H         1 LYS         0.0305
    118 H62        18.7497   -7.6653   23.9037 H         1 LYS         0.0305
    119 H63        20.2207   -9.3449   23.2921 H         1 LYS         0.0269
    120 H64        19.3812  -10.0589   24.7106 H         1 LYS         0.0269
    121 H65        21.2827   -9.3203   26.1408 H         1 LYS         0.0317
    122 H66        22.1302   -8.7624   24.6586 H         1 LYS         0.0317
    123 H67        22.1013  -11.0067   23.7445 H         1 LYS         0.0813
    124 H68        21.1239  -11.5943   25.1323 H         1 LYS         0.0813
    125 H69        23.4477  -12.0610   25.4089 H         1 LYS         0.1994
    126 H70        22.9411  -11.0043   26.5648 H         1 LYS         0.1994
    127 H71        23.8368  -10.4658   25.2931 H         1 LYS         0.1994
@<TRIPOS>BOND
     1    1    2 1  
     2    2    3 1  
     3    2    5 1  
     4    3    4 2  
     5    3    8 am 
     6    5    6 1  
     7    5    7 1  
     8    8    9 1  
     9    9   10 1  
    10    9   12 1  
    11   10   11 2  
    12   10   15 am 
    13   12   13 1  
    14   12   14 1  
    15   15   16 1  
    16   16   17 1  
    17   16   19 1  
    18   17   18 2  
    19   17   23 am 
    20   19   20 1  
    21   20   21 1  
    22   20   22 1  
    23   23   24 1  
    24   24   25 1  
    25   25   26 2  
    26   25   27 am 
    27   27   28 1  
    28   28   29 1  
    29   28   31 1  
    30   29   30 2  
    31   29   36 am 
    32   31   32 1  
    33   32   33 1  
    34   33   34 1  
    35   34   35 1  
    36   36   37 1  
    37   37   38 1  
    38   37   40 1  
    39   38   39 2  
    40   38   47 am 
    41   40   41 1  
    42   41   42 1  
    43   42   43 1  
    44   43   44 ar 
    45   44   45 ar 
    46   44   46 ar 
    47   47   48 1  
    48   48   49 1  
    49   48   51 1  
    50   49   50 ar 
    51   51   52 1  
    52   52   53 1  
    53   53   54 1  
    54   54   55 1  
    55   49   56 ar 
    56    1   57 1  
    57    1   58 1  
    58    1   59 1  
    59    2   60 1  
    60    5   61 1  
    61    6   62 1  
    62    7   63 1  
    63    7   64 1  
    64    7   65 1  
    65    8   66 1  
    66    9   67 1  
    67   12   68 1  
    68   13   69 1  
    69   13   70 1  
    70   13   71 1  
    71   14   72 1  
    72   14   73 1  
    73   14   74 1  
    74   15   75 1  
    75   16   76 1  
    76   19   77 1  
    77   19   78 1  
    78   20   79 1  
    79   21   80 1  
    80   21   81 1  
    81   21   82 1  
    82   22   83 1  
    83   22   84 1  
    84   22   85 1  
    85   23   86 1  
    86   24   87 1  
    87   24   88 1  
    88   27   89 1  
    89   28   90 1  
    90   31   91 1  
    91   31   92 1  
    92   32   93 1  
    93   32   94 1  
    94   33   95 1  
    95   33   96 1  
    96   34   97 1  
    97   34   98 1  
    98   35   99 1  
    99   35  100 1  
   100   35  101 1  
   101   36  102 1  
   102   37  103 1  
   103   40  104 1  
   104   40  105 1  
   105   41  106 1  
   106   41  107 1  
   107   42  108 1  
   108   42  109 1  
   109   43  110 1  
   110   45  111 1  
   111   45  112 1  
   112   46  113 1  
   113   46  114 1  
   114   47  115 1  
   115   48  116 1  
   116   51  117 1  
   117   51  118 1  
   118   52  119 1  
   119   52  120 1  
   120   53  121 1  
   121   53  122 1  
   122   54  123 1  
   123   54  124 1  
   124   55  125 1  
   125   55  126 1  
   126   55  127 1  
@<TRIPOS>SUBSTRUCTURE
     1 THR         1

