4jv6_ligand
  -I-interpret- 

 38 41  0  0  0  0  0  0  0  0999 V2000
   19.4930  -16.7440   16.2510 C   0  0  0  0  0
   20.0370  -15.6060   16.8680 C   0  0  0  0  0
   20.7250  -14.6170   16.1790 C   0  0  0  0  0
   20.9190  -14.7670   14.7990 C   0  0  0  0  0
   20.3670  -15.8990   14.1730 C   0  0  0  0  0
   19.6460  -16.8780   14.8750 C   0  0  0  0  0
   19.0330  -18.1330   14.1750 C   0  0  0  0  0
   19.2110  -18.1020   12.6900 N   0  0  0  0  0
   20.2960  -18.6220   12.0670 C   0  0  0  0  0
   21.4460  -19.2740   12.5480 C   0  0  0  0  0
   22.4440  -19.6820   11.6260 C   0  0  0  0  0
   22.2360  -19.4210   10.2490 C   0  0  0  0  0
   21.0840  -18.7530    9.7870 C   0  0  0  0  0
   20.1040  -18.3700   10.7100 C   0  0  0  0  0
   18.9040  -17.6770   10.5530 N   0  0  0  0  0
   18.3740  -17.5190   11.7700 C   0  0  0  0  0
   17.1020  -16.9920   12.0360 C   0  0  0  0  0
   16.0340  -17.5970   11.3610 C   0  0  0  0  0
   14.7040  -17.1780   11.5880 C   0  0  0  0  0
   14.5160  -16.1940   12.5630 C   0  0  0  0  0
   15.5670  -15.5970   13.2330 C   0  0  0  0  0
   16.8820  -16.0000   12.9860 C   0  0  0  0  0
   18.9663  -17.5001   16.8332 H   0  0  0  0  0
   19.9124  -15.4934   17.9450 H   0  0  0  0  0
   21.1073  -13.7400   16.7013 H   0  0  0  0  0
   21.4811  -14.0281   14.2278 H   0  0  0  0  0
   20.5046  -16.0213   13.0987 H   0  0  0  0  0
   17.9637  -18.1481   14.3861 H   0  0  0  0  0
   19.5449  -19.0160   14.5575 H   0  0  0  0  0
   21.5686  -19.4631   13.6144 H   0  0  0  0  0
   23.3488  -20.1841   11.9686 H   0  0  0  0  0
   22.9865  -19.7453    9.5281 H   0  0  0  0  0
   20.9581  -18.5377    8.7259 H   0  0  0  0  0
   16.2315  -18.4009   10.6519 H   0  0  0  0  0
   13.8674  -17.6003   11.0314 H   0  0  0  0  0
   13.4990  -15.8850   12.8046 H   0  0  0  0  0
   15.3691  -14.8075   13.9580 H   0  0  0  0  0
   17.7150  -15.5481   13.5246 H   0  0  0  0  0
  1  2  4  0  0  0
  1  6  4  0  0  0
  2  3  4  0  0  0
  3  4  4  0  0  0
  4  5  4  0  0  0
  5  6  4  0  0  0
  6  7  1  0  0  0
  7  8  1  0  0  0
  8  9  4  0  0  0
  8 16  4  0  0  0
  9 10  4  0  0  0
  9 14  4  0  0  0
 10 11  4  0  0  0
 11 12  4  0  0  0
 12 13  4  0  0  0
 13 14  4  0  0  0
 14 15  4  0  0  0
 15 16  4  0  0  0
 16 17  1  0  0  0
 17 18  4  0  0  0
 17 22  4  0  0  0
 18 19  4  0  0  0
 19 20  4  0  0  0
 20 21  4  0  0  0
 21 22  4  0  0  0
  1 23  1  0  0  0
  2 24  1  0  0  0
  3 25  1  0  0  0
  4 26  1  0  0  0
  5 27  1  0  0  0
  7 28  1  0  0  0
  7 29  1  0  0  0
 10 30  1  0  0  0
 11 31  1  0  0  0
 12 32  1  0  0  0
 13 33  1  0  0  0
 18 34  1  0  0  0
 19 35  1  0  0  0
 20 36  1  0  0  0
 21 37  1  0  0  0
 22 38  1  0  0  0
M  END
$$$$
