1h26_ligand
  -I-interpret- 

176177  0  0  0  0  0  0  0  0999 V2000
    7.2810  151.8910   80.1680 N   0  3  0  0  0
    6.5350  150.9810   79.2550 C   0  0  0  0  0
    7.5120  150.2250   78.3230 C   0  0  0  0  0
    8.4960  150.7950   77.8100 O   0  0  0  0  0
    5.5030  151.7840   78.4480 C   0  0  0  0  0
    4.7490  150.9850   77.5400 O   0  0  0  0  0
    7.2900  148.9150   78.2060 N   0  0  0  0  0
    8.0160  148.0820   77.2610 C   0  0  0  0  0
    7.6620  148.2910   75.8010 C   0  0  0  0  0
    8.3210  147.7280   74.9520 O   0  0  0  0  0
    7.8430  146.6020   77.6050 C   0  0  0  0  0
    6.8490  146.2870   78.7260 C   0  0  0  0  0
    7.4970  145.7600   80.0140 C   0  0  0  0  0
    6.7000  144.7300   80.6680 N   0  0  0  0  0
    7.1670  143.9070   81.6050 C   0  0  0  0  0
    8.4360  143.9880   81.9790 N   0  0  0  0  0
    6.3740  142.9930   82.1660 N   0  0  0  0  0
    6.6240  149.0650   75.5050 N   0  0  0  0  0
    6.2410  149.3310   74.1200 C   0  0  0  0  0
    7.0760  150.4310   73.4320 C   0  0  0  0  0
    6.6450  151.0080   72.4380 O   0  0  0  0  0
    4.7600  149.7070   74.0340 C   0  0  0  0  0
    3.8550  148.7900   74.7990 C   0  0  0  0  0
    2.7840  148.1420   74.2160 N   0  0  0  0  0
    3.8280  148.4460   76.1120 C   0  0  0  0  0
    2.1470  147.4280   75.1310 C   0  0  0  0  0
    2.7590  147.5980   76.2910 N   0  0  0  0  0
    8.2860  150.6850   73.9120 N   0  0  0  0  0
    9.1030  151.7770   73.3770 C   0  0  0  0  0
    9.6530  151.5580   71.9450 C   0  0  0  0  0
    9.9040  150.4270   71.5190 O   0  0  0  0  0
   10.2470  152.1010   74.3330 C   0  0  0  0  0
   11.0460  150.8970   74.8130 C   0  0  0  0  0
   12.3150  151.3200   75.5790 C   0  0  0  0  0
   13.1630  150.0950   75.9660 C   0  0  0  0  0
   14.6270  150.4080   76.1530 N   0  3  0  0  0
    9.8030  152.6620   71.2070 N   0  0  0  0  0
   10.6980  152.7150   70.0870 C   0  0  0  0  0
   12.0140  152.9570   70.7220 C   0  0  0  0  0
   12.1120  153.7910   71.5980 O   0  0  0  0  0
   10.3660  153.8790   69.1660 C   0  0  0  0  0
   11.4530  154.1540   68.1440 C   0  0  0  0  0
   11.2320  155.4750   67.4160 C   0  0  0  0  0
   12.2720  155.7340   66.3500 C   0  0  0  0  0
   11.6590  156.5980   65.2730 N   0  3  0  0  0
   13.0250  152.1980   70.3290 N   0  0  0  0  0
   14.3470  152.4470   70.8600 C   0  0  0  0  0
   14.9840  153.6230   70.1560 C   0  0  0  0  0
   15.0460  153.6670   68.9220 O   0  0  0  0  0
   15.2160  151.2190   70.7380 C   0  0  0  0  0
   14.6480  150.0010   71.4560 C   0  0  0  0  0
   15.6080  148.8370   71.2110 C   0  0  0  0  0
   14.4710  150.3450   72.9520 C   0  0  0  0  0
   15.4070  154.5910   70.9530 N   0  0  0  0  0
   16.0980  155.7710   70.4460 C   0  0  0  0  0
   17.5720  155.6060   70.6640 C   0  0  0  0  0
   18.0360  155.6130   71.7890 O   0  0  0  0  0
   15.6470  157.0090   71.2200 C   0  0  0  0  0
   14.1640  157.1580   71.2650 C   0  0  0  0  0
   13.5810  157.1390   69.6180 S   0  0  0  0  0
   14.0680  158.8160   69.0420 C   0  0  0  0  0
   18.3250  155.4060   69.6080 N   0  0  0  0  0
   19.7220  155.1200   69.8220 C   0  0  0  0  0
   20.5400  156.3720   69.6120 C   0  0  0  0  0
   21.7600  156.3710   69.7940 O   0  0  0  0  0
   20.1790  154.0090   68.8930 C   0  0  0  0  0
   19.7360  152.6700   69.3140 C   0  0  0  0  0
   18.8600  151.9630   68.5400 C   0  0  0  0  0
   20.2220  152.1010   70.4760 C   0  0  0  0  0
   18.4950  150.7040   68.8940 C   0  0  0  0  0
   19.8530  150.8430   70.8440 C   0  0  0  0  0
   18.9740  150.1510   70.0680 C   0  0  0  0  0
   19.8430  157.4590   69.3020 N   0  0  0  0  0
   20.3970  158.8110   69.4650 C   0  0  0  0  0
   21.3780  159.1330   68.3230 C   0  0  0  0  0
   21.1110  159.9280   67.4070 O   0  0  0  0  0
   21.0900  158.9470   70.8470 C   0  0  0  0  0
   20.2420  158.4390   72.0360 C   0  0  0  0  0
   20.4770  159.2450   73.3340 C   0  0  0  0  0
   19.2440  159.2170   74.2720 C   0  0  0  0  0
   19.3350  160.1650   75.4440 N   0  3  0  0  0
   22.4620  158.5510   68.2930 O   0  0  0  0  0
    7.9639  151.3517   80.7002 H   0  0  0  0  0
    7.7620  152.6028   79.6182 H   0  0  0  0  0
    6.6262  152.3395   80.8087 H   0  0  0  0  0
    6.0037  150.2369   79.8484 H   0  0  0  0  0
    6.0479  152.5232   77.8609 H   0  0  0  0  0
    4.8026  152.2254   79.1570 H   0  0  0  0  0
    4.1249  151.5413   77.0682 H   0  0  0  0  0
    6.5846  148.4814   78.8017 H   0  0  0  0  0
    9.0538  148.3974   77.3686 H   0  0  0  0  0
    8.8157  146.2516   77.9502 H   0  0  0  0  0
    7.4547  146.1217   76.7069 H   0  0  0  0  0
    6.1860  145.5046   78.3567 H   0  0  0  0  0
    6.3442  147.2194   78.9788 H   0  0  0  0  0
    7.5925  146.5970   80.7057 H   0  0  0  0  0
    8.4577  145.3192   79.7477 H   0  0  0  0  0
    5.7232  144.6334   80.3906 H   0  0  0  0  0
    9.0512  144.6790   81.5494 H   0  0  0  0  0
    6.7453  142.3631   82.8771 H   0  0  0  0  0
    5.3962  142.9240   81.8839 H   0  0  0  0  0
    6.0821  149.4831   76.2613 H   0  0  0  0  0
    6.4379  148.4011   73.5864 H   0  0  0  0  0
    4.4708  149.6467   72.9848 H   0  0  0  0  0
    4.6528  150.7022   74.4654 H   0  0  0  0  0
    4.5240  148.7796   76.8817 H   0  0  0  0  0
    1.2685  146.8064   74.9579 H   0  0  0  0  0
    8.6550  150.1088   74.6685 H   0  0  0  0  0
    8.4184  152.6209   73.2923 H   0  0  0  0  0
    9.7990  152.5539   75.2174 H   0  0  0  0  0
   10.9404  152.7415   73.7880 H   0  0  0  0  0
   11.3495  150.3177   73.9410 H   0  0  0  0  0
   10.4171  150.3153   75.4870 H   0  0  0  0  0
   12.0159  151.8389   76.4897 H   0  0  0  0  0
   12.9109  151.9676   74.9359 H   0  0  0  0  0
   13.0845  149.3733   75.1529 H   0  0  0  0  0
   12.7843  149.7231   76.9180 H   0  0  0  0  0
   15.1260  149.5554   76.4068 H   0  0  0  0  0
   15.0078  150.7800   75.2829 H   0  0  0  0  0
   14.7335  151.0995   76.8952 H   0  0  0  0  0
    9.2638  153.4937   71.4478 H   0  0  0  0  0
   10.6511  151.8133   69.4764 H   0  0  0  0  0
   10.2571  154.7707   69.7834 H   0  0  0  0  0
    9.4560  153.6239   68.6229 H   0  0  0  0  0
   11.4378  153.3518   67.4063 H   0  0  0  0  0
   12.4072  154.2093   68.6680 H   0  0  0  0  0
   11.2984  156.2775   68.1507 H   0  0  0  0  0
   10.2576  155.4303   66.9295 H   0  0  0  0  0
   12.6050  154.7889   65.9210 H   0  0  0  0  0
   13.1312  156.2424   66.7875 H   0  0  0  0  0
   12.3531  156.7790   64.5479 H   0  0  0  0  0
   10.8583  156.1148   64.8658 H   0  0  0  0  0
   11.3531  157.4815   65.6807 H   0  0  0  0  0
   12.8730  151.4448   69.6581 H   0  0  0  0  0
   14.2507  152.6877   71.9187 H   0  0  0  0  0
   16.1779  151.4507   71.1954 H   0  0  0  0  0
   15.2880  150.9717   69.6789 H   0  0  0  0  0
   13.6655  149.7122   71.0828 H   0  0  0  0  0
   15.6830  148.6488   70.1400 H   0  0  0  0  0
   16.5918  149.0896   71.6066 H   0  0  0  0  0
   15.2314  147.9454   71.7123 H   0  0  0  0  0
   15.4381  150.6097   73.3795 H   0  0  0  0  0
   13.7857  151.1868   73.0513 H   0  0  0  0  0
   14.0648  149.4803   73.4767 H   0  0  0  0  0
   15.2441  154.5090   71.9566 H   0  0  0  0  0
   15.8708  155.8866   69.3862 H   0  0  0  0  0
   16.0540  157.8843   70.7137 H   0  0  0  0  0
   16.0024  156.9078   72.2455 H   0  0  0  0  0
   13.8904  158.0927   71.7544 H   0  0  0  0  0
   13.7172  156.3440   71.8359 H   0  0  0  0  0
   13.5824  159.5677   69.6642 H   0  0  0  0  0
   15.1500  158.9244   69.1167 H   0  0  0  0  0
   13.7593  158.9464   68.0048 H   0  0  0  0  0
   17.9348  155.4514   68.6667 H   0  0  0  0  0
   19.8661  154.7824   70.8483 H   0  0  0  0  0
   21.2690  154.0085   68.8952 H   0  0  0  0  0
   19.7451  154.2036   67.9122 H   0  0  0  0  0
   18.4522  152.4116   67.6342 H   0  0  0  0  0
   20.9092  152.6662   71.1056 H   0  0  0  0  0
   17.8253  150.1297   68.2538 H   0  0  0  0  0
   20.2575  150.3942   71.7512 H   0  0  0  0  0
   18.6464  149.1572   70.3731 H   0  0  0  0  0
   18.8953  157.3528   68.9401 H   0  0  0  0  0
   19.5798  159.5310   69.4213 H   0  0  0  0  0
   20.2415  160.3063   67.5565 H   0  0  0  0  0
   21.2708  160.0091   71.0123 H   0  0  0  0  0
   21.9937  158.3385   70.8142 H   0  0  0  0  0
   20.5287  157.4055   72.2306 H   0  0  0  0  0
   19.1918  158.5460   71.7644 H   0  0  0  0  0
   20.6703  160.2819   73.0589 H   0  0  0  0  0
   21.3168  158.7962   73.8645 H   0  0  0  0  0
   19.1730  158.2085   74.6793 H   0  0  0  0  0
   18.3819  159.5216   73.6786 H   0  0  0  0  0
   18.4897  160.0867   76.0095 H   0  0  0  0  0
   20.1483  159.9255   76.0111 H   0  0  0  0  0
   19.4282  161.1208   75.1002 H   0  0  0  0  0
  1  2  1  0  0  0
  2  3  1  0  0  0
  2  5  1  0  0  0
  3  4  2  0  0  0
  3  7  1  0  0  0
  5  6  1  0  0  0
  7  8  1  0  0  0
  8  9  1  0  0  0
  8 11  1  0  0  0
  9 10  2  0  0  0
  9 18  1  0  0  0
 11 12  1  0  0  0
 12 13  1  0  0  0
 13 14  1  0  0  0
 14 15  1  0  0  0
 15 16  2  0  0  0
 15 17  1  0  0  0
 18 19  1  0  0  0
 19 20  1  0  0  0
 19 22  1  0  0  0
 20 21  2  0  0  0
 20 28  1  0  0  0
 22 23  1  0  0  0
 23 24  4  0  0  0
 23 25  4  0  0  0
 24 26  4  0  0  0
 25 27  4  0  0  0
 26 27  4  0  0  0
 28 29  1  0  0  0
 29 30  1  0  0  0
 29 32  1  0  0  0
 30 31  2  0  0  0
 30 37  1  0  0  0
 32 33  1  0  0  0
 33 34  1  0  0  0
 34 35  1  0  0  0
 35 36  1  0  0  0
 37 38  1  0  0  0
 38 39  1  0  0  0
 38 41  1  0  0  0
 39 40  2  0  0  0
 39 46  1  0  0  0
 41 42  1  0  0  0
 42 43  1  0  0  0
 43 44  1  0  0  0
 44 45  1  0  0  0
 46 47  1  0  0  0
 47 48  1  0  0  0
 47 50  1  0  0  0
 48 49  2  0  0  0
 48 54  1  0  0  0
 50 51  1  0  0  0
 51 52  1  0  0  0
 51 53  1  0  0  0
 54 55  1  0  0  0
 55 56  1  0  0  0
 55 58  1  0  0  0
 56 57  2  0  0  0
 56 62  1  0  0  0
 58 59  1  0  0  0
 59 60  1  0  0  0
 60 61  1  0  0  0
 62 63  1  0  0  0
 63 64  1  0  0  0
 63 66  1  0  0  0
 64 65  2  0  0  0
 64 73  1  0  0  0
 66 67  1  0  0  0
 67 68  4  0  0  0
 67 69  4  0  0  0
 68 70  4  0  0  0
 69 71  4  0  0  0
 70 72  4  0  0  0
 71 72  4  0  0  0
 73 74  1  0  0  0
 74 75  1  0  0  0
 74 77  1  0  0  0
 75 76  1  0  0  0
 75 82  2  0  0  0
 77 78  1  0  0  0
 78 79  1  0  0  0
 79 80  1  0  0  0
 80 81  1  0  0  0
  1 83  1  0  0  0
  1 84  1  0  0  0
  1 85  1  0  0  0
  2 86  1  0  0  0
  5 87  1  0  0  0
  5 88  1  0  0  0
  6 89  1  0  0  0
  7 90  1  0  0  0
  8 91  1  0  0  0
 11 92  1  0  0  0
 11 93  1  0  0  0
 12 94  1  0  0  0
 12 95  1  0  0  0
 13 96  1  0  0  0
 13 97  1  0  0  0
 14 98  1  0  0  0
 16 99  1  0  0  0
 17100  1  0  0  0
 17101  1  0  0  0
 18102  1  0  0  0
 19103  1  0  0  0
 22104  1  0  0  0
 22105  1  0  0  0
 25106  1  0  0  0
 26107  1  0  0  0
 28108  1  0  0  0
 29109  1  0  0  0
 32110  1  0  0  0
 32111  1  0  0  0
 33112  1  0  0  0
 33113  1  0  0  0
 34114  1  0  0  0
 34115  1  0  0  0
 35116  1  0  0  0
 35117  1  0  0  0
 36118  1  0  0  0
 36119  1  0  0  0
 36120  1  0  0  0
 37121  1  0  0  0
 38122  1  0  0  0
 41123  1  0  0  0
 41124  1  0  0  0
 42125  1  0  0  0
 42126  1  0  0  0
 43127  1  0  0  0
 43128  1  0  0  0
 44129  1  0  0  0
 44130  1  0  0  0
 45131  1  0  0  0
 45132  1  0  0  0
 45133  1  0  0  0
 46134  1  0  0  0
 47135  1  0  0  0
 50136  1  0  0  0
 50137  1  0  0  0
 51138  1  0  0  0
 52139  1  0  0  0
 52140  1  0  0  0
 52141  1  0  0  0
 53142  1  0  0  0
 53143  1  0  0  0
 53144  1  0  0  0
 54145  1  0  0  0
 55146  1  0  0  0
 58147  1  0  0  0
 58148  1  0  0  0
 59149  1  0  0  0
 59150  1  0  0  0
 61151  1  0  0  0
 61152  1  0  0  0
 61153  1  0  0  0
 62154  1  0  0  0
 63155  1  0  0  0
 66156  1  0  0  0
 66157  1  0  0  0
 68158  1  0  0  0
 69159  1  0  0  0
 70160  1  0  0  0
 71161  1  0  0  0
 72162  1  0  0  0
 73163  1  0  0  0
 74164  1  0  0  0
 76165  1  0  0  0
 77166  1  0  0  0
 77167  1  0  0  0
 78168  1  0  0  0
 78169  1  0  0  0
 79170  1  0  0  0
 79171  1  0  0  0
 80172  1  0  0  0
 80173  1  0  0  0
 81174  1  0  0  0
 81175  1  0  0  0
 81176  1  0  0  0
M  END
$$$$
