### 
### Created by X-TOOL on Mon Sep 10 21:12:50 2018
### 

@<TRIPOS>MOLECULE
1h26_ligand
  177   178     1     0     0
SMALL
GAST_HUCK


@<TRIPOS>ATOM
      1 N           7.2810  151.8910   80.1680 N.4       1 SER         0.2396
      2 CA          6.5350  150.9810   79.2550 C.3       1 SER         0.0885
      3 C           7.5120  150.2250   78.3230 C.2       1 SER         0.2290
      4 O           8.4960  150.7950   77.8100 O.2       1 SER        -0.3906
      5 CB          5.5030  151.7840   78.4480 C.3       1 SER         0.1041
      6 OG          4.7490  150.9850   77.5400 O.3       1 SER        -0.3870
      7 N           7.2900  148.9150   78.2060 N.am      1 ARG        -0.2609
      8 CA          8.0160  148.0820   77.2610 C.3       1 ARG         0.1312
      9 C           7.6620  148.2910   75.8010 C.2       1 ARG         0.2040
     10 O           8.3210  147.7280   74.9520 O.2       1 ARG        -0.3944
     11 CB          7.8430  146.6020   77.6050 C.3       1 ARG        -0.0092
     12 CG          6.8490  146.2870   78.7260 C.3       1 ARG        -0.0156
     13 CD          7.4970  145.7600   80.0140 C.3       1 ARG         0.0627
     14 NE          6.7000  144.7300   80.6680 N.pl3     1 ARG        -0.2723
     15 CZ          7.1670  143.9070   81.6050 C.cat     1 ARG         0.2882
     16 NH1         8.4360  143.9880   81.9790 N.pl3     1 ARG        -0.2849
     17 NH2         6.3740  142.9930   82.1660 N.pl3     1 ARG        -0.2849
     18 N           6.6240  149.0650   75.5050 N.am      1 HIS        -0.2625
     19 CA          6.2410  149.3310   74.1200 C.3       1 HIS         0.1369
     20 C           7.0760  150.4310   73.4320 C.2       1 HIS         0.2054
     21 O           6.6450  151.0080   72.4380 O.2       1 HIS        -0.3942
     22 CB          4.7600  149.7070   74.0340 C.3       1 HIS         0.0145
     23 CG          3.8550  148.7900   74.7990 C.2       1 HIS        -0.0027
     24 ND1         2.7840  148.1420   74.2160 N.2       1 HIS        -0.3252
     25 CD2         3.8280  148.4460   76.1120 C.2       1 HIS         0.0291
     26 CE1         2.1470  147.4280   75.1310 C.2       1 HIS         0.0907
     27 NE2         2.7590  147.5980   76.2910 N.pl3     1 HIS        -0.2752
     28 N           8.2860  150.6850   73.9120 N.am      1 LYS        -0.2636
     29 CA          9.1030  151.7770   73.3770 C.3       1 LYS         0.1310
     30 C           9.6530  151.5580   71.9450 C.2       1 LYS         0.2039
     31 O           9.9040  150.4270   71.5190 O.2       1 LYS        -0.3944
     32 CB         10.2470  152.1010   74.3330 C.3       1 LYS        -0.0122
     33 CG         11.0460  150.8970   74.8130 C.3       1 LYS        -0.0440
     34 CD         12.3150  151.3200   75.5790 C.3       1 LYS        -0.0124
     35 CE         13.1630  150.0950   75.9660 C.3       1 LYS        -0.0354
     36 NZ         14.6270  150.4080   76.1530 N.4       1 LYS         0.2185
     37 N           9.8030  152.6620   71.2070 N.am      1 LYS        -0.2637
     38 CA         10.6980  152.7150   70.0870 C.3       1 LYS         0.1310
     39 C          12.0140  152.9570   70.7220 C.2       1 LYS         0.2039
     40 O          12.1120  153.7910   71.5980 O.2       1 LYS        -0.3944
     41 CB         10.3660  153.8790   69.1660 C.3       1 LYS        -0.0122
     42 CG         11.4530  154.1540   68.1440 C.3       1 LYS        -0.0440
     43 CD         11.2320  155.4750   67.4160 C.3       1 LYS        -0.0124
     44 CE         12.2720  155.7340   66.3500 C.3       1 LYS        -0.0354
     45 NZ         11.6590  156.5980   65.2730 N.4       1 LYS         0.2185
     46 N          13.0250  152.1980   70.3290 N.am      1 LEU        -0.2637
     47 CA         14.3470  152.4470   70.8600 C.3       1 LEU         0.1312
     48 C          14.9840  153.6230   70.1560 C.2       1 LEU         0.2039
     49 O          15.0460  153.6670   68.9220 O.2       1 LEU        -0.3944
     50 CB         15.2160  151.2190   70.7380 C.3       1 LEU        -0.0101
     51 CG         14.6480  150.0010   71.4560 C.3       1 LEU        -0.0425
     52 CD1        15.6080  148.8370   71.2110 C.3       1 LEU        -0.0625
     53 CD2        14.4710  150.3450   72.9520 C.3       1 LEU        -0.0625
     54 N          15.4070  154.5910   70.9530 N.am      1 MET        -0.2637
     55 CA         16.0980  155.7710   70.4460 C.3       1 MET         0.1317
     56 C          17.5720  155.6060   70.6640 C.2       1 MET         0.2040
     57 O          18.0360  155.6130   71.7890 O.2       1 MET        -0.3944
     58 CB         15.6470  157.0090   71.2200 C.3       1 MET        -0.0034
     59 CG         14.1640  157.1580   71.2650 C.3       1 MET        -0.0024
     60 SD         13.5810  157.1390   69.6180 S.3       1 MET        -0.1639
     61 CE         14.0680  158.8160   69.0420 C.3       1 MET        -0.0181
     62 N          18.3250  155.4060   69.6080 N.am      1 PHE        -0.2619
     63 CA         19.7220  155.1200   69.8220 C.3       1 PHE         0.1404
     64 C          20.5400  156.3720   69.6120 C.2       1 PHE         0.2054
     65 O          21.7600  156.3710   69.7940 O.2       1 PHE        -0.3942
     66 CB         20.1790  154.0090   68.8930 C.3       1 PHE         0.0214
     67 CG         19.7360  152.6700   69.3140 C.ar      1 PHE        -0.0386
     68 CD1        18.8600  151.9630   68.5400 C.ar      1 PHE        -0.0601
     69 CD2        20.2220  152.1010   70.4760 C.ar      1 PHE        -0.0601
     70 CE1        18.4950  150.7040   68.8940 C.ar      1 PHE        -0.0686
     71 CE2        19.8530  150.8430   70.8440 C.ar      1 PHE        -0.0686
     72 CZ         18.9740  150.1510   70.0680 C.ar      1 PHE        -0.0687
     73 N          19.8430  157.4590   69.3020 N.am      1 LYS        -0.2693
     74 CA         20.3970  158.8110   69.4650 C.3       1 LYS         0.0944
     75 C          21.3780  159.1330   68.3230 C.2       1 LYS         0.0601
     76 O          21.1110  159.9280   67.4070 O.co2     1 LYS        -0.5666
     77 CB         21.0900  158.9470   70.8470 C.3       1 LYS        -0.0177
     78 CG         20.2420  158.4390   72.0360 C.3       1 LYS        -0.0446
     79 CD         20.4770  159.2450   73.3340 C.3       1 LYS        -0.0125
     80 CE         19.2440  159.2170   74.2720 C.3       1 LYS        -0.0354
     81 NZ         19.3350  160.1650   75.4440 N.4       1 LYS         0.2185
     82 OXT        22.4620  158.5510   68.2930 O.co2     1 LYS        -0.5666
     83 H1          6.6297  152.3742   80.7666 H         1 SER         0.2016
     84 H2          7.7988  152.5628   79.6234 H         1 SER         0.2016
     85 H3          7.9193  151.3519   80.7319 H         1 SER         0.2016
     86 H4          5.9975  150.2393   79.8640 H         1 SER         0.1122
     87 H5          6.0344  152.5572   77.8737 H         1 SER         0.0640
     88 H6          4.8066  152.2635   79.1516 H         1 SER         0.0640
     89 H7          4.1314  151.5355   77.0731 H         1 SER         0.2099
     90 H8          6.5984  148.4899   78.7900 H         1 ARG         0.1884
     91 H9          9.0810  148.3337   77.3725 H         1 ARG         0.0800
     92 H10         8.8254  146.2089   77.9056 H         1 ARG         0.0313
     93 H11         7.5024  146.0827   76.6971 H         1 ARG         0.0313
     94 H12         6.1446  145.5263   78.3584 H         1 ARG         0.0301
     95 H13         6.2997  147.2086   78.9687 H         1 ARG         0.0301
     96 H14         7.6256  146.6005   80.7119 H         1 ARG         0.0689
     97 H15         8.4812  145.3368   79.7644 H         1 ARG         0.0689
     98 H16         5.7136  144.6325   80.3879 H         1 ARG         0.2642
     99 H17         8.8009  143.3532   82.7034 H         1 ARG         0.2615
    100 H18         9.0572  144.6857   81.5452 H         1 ARG         0.2615
    101 H19         5.3866  142.9233   81.8812 H         1 ARG         0.2615
    102 H20         6.7490  142.3569   82.8841 H         1 ARG         0.2615
    103 H21         6.0927  149.4749   76.2464 H         1 HIS         0.1885
    104 H22         6.3929  148.3988   73.5561 H         1 HIS         0.0817
    105 H23         4.4587  149.6877   72.9763 H         1 HIS         0.0420
    106 H24         4.6376  150.7253   74.4316 H         1 HIS         0.0420
    107 H25         4.5233  148.7793   76.8810 H         1 HIS         0.0729
    108 H26         1.2693  146.8070   74.9581 H         1 HIS         0.1199
    109 H27         2.4807  147.1658   77.1836 H         1 HIS         0.2361
    110 H28         8.6477  150.1201   74.6536 H         1 LYS         0.1883
    111 H29         8.4500  152.6609   73.3297 H         1 LYS         0.0800
    112 H30         9.8226  152.6024   75.2153 H         1 LYS         0.0312
    113 H31        10.9376  152.7857   73.8189 H         1 LYS         0.0312
    114 H32        11.3408  150.2948   73.9410 H         1 LYS         0.0269
    115 H33        10.4131  150.2924   75.4792 H         1 LYS         0.0269
    116 H34        12.0208  151.8565   76.4931 H         1 LYS         0.0317
    117 H35        12.9151  151.9851   74.9406 H         1 LYS         0.0317
    118 H36        13.0676  149.3408   75.1709 H         1 LYS         0.0813
    119 H37        12.7719  149.6853   76.9089 H         1 LYS         0.0813
    120 H38        15.1212  149.5660   76.4039 H         1 LYS         0.1994
    121 H39        14.7335  151.0913   76.8864 H         1 LYS         0.1994
    122 H40        15.0044  150.7757   75.2937 H         1 LYS         0.1994
    123 H41         9.2744  153.4774   71.4430 H         1 LYS         0.1883
    124 H42        10.6859  151.7715   69.5217 H         1 LYS         0.0800
    125 H43        10.2243  154.7815   69.7786 H         1 LYS         0.0312
    126 H44         9.4326  153.6482   68.6316 H         1 LYS         0.0312
    127 H45        11.4606  153.3387   67.4056 H         1 LYS         0.0269
    128 H46        12.4240  154.1909   68.6596 H         1 LYS         0.0269
    129 H47        11.2700  156.2926   68.1509 H         1 LYS         0.0317
    130 H48        10.2397  155.4540   66.9419 H         1 LYS         0.0317
    131 H49        12.6016  154.7790   65.9150 H         1 LYS         0.0813
    132 H50        13.1350  156.2523   66.7933 H         1 LYS         0.0813
    133 H51        12.3442  156.7775   64.5558 H         1 LYS         0.1994
    134 H52        11.3563  157.4715   65.6747 H         1 LYS         0.1994
    135 H53        10.8676  156.1214   64.8698 H         1 LYS         0.1994
    136 H54        12.8760  151.4596   69.6713 H         1 LEU         0.1883
    137 H55        14.2491  152.6944   71.9273 H         1 LEU         0.0800
    138 H56        16.2034  151.4468   71.1660 H         1 LEU         0.0315
    139 H57        15.3263  150.9746   69.6712 H         1 LEU         0.0315
    140 H58        13.6642  149.7454   71.0357 H         1 LEU         0.0298
    141 H59        15.2290  147.9365   71.7165 H         1 LEU         0.0232
    142 H60        16.6012  149.0907   71.6099 H         1 LEU         0.0232
    143 H61        15.6846  148.6460   70.1304 H         1 LEU         0.0232
    144 H62        13.7708  151.1872   73.0542 H         1 LEU         0.0232
    145 H63        15.4445  150.6233   73.3819 H         1 LEU         0.0232
    146 H64        14.0717  149.4695   73.4848 H         1 LEU         0.0232
    147 H65        15.2473  154.5106   71.9369 H         1 MET         0.1883
    148 H66        15.8837  155.8971   69.3745 H         1 MET         0.0800
    149 H67        16.0745  157.8999   70.7368 H         1 MET         0.0320
    150 H68        16.0235  156.9347   72.2509 H         1 MET         0.0320
    151 H69        13.8971  158.1104   71.7464 H         1 MET         0.0378
    152 H70        13.7202  156.3248   71.8296 H         1 MET         0.0378
    153 H71        13.7569  158.9488   67.9953 H         1 MET         0.0340
    154 H72        15.1598  158.9267   69.1169 H         1 MET         0.0340
    155 H73        13.5785  159.5756   69.6691 H         1 MET         0.0340
    156 H74        17.9425  155.4505   68.6851 H         1 PHE         0.1885
    157 H75        19.8579  154.7836   70.8604 H         1 PHE         0.0823
    158 H76        21.2784  154.0161   68.8566 H         1 PHE         0.0474
    159 H77        19.7775  154.2083   67.8885 H         1 PHE         0.0474
    160 H78        18.4545  152.4092   67.6391 H         1 PHE         0.0557
    161 H79        20.9054  152.6631   71.1022 H         1 PHE         0.0557
    162 H80        17.8290  150.1329   68.2574 H         1 PHE         0.0599
    163 H81        20.2553  150.3967   71.7463 H         1 PHE         0.0599
    164 H82        18.6482  149.1626   70.3714 H         1 PHE         0.0559
    165 H83        18.9139  157.3548   68.9472 H         1 LYS         0.1875
    166 H84        19.5684  159.5331   69.4217 H         1 LYS         0.0726
    167 H85        21.3176  160.0099   71.0153 H         1 LYS         0.0305
    168 H86        22.0268  158.3711   70.8210 H         1 LYS         0.0305
    169 H87        20.4994  157.3865   72.2257 H         1 LYS         0.0269
    170 H88        19.1785  158.5134   71.7651 H         1 LYS         0.0269
    171 H89        20.6957  160.2896   73.0676 H         1 LYS         0.0317
    172 H90        21.3375  158.8147   73.8673 H         1 LYS         0.0317
    173 H91        19.1314  158.1951   74.6631 H         1 LYS         0.0813
    174 H92        18.3552  159.4835   73.6812 H         1 LYS         0.0813
    175 H93        18.5001  160.0885   76.0036 H         1 LYS         0.1994
    176 H94        19.4271  161.1100   75.1055 H         1 LYS         0.1994
    177 H95        20.1384  159.9293   76.0052 H         1 LYS         0.1994
@<TRIPOS>BOND
     1    1    2 1  
     2    2    3 1  
     3    2    5 1  
     4    3    4 2  
     5    3    7 am 
     6    5    6 1  
     7    7    8 1  
     8    8    9 1  
     9    8   11 1  
    10    9   10 2  
    11    9   18 am 
    12   11   12 1  
    13   12   13 1  
    14   13   14 1  
    15   14   15 ar 
    16   15   16 ar 
    17   15   17 ar 
    18   18   19 1  
    19   19   20 1  
    20   19   22 1  
    21   20   21 2  
    22   20   28 am 
    23   22   23 1  
    24   23   24 1  
    25   23   25 2  
    26   24   26 2  
    27   25   27 1  
    28   26   27 1  
    29   28   29 1  
    30   29   30 1  
    31   29   32 1  
    32   30   31 2  
    33   30   37 am 
    34   32   33 1  
    35   33   34 1  
    36   34   35 1  
    37   35   36 1  
    38   37   38 1  
    39   38   39 1  
    40   38   41 1  
    41   39   40 2  
    42   39   46 am 
    43   41   42 1  
    44   42   43 1  
    45   43   44 1  
    46   44   45 1  
    47   46   47 1  
    48   47   48 1  
    49   47   50 1  
    50   48   49 2  
    51   48   54 am 
    52   50   51 1  
    53   51   52 1  
    54   51   53 1  
    55   54   55 1  
    56   55   56 1  
    57   55   58 1  
    58   56   57 2  
    59   56   62 am 
    60   58   59 1  
    61   59   60 1  
    62   60   61 1  
    63   62   63 1  
    64   63   64 1  
    65   63   66 1  
    66   64   65 2  
    67   64   73 am 
    68   66   67 1  
    69   67   68 ar 
    70   67   69 ar 
    71   68   70 ar 
    72   69   71 ar 
    73   70   72 ar 
    74   71   72 ar 
    75   73   74 1  
    76   74   75 1  
    77   74   77 1  
    78   75   76 ar 
    79   75   82 ar 
    80   77   78 1  
    81   78   79 1  
    82   79   80 1  
    83   80   81 1  
    84    1   83 1  
    85    1   84 1  
    86    1   85 1  
    87    2   86 1  
    88    5   87 1  
    89    5   88 1  
    90    6   89 1  
    91    7   90 1  
    92    8   91 1  
    93   11   92 1  
    94   11   93 1  
    95   12   94 1  
    96   12   95 1  
    97   13   96 1  
    98   13   97 1  
    99   14   98 1  
   100   16   99 1  
   101   16  100 1  
   102   17  101 1  
   103   17  102 1  
   104   18  103 1  
   105   19  104 1  
   106   22  105 1  
   107   22  106 1  
   108   25  107 1  
   109   26  108 1  
   110   27  109 1  
   111   28  110 1  
   112   29  111 1  
   113   32  112 1  
   114   32  113 1  
   115   33  114 1  
   116   33  115 1  
   117   34  116 1  
   118   34  117 1  
   119   35  118 1  
   120   35  119 1  
   121   36  120 1  
   122   36  121 1  
   123   36  122 1  
   124   37  123 1  
   125   38  124 1  
   126   41  125 1  
   127   41  126 1  
   128   42  127 1  
   129   42  128 1  
   130   43  129 1  
   131   43  130 1  
   132   44  131 1  
   133   44  132 1  
   134   45  133 1  
   135   45  134 1  
   136   45  135 1  
   137   46  136 1  
   138   47  137 1  
   139   50  138 1  
   140   50  139 1  
   141   51  140 1  
   142   52  141 1  
   143   52  142 1  
   144   52  143 1  
   145   53  144 1  
   146   53  145 1  
   147   53  146 1  
   148   54  147 1  
   149   55  148 1  
   150   58  149 1  
   151   58  150 1  
   152   59  151 1  
   153   59  152 1  
   154   61  153 1  
   155   61  154 1  
   156   61  155 1  
   157   62  156 1  
   158   63  157 1  
   159   66  158 1  
   160   66  159 1  
   161   68  160 1  
   162   69  161 1  
   163   70  162 1  
   164   71  163 1  
   165   72  164 1  
   166   73  165 1  
   167   74  166 1  
   168   77  167 1  
   169   77  168 1  
   170   78  169 1  
   171   78  170 1  
   172   79  171 1  
   173   79  172 1  
   174   80  173 1  
   175   80  174 1  
   176   81  175 1  
   177   81  176 1  
   178   81  177 1  
@<TRIPOS>SUBSTRUCTURE
     1 SER         1

