### 
### Created by X-TOOL on Mon Sep 10 21:13:18 2018
### 

@<TRIPOS>MOLECULE
4lpg_ligand
   37    39     1     0     0
SMALL
GAST_HUCK


@<TRIPOS>ATOM
      1 OAU         9.3360   70.9370   25.5140 O.co2     1 1MV        -0.5597
      2 PAS         8.8920   71.2850   26.9150 P.3       1 1MV         0.1034
      3 OAV         9.7840   70.6020   28.1670 O.co2     1 1MV        -0.5597
      4 OAW         8.6310   72.7230   27.2390 O.co2     1 1MV        -0.5597
      5 CAR         7.2290   70.5380   26.8750 C.3       1 1MV         0.1816
      6 PAT         6.8850   70.0590   25.0560 P.3       1 1MV         0.1034
      7 OAX         7.5360   71.2930   24.4470 O.co2     1 1MV        -0.5597
      8 OAZ         5.2900   69.9040   24.7590 O.co2     1 1MV        -0.5597
      9 OAY         7.4300   68.6950   24.7740 O.co2     1 1MV        -0.5597
     10 NAJ         6.3090   71.6080   27.3220 N.pl3     1 1MV        -0.2686
     11 C4          5.1570   71.2930   27.8830 C.ar      1 1MV         0.1304
     12 N3          4.9310   69.9880   28.1490 N.ar      1 1MV        -0.2639
     13 C2          3.7340   69.6200   28.7360 C.ar      1 1MV         0.0586
     14 N1          2.8440   70.6450   29.0360 N.ar      1 1MV        -0.2773
     15 C6          3.1510   71.9310   28.7660 C.ar      1 1MV         0.1085
     16 SAE         2.2840   73.2620   29.0260 S.3       1 1MV        -0.0140
     17 C5          4.3080   72.3020   28.1790 C.ar      1 1MV         0.0470
     18 CAC         4.4310   73.6660   27.9820 C.2       1 1MV        -0.0456
     19 CAD         3.3760   74.4060   28.3960 C.2       1 1MV         0.0373
     20 CAK         3.2120   75.7780   28.3250 C.ar      1 1MV        -0.0128
     21 CAL         4.2890   76.6900   28.3210 C.ar      1 1MV        -0.0592
     22 CAM         4.1180   78.0720   28.2160 C.ar      1 1MV        -0.0593
     23 CAN         2.8510   78.6080   28.1260 C.ar      1 1MV        -0.0451
     24 CAQ         2.6690   79.9960   28.0420 C.3       1 1MV        -0.0306
     25 CAO         1.7680   77.7340   28.1130 C.ar      1 1MV        -0.0593
     26 CAP         1.9480   76.3470   28.2130 C.ar      1 1MV        -0.0592
     27 H           7.1587   69.6573   27.5303 H         1 1MV         0.0956
     28 H           6.5677   72.5969   27.1953 H         1 1MV         0.1897
     29 H           3.5012   68.5834   28.9515 H         1 1MV         0.1012
     30 H           5.3137   74.1123   27.5264 H         1 1MV         0.0448
     31 H           5.2968   76.2992   28.4033 H         1 1MV         0.0607
     32 H           4.9834   78.7247   28.2052 H         1 1MV         0.0561
     33 H           1.5943   80.2216   27.9781 H         1 1MV         0.0395
     34 H           3.1780   80.3790   27.1452 H         1 1MV         0.0395
     35 H           3.0918   80.4761   28.9368 H         1 1MV         0.0395
     36 H           0.7644   78.1338   28.0237 H         1 1MV         0.0561
     37 H           1.0780   75.7005   28.2027 H         1 1MV         0.0607
@<TRIPOS>BOND
     1    1    2 ar 
     2    2    3 ar 
     3    2    4 ar 
     4    2    5 1  
     5    5    6 1  
     6    5   10 1  
     7    6    7 ar 
     8    6    8 ar 
     9    6    9 ar 
    10   10   11 1  
    11   11   12 ar 
    12   11   17 ar 
    13   12   13 ar 
    14   13   14 ar 
    15   14   15 ar 
    16   15   16 1  
    17   15   17 ar 
    18   16   19 1  
    19   17   18 1  
    20   18   19 2  
    21   19   20 1  
    22   20   21 ar 
    23   20   26 ar 
    24   21   22 ar 
    25   22   23 ar 
    26   23   24 1  
    27   23   25 ar 
    28   25   26 ar 
    29    5   27 1  
    30   10   28 1  
    31   13   29 1  
    32   18   30 1  
    33   21   31 1  
    34   22   32 1  
    35   24   33 1  
    36   24   34 1  
    37   24   35 1  
    38   25   36 1  
    39   26   37 1  
@<TRIPOS>SUBSTRUCTURE
     1 1MV         1

