4lpg_ligand
  -I-interpret- 

 41 43  0  0  0  0  0  0  0  0999 V2000
    9.3360   70.9370   25.5140 O   0  0  0  0  0
    8.8920   71.2850   26.9150 P   0  0  0  0  0
    9.7840   70.6020   28.1670 O   0  0  0  0  0
    8.6310   72.7230   27.2390 O   0  0  0  0  0
    7.2290   70.5380   26.8750 C   0  0  0  0  0
    6.8850   70.0590   25.0560 P   0  0  0  0  0
    7.5360   71.2930   24.4470 O   0  0  0  0  0
    5.2900   69.9040   24.7590 O   0  0  0  0  0
    7.4300   68.6950   24.7740 O   0  0  0  0  0
    6.3090   71.6080   27.3220 N   0  0  0  0  0
    5.1570   71.2930   27.8830 C   0  0  0  0  0
    4.9310   69.9880   28.1490 N   0  0  0  0  0
    3.7340   69.6200   28.7360 C   0  0  0  0  0
    2.8440   70.6450   29.0360 N   0  0  0  0  0
    3.1510   71.9310   28.7660 C   0  0  0  0  0
    2.2840   73.2620   29.0260 S   0  0  0  0  0
    4.3080   72.3020   28.1790 C   0  0  0  0  0
    4.4310   73.6660   27.9820 C   0  0  0  0  0
    3.3760   74.4060   28.3960 C   0  0  0  0  0
    3.2120   75.7780   28.3250 C   0  0  0  0  0
    4.2890   76.6900   28.3210 C   0  0  0  0  0
    4.1180   78.0720   28.2160 C   0  0  0  0  0
    2.8510   78.6080   28.1260 C   0  0  0  0  0
    2.6690   79.9960   28.0420 C   0  0  0  0  0
    1.7680   77.7340   28.1130 C   0  0  0  0  0
    1.9480   76.3470   28.2130 C   0  0  0  0  0
    9.4659   69.9882   25.4471 H   0  0  0  0  0
    9.9568   69.6788   27.9686 H   0  0  0  0  0
    7.1182   69.6544   27.5035 H   0  0  0  0  0
    7.0609   72.0773   24.7313 H   0  0  0  0  0
    4.8532   70.7442   24.9165 H   0  0  0  0  0
    6.5652   72.5873   27.1965 H   0  0  0  0  0
    3.5000   68.5777   28.9527 H   0  0  0  0  0
    5.3145   74.1127   27.5259 H   0  0  0  0  0
    5.3023   76.2971   28.4038 H   0  0  0  0  0
    4.9882   78.7284   28.2052 H   0  0  0  0  0
    3.0884   80.4705   28.9292 H   0  0  0  0  0
    3.1738   80.3742   27.1531 H   0  0  0  0  0
    1.6038   80.2183   27.9787 H   0  0  0  0  0
    0.7588   78.1361   28.0232 H   0  0  0  0  0
    1.0731   75.6969   28.2027 H   0  0  0  0  0
  1  2  1  0  0  0
  2  3  1  0  0  0
  2  4  2  0  0  0
  2  5  1  0  0  0
  5  6  1  0  0  0
  5 10  1  0  0  0
  6  7  1  0  0  0
  6  8  1  0  0  0
  6  9  2  0  0  0
 10 11  1  0  0  0
 11 12  4  0  0  0
 11 17  4  0  0  0
 12 13  4  0  0  0
 13 14  4  0  0  0
 14 15  4  0  0  0
 15 16  4  0  0  0
 15 17  4  0  0  0
 16 19  4  0  0  0
 17 18  4  0  0  0
 18 19  4  0  0  0
 19 20  1  0  0  0
 20 21  4  0  0  0
 20 26  4  0  0  0
 21 22  4  0  0  0
 22 23  4  0  0  0
 23 24  1  0  0  0
 23 25  4  0  0  0
 25 26  4  0  0  0
  1 27  1  0  0  0
  3 28  1  0  0  0
  5 29  1  0  0  0
  7 30  1  0  0  0
  8 31  1  0  0  0
 10 32  1  0  0  0
 13 33  1  0  0  0
 18 34  1  0  0  0
 21 35  1  0  0  0
 22 36  1  0  0  0
 24 37  1  0  0  0
 24 38  1  0  0  0
 24 39  1  0  0  0
 25 40  1  0  0  0
 26 41  1  0  0  0
M  END
$$$$
