6oou_ligand
  -I-interpret- 

 75 78  0  0  0  0  0  0  0  0999 V2000
   14.4120   -6.0540   12.6240 N   0  0  0  0  0
   15.4060   -5.4130   13.5270 C   0  0  0  0  0
   15.2880   -4.0790   13.8220 C   0  0  0  0  0
   16.1930   -3.4810   14.6600 C   0  0  0  0  0
   17.2310   -4.2310   15.2270 C   0  0  0  0  0
   17.3540   -5.5540   14.9390 C   0  0  0  0  0
   16.4340   -6.1610   14.0840 C   0  0  0  0  0
   18.4370   -3.3780   16.3320 S   0  0  0  0  0
   17.7740   -2.3230   17.0850 O   0  0  0  0  0
   18.9590   -4.2630   17.4020 O   0  0  0  0  0
   19.6780   -2.7280   15.3150 N   0  0  0  0  0
   20.4130   -3.7110   14.5000 C   0  0  0  0  0
   21.9150   -3.4210   14.4210 C   0  0  0  0  0
   22.6230   -4.4740   13.4990 C   0  0  0  0  0
   22.5800   -3.3630   15.8070 C   0  0  0  0  0
   19.3490   -1.3460   14.7100 C   0  0  0  0  0
   20.3000   -0.2450   15.2570 C   0  0  0  0  0
   20.1940    0.8750   14.4590 O   0  0  0  0  0
   19.9360    0.1120   16.6910 C   0  0  0  0  0
   20.8940    1.1210   17.1340 N   0  0  0  0  0
   21.9680    0.8450   18.0830 C   0  0  0  0  0
   22.0700   -0.2340   18.5890 O   0  0  0  0  0
   22.8370    1.8920   18.3620 O   0  0  0  0  0
   23.5560    1.8270   19.5730 C   0  0  0  0  0
   25.0810    2.4280   19.2300 C   0  0  0  0  0
   24.8840    3.7650   19.1670 O   0  0  0  0  0
   23.6880    4.0650   20.1570 C   0  0  0  0  0
   22.7800    4.7040   19.5580 O   0  0  0  0  0
   21.3780    3.9020   19.7730 C   0  0  0  0  0
   21.6160    2.8380   20.5010 C   0  0  0  0  0
   23.0950    2.6360   20.5140 C   0  0  0  0  0
   18.5540    0.7340   16.8240 C   0  0  0  0  0
   17.9580    0.3270   19.2380 C   0  0  0  0  0
   17.6970    0.7820   20.5380 C   0  0  0  0  0
   17.7550    2.1520   20.8320 C   0  0  0  0  0
   18.0580    3.0500   19.8380 C   0  0  0  0  0
   18.3270    2.6020   18.5400 C   0  0  0  0  0
   18.2750    1.2250   18.2450 C   0  0  0  0  0
   13.6505   -5.5017   12.2298 H   0  0  0  0  0
   14.4922   -7.0457   12.3992 H   0  0  0  0  0
   14.4753   -3.4947   13.3905 H   0  0  0  0  0
   16.1045   -2.4183   14.8858 H   0  0  0  0  0
   18.1663   -6.1367   15.3734 H   0  0  0  0  0
   16.5224   -7.2226   13.8533 H   0  0  0  0  0
   20.0130   -3.6673   13.4870 H   0  0  0  0  0
   20.2879   -4.6883   14.9663 H   0  0  0  0  0
   22.0317   -2.4302   13.9819 H   0  0  0  0  0
   22.4732   -5.4729   13.9088 H   0  0  0  0  0
   22.1963   -4.4231   12.4973 H   0  0  0  0  0
   23.6898   -4.2552   13.4524 H   0  0  0  0  0
   22.1166   -2.5731   16.3981 H   0  0  0  0  0
   22.4494   -4.3203   16.3116 H   0  0  0  0  0
   23.6435   -3.1546   15.6899 H   0  0  0  0  0
   18.3260   -1.0848   14.9807 H   0  0  0  0  0
   19.4729   -1.4037   13.6286 H   0  0  0  0  0
   21.3240   -0.6183   15.2441 H   0  0  0  0  0
   20.7791    1.5598   14.7912 H   0  0  0  0  0
   19.9500   -0.8071   17.2767 H   0  0  0  0  0
   20.8083    2.0666   16.7614 H   0  0  0  0  0
   23.5029    0.7986   19.9302 H   0  0  0  0  0
   25.4934    2.0215   18.3065 H   0  0  0  0  0
   25.8199    2.1485   19.9810 H   0  0  0  0  0
   24.0203    4.6403   21.0211 H   0  0  0  0  0
   20.9651    3.6083   18.8079 H   0  0  0  0  0
   20.6552    4.5438   20.2766 H   0  0  0  0  0
   21.1125    1.9660   20.0836 H   0  0  0  0  0
   21.2374    2.9728   21.5142 H   0  0  0  0  0
   23.3692    2.2037   21.4763 H   0  0  0  0  0
   17.8144   -0.0278   16.5774 H   0  0  0  0  0
   18.5023    1.5914   16.1530 H   0  0  0  0  0
   17.9098   -0.7386   19.0138 H   0  0  0  0  0
   17.4480    0.0683   21.3233 H   0  0  0  0  0
   17.5604    2.5028   21.8455 H   0  0  0  0  0
   18.0891    4.1164   20.0612 H   0  0  0  0  0
   18.5768    3.3181   17.7571 H   0  0  0  0  0
  2  1  1  0  0  0
  3  2  4  0  0  0
  7  2  4  0  0  0
  4  3  4  0  0  0
  5  4  4  0  0  0
  5  6  4  0  0  0
  8  5  1  0  0  0
  6  7  4  0  0  0
  8  9  2  0  0  0
  8 10  2  0  0  0
 11  8  1  0  0  0
 11 12  1  0  0  0
 16 11  1  0  0  0
 12 13  1  0  0  0
 13 14  1  0  0  0
 13 15  1  0  0  0
 17 16  1  0  0  0
 17 18  1  0  0  0
 19 17  1  0  0  0
 19 20  1  0  0  0
 32 19  1  0  0  0
 20 21  1  0  0  0
 21 22  2  0  0  0
 21 23  1  0  0  0
 23 24  1  0  0  0
 24 25  1  0  0  0
 24 31  1  0  0  0
 25 26  1  0  0  0
 27 26  1  0  0  0
 27 28  1  0  0  0
 31 27  1  0  0  0
 29 28  1  0  0  0
 30 29  1  0  0  0
 31 30  1  0  0  0
 38 32  1  0  0  0
 33 34  4  0  0  0
 33 38  4  0  0  0
 34 35  4  0  0  0
 35 36  4  0  0  0
 36 37  4  0  0  0
 37 38  4  0  0  0
  1 39  1  0  0  0
  1 40  1  0  0  0
  3 41  1  0  0  0
  4 42  1  0  0  0
  6 43  1  0  0  0
  7 44  1  0  0  0
 12 45  1  0  0  0
 12 46  1  0  0  0
 13 47  1  0  0  0
 14 48  1  0  0  0
 14 49  1  0  0  0
 14 50  1  0  0  0
 15 51  1  0  0  0
 15 52  1  0  0  0
 15 53  1  0  0  0
 16 54  1  0  0  0
 16 55  1  0  0  0
 17 56  1  0  0  0
 18 57  1  0  0  0
 19 58  1  0  0  0
 20 59  1  0  0  0
 24 60  1  0  0  0
 25 61  1  0  0  0
 25 62  1  0  0  0
 27 63  1  0  0  0
 29 64  1  0  0  0
 29 65  1  0  0  0
 30 66  1  0  0  0
 30 67  1  0  0  0
 31 68  1  0  0  0
 32 69  1  0  0  0
 32 70  1  0  0  0
 33 71  1  0  0  0
 34 72  1  0  0  0
 35 73  1  0  0  0
 36 74  1  0  0  0
 37 75  1  0  0  0
M  END
$$$$
