5em3_ligand
  -I-interpret- 

 18 19  0  0  0  0  0  0  0  0999 V2000
   15.6530    0.8060   -7.9220 C   0  0  0  0  0
   14.5270    0.0340   -7.6570 C   0  0  0  0  0
   13.8640    0.1470   -6.4360 C   0  0  0  0  0
   12.7370   -0.6190   -6.1560 C   0  0  0  0  0
   12.2800   -1.5060   -7.1200 C   0  0  0  0  0
   12.9610   -1.5980   -8.3250 C   0  0  0  0  0
   15.4510    1.8140   -5.7300 C   0  0  0  0  0
   16.1050    1.6960   -6.9540 C   0  0  0  0  0
   14.0880   -0.8180   -8.5840 N   0  0  0  0  0
   14.3300    1.0360   -5.4810 C   0  0  0  0  0
   13.6280    1.0880   -4.3070 O   0  0  0  0  0
   16.1739    0.7147   -8.8751 H   0  0  0  0  0
   12.2237   -0.5243   -5.1991 H   0  0  0  0  0
   11.3996   -2.1210   -6.9334 H   0  0  0  0  0
   12.6080   -2.2945   -9.0855 H   0  0  0  0  0
   15.8164    2.5106   -4.9755 H   0  0  0  0  0
   16.9830    2.3096   -7.1558 H   0  0  0  0  0
   14.0337    1.7312   -3.7211 H   0  0  0  0  0
  1  2  4  0  0  0
  1  8  4  0  0  0
  2  3  4  0  0  0
  2  9  4  0  0  0
  3  4  4  0  0  0
  3 10  4  0  0  0
  4  5  4  0  0  0
  5  6  4  0  0  0
  6  9  4  0  0  0
  8  7  4  0  0  0
  7 10  4  0  0  0
 10 11  1  0  0  0
  1 12  1  0  0  0
  4 13  1  0  0  0
  5 14  1  0  0  0
  6 15  1  0  0  0
  7 16  1  0  0  0
  8 17  1  0  0  0
 11 18  1  0  0  0
M  END
$$$$
