5g60_ligand
  -I-interpret- 

 87 90  0  0  0  0  0  0  0  0999 V2000
   18.8040   46.3720   49.3200 C   0  0  0  0  0
   18.7940   45.0610   48.7650 O   0  0  0  0  0
   17.3990   46.7360   49.7440 C   0  0  0  0  0
   16.9530   45.7480   50.6880 O   0  0  0  0  0
   16.4930   46.7350   48.5350 C   0  0  0  0  0
   15.1590   47.1370   48.8130 O   0  0  0  0  0
   17.0200   47.7280   47.5110 C   0  0  0  0  0
   16.1300   47.6700   46.3690 O   0  0  0  0  0
   18.4530   47.3610   47.1310 C   0  0  0  0  0
   19.2900   47.1970   48.2970 O   0  0  0  0  0
   19.1070   48.3860   46.2070 C   0  0  0  0  0
   18.5550   49.6820   46.3630 O   0  0  0  0  0
   20.2270   43.9920   50.4520 C   0  0  0  0  0
   21.3750   43.1340   50.5180 O   0  0  0  0  0
   21.6780   43.1820   52.9410 C   0  0  0  0  0
   21.1040   41.8920   53.1390 O   0  0  0  0  0
   20.1220   42.2400   55.3550 C   0  0  0  0  0
   18.7960   42.1360   54.8620 O   0  0  0  0  0
   19.9050   44.2430   48.9710 C   0  0  0  0  0
   20.9960   44.9560   48.4010 O   0  0  0  0  0
   22.3040   43.4040   51.5610 C   0  0  0  0  0
   22.8290   44.7440   51.5310 O   0  0  0  0  0
   21.0650   41.4260   54.4920 C   0  0  0  0  0
   22.3260   41.5170   55.0830 O   0  0  0  0  0
   19.6990   42.9410   48.1350 C   0  0  0  0  0
   18.3270   42.4900   47.9930 O   0  0  0  0  0
   23.4950   42.5340   51.3260 C   0  0  0  0  0
   23.0250   41.3580   50.6910 O   0  0  0  0  0
   20.7700   39.9370   54.4500 C   0  0  0  0  0
   19.8540   39.5780   53.4310 O   0  0  0  0  0
   20.3350   43.2820   46.7770 C   0  0  0  0  0
   20.7690   42.1220   46.0110 O   0  0  0  0  0
   24.3610   43.3710   50.4140 C   0  0  0  0  0
   25.7260   43.0540   50.5250 O   0  0  0  0  0
   22.1180   39.3830   54.1520 C   0  0  0  0  0
   22.2540   37.9830   54.4500 O   0  0  0  0  0
   21.4760   44.2080   47.2590 C   0  0  0  0  0
   24.1180   44.7840   50.9190 C   0  0  0  0  0
   22.9680   40.2510   55.0510 C   0  0  0  0  0
   22.0430   45.1320   46.1880 C   0  0  0  0  0
   21.0130   46.0440   45.8880 O   0  0  0  0  0
   24.1130   45.7580   49.7430 C   0  0  0  0  0
   23.5750   47.0080   50.1700 O   0  0  0  0  0
   24.4170   40.4060   54.5960 C   0  0  0  0  0
   25.0980   41.2690   55.4970 O   0  0  0  0  0
   19.4278   46.4687   50.2086 H   0  0  0  0  0
   17.3785   47.7274   50.1965 H   0  0  0  0  0
   17.5325   45.7537   51.4533 H   0  0  0  0  0
   16.4850   45.7044   48.1801 H   0  0  0  0  0
   14.7742   46.5402   49.4590 H   0  0  0  0  0
   17.0445   48.7434   47.9065 H   0  0  0  0  0
   15.2413   47.9060   46.6450 H   0  0  0  0  0
   18.3707   46.4147   46.5963 H   0  0  0  0  0
   18.9386   48.0688   45.1778 H   0  0  0  0  0
   20.1667   48.4380   46.4567 H   0  0  0  0  0
   18.9952   50.2902   45.7647 H   0  0  0  0  0
   20.4330   44.9356   50.9573 H   0  0  0  0  0
   19.3773   43.5222   50.9473 H   0  0  0  0  0
   22.4799   43.2862   53.6718 H   0  0  0  0  0
   20.8694   43.9060   53.0409 H   0  0  0  0  0
   20.1544   41.8601   56.3761 H   0  0  0  0  0
   20.4303   43.2853   55.3334 H   0  0  0  0  0
   18.2083   42.6550   55.4159 H   0  0  0  0  0
   20.1551   42.0912   48.6429 H   0  0  0  0  0
   18.3079   41.6880   47.4658 H   0  0  0  0  0
   24.0474   42.2295   52.2149 H   0  0  0  0  0
   23.7645   40.7696   50.5220 H   0  0  0  0  0
   20.3042   39.5729   55.3657 H   0  0  0  0  0
   19.7075   38.6295   53.4536 H   0  0  0  0  0
   19.6602   43.7369   46.0518 H   0  0  0  0  0
   21.1531   42.4135   45.1809 H   0  0  0  0  0
   24.1147   43.2157   49.3636 H   0  0  0  0  0
   26.2321   43.6104   49.9284 H   0  0  0  0  0
   22.3809   39.4114   53.0946 H   0  0  0  0  0
   23.1443   37.6960   54.2339 H   0  0  0  0  0
   22.3195   43.5737   47.5315 H   0  0  0  0  0
   24.8891   45.1143   51.6149 H   0  0  0  0  0
   23.0417   39.7794   56.0309 H   0  0  0  0  0
   22.3503   44.5741   45.3035 H   0  0  0  0  0
   22.9386   45.6448   46.5387 H   0  0  0  0  0
   21.3156   46.6561   45.2132 H   0  0  0  0  0
   23.5016   45.3536   48.9363 H   0  0  0  0  0
   25.1320   45.9024   49.3839 H   0  0  0  0  0
   23.5709   47.6221   49.4321 H   0  0  0  0  0
   24.4426   40.8301   53.5922 H   0  0  0  0  0
   24.9037   39.4308   54.5840 H   0  0  0  0  0
   26.0100   41.3694   55.2146 H   0  0  0  0  0
  2  1  1  0  0  0
  1  3  1  0  0  0
  1 10  1  0  0  0
 19  2  1  0  0  0
  3  4  1  0  0  0
  3  5  1  0  0  0
  5  6  1  0  0  0
  5  7  1  0  0  0
  7  8  1  0  0  0
  9  7  1  0  0  0
 10  9  1  0  0  0
  9 11  1  0  0  0
 11 12  1  0  0  0
 14 13  1  0  0  0
 13 19  1  0  0  0
 21 14  1  0  0  0
 16 15  1  0  0  0
 15 21  1  0  0  0
 23 16  1  0  0  0
 17 18  1  0  0  0
 17 23  1  0  0  0
 19 20  1  0  0  0
 19 25  1  0  0  0
 20 37  1  0  0  0
 21 22  1  0  0  0
 21 27  1  0  0  0
 22 38  1  0  0  0
 23 24  1  0  0  0
 23 29  1  0  0  0
 24 39  1  0  0  0
 25 26  1  0  0  0
 25 31  1  0  0  0
 27 28  1  0  0  0
 27 33  1  0  0  0
 29 30  1  0  0  0
 29 35  1  0  0  0
 31 32  1  0  0  0
 31 37  1  0  0  0
 33 34  1  0  0  0
 33 38  1  0  0  0
 35 36  1  0  0  0
 35 39  1  0  0  0
 37 40  1  0  0  0
 38 42  1  0  0  0
 39 44  1  0  0  0
 40 41  1  0  0  0
 42 43  1  0  0  0
 44 45  1  0  0  0
  1 46  1  0  0  0
  3 47  1  0  0  0
  4 48  1  0  0  0
  5 49  1  0  0  0
  6 50  1  0  0  0
  7 51  1  0  0  0
  8 52  1  0  0  0
  9 53  1  0  0  0
 11 54  1  0  0  0
 11 55  1  0  0  0
 12 56  1  0  0  0
 13 57  1  0  0  0
 13 58  1  0  0  0
 15 59  1  0  0  0
 15 60  1  0  0  0
 17 61  1  0  0  0
 17 62  1  0  0  0
 18 63  1  0  0  0
 25 64  1  0  0  0
 26 65  1  0  0  0
 27 66  1  0  0  0
 28 67  1  0  0  0
 29 68  1  0  0  0
 30 69  1  0  0  0
 31 70  1  0  0  0
 32 71  1  0  0  0
 33 72  1  0  0  0
 34 73  1  0  0  0
 35 74  1  0  0  0
 36 75  1  0  0  0
 37 76  1  0  0  0
 38 77  1  0  0  0
 39 78  1  0  0  0
 40 79  1  0  0  0
 40 80  1  0  0  0
 41 81  1  0  0  0
 42 82  1  0  0  0
 42 83  1  0  0  0
 43 84  1  0  0  0
 44 85  1  0  0  0
 44 86  1  0  0  0
 45 87  1  0  0  0
M  END
$$$$
