3th9_ligand
  -I-interpret- 

 67 69  0  0  0  0  0  0  0  0999 V2000
   16.3560   18.5500    2.0360 C   0  0  0  0  0
   17.4450   18.3670    2.8850 C   0  0  0  0  0
   17.4470   18.7150    4.2630 C   0  0  0  0  0
   15.2110   19.1380    2.6080 C   0  0  0  0  0
   18.5190   17.8270    2.4300 F   0  0  0  0  0
   16.2990   19.3010    4.8640 C   0  0  0  0  0
   15.1930   19.5050    3.9750 C   0  0  0  0  0
   13.7170   20.2360    4.5800 S   0  0  0  0  0
   16.3420   19.6830    6.3450 C   0  0  0  0  0
   14.2210   21.6640    5.2620 N   0  0  0  0  0
   16.1890   21.1750    6.6780 C   0  0  0  0  0
   14.7700   21.7000    6.6190 C   0  0  0  0  0
   16.6630   21.5150    8.1260 C   0  0  0  0  0
   14.4720   22.8320    4.3990 C   0  0  0  0  0
   13.2930   19.3860    5.6320 O   0  0  0  0  0
   12.8370   20.5890    3.4970 O   0  0  0  0  0
   13.4640   23.9210    4.7090 C   0  0  0  0  0
   11.9760   23.7000    4.4360 C   0  0  0  0  0
   11.1750   24.7250    5.1810 N   0  0  0  0  0
   11.5920   23.6080    2.9530 C   0  0  0  0  0
   10.1520   23.3230    2.8310 C   0  0  0  0  0
    9.6890   21.9950    3.0080 C   0  0  0  0  0
    8.3170   21.7480    2.9040 C   0  0  0  0  0
    7.4110   22.8160    2.6490 C   0  0  0  0  0
    7.8850   24.1230    2.4740 C   0  0  0  0  0
    9.2640   24.3940    2.5630 C   0  0  0  0  0
   10.6980   24.4760    6.4300 C   0  0  0  0  0
   10.8960   23.4140    7.0550 O   0  0  0  0  0
   10.0090   25.5590    6.8710 O   0  0  0  0  0
   13.8600   25.1630    4.1350 O   0  0  0  0  0
    9.5270   25.6600    8.2450 C   0  0  0  0  0
   10.7170   25.6580    9.2240 C   0  0  0  0  0
    8.8210   27.0270    8.3090 C   0  0  0  0  0
    8.5120   24.5750    8.5530 C   0  0  0  0  0
   16.3881   18.2546    0.9873 H   0  0  0  0  0
   18.3369   18.5310    4.8649 H   0  0  0  0  0
   14.3293   19.3123    1.9913 H   0  0  0  0  0
   17.3318   19.3963    6.7002 H   0  0  0  0  0
   15.4914   19.1833    6.8086 H   0  0  0  0  0
   16.8019   21.6417    5.9068 H   0  0  0  0  0
   14.1484   21.0673    7.2525 H   0  0  0  0  0
   14.7788   22.7375    6.9532 H   0  0  0  0  0
   16.0704   20.9475    8.8436 H   0  0  0  0  0
   17.7154   21.2523    8.2335 H   0  0  0  0  0
   16.5330   22.5817    8.3084 H   0  0  0  0  0
   14.3759   22.5370    3.3541 H   0  0  0  0  0
   15.4785   23.2078    4.5827 H   0  0  0  0  0
   13.5060   23.9085    5.7981 H   0  0  0  0  0
   11.7320   22.7064    4.8120 H   0  0  0  0  0
   10.9842   25.6261    4.7429 H   0  0  0  0  0
   12.1606   22.8067    2.4811 H   0  0  0  0  0
   11.8162   24.5549    2.4618 H   0  0  0  0  0
   10.3868   21.1850    3.2203 H   0  0  0  0  0
    7.9389   20.7321    3.0188 H   0  0  0  0  0
    6.3412   22.6157    2.5895 H   0  0  0  0  0
    7.1843   24.9322    2.2684 H   0  0  0  0  0
    9.6409   25.4079    2.4283 H   0  0  0  0  0
   13.2067   25.8342    4.3453 H   0  0  0  0  0
   11.2794   24.7315    9.1083 H   0  0  0  0  0
   11.3651   26.5073    9.0079 H   0  0  0  0  0
   10.3453   25.7338   10.2459 H   0  0  0  0  0
    9.5353   27.8149    8.0701 H   0  0  0  0  0
    8.0028   27.0460    7.5890 H   0  0  0  0  0
    8.4269   27.1843    9.3130 H   0  0  0  0  0
    7.6617   24.6725    7.8780 H   0  0  0  0  0
    8.9747   23.5974    8.4177 H   0  0  0  0  0
    8.1730   24.6784    9.5838 H   0  0  0  0  0
  1  2  4  0  0  0
  1  4  4  0  0  0
  2  3  4  0  0  0
  2  5  1  0  0  0
  3  6  4  0  0  0
  4  7  4  0  0  0
  6  7  4  0  0  0
  6  9  1  0  0  0
  7  8  1  0  0  0
  8 10  1  0  0  0
  8 15  2  0  0  0
  8 16  2  0  0  0
  9 11  1  0  0  0
 10 12  1  0  0  0
 10 14  1  0  0  0
 11 12  1  0  0  0
 11 13  1  0  0  0
 14 17  1  0  0  0
 17 18  1  0  0  0
 17 30  1  0  0  0
 18 19  1  0  0  0
 18 20  1  0  0  0
 19 27  1  0  0  0
 20 21  1  0  0  0
 21 22  4  0  0  0
 21 26  4  0  0  0
 22 23  4  0  0  0
 23 24  4  0  0  0
 24 25  4  0  0  0
 25 26  4  0  0  0
 27 28  2  0  0  0
 27 29  1  0  0  0
 29 31  1  0  0  0
 31 32  1  0  0  0
 31 33  1  0  0  0
 31 34  1  0  0  0
  1 35  1  0  0  0
  3 36  1  0  0  0
  4 37  1  0  0  0
  9 38  1  0  0  0
  9 39  1  0  0  0
 11 40  1  0  0  0
 12 41  1  0  0  0
 12 42  1  0  0  0
 13 43  1  0  0  0
 13 44  1  0  0  0
 13 45  1  0  0  0
 14 46  1  0  0  0
 14 47  1  0  0  0
 17 48  1  0  0  0
 18 49  1  0  0  0
 19 50  1  0  0  0
 20 51  1  0  0  0
 20 52  1  0  0  0
 22 53  1  0  0  0
 23 54  1  0  0  0
 24 55  1  0  0  0
 25 56  1  0  0  0
 26 57  1  0  0  0
 30 58  1  0  0  0
 32 59  1  0  0  0
 32 60  1  0  0  0
 32 61  1  0  0  0
 33 62  1  0  0  0
 33 63  1  0  0  0
 33 64  1  0  0  0
 34 65  1  0  0  0
 34 66  1  0  0  0
 34 67  1  0  0  0
M  END
$$$$
