6ffn_ligand
  -I-interpret- 

 74 77  0  0  0  0  0  0  0  0999 V2000
  -28.1150    4.6940    0.1570 C   0  0  0  0  0
  -28.1130    5.5750    1.4290 C   0  0  0  0  0
  -26.1750    6.5280   -2.6690 C   0  0  0  0  0
  -26.1450    8.0440   -2.8230 C   0  0  0  0  0
  -26.2640    5.8450   -4.0720 C   0  0  0  0  0
  -25.5810    4.4680   -3.9650 C   0  0  0  0  0
  -29.4190    5.5530    2.2220 C   0  0  0  0  0
  -29.3290    5.3710    3.6160 C   0  0  0  0  0
  -30.4900    5.3260    4.3950 C   0  0  0  0  0
  -31.7420    5.4770    3.7810 C   0  0  0  0  0
  -31.8240    5.6810    2.3970 C   0  0  0  0  0
  -30.6620    5.7120    1.6080 C   0  0  0  0  0
  -25.6950    3.5620   -5.1650 C   0  0  0  0  0
  -29.4000   -0.6430   -0.7740 C   0  0  0  0  0
  -30.2760   -1.3690   -1.7210 C   0  0  0  0  0
  -27.8910    3.2600    0.3180 N   0  0  0  0  0
  -27.8400    2.3320   -0.6840 C   0  0  0  0  0
  -28.0450    2.6560   -1.8500 O   0  0  0  0  0
  -27.4780    0.8810   -0.4400 C   0  0  0  0  0
  -28.3740    0.0950   -1.2780 N   0  0  0  0  0
  -25.9650    0.6510   -0.8360 C   0  0  0  0  0
  -27.0260    5.1870   -0.7580 C   0  0  0  0  0
  -27.2560    6.0370   -1.7910 N   0  0  0  0  0
  -25.8870    4.7700   -0.4680 O   0  0  0  0  0
  -25.5980    1.0680   -2.2390 N   0  0  0  0  0
  -26.4690    3.8570   -6.1160 O   0  0  0  0  0
  -32.8580    5.4270    4.5080 F   0  0  0  0  0
  -29.6570   -0.7520    0.4220 O   0  0  0  0  0
  -30.0370   -1.4480   -2.9800 N   0  0  0  0  0
  -31.1150   -2.2100   -3.5280 O   0  0  0  0  0
  -31.9360   -2.4810   -2.5170 C   0  0  0  0  0
  -31.5410   -2.0090   -1.3450 C   0  0  0  0  0
  -33.1960   -3.2540   -2.7860 C   0  0  0  0  0
  -24.4180    1.7130   -2.5950 C   0  0  0  0  0
  -23.5650    2.0190   -1.7650 O   0  0  0  0  0
  -23.9670    2.1580   -3.9960 C   0  0  0  0  0
  -23.0100    1.1510   -4.6890 C   0  0  0  0  0
  -23.9560    0.3850   -5.6370 C   0  0  0  0  0
  -24.9010    1.4760   -6.2020 C   0  0  0  0  0
  -24.9090    2.4470   -5.1180 N   0  0  0  0  0
  -26.1040    8.6800   -1.5410 O   0  0  0  0  0
  -29.1332    4.7927   -0.2193 H   0  0  0  0  0
  -27.9568    6.6033    1.1029 H   0  0  0  0  0
  -27.3362    5.1830    2.0855 H   0  0  0  0  0
  -25.2409    6.2546   -2.1783 H   0  0  0  0  0
  -27.0456    8.3636   -3.3472 H   0  0  0  0  0
  -25.2541    8.3244   -3.3850 H   0  0  0  0  0
  -25.7680    6.4576   -4.8249 H   0  0  0  0  0
  -27.3052    5.7302   -4.3733 H   0  0  0  0  0
  -26.0794    3.9478   -3.1470 H   0  0  0  0  0
  -24.5170    4.6689   -3.8399 H   0  0  0  0  0
  -28.3525    5.2650    4.0887 H   0  0  0  0  0
  -30.4221    5.1746    5.4723 H   0  0  0  0  0
  -32.7986    5.8169    1.9282 H   0  0  0  0  0
  -30.7305    5.8584    0.5300 H   0  0  0  0  0
  -27.7600    2.9180    1.2700 H   0  0  0  0  0
  -27.5874    0.5922    0.6053 H   0  0  0  0  0
  -28.2256    0.0981   -2.2871 H   0  0  0  0  0
  -25.7839   -0.4219   -0.7707 H   0  0  0  0  0
  -25.3680    1.2641   -0.1609 H   0  0  0  0  0
  -28.2112    6.3482   -1.9674 H   0  0  0  0  0
  -26.2653    0.8614   -2.9822 H   0  0  0  0  0
  -32.0229   -2.0772   -0.3697 H   0  0  0  0  0
  -33.8120   -2.7056   -3.4986 H   0  0  0  0  0
  -32.9409   -4.2296   -3.1997 H   0  0  0  0  0
  -33.7459   -3.3856   -1.8542 H   0  0  0  0  0
  -23.5747    3.1071   -3.6306 H   0  0  0  0  0
  -22.4941    0.4993   -3.9839 H   0  0  0  0  0
  -22.1856    1.6369   -5.2109 H   0  0  0  0  0
  -24.5033   -0.4035   -5.1204 H   0  0  0  0  0
  -23.4125   -0.1349   -6.4260 H   0  0  0  0  0
  -25.8922    1.1026   -6.4591 H   0  0  0  0  0
  -24.5683    1.8894   -7.1541 H   0  0  0  0  0
  -26.0856    9.6327   -1.6581 H   0  0  0  0  0
  1  2  1  0  0  0
  1 16  1  0  0  0
 22  1  1  0  0  0
  2  7  1  0  0  0
  3  4  1  0  0  0
  3  5  1  0  0  0
 23  3  1  0  0  0
  4 41  1  0  0  0
  5  6  1  0  0  0
  6 13  1  0  0  0
  7  8  4  0  0  0
  7 12  4  0  0  0
  8  9  4  0  0  0
  9 10  4  0  0  0
 11 10  4  0  0  0
 10 27  1  0  0  0
 12 11  4  0  0  0
 13 26  2  0  0  0
 13 40  1  0  0  0
 14 15  1  0  0  0
 20 14  1  0  0  0
 14 28  2  0  0  0
 15 29  4  0  0  0
 15 32  4  0  0  0
 16 17  1  0  0  0
 17 18  2  0  0  0
 17 19  1  0  0  0
 19 20  1  0  0  0
 19 21  1  0  0  0
 21 25  1  0  0  0
 22 23  1  0  0  0
 22 24  2  0  0  0
 25 34  1  0  0  0
 29 30  4  0  0  0
 30 31  4  0  0  0
 31 32  4  0  0  0
 31 33  1  0  0  0
 34 35  2  0  0  0
 34 36  1  0  0  0
 36 37  1  0  0  0
 36 40  1  0  0  0
 37 38  1  0  0  0
 38 39  1  0  0  0
 39 40  1  0  0  0
  1 42  1  0  0  0
  2 43  1  0  0  0
  2 44  1  0  0  0
  3 45  1  0  0  0
  4 46  1  0  0  0
  4 47  1  0  0  0
  5 48  1  0  0  0
  5 49  1  0  0  0
  6 50  1  0  0  0
  6 51  1  0  0  0
  8 52  1  0  0  0
  9 53  1  0  0  0
 11 54  1  0  0  0
 12 55  1  0  0  0
 16 56  1  0  0  0
 19 57  1  0  0  0
 20 58  1  0  0  0
 21 59  1  0  0  0
 21 60  1  0  0  0
 23 61  1  0  0  0
 25 62  1  0  0  0
 32 63  1  0  0  0
 33 64  1  0  0  0
 33 65  1  0  0  0
 33 66  1  0  0  0
 36 67  1  0  0  0
 37 68  1  0  0  0
 37 69  1  0  0  0
 38 70  1  0  0  0
 38 71  1  0  0  0
 39 72  1  0  0  0
 39 73  1  0  0  0
 41 74  1  0  0  0
M  END
$$$$
