### 
### Created by X-TOOL on Mon Sep 10 21:13:09 2018
### 

@<TRIPOS>MOLECULE
4ge9_ligand
   61    64     1     0     0
SMALL
GAST_HUCK


@<TRIPOS>ATOM
      1 N44        15.8610  -11.5000  -52.0570 N.am      1 0L0        -0.0881
      2 C33        12.9730   -7.4560  -52.0080 C.3       1 0L0         0.0397
      3 C7          9.1680   -7.6290  -48.5840 C.3       1 0L0        -0.0224
      4 C6         12.4270   -5.5740  -50.4260 C.ar      1 0L0         0.0015
      5 C13        20.9220   -8.2750  -51.7910 C.ar      1 0L0        -0.0590
      6 C8         13.5840   -4.7560  -50.9640 C.3       1 0L0         0.1104
      7 C16        23.2040   -6.8960  -52.6060 C.ar      1 0L0        -0.0685
      8 C19        20.4200  -12.6840  -54.1590 C.3       1 0L0         0.0563
      9 C26        16.9290  -10.7900  -52.6000 C.ar      1 0L0         0.0957
     10 C1         12.1350   -6.8590  -50.9020 C.ar      1 0L0         0.0143
     11 C2         11.0580   -7.5800  -50.3120 C.ar      1 0L0         0.1125
     12 C3         10.3320   -6.9540  -49.2670 C.ar      1 0L0         0.0389
     13 N4         10.6600   -5.7450  -48.8570 N.ar      1 0L0        -0.3257
     14 C5         11.6510   -5.0460  -49.3990 C.ar      1 0L0        -0.0131
     15 O9         13.8200  -11.5430  -51.2560 O.2       1 0L0        -0.3539
     16 N10        13.2380   -8.8750  -51.7440 N.2       1 0L0        -0.3131
     17 C11        20.2120   -8.5250  -54.2220 C.3       1 0L0         0.0043
     18 C12        21.1750   -8.0530  -53.1550 C.ar      1 0L0        -0.0360
     19 C14        21.8380   -7.8320  -50.8370 C.ar      1 0L0        -0.0685
     20 C15        22.9970   -7.1430  -51.2530 C.ar      1 0L0        -0.0687
     21 C17        22.3250   -7.3730  -53.5640 C.ar      1 0L0        -0.0590
     22 O18        20.3830  -11.3380  -53.6520 O.3       1 0L0        -0.3320
     23 C22        19.1820  -10.7180  -53.4560 C.ar      1 0L0         0.0756
     24 C23        19.0500   -9.3350  -53.6890 C.ar      1 0L0        -0.0227
     25 C24        17.8650   -8.6920  -53.4470 C.ar      1 0L0        -0.0732
     26 C25        18.1260  -11.4320  -52.8870 C.ar      1 0L0        -0.0203
     27 C27        16.7870   -9.3950  -52.8940 C.ar      1 0L0        -0.0130
     28 C28        15.5070   -8.7150  -52.6150 C.3       1 0L0         0.0444
     29 C29        14.4850   -9.4550  -52.0490 C.2       1 0L0         0.1263
     30 C30        14.6950  -10.8850  -51.7630 C.2       1 0L0         0.3002
     31 O31        15.9990  -12.8730  -51.7500 O.3       1 0L0        -0.2443
     32 O45        10.7620   -8.8650  -50.7290 O.3       1 0L0        -0.3349
     33 P46        13.9960   -3.1970  -53.1070 P.3       1 0L0         0.2035
     34 O47        13.3110   -4.4160  -52.3280 O.3       1 0L0        -0.2651
     35 O48        14.6960   -3.7810  -54.3610 O.co2     1 0L0        -0.5536
     36 O49        12.9140   -2.1400  -53.4810 O.co2     1 0L0        -0.5536
     37 O50        15.0830   -2.5160  -52.2310 O.co2     1 0L0        -0.5536
     38 H1         13.9287   -6.9149  -52.0703 H         1 0L0         0.0533
     39 H2         12.4344   -7.3599  -52.9623 H         1 0L0         0.0533
     40 H3          8.7599   -6.9620  -47.8103 H         1 0L0         0.0382
     41 H4          9.5089   -8.5654  -48.1182 H         1 0L0         0.0382
     42 H5          8.3866   -7.8516  -49.3255 H         1 0L0         0.0382
     43 H6         20.0189   -8.7883  -51.4814 H         1 0L0         0.0558
     44 H7         14.5114   -5.3449  -50.9079 H         1 0L0         0.0762
     45 H8         13.6963   -3.8376  -50.3690 H         1 0L0         0.0762
     46 H9         24.0684   -6.3201  -52.9161 H         1 0L0         0.0599
     47 H10        21.4657  -13.0129  -54.2500 H         1 0L0         0.0572
     48 H11        19.9380  -12.7170  -55.1472 H         1 0L0         0.0572
     49 H12        19.8847  -13.3512  -53.4674 H         1 0L0         0.0572
     50 H13        11.8588   -4.0464  -49.0347 H         1 0L0         0.0621
     51 H14        20.7678   -9.1479  -54.9383 H         1 0L0         0.0535
     52 H15        19.8092   -7.6418  -54.7394 H         1 0L0         0.0535
     53 H16        21.6608   -8.0157  -49.7835 H         1 0L0         0.0599
     54 H17        23.7230   -6.8076  -50.5212 H         1 0L0         0.0559
     55 H18        22.5267   -7.2207  -54.6181 H         1 0L0         0.0558
     56 H19        17.7615   -7.6392  -53.6834 H         1 0L0         0.0443
     57 H20        18.2406  -12.4877  -52.6693 H         1 0L0         0.0388
     58 H21        15.1327   -8.3190  -53.5705 H         1 0L0         0.0653
     59 H22        15.7229   -7.8805  -51.9316 H         1 0L0         0.0653
     60 H23        15.3386  -13.3692  -52.2193 H         1 0L0         0.2576
     61 H24        11.3502   -9.1117  -51.4331 H         1 0L0         0.2454
@<TRIPOS>BOND
     1    9    1 1  
     2    1   30 am 
     3    1   31 1  
     4    2   10 1  
     5   16    2 1  
     6   12    3 1  
     7    4    6 1  
     8   10    4 ar 
     9    4   14 ar 
    10   18    5 ar 
    11    5   19 ar 
    12    6   34 1  
    13    7   20 ar 
    14   21    7 ar 
    15   22    8 1  
    16    9   26 ar 
    17   27    9 ar 
    18   10   11 ar 
    19   11   12 ar 
    20   11   32 1  
    21   12   13 ar 
    22   14   13 ar 
    23   30   15 2  
    24   29   16 2  
    25   17   18 1  
    26   24   17 1  
    27   18   21 ar 
    28   19   20 ar 
    29   23   22 1  
    30   24   23 ar 
    31   26   23 ar 
    32   25   24 ar 
    33   27   25 ar 
    34   28   27 1  
    35   28   29 1  
    36   29   30 1  
    37   34   33 1  
    38   33   35 ar 
    39   33   36 ar 
    40   33   37 ar 
    41    2   38 1  
    42    2   39 1  
    43    3   40 1  
    44    3   41 1  
    45    3   42 1  
    46    5   43 1  
    47    6   44 1  
    48    6   45 1  
    49    7   46 1  
    50    8   47 1  
    51    8   48 1  
    52    8   49 1  
    53   14   50 1  
    54   17   51 1  
    55   17   52 1  
    56   19   53 1  
    57   20   54 1  
    58   21   55 1  
    59   25   56 1  
    60   26   57 1  
    61   28   58 1  
    62   28   59 1  
    63   31   60 1  
    64   32   61 1  
@<TRIPOS>SUBSTRUCTURE
     1 0L0         1

