4ge9_ligand
  -I-interpret- 

 63 66  0  0  0  0  0  0  0  0999 V2000
   15.8610  -11.5000  -52.0570 N   0  0  0  0  0
   12.9730   -7.4560  -52.0080 C   0  0  0  0  0
    9.1680   -7.6290  -48.5840 C   0  0  0  0  0
   12.4270   -5.5740  -50.4260 C   0  0  0  0  0
   20.9220   -8.2750  -51.7910 C   0  0  0  0  0
   13.5840   -4.7560  -50.9640 C   0  0  0  0  0
   23.2040   -6.8960  -52.6060 C   0  0  0  0  0
   20.4200  -12.6840  -54.1590 C   0  0  0  0  0
   16.9290  -10.7900  -52.6000 C   0  0  0  0  0
   12.1350   -6.8590  -50.9020 C   0  0  0  0  0
   11.0580   -7.5800  -50.3120 C   0  0  0  0  0
   10.3320   -6.9540  -49.2670 C   0  0  0  0  0
   10.6600   -5.7450  -48.8570 N   0  0  0  0  0
   11.6510   -5.0460  -49.3990 C   0  0  0  0  0
   13.8200  -11.5430  -51.2560 O   0  0  0  0  0
   13.2380   -8.8750  -51.7440 N   0  0  0  0  0
   20.2120   -8.5250  -54.2220 C   0  0  0  0  0
   21.1750   -8.0530  -53.1550 C   0  0  0  0  0
   21.8380   -7.8320  -50.8370 C   0  0  0  0  0
   22.9970   -7.1430  -51.2530 C   0  0  0  0  0
   22.3250   -7.3730  -53.5640 C   0  0  0  0  0
   20.3830  -11.3380  -53.6520 O   0  0  0  0  0
   19.1820  -10.7180  -53.4560 C   0  0  0  0  0
   19.0500   -9.3350  -53.6890 C   0  0  0  0  0
   17.8650   -8.6920  -53.4470 C   0  0  0  0  0
   18.1260  -11.4320  -52.8870 C   0  0  0  0  0
   16.7870   -9.3950  -52.8940 C   0  0  0  0  0
   15.5070   -8.7150  -52.6150 C   0  0  0  0  0
   14.4850   -9.4550  -52.0490 C   0  0  0  0  0
   14.6950  -10.8850  -51.7630 C   0  0  0  0  0
   15.9990  -12.8730  -51.7500 O   0  0  0  0  0
   10.7620   -8.8650  -50.7290 O   0  0  0  0  0
   13.9960   -3.1970  -53.1070 P   0  0  0  0  0
   13.3110   -4.4160  -52.3280 O   0  0  0  0  0
   14.6960   -3.7810  -54.3610 O   0  0  0  0  0
   12.9140   -2.1400  -53.4810 O   0  0  0  0  0
   15.0830   -2.5160  -52.2310 O   0  0  0  0  0
   13.9221   -6.9225  -52.0603 H   0  0  0  0  0
   12.4318   -7.3663  -52.9499 H   0  0  0  0  0
    8.3945   -7.8490  -49.3198 H   0  0  0  0  0
    9.5071   -8.5566  -48.1229 H   0  0  0  0  0
    8.7645   -6.9672  -47.8176 H   0  0  0  0  0
   20.0139   -8.7912  -51.4796 H   0  0  0  0  0
   14.5059   -5.3345  -50.9040 H   0  0  0  0  0
   13.7020   -3.8480  -50.3726 H   0  0  0  0  0
   24.0732   -6.3169  -52.9178 H   0  0  0  0  0
   19.8893  -13.3440  -53.4729 H   0  0  0  0  0
   19.9420  -12.7153  -55.1381 H   0  0  0  0  0
   21.4566  -13.0087  -54.2487 H   0  0  0  0  0
   11.8600   -4.0409  -49.0327 H   0  0  0  0  0
   20.7715   -9.1700  -54.8996 H   0  0  0  0  0
   19.7956   -7.6367  -54.6971 H   0  0  0  0  0
   21.6598   -8.0167  -49.7776 H   0  0  0  0  0
   23.7270   -6.8058  -50.5171 H   0  0  0  0  0
   22.5278   -7.2198  -54.6240 H   0  0  0  0  0
   17.7609   -7.6333  -53.6847 H   0  0  0  0  0
   18.2413  -12.4935  -52.6680 H   0  0  0  0  0
   15.1299   -8.4005  -53.5882 H   0  0  0  0  0
   15.7444   -7.9440  -51.8819 H   0  0  0  0  0
   15.1739  -13.2030  -51.3868 H   0  0  0  0  0
   10.0131   -9.1979  -50.2290 H   0  0  0  0  0
   12.5059   -1.8042  -52.6796 H   0  0  0  0  0
   14.6736   -2.1453  -51.4458 H   0  0  0  0  0
  9  1  1  0  0  0
  1 30  1  0  0  0
  1 31  1  0  0  0
  2 10  1  0  0  0
 16  2  1  0  0  0
 12  3  1  0  0  0
  4  6  1  0  0  0
 10  4  4  0  0  0
  4 14  4  0  0  0
 18  5  4  0  0  0
  5 19  4  0  0  0
  6 34  1  0  0  0
  7 20  4  0  0  0
 21  7  4  0  0  0
 22  8  1  0  0  0
  9 26  4  0  0  0
 27  9  4  0  0  0
 10 11  4  0  0  0
 11 12  4  0  0  0
 11 32  1  0  0  0
 12 13  4  0  0  0
 14 13  4  0  0  0
 30 15  2  0  0  0
 29 16  2  0  0  0
 17 18  1  0  0  0
 24 17  1  0  0  0
 18 21  4  0  0  0
 19 20  4  0  0  0
 23 22  1  0  0  0
 24 23  4  0  0  0
 26 23  4  0  0  0
 25 24  4  0  0  0
 27 25  4  0  0  0
 28 27  1  0  0  0
 28 29  1  0  0  0
 29 30  1  0  0  0
 34 33  1  0  0  0
 33 35  2  0  0  0
 33 36  1  0  0  0
 33 37  1  0  0  0
  2 38  1  0  0  0
  2 39  1  0  0  0
  3 40  1  0  0  0
  3 41  1  0  0  0
  3 42  1  0  0  0
  5 43  1  0  0  0
  6 44  1  0  0  0
  6 45  1  0  0  0
  7 46  1  0  0  0
  8 47  1  0  0  0
  8 48  1  0  0  0
  8 49  1  0  0  0
 14 50  1  0  0  0
 17 51  1  0  0  0
 17 52  1  0  0  0
 19 53  1  0  0  0
 20 54  1  0  0  0
 21 55  1  0  0  0
 25 56  1  0  0  0
 26 57  1  0  0  0
 28 58  1  0  0  0
 28 59  1  0  0  0
 31 60  1  0  0  0
 32 61  1  0  0  0
 36 62  1  0  0  0
 37 63  1  0  0  0
M  END
$$$$
