6cze_ligand
  -I-interpret- 

 46 48  0  0  0  0  0  0  0  0999 V2000
   -2.6880  -36.1470   22.8410 P   0  0  0  0  0
   -3.7730  -37.1600   22.5930 O   0  0  0  0  0
   -1.3690  -36.8590   23.0860 O   0  0  0  0  0
   -3.0170  -35.3760   24.0890 O   0  0  0  0  0
   -3.6300  -33.8940   21.1390 P   0  0  0  0  0
   -3.7510  -33.8160   19.6480 O   0  0  0  0  0
   -3.2180  -32.5150   21.6270 O   0  0  0  0  0
   -2.5830  -35.1400   21.5300 O   0  0  0  0  0
   -6.4610  -33.4890   21.6450 P   0  0  0  0  0
   -6.8780  -33.6420   20.1930 O   0  0  0  0  0
   -6.2890  -32.0270   22.0290 O   0  0  0  0  0
   -5.0440  -34.3160   21.8680 O   0  0  0  0  0
   -7.5190  -34.2010   22.6600 O   0  0  0  0  0
   -8.1540  -35.3890   22.2770 C   0  0  0  0  0
   -7.2530  -36.6580   22.2330 C   0  0  0  0  0
   -6.7070  -36.9960   23.6550 O   0  0  0  0  0
   -7.9760  -37.6760   21.9540 C   0  0  0  0  0
   -8.0930  -37.9020   20.5020 O   0  0  0  0  0
   -7.2390  -38.9670   22.6860 C   0  0  0  0  0
   -6.6190  -39.8250   21.6950 O   0  0  0  0  0
   -6.3260  -38.4790   23.4520 C   0  0  0  0  0
   -6.2480  -39.2460   24.7330 N   0  0  0  0  0
   -7.3540  -39.0440   25.4690 C   0  0  0  0  0
   -7.2440  -39.7600   26.6000 N   0  0  0  0  0
   -6.0520  -40.4080   26.5520 C   0  0  0  0  0
   -5.4320  -41.2600   27.4270 C   0  0  0  0  0
   -5.8050  -41.7680   28.6810 O   0  0  0  0  0
   -4.2310  -41.7800   27.1520 N   0  0  0  0  0
   -3.6070  -41.4610   25.9810 C   0  0  0  0  0
   -4.2080  -40.6200   25.1120 N   0  0  0  0  0
   -5.4360  -40.0960   25.4070 C   0  0  0  0  0
   -3.5697  -37.6566   21.7970 H   0  0  0  0  0
   -1.1288  -37.3629   22.3050 H   0  0  0  0  0
   -3.1306  -32.5280   22.5829 H   0  0  0  0  0
   -6.0260  -31.9681   22.9504 H   0  0  0  0  0
   -8.5122  -35.2314   21.2597 H   0  0  0  0  0
   -8.9208  -35.5828   23.0270 H   0  0  0  0  0
   -6.4597  -36.4609   21.5119 H   0  0  0  0  0
   -8.9952  -37.5262   22.3102 H   0  0  0  0  0
   -8.6422  -38.6730   20.3425 H   0  0  0  0  0
   -7.9644  -39.5609   23.2421 H   0  0  0  0  0
   -6.1972  -40.5669   22.1346 H   0  0  0  0  0
   -5.3290  -38.5543   23.0179 H   0  0  0  0  0
   -8.1959  -38.4082   25.1951 H   0  0  0  0  0
   -3.7831  -42.4126   27.8150 H   0  0  0  0  0
   -2.6291  -41.8826   25.7485 H   0  0  0  0  0
  1  2  1  0  0  0
  1  3  1  0  0  0
  1  4  2  0  0  0
  8  1  1  0  0  0
  5  6  2  0  0  0
  5  7  1  0  0  0
  5  8  1  0  0  0
 12  5  1  0  0  0
  9 10  2  0  0  0
  9 11  1  0  0  0
  9 12  1  0  0  0
  9 13  1  0  0  0
 13 14  1  0  0  0
 14 15  1  0  0  0
 15 16  1  0  0  0
 15 17  1  0  0  0
 16 21  1  0  0  0
 17 18  1  0  0  0
 17 19  1  0  0  0
 19 20  1  0  0  0
 19 21  1  0  0  0
 21 22  1  0  0  0
 22 23  4  0  0  0
 22 31  4  0  0  0
 23 24  4  0  0  0
 24 25  4  0  0  0
 25 26  1  0  0  0
 25 31  4  0  0  0
 26 27  2  0  0  0
 26 28  1  0  0  0
 28 29  1  0  0  0
 29 30  2  0  0  0
 30 31  1  0  0  0
  2 32  1  0  0  0
  3 33  1  0  0  0
  7 34  1  0  0  0
 11 35  1  0  0  0
 14 36  1  0  0  0
 14 37  1  0  0  0
 15 38  1  0  0  0
 17 39  1  0  0  0
 18 40  1  0  0  0
 19 41  1  0  0  0
 20 42  1  0  0  0
 21 43  1  0  0  0
 23 44  1  0  0  0
 28 45  1  0  0  0
 29 46  1  0  0  0
M  END
$$$$
