### 
### Created by X-TOOL on Wed Jan  1 15:39:37 2020
### 

@<TRIPOS>MOLECULE
6cze_ligand
   42    44     1     0     0
SMALL
GAST_HUCK


@<TRIPOS>ATOM
      1 PG         -2.6880  -36.1470   22.8410 P.3       1 ITT         0.1879
      2 O1G        -3.7730  -37.1600   22.5930 O.co2     1 ITT        -0.6091
      3 O2G        -1.3690  -36.8590   23.0860 O.co2     1 ITT        -0.6091
      4 O3G        -3.0170  -35.3760   24.0890 O.co2     1 ITT        -0.6091
      5 PB         -3.6300  -33.8940   21.1390 P.3       1 ITT         0.3553
      6 O1B        -3.7510  -33.8160   19.6480 O.co2     1 ITT        -0.5652
      7 O2B        -3.2180  -32.5150   21.6270 O.co2     1 ITT        -0.5652
      8 O3B        -2.5830  -35.1400   21.5300 O.3       1 ITT        -0.1546
      9 PA         -6.4610  -33.4890   21.6450 P.3       1 ITT         0.3266
     10 O1A        -6.8780  -33.6420   20.1930 O.co2     1 ITT        -0.5692
     11 O2A        -6.2890  -32.0270   22.0290 O.co2     1 ITT        -0.5692
     12 O3A        -5.0440  -34.3160   21.8680 O.3       1 ITT        -0.1171
     13 O5'        -7.5190  -34.2010   22.6600 O.3       1 ITT        -0.2441
     14 C5'        -8.1540  -35.3890   22.2770 C.3       1 ITT         0.1131
     15 C4'        -7.2530  -36.6580   22.2330 C.3       1 ITT         0.1189
     16 O4'        -6.7070  -36.9960   23.6550 O.3       1 ITT        -0.3361
     17 C3'        -7.9760  -37.6760   21.9540 C.3       1 ITT         0.1150
     18 O3'        -8.0930  -37.9020   20.5020 O.3       1 ITT        -0.3864
     19 C2'        -7.2390  -38.9670   22.6860 C.3       1 ITT         0.1389
     20 O2'        -6.6190  -39.8250   21.6950 O.3       1 ITT        -0.3835
     21 C1'        -6.3260  -38.4790   23.4520 C.3       1 ITT         0.2003
     22 N9         -6.2480  -39.2460   24.7330 N.pl3     1 ITT        -0.2045
     23 C8         -7.3540  -39.0440   25.4690 C.2       1 ITT         0.1004
     24 N7         -7.2440  -39.7600   26.6000 N.2       1 ITT        -0.3155
     25 C5         -6.0520  -40.4080   26.5520 C.2       1 ITT         0.1044
     26 C6         -5.4320  -41.2600   27.4270 C.2       1 ITT         0.2200
     27 O6         -5.8050  -41.7680   28.6810 O.2       1 ITT        -0.4066
     28 N1         -4.2310  -41.7800   27.1520 N.am      1 ITT        -0.2042
     29 C2         -3.6070  -41.4610   25.9810 C.2       1 ITT         0.1273
     30 N3         -4.2080  -40.6200   25.1120 N.2       1 ITT        -0.2683
     31 C4         -5.4360  -40.0960   25.4070 C.2       1 ITT         0.1354
     32 H1         -8.5729  -35.2381   21.2712 H         1 ITT         0.0648
     33 H2         -8.9702  -35.5797   22.9894 H         1 ITT         0.0648
     34 H3         -6.4370  -36.5230   21.5078 H         1 ITT         0.0651
     35 H4         -8.9847  -37.5355   22.3695 H         1 ITT         0.0648
     36 H5         -8.6365  -38.6650   20.3442 H         1 ITT         0.2100
     37 H6         -7.9700  -39.5427   23.2728 H         1 ITT         0.0677
     38 H7         -5.9679  -39.3299   21.2119 H         1 ITT         0.2101
     39 H8         -5.3478  -38.5389   22.9525 H         1 ITT         0.1001
     40 H9         -8.1952  -38.4088   25.1954 H         1 ITT         0.1213
     41 H10        -3.7918  -42.4002   27.8020 H         1 ITT         0.2557
     42 H11        -2.6300  -41.8822   25.7487 H         1 ITT         0.1493
@<TRIPOS>BOND
     1    1    2 ar 
     2    1    3 ar 
     3    1    4 ar 
     4    8    1 1  
     5    5    6 ar 
     6    5    7 ar 
     7    5    8 1  
     8   12    5 1  
     9    9   10 ar 
    10    9   11 ar 
    11    9   12 1  
    12    9   13 1  
    13   13   14 1  
    14   14   15 1  
    15   15   16 1  
    16   15   17 1  
    17   16   21 1  
    18   17   18 1  
    19   17   19 1  
    20   19   20 1  
    21   19   21 1  
    22   21   22 1  
    23   22   23 1  
    24   22   31 1  
    25   23   24 2  
    26   24   25 1  
    27   25   26 1  
    28   25   31 2  
    29   26   27 2  
    30   26   28 am 
    31   28   29 am 
    32   29   30 2  
    33   30   31 1  
    34   14   32 1  
    35   14   33 1  
    36   15   34 1  
    37   17   35 1  
    38   18   36 1  
    39   19   37 1  
    40   20   38 1  
    41   21   39 1  
    42   23   40 1  
    43   28   41 1  
    44   29   42 1  
@<TRIPOS>SUBSTRUCTURE
     1 ITT         1

