### 
### Created by X-TOOL on Mon Sep 10 21:12:58 2018
### 

@<TRIPOS>MOLECULE
2qhr_ligand
  185   186     1     0     0
SMALL
GAST_HUCK


@<TRIPOS>ATOM
      1 N          71.0930  -27.1170   48.6220 N.4       1 VAL         0.2381
      2 CA         71.9450  -25.9880   48.9640 C.3       1 VAL         0.0673
      3 C          73.3220  -26.5110   49.4150 C.2       1 VAL         0.2270
      4 O          73.4210  -27.5020   50.1530 O.2       1 VAL        -0.3907
      5 CB         71.3000  -25.1660   50.1120 C.3       1 VAL         0.0139
      6 CG1        72.0940  -23.9670   50.4260 C.3       1 VAL        -0.0553
      7 CG2        69.8930  -24.7580   49.7410 C.3       1 VAL        -0.0553
      8 N          74.3740  -25.8220   49.0030 N.am      1 GLU        -0.2609
      9 CA         75.7260  -26.1220   49.4780 C.3       1 GLU         0.1326
     10 C          76.2130  -25.1810   50.6020 C.2       1 GLU         0.2040
     11 O          76.1690  -23.9440   50.4780 O.2       1 GLU        -0.3944
     12 CB         76.7190  -26.1490   48.2920 C.3       1 GLU        -0.0008
     13 CG         78.1790  -25.9440   48.7270 C.3       1 GLU         0.0044
     14 CD         79.1590  -25.8760   47.5520 C.2       1 GLU         0.0350
     15 OE1        78.8250  -26.4500   46.4830 O.co2     1 GLU        -0.5690
     16 OE2        80.2510  -25.2520   47.7020 O.co2     1 GLU        -0.5690
     17 N          76.6710  -25.7710   51.7050 N.am      1 GLN        -0.2636
     18 CA         77.2550  -25.0020   52.8140 C.3       1 GLN         0.1330
     19 C          78.4960  -24.1710   52.4060 C.2       1 GLN         0.2041
     20 O          79.3800  -24.6470   51.6790 O.2       1 GLN        -0.3944
     21 CB         77.5840  -25.9660   53.9310 C.3       1 GLN         0.0045
     22 CG         78.0140  -25.3270   55.2670 C.3       1 GLN         0.0412
     23 CD         78.2420  -26.4110   56.2720 C.2       1 GLN         0.1737
     24 OE1        78.6770  -27.4830   55.8940 O.2       1 GLN        -0.3973
     25 NE2        77.9130  -26.1750   57.5340 N.am      1 GLN        -0.3009
     26 N          78.5550  -22.9090   52.8300 N.am      1 HIS        -0.2625
     27 CA         79.7400  -22.0540   52.5540 C.3       1 HIS         0.1369
     28 C          80.6540  -22.0320   53.7760 C.2       1 HIS         0.2055
     29 O          80.1630  -22.1450   54.8930 O.2       1 HIS        -0.3942
     30 CB         79.3240  -20.5970   52.4010 C.3       1 HIS         0.0145
     31 CG         78.5360  -20.3100   51.1680 C.2       1 HIS        -0.0027
     32 ND1        77.1840  -20.5850   51.0620 N.2       1 HIS        -0.3252
     33 CD2        78.8990  -19.7410   49.9920 C.2       1 HIS         0.0291
     34 CE1        76.7540  -20.2070   49.8690 C.2       1 HIS         0.0907
     35 NE2        77.7760  -19.6960   49.1980 N.pl3     1 HIS        -0.2752
     36 N          81.9520  -21.7930   53.5720 N.am      1 HIS        -0.2624
     37 CA         82.8870  -21.5420   54.6920 C.3       1 HIS         0.1369
     38 C          82.5280  -20.2410   55.4100 C.2       1 HIS         0.2054
     39 O          81.9390  -19.3700   54.7990 O.2       1 HIS        -0.3942
     40 CB         84.3330  -21.3670   54.1800 C.3       1 HIS         0.0145
     41 CG         84.8600  -22.5380   53.4060 C.2       1 HIS        -0.0027
     42 ND1        85.8090  -22.3990   52.4190 N.2       1 HIS        -0.3252
     43 CD2        84.5850  -23.8640   53.4800 C.2       1 HIS         0.0291
     44 CE1        86.0970  -23.5900   51.9170 C.2       1 HIS         0.0907
     45 NE2        85.3580  -24.4940   52.5340 N.pl3     1 HIS        -0.2752
     46 N          82.9550  -20.0820   56.6720 N.am      1 ARG        -0.2636
     47 CA         82.8830  -18.7810   57.3610 C.3       1 ARG         0.1311
     48 C          83.9580  -17.9090   56.7040 C.2       1 ARG         0.2039
     49 O          84.8810  -18.4490   56.1010 O.2       1 ARG        -0.3944
     50 CB         83.0660  -18.9180   58.8960 C.3       1 ARG        -0.0092
     51 CG         84.5310  -19.1570   59.4000 C.3       1 ARG        -0.0156
     52 CD         84.5130  -19.3080   60.8940 C.3       1 ARG         0.0627
     53 NE         85.8620  -19.2610   61.4850 N.pl3     1 ARG        -0.2723
     54 CZ         86.6360  -20.3260   61.6560 C.cat     1 ARG         0.2882
     55 NH1        87.8540  -20.2120   62.2270 N.pl3     1 ARG        -0.2849
     56 NH2        86.1850  -21.5070   61.2230 N.pl3     1 ARG        -0.2849
     57 N          83.7960  -16.5880   56.7750 N.am      1 ARG        -0.2637
     58 CA         84.7410  -15.6270   56.2400 C.3       1 ARG         0.1311
     59 C          85.5860  -15.2110   57.4110 C.2       1 ARG         0.2040
     60 O          85.0810  -15.1170   58.5260 O.2       1 ARG        -0.3944
     61 CB         84.0130  -14.3660   55.7580 C.3       1 ARG        -0.0092
     62 CG         82.9810  -14.5650   54.6410 C.3       1 ARG        -0.0156
     63 CD         83.6050  -15.2960   53.4460 C.3       1 ARG         0.0627
     64 NE         84.9600  -14.8250   53.0830 N.pl3     1 ARG        -0.2723
     65 CZ         85.1630  -13.8710   52.1740 C.cat     1 ARG         0.2882
     66 NH1        86.3900  -13.4640   51.8510 N.pl3     1 ARG        -0.2849
     67 NH2        84.1020  -13.3150   51.5900 N.pl3     1 ARG        -0.2849
     68 N          86.8680  -14.9860   57.1640 N.am      1 THR        -0.2613
     69 CA         87.7660  -14.4530   58.1600 C.3       1 THR         0.1565
     70 C          88.7510  -13.5850   57.3510 C.2       1 THR         0.2066
     71 O          88.8530  -13.7310   56.1370 O.2       1 THR        -0.3943
     72 CB         88.4940  -15.5690   58.9330 C.3       1 THR         0.0924
     73 OG1        89.3290  -14.9560   59.9420 O.3       1 THR        -0.3874
     74 CG2        89.4310  -16.3960   57.9830 C.3       1 THR        -0.0346
     75 N          89.4090  -12.6490   58.0030 N.am      1 ASP        -0.2621
     76 CA         90.4230  -11.7810   57.3920 C.3       1 ASP         0.1423
     77 C          91.5340  -12.6440   56.7550 C.2       1 ASP         0.2057
     78 O          91.9670  -13.6490   57.3390 O.2       1 ASP        -0.3943
     79 CB         91.0640  -10.8910   58.4720 C.3       1 ASP         0.0406
     80 CG         90.0450  -10.2350   59.3750 C.2       1 ASP         0.0393
     81 OD1        89.6740   -9.1090   59.0650 O.co2     1 ASP        -0.5688
     82 OD2        89.5700  -10.8250   60.3800 O.co2     1 ASP        -0.5688
     83 N          92.0100  -12.2360   55.5940 N.am      1 ASN        -0.2615
     84 CA         93.0950  -12.9560   54.8310 C.3       1 ASN         0.1475
     85 C          92.8530  -14.4550   54.5770 C.2       1 ASN         0.2058
     86 O          93.7850  -15.2440   54.7950 O.2       1 ASN        -0.3942
     87 CB         94.4620  -12.8450   55.5130 C.3       1 ASN         0.0773
     88 CG         94.8500  -11.4150   55.8170 C.2       1 ASN         0.1780
     89 OD1        95.1550  -11.0690   56.9640 O.2       1 ASN        -0.3970
     90 ND2        94.8200  -10.5680   54.7980 N.am      1 ASN        -0.3007
     91 N          91.6300  -14.8400   54.1610 N.am      1 ASP        -0.2678
     92 CA         91.2780  -16.2460   53.8650 C.3       1 ASP         0.1058
     93 C          91.4450  -16.6250   52.3720 C.2       1 ASP         0.0618
     94 O          92.0790  -15.8330   51.6400 O.co2     1 ASP        -0.5665
     95 CB         89.8930  -16.5970   54.3940 C.3       1 ASP         0.0351
     96 CG         88.7490  -15.7690   53.7360 C.2       1 ASP         0.0387
     97 OD1        89.0570  -14.8600   52.9230 O.co2     1 ASP        -0.5688
     98 OD2        87.5530  -16.0200   54.0530 O.co2     1 ASP        -0.5688
     99 OXT        91.0070  -17.6740   51.8310 O.co2     1 ASP        -0.5665
    100 H1         71.5185  -27.6453   47.8764 H         1 VAL         0.2015
    101 H2         70.1917  -26.7792   48.3225 H         1 VAL         0.2015
    102 H3         70.9786  -27.7086   49.4301 H         1 VAL         0.2015
    103 H4         72.0690  -25.3439   48.0810 H         1 VAL         0.1101
    104 H5         71.2574  -25.8005   51.0095 H         1 VAL         0.0376
    105 H6         71.6096  -23.4096   51.2413 H         1 VAL         0.0236
    106 H7         72.1607  -23.3273   49.5336 H         1 VAL         0.0236
    107 H8         73.1050  -24.2680   50.7378 H         1 VAL         0.0236
    108 H9         69.3009  -25.6549   49.5066 H         1 VAL         0.0236
    109 H10        69.9224  -24.0980   48.8615 H         1 VAL         0.0236
    110 H11        69.4315  -24.2242   50.5848 H         1 VAL         0.0236
    111 H12        74.2420  -25.0765   48.3497 H         1 GLU         0.1885
    112 H13        75.6974  -27.1354   49.9049 H         1 GLU         0.0801
    113 H14        76.4470  -25.3482   47.5886 H         1 GLU         0.0330
    114 H15        76.6369  -27.1233   47.7880 H         1 GLU         0.0330
    115 H16        78.4706  -26.7827   49.3763 H         1 GLU         0.0433
    116 H17        78.2458  -25.0025   49.2918 H         1 GLU         0.0433
    117 H18        76.6160  -26.7666   51.7811 H         1 GLN         0.1883
    118 H19        76.4926  -24.2967   53.1764 H         1 GLN         0.0801
    119 H20        78.4046  -26.6129   53.5873 H         1 GLN         0.0337
    120 H21        76.6902  -26.5780   54.1223 H         1 GLN         0.0337
    121 H22        77.2225  -24.6522   55.6251 H         1 GLN         0.0504
    122 H23        78.9436  -24.7572   55.1214 H         1 GLN         0.0504
    123 H24        78.0541  -26.8811   58.2279 H         1 GLN         0.1814
    124 H25        77.5237  -25.2908   57.7923 H         1 GLN         0.1814
    125 H26        77.7863  -22.5290   53.3445 H         1 HIS         0.1885
    126 H27        80.2685  -22.4164   51.6600 H         1 HIS         0.0817
    127 H28        80.2339  -19.9793   52.3798 H         1 HIS         0.0420
    128 H29        78.7129  -20.3199   53.2726 H         1 HIS         0.0420
    129 H30        79.8934  -19.3860   49.7256 H         1 HIS         0.0729
    130 H31        75.7333  -20.3001   49.5010 H         1 HIS         0.1199
    131 H32        77.7363  -19.3253   48.2379 H         1 HIS         0.2361
    132 H33        82.3025  -21.7833   52.6355 H         1 HIS         0.1885
    133 H34        82.8387  -22.3860   55.3958 H         1 HIS         0.0817
    134 H35        84.9886  -21.2050   55.0483 H         1 HIS         0.0420
    135 H36        84.3627  -20.4817   53.5278 H         1 HIS         0.0420
    136 H37        83.8825  -24.3408   54.1620 H         1 HIS         0.0729
    137 H38        86.8210  -23.7902   51.1285 H         1 HIS         0.1199
    138 H39        85.3605  -25.5053   52.3384 H         1 HIS         0.2361
    139 H40        83.3331  -20.8691   57.1593 H         1 ARG         0.1883
    140 H41        81.8959  -18.3303   57.1805 H         1 ARG         0.0800
    141 H42        82.4527  -19.7668   59.2326 H         1 ARG         0.0313
    142 H43        82.6978  -17.9920   59.3618 H         1 ARG         0.0313
    143 H44        85.1613  -18.2990   59.1232 H         1 ARG         0.0301
    144 H45        84.9347  -20.0717   58.9413 H         1 ARG         0.0301
    145 H46        84.0521  -20.2748   61.1448 H         1 ARG         0.0689
    146 H47        83.9119  -18.4929   61.3232 H         1 ARG         0.0689
    147 H48        86.2270  -18.3454   61.7839 H         1 ARG         0.2642
    148 H49        88.4437  -21.0470   62.3533 H         1 ARG         0.2615
    149 H50        88.1935  -19.2901   62.5363 H         1 ARG         0.2615
    150 H51        85.2530  -21.5750   60.7898 H         1 ARG         0.2615
    151 H52        86.7694  -22.3493   61.3224 H         1 ARG         0.2615
    152 H53        82.9736  -16.2387   57.2241 H         1 ARG         0.1883
    153 H54        85.3429  -16.0676   55.4315 H         1 ARG         0.0800
    154 H55        84.7723  -13.6596   55.3913 H         1 ARG         0.0313
    155 H56        83.4919  -13.9283   56.6222 H         1 ARG         0.0313
    156 H57        82.6134  -13.5823   54.3105 H         1 ARG         0.0301
    157 H58        82.1405  -15.1596   55.0284 H         1 ARG         0.0301
    158 H59        82.9473  -15.1566   52.5754 H         1 ARG         0.0689
    159 H60        83.6668  -16.3665   53.6912 H         1 ARG         0.0689
    160 H61        85.7749  -15.2490   53.5489 H         1 ARG         0.2642
    161 H62        86.5183  -12.7249   51.1452 H         1 ARG         0.2615
    162 H63        87.2102  -13.8885   52.3072 H         1 ARG         0.2615
    163 H64        83.1533  -13.6292   51.8393 H         1 ARG         0.2615
    164 H65        84.2307  -12.5711   50.8893 H         1 ARG         0.2615
    165 H66        87.2266  -15.1932   56.2538 H         1 THR         0.1884
    166 H67        87.2112  -13.8308   58.8777 H         1 THR         0.0826
    167 H68        87.7555  -16.2363   59.4013 H         1 THR         0.0639
    168 H69        89.7853  -15.6329   60.4279 H         1 THR         0.2101
    169 H70        89.9363  -17.1836   58.5612 H         1 THR         0.0257
    170 H71        90.1832  -15.7283   57.5377 H         1 THR         0.0257
    171 H72        88.8301  -16.8556   57.1845 H         1 THR         0.0257
    172 H73        89.2055  -12.5217   58.9738 H         1 ASP         0.1884
    173 H74        89.9523  -11.1521   56.6220 H         1 ASP         0.0819
    174 H75        91.6509  -10.1042   57.9755 H         1 ASP         0.0478
    175 H76        91.7307  -11.5121   59.0883 H         1 ASP         0.0478
    176 H77        91.6296  -11.4010   55.1964 H         1 ASN         0.1885
    177 H78        93.1616  -12.4625   53.8502 H         1 ASN         0.0826
    178 H79        95.2226  -13.2822   54.8494 H         1 ASN         0.0551
    179 H80        94.4309  -13.4091   56.4568 H         1 ASN         0.0551
    180 H81        95.0663   -9.6089   54.9376 H         1 ASN         0.1814
    181 H82        94.5511  -10.8880   53.8896 H         1 ASN         0.1814
    182 H83        90.9251  -14.1399   54.0467 H         1 ASP         0.1877
    183 H84        91.9943  -16.8680   54.4217 H         1 ASP         0.0745
    184 H85        89.8772  -16.4125   55.4783 H         1 ASP         0.0471
    185 H86        89.7064  -17.6637   54.2008 H         1 ASP         0.0471
@<TRIPOS>BOND
     1    1    2 1  
     2    2    3 1  
     3    2    5 1  
     4    3    4 2  
     5    3    8 am 
     6    5    6 1  
     7    5    7 1  
     8    8    9 1  
     9    9   10 1  
    10    9   12 1  
    11   10   11 2  
    12   10   17 am 
    13   12   13 1  
    14   13   14 1  
    15   14   15 ar 
    16   14   16 ar 
    17   17   18 1  
    18   18   19 1  
    19   18   21 1  
    20   19   20 2  
    21   19   26 am 
    22   21   22 1  
    23   22   23 1  
    24   23   24 2  
    25   23   25 am 
    26   26   27 1  
    27   27   28 1  
    28   27   30 1  
    29   28   29 2  
    30   28   36 am 
    31   30   31 1  
    32   31   32 1  
    33   31   33 2  
    34   32   34 2  
    35   33   35 1  
    36   34   35 1  
    37   36   37 1  
    38   37   38 1  
    39   37   40 1  
    40   38   39 2  
    41   38   46 am 
    42   40   41 1  
    43   41   42 1  
    44   41   43 2  
    45   42   44 2  
    46   43   45 1  
    47   44   45 1  
    48   46   47 1  
    49   47   48 1  
    50   47   50 1  
    51   48   49 2  
    52   48   57 am 
    53   50   51 1  
    54   51   52 1  
    55   52   53 1  
    56   53   54 ar 
    57   54   55 ar 
    58   54   56 ar 
    59   57   58 1  
    60   58   59 1  
    61   58   61 1  
    62   59   60 2  
    63   59   68 am 
    64   61   62 1  
    65   62   63 1  
    66   63   64 1  
    67   64   65 ar 
    68   65   66 ar 
    69   65   67 ar 
    70   68   69 1  
    71   69   70 1  
    72   69   72 1  
    73   70   71 2  
    74   70   75 am 
    75   72   73 1  
    76   72   74 1  
    77   75   76 1  
    78   76   77 1  
    79   76   79 1  
    80   77   78 2  
    81   77   83 am 
    82   79   80 1  
    83   80   81 ar 
    84   80   82 ar 
    85   83   84 1  
    86   84   85 1  
    87   84   87 1  
    88   85   86 2  
    89   85   91 am 
    90   87   88 1  
    91   88   89 2  
    92   88   90 am 
    93   91   92 1  
    94   92   93 1  
    95   92   95 1  
    96   93   94 ar 
    97   93   99 ar 
    98   95   96 1  
    99   96   97 ar 
   100   96   98 ar 
   101    1  100 1  
   102    1  101 1  
   103    1  102 1  
   104    2  103 1  
   105    5  104 1  
   106    6  105 1  
   107    6  106 1  
   108    6  107 1  
   109    7  108 1  
   110    7  109 1  
   111    7  110 1  
   112    8  111 1  
   113    9  112 1  
   114   12  113 1  
   115   12  114 1  
   116   13  115 1  
   117   13  116 1  
   118   17  117 1  
   119   18  118 1  
   120   21  119 1  
   121   21  120 1  
   122   22  121 1  
   123   22  122 1  
   124   25  123 1  
   125   25  124 1  
   126   26  125 1  
   127   27  126 1  
   128   30  127 1  
   129   30  128 1  
   130   33  129 1  
   131   34  130 1  
   132   35  131 1  
   133   36  132 1  
   134   37  133 1  
   135   40  134 1  
   136   40  135 1  
   137   43  136 1  
   138   44  137 1  
   139   45  138 1  
   140   46  139 1  
   141   47  140 1  
   142   50  141 1  
   143   50  142 1  
   144   51  143 1  
   145   51  144 1  
   146   52  145 1  
   147   52  146 1  
   148   53  147 1  
   149   55  148 1  
   150   55  149 1  
   151   56  150 1  
   152   56  151 1  
   153   57  152 1  
   154   58  153 1  
   155   61  154 1  
   156   61  155 1  
   157   62  156 1  
   158   62  157 1  
   159   63  158 1  
   160   63  159 1  
   161   64  160 1  
   162   66  161 1  
   163   66  162 1  
   164   67  163 1  
   165   67  164 1  
   166   68  165 1  
   167   69  166 1  
   168   72  167 1  
   169   73  168 1  
   170   74  169 1  
   171   74  170 1  
   172   74  171 1  
   173   75  172 1  
   174   76  173 1  
   175   79  174 1  
   176   79  175 1  
   177   83  176 1  
   178   84  177 1  
   179   87  178 1  
   180   87  179 1  
   181   90  180 1  
   182   90  181 1  
   183   91  182 1  
   184   92  183 1  
   185   95  184 1  
   186   95  185 1  
@<TRIPOS>SUBSTRUCTURE
     1 VAL         1

