2qhr_ligand
  -I-interpret- 

185186  0  0  0  0  0  0  0  0999 V2000
   71.0930  -27.1170   48.6220 N   0  3  0  0  0
   71.9450  -25.9880   48.9640 C   0  0  0  0  0
   73.3220  -26.5110   49.4150 C   0  0  0  0  0
   73.4210  -27.5020   50.1530 O   0  0  0  0  0
   71.3000  -25.1660   50.1120 C   0  0  0  0  0
   72.0940  -23.9670   50.4260 C   0  0  0  0  0
   69.8930  -24.7580   49.7410 C   0  0  0  0  0
   74.3740  -25.8220   49.0030 N   0  0  0  0  0
   75.7260  -26.1220   49.4780 C   0  0  0  0  0
   76.2130  -25.1810   50.6020 C   0  0  0  0  0
   76.1690  -23.9440   50.4780 O   0  0  0  0  0
   76.7190  -26.1490   48.2920 C   0  0  0  0  0
   78.1790  -25.9440   48.7270 C   0  0  0  0  0
   79.1590  -25.8760   47.5520 C   0  0  0  0  0
   78.8250  -26.4500   46.4830 O   0  0  0  0  0
   80.2510  -25.2520   47.7020 O   0  0  0  0  0
   76.6710  -25.7710   51.7050 N   0  0  0  0  0
   77.2550  -25.0020   52.8140 C   0  0  0  0  0
   78.4960  -24.1710   52.4060 C   0  0  0  0  0
   79.3800  -24.6470   51.6790 O   0  0  0  0  0
   77.5840  -25.9660   53.9310 C   0  0  0  0  0
   78.0140  -25.3270   55.2670 C   0  0  0  0  0
   78.2420  -26.4110   56.2720 C   0  0  0  0  0
   78.6770  -27.4830   55.8940 O   0  0  0  0  0
   77.9130  -26.1750   57.5340 N   0  0  0  0  0
   78.5550  -22.9090   52.8300 N   0  0  0  0  0
   79.7400  -22.0540   52.5540 C   0  0  0  0  0
   80.6540  -22.0320   53.7760 C   0  0  0  0  0
   80.1630  -22.1450   54.8930 O   0  0  0  0  0
   79.3240  -20.5970   52.4010 C   0  0  0  0  0
   78.5360  -20.3100   51.1680 C   0  0  0  0  0
   77.1840  -20.5850   51.0620 N   0  0  0  0  0
   78.8990  -19.7410   49.9920 C   0  0  0  0  0
   76.7540  -20.2070   49.8690 C   0  0  0  0  0
   77.7760  -19.6960   49.1980 N   0  0  0  0  0
   81.9520  -21.7930   53.5720 N   0  0  0  0  0
   82.8870  -21.5420   54.6920 C   0  0  0  0  0
   82.5280  -20.2410   55.4100 C   0  0  0  0  0
   81.9390  -19.3700   54.7990 O   0  0  0  0  0
   84.3330  -21.3670   54.1800 C   0  0  0  0  0
   84.8600  -22.5380   53.4060 C   0  0  0  0  0
   85.8090  -22.3990   52.4190 N   0  0  0  0  0
   84.5850  -23.8640   53.4800 C   0  0  0  0  0
   86.0970  -23.5900   51.9170 C   0  0  0  0  0
   85.3580  -24.4940   52.5340 N   0  0  0  0  0
   82.9550  -20.0820   56.6720 N   0  0  0  0  0
   82.8830  -18.7810   57.3610 C   0  0  0  0  0
   83.9580  -17.9090   56.7040 C   0  0  0  0  0
   84.8810  -18.4490   56.1010 O   0  0  0  0  0
   83.0660  -18.9180   58.8960 C   0  0  0  0  0
   84.5310  -19.1570   59.4000 C   0  0  0  0  0
   84.5130  -19.3080   60.8940 C   0  0  0  0  0
   85.8620  -19.2610   61.4850 N   0  0  0  0  0
   86.6360  -20.3260   61.6560 C   0  0  0  0  0
   87.8540  -20.2120   62.2270 N   0  0  0  0  0
   86.1850  -21.5070   61.2230 N   0  0  0  0  0
   83.7960  -16.5880   56.7750 N   0  0  0  0  0
   84.7410  -15.6270   56.2400 C   0  0  0  0  0
   85.5860  -15.2110   57.4110 C   0  0  0  0  0
   85.0810  -15.1170   58.5260 O   0  0  0  0  0
   84.0130  -14.3660   55.7580 C   0  0  0  0  0
   82.9810  -14.5650   54.6410 C   0  0  0  0  0
   83.6050  -15.2960   53.4460 C   0  0  0  0  0
   84.9600  -14.8250   53.0830 N   0  0  0  0  0
   85.1630  -13.8710   52.1740 C   0  0  0  0  0
   86.3900  -13.4640   51.8510 N   0  0  0  0  0
   84.1020  -13.3150   51.5900 N   0  0  0  0  0
   86.8680  -14.9860   57.1640 N   0  0  0  0  0
   87.7660  -14.4530   58.1600 C   0  0  0  0  0
   88.7510  -13.5850   57.3510 C   0  0  0  0  0
   88.8530  -13.7310   56.1370 O   0  0  0  0  0
   88.4940  -15.5690   58.9330 C   0  0  0  0  0
   89.3290  -14.9560   59.9420 O   0  0  0  0  0
   89.4310  -16.3960   57.9830 C   0  0  0  0  0
   89.4090  -12.6490   58.0030 N   0  0  0  0  0
   90.4230  -11.7810   57.3920 C   0  0  0  0  0
   91.5340  -12.6440   56.7550 C   0  0  0  0  0
   91.9670  -13.6490   57.3390 O   0  0  0  0  0
   91.0640  -10.8910   58.4720 C   0  0  0  0  0
   90.0450  -10.2350   59.3750 C   0  0  0  0  0
   89.6740   -9.1090   59.0650 O   0  0  0  0  0
   89.5700  -10.8250   60.3800 O   0  0  0  0  0
   92.0100  -12.2360   55.5940 N   0  0  0  0  0
   93.0950  -12.9560   54.8310 C   0  0  0  0  0
   92.8530  -14.4550   54.5770 C   0  0  0  0  0
   93.7850  -15.2440   54.7950 O   0  0  0  0  0
   94.4620  -12.8450   55.5130 C   0  0  0  0  0
   94.8500  -11.4150   55.8170 C   0  0  0  0  0
   95.1550  -11.0690   56.9640 O   0  0  0  0  0
   94.8200  -10.5680   54.7980 N   0  0  0  0  0
   91.6300  -14.8400   54.1610 N   0  0  0  0  0
   91.2780  -16.2460   53.8650 C   0  0  0  0  0
   91.4450  -16.6250   52.3720 C   0  0  0  0  0
   92.0790  -15.8330   51.6400 O   0  0  0  0  0
   89.8930  -16.5970   54.3940 C   0  0  0  0  0
   88.7490  -15.7690   53.7360 C   0  0  0  0  0
   89.0570  -14.8600   52.9230 O   0  0  0  0  0
   87.5530  -16.0200   54.0530 O   0  0  0  0  0
   91.0070  -17.6740   51.8310 O   0  0  0  0  0
   71.5245  -27.6508   47.8675 H   0  0  0  0  0
   70.9780  -27.7148   49.4404 H   0  0  0  0  0
   70.1814  -26.7740   48.3192 H   0  0  0  0  0
   72.0623  -25.3463   48.0907 H   0  0  0  0  0
   71.2726  -25.8022   50.9966 H   0  0  0  0  0
   72.1233  -23.3136   49.5541 H   0  0  0  0  0
   71.6365  -23.4386   51.2624 H   0  0  0  0  0
   73.1081  -24.2641   50.6932 H   0  0  0  0  0
   69.4368  -24.2291   50.5778 H   0  0  0  0  0
   69.9236  -24.1041   48.8695 H   0  0  0  0  0
   69.3073  -25.6475   49.5090 H   0  0  0  0  0
   74.2393  -25.0616   48.3367 H   0  0  0  0  0
   75.6841  -27.1130   49.9300 H   0  0  0  0  0
   76.4551  -25.3331   47.6191 H   0  0  0  0  0
   76.6472  -27.1293   47.8208 H   0  0  0  0  0
   78.4619  -26.7982   49.3422 H   0  0  0  0  0
   78.2339  -24.9928   49.2565 H   0  0  0  0  0
   80.2950  -24.8957   48.5924 H   0  0  0  0  0
   76.6149  -26.7865   51.7826 H   0  0  0  0  0
   76.5213  -24.2661   53.1429 H   0  0  0  0  0
   78.4323  -26.5573   53.5864 H   0  0  0  0  0
   76.6690  -26.5214   54.1367 H   0  0  0  0  0
   77.2331  -24.6543   55.6217 H   0  0  0  0  0
   78.9327  -24.7580   55.1242 H   0  0  0  0  0
   78.0207  -26.9083   58.2348 H   0  0  0  0  0
   77.5521  -25.2601   57.8044 H   0  0  0  0  0
   77.7710  -22.5214   53.3548 H   0  0  0  0  0
   80.2161  -22.4543   51.6589 H   0  0  0  0  0
   80.2385  -20.0069   52.3417 H   0  0  0  0  0
   78.6877  -20.3541   53.2520 H   0  0  0  0  0
   79.8944  -19.3856   49.7254 H   0  0  0  0  0
   75.7323  -20.3002   49.5007 H   0  0  0  0  0
   82.3095  -21.7831   52.6168 H   0  0  0  0  0
   82.8112  -22.4002   55.3598 H   0  0  0  0  0
   84.9710  -21.2483   55.0558 H   0  0  0  0  0
   84.3328  -20.5108   53.5054 H   0  0  0  0  0
   83.8819  -24.3413   54.1626 H   0  0  0  0  0
   86.8216  -23.7904   51.1278 H   0  0  0  0  0
   83.3407  -20.8849   57.1691 H   0  0  0  0  0
   81.8984  -18.3254   57.2557 H   0  0  0  0  0
   82.4947  -19.7974   59.1933 H   0  0  0  0  0
   82.7472  -17.9687   59.3264 H   0  0  0  0  0
   85.1587  -18.3101   59.1228 H   0  0  0  0  0
   84.9350  -20.0605   58.9432 H   0  0  0  0  0
   84.0783  -20.2799   61.1275 H   0  0  0  0  0
   83.9367  -18.4804   61.3077 H   0  0  0  0  0
   86.2234  -18.3543   61.7810 H   0  0  0  0  0
   88.4463  -21.0355   62.3337 H   0  0  0  0  0
   88.1819  -19.3024   62.5517 H   0  0  0  0  0
   85.2703  -21.5709   60.7762 H   0  0  0  0  0
   82.9572  -16.2317   57.2330 H   0  0  0  0  0
   85.3013  -16.0604   55.4116 H   0  0  0  0  0
   84.7807  -13.7088   55.3495 H   0  0  0  0  0
   83.4614  -13.9857   56.6177 H   0  0  0  0  0
   82.6288  -13.5880   54.3101 H   0  0  0  0  0
   82.1563  -15.1639   55.0274 H   0  0  0  0  0
   82.9609  -15.1124   52.5861 H   0  0  0  0  0
   83.6946  -16.3462   53.7239 H   0  0  0  0  0
   85.7670  -15.2449   53.5444 H   0  0  0  0  0
   87.2022  -13.8843   52.3027 H   0  0  0  0  0
   84.2294  -12.5783   50.8962 H   0  0  0  0  0
   83.1625  -13.6261   51.8369 H   0  0  0  0  0
   87.2338  -15.1973   56.2356 H   0  0  0  0  0
   87.2406  -13.8826   58.9260 H   0  0  0  0  0
   87.7462  -16.2314   59.3691 H   0  0  0  0  0
   89.7901  -15.6400   60.4330 H   0  0  0  0  0
   88.8344  -16.8509   57.1923 H   0  0  0  0  0
   90.1758  -15.7333   57.5424 H   0  0  0  0  0
   89.9311  -17.1761   58.5570 H   0  0  0  0  0
   89.2014  -12.5192   58.9932 H   0  0  0  0  0
   89.9433  -11.1646   56.6318 H   0  0  0  0  0
   91.6181  -10.1004   57.9659 H   0  0  0  0  0
   91.6988  -11.5245   59.0916 H   0  0  0  0  0
   89.9775  -11.6901   60.4640 H   0  0  0  0  0
   91.6220  -11.3843   55.1885 H   0  0  0  0  0
   93.0750  -12.4383   53.8720 H   0  0  0  0  0
   95.2086  -13.2566   54.8339 H   0  0  0  0  0
   94.4086  -13.3849   56.4584 H   0  0  0  0  0
   95.0546   -9.5861   54.9439 H   0  0  0  0  0
   94.5623  -10.8980   53.8679 H   0  0  0  0  0
   90.9111  -14.1259   54.0444 H   0  0  0  0  0
   92.0033  -16.8582   54.4010 H   0  0  0  0  0
   89.8844  -16.3773   55.4616 H   0  0  0  0  0
   89.7111  -17.6471   54.1652 H   0  0  0  0  0
   87.5353  -16.7448   54.6823 H   0  0  0  0  0
   90.5413  -18.1998   52.4854 H   0  0  0  0  0
  1  2  1  0  0  0
  2  3  1  0  0  0
  2  5  1  0  0  0
  3  4  2  0  0  0
  3  8  1  0  0  0
  5  6  1  0  0  0
  5  7  1  0  0  0
  8  9  1  0  0  0
  9 10  1  0  0  0
  9 12  1  0  0  0
 10 11  2  0  0  0
 10 17  1  0  0  0
 12 13  1  0  0  0
 13 14  1  0  0  0
 14 15  2  0  0  0
 14 16  1  0  0  0
 17 18  1  0  0  0
 18 19  1  0  0  0
 18 21  1  0  0  0
 19 20  2  0  0  0
 19 26  1  0  0  0
 21 22  1  0  0  0
 22 23  1  0  0  0
 23 24  2  0  0  0
 23 25  1  0  0  0
 26 27  1  0  0  0
 27 28  1  0  0  0
 27 30  1  0  0  0
 28 29  2  0  0  0
 28 36  1  0  0  0
 30 31  1  0  0  0
 31 32  4  0  0  0
 31 33  4  0  0  0
 32 34  4  0  0  0
 33 35  4  0  0  0
 34 35  4  0  0  0
 36 37  1  0  0  0
 37 38  1  0  0  0
 37 40  1  0  0  0
 38 39  2  0  0  0
 38 46  1  0  0  0
 40 41  1  0  0  0
 41 42  4  0  0  0
 41 43  4  0  0  0
 42 44  4  0  0  0
 43 45  4  0  0  0
 44 45  4  0  0  0
 46 47  1  0  0  0
 47 48  1  0  0  0
 47 50  1  0  0  0
 48 49  2  0  0  0
 48 57  1  0  0  0
 50 51  1  0  0  0
 51 52  1  0  0  0
 52 53  1  0  0  0
 53 54  1  0  0  0
 54 55  1  0  0  0
 54 56  2  0  0  0
 57 58  1  0  0  0
 58 59  1  0  0  0
 58 61  1  0  0  0
 59 60  2  0  0  0
 59 68  1  0  0  0
 61 62  1  0  0  0
 62 63  1  0  0  0
 63 64  1  0  0  0
 64 65  1  0  0  0
 65 66  2  0  0  0
 65 67  1  0  0  0
 68 69  1  0  0  0
 69 70  1  0  0  0
 69 72  1  0  0  0
 70 71  2  0  0  0
 70 75  1  0  0  0
 72 73  1  0  0  0
 72 74  1  0  0  0
 75 76  1  0  0  0
 76 77  1  0  0  0
 76 79  1  0  0  0
 77 78  2  0  0  0
 77 83  1  0  0  0
 79 80  1  0  0  0
 80 81  2  0  0  0
 80 82  1  0  0  0
 83 84  1  0  0  0
 84 85  1  0  0  0
 84 87  1  0  0  0
 85 86  2  0  0  0
 85 91  1  0  0  0
 87 88  1  0  0  0
 88 89  2  0  0  0
 88 90  1  0  0  0
 91 92  1  0  0  0
 92 93  1  0  0  0
 92 95  1  0  0  0
 93 94  2  0  0  0
 93 99  1  0  0  0
 95 96  1  0  0  0
 96 97  2  0  0  0
 96 98  1  0  0  0
  1100  1  0  0  0
  1101  1  0  0  0
  1102  1  0  0  0
  2103  1  0  0  0
  5104  1  0  0  0
  6105  1  0  0  0
  6106  1  0  0  0
  6107  1  0  0  0
  7108  1  0  0  0
  7109  1  0  0  0
  7110  1  0  0  0
  8111  1  0  0  0
  9112  1  0  0  0
 12113  1  0  0  0
 12114  1  0  0  0
 13115  1  0  0  0
 13116  1  0  0  0
 16117  1  0  0  0
 17118  1  0  0  0
 18119  1  0  0  0
 21120  1  0  0  0
 21121  1  0  0  0
 22122  1  0  0  0
 22123  1  0  0  0
 25124  1  0  0  0
 25125  1  0  0  0
 26126  1  0  0  0
 27127  1  0  0  0
 30128  1  0  0  0
 30129  1  0  0  0
 33130  1  0  0  0
 34131  1  0  0  0
 36132  1  0  0  0
 37133  1  0  0  0
 40134  1  0  0  0
 40135  1  0  0  0
 43136  1  0  0  0
 44137  1  0  0  0
 46138  1  0  0  0
 47139  1  0  0  0
 50140  1  0  0  0
 50141  1  0  0  0
 51142  1  0  0  0
 51143  1  0  0  0
 52144  1  0  0  0
 52145  1  0  0  0
 53146  1  0  0  0
 55147  1  0  0  0
 55148  1  0  0  0
 56149  1  0  0  0
 57150  1  0  0  0
 58151  1  0  0  0
 61152  1  0  0  0
 61153  1  0  0  0
 62154  1  0  0  0
 62155  1  0  0  0
 63156  1  0  0  0
 63157  1  0  0  0
 64158  1  0  0  0
 66159  1  0  0  0
 67160  1  0  0  0
 67161  1  0  0  0
 68162  1  0  0  0
 69163  1  0  0  0
 72164  1  0  0  0
 73165  1  0  0  0
 74166  1  0  0  0
 74167  1  0  0  0
 74168  1  0  0  0
 75169  1  0  0  0
 76170  1  0  0  0
 79171  1  0  0  0
 79172  1  0  0  0
 82173  1  0  0  0
 83174  1  0  0  0
 84175  1  0  0  0
 87176  1  0  0  0
 87177  1  0  0  0
 90178  1  0  0  0
 90179  1  0  0  0
 91180  1  0  0  0
 92181  1  0  0  0
 95182  1  0  0  0
 95183  1  0  0  0
 98184  1  0  0  0
 99185  1  0  0  0
M  END
$$$$
