6k5r_ligand
  -I-interpret- 

174173  0  0  0  0  0  0  0  0999 V2000
  -13.7920    6.2740   14.9930 N   0  3  0  0  0
  -13.9040    5.6900   13.6630 C   0  0  0  0  0
  -12.6640    4.8590   13.3630 C   0  0  0  0  0
  -11.9050    4.5270   14.2790 O   0  0  0  0  0
  -14.0710    6.7840   12.6070 C   0  0  0  0  0
  -14.9440    6.3430   11.4470 C   0  0  0  0  0
  -16.0140    6.9500   11.2290 O   0  0  0  0  0
  -14.5650    5.3820   10.7420 O   0  0  0  0  0
  -12.4390    4.5370   12.1010 N   0  0  0  0  0
  -11.2810    3.7450   11.7410 C   0  0  0  0  0
  -10.3420    4.5140   10.8170 C   0  0  0  0  0
  -10.7420    5.0060    9.7550 O   0  0  0  0  0
  -11.7100    2.4410   11.0440 C   0  0  0  0  0
  -12.8940    1.9170   11.6660 O   0  0  0  0  0
  -10.6000    1.4050   11.1080 C   0  0  0  0  0
   -9.0980    4.6270   11.2470 N   0  0  0  0  0
   -8.0640    5.2950   10.4870 C   0  0  0  0  0
   -6.8860    4.3620   10.2940 C   0  0  0  0  0
   -6.4060    3.7650   11.2570 O   0  0  0  0  0
   -7.6360    6.5780   11.1790 C   0  0  0  0  0
   -6.4200    4.2290    9.0720 N   0  0  0  0  0
   -5.3020    3.3580    8.8040 C   0  0  0  0  0
   -4.1480    4.1070    8.1970 C   0  0  0  0  0
   -4.3420    4.8690    7.2520 O   0  0  0  0  0
   -2.9560    3.9240    8.7270 N   0  0  0  0  0
   -1.8010    4.6110    8.1780 C   0  0  0  0  0
   -0.7940    3.6010    7.6520 C   0  0  0  0  0
   -0.3620    2.6950    8.3720 O   0  0  0  0  0
   -1.1490    5.4940    9.2460 C   0  0  0  0  0
   -2.2420    5.9420   10.6090 S   0  0  0  0  0
   -0.4460    3.7460    6.3830 N   0  0  0  0  0
    0.5170    2.8670    5.7390 C   0  0  0  0  0
    1.6550    3.6770    5.1320 C   0  0  0  0  0
    1.4100    4.6480    4.4160 O   0  0  0  0  0
   -0.1340    2.0050    4.6310 C   0  0  0  0  0
   -1.3640    1.2690    5.1750 C   0  0  0  0  0
    0.8800    1.0180    4.0730 C   0  0  0  0  0
   -1.9300    0.2230    4.2350 C   0  0  0  0  0
    2.8880    3.2980    5.4140 N   0  0  0  0  0
    4.0360    3.9840    4.8500 C   0  0  0  0  0
    4.8750    3.0040    4.0380 C   0  0  0  0  0
    5.2180    1.9230    4.5210 O   0  0  0  0  0
    4.9100    4.6620    5.9340 C   0  0  0  0  0
    5.2190    3.7080    7.0780 C   0  0  0  0  0
    6.1950    5.1910    5.3200 C   0  0  0  0  0
    5.1830    3.3670    2.8030 N   0  0  0  0  0
    5.9770    2.5090    1.9380 C   0  0  0  0  0
    7.2400    3.2410    1.5000 C   0  0  0  0  0
    7.1950    4.4100    1.1130 O   0  0  0  0  0
    5.1830    1.9740    0.7110 C   0  0  0  0  0
    5.0110    3.0420   -0.3700 C   0  0  0  0  0
    3.8250    1.4340    1.1520 C   0  0  0  0  0
    4.1360    2.5980   -1.5220 C   0  0  0  0  0
    8.3680    2.5550    1.5950 N   0  0  0  0  0
    9.6520    3.1370    1.2400 C   0  0  0  0  0
   10.6130    3.1120    2.4270 C   0  0  0  0  0
   10.4320    4.2340    3.2740 O   0  0  0  0  0
   10.2690    2.3940    0.0680 C   0  0  0  0  0
   10.2670    1.1640    0.0250 O   0  0  0  0  0
   11.5750    5.3550    3.3630 P   0  0  0  0  0
   12.6930    5.1620    2.4160 O   0  0  0  0  0
   12.0140    5.6560    4.7380 O   0  0  0  0  0
   10.8720    6.7070    2.8690 O   0  0  0  0  0
   10.7710    3.1470   -0.8880 N   0  0  0  0  0
   11.3760    2.5700   -2.0690 C   0  0  0  0  0
   12.8550    2.9150   -2.1050 C   0  0  0  0  0
   13.2360    4.0660   -1.8980 O   0  0  0  0  0
   10.6830    3.0820   -3.3300 C   0  0  0  0  0
   10.9290    2.1950   -4.5270 C   0  0  0  0  0
   11.8870    2.4480   -5.2860 O   0  0  0  0  0
   10.1570    1.2350   -4.7140 O   0  0  0  0  0
   13.6850    1.9180   -2.3550 N   0  0  0  0  0
   15.1240    2.1190   -2.3790 C   0  0  0  0  0
   15.7750    1.1670   -1.3640 C   0  0  0  0  0
   15.2820   -0.1570   -1.5230 O   0  0  0  0  0
   15.6820    1.8760   -3.7830 C   0  0  0  0  0
   15.3920    0.8640   -4.4270 O   0  0  0  0  0
   14.5320   -0.8970   -0.3190 P   0  0  0  0  0
   14.5070   -2.3630   -0.4450 O   0  0  0  0  0
   14.9290   -0.4260    1.0190 O   0  0  0  0  0
   12.9990   -0.4690   -0.4590 O   0  0  0  0  0
   16.4720    2.8310   -4.2550 N   0  0  0  0  0
   17.0750    2.7520   -5.5780 C   0  0  0  0  0
   18.5530    3.1140   -5.5080 C   0  0  0  0  0
   19.1190    3.2050   -4.4170 O   0  0  0  0  0
   16.3550    3.6890   -6.5540 C   0  0  0  0  0
   16.7300    3.4660   -8.0140 C   0  0  0  0  0
   16.3800    2.0770   -8.5160 C   0  0  0  0  0
   17.1040    1.1180   -8.1800 O   0  0  0  0  0
   15.3830    1.9370   -9.2550 O   0  0  0  0  0
   19.1920    3.3180   -6.5420 O   0  0  0  0  0
  -13.6815    5.5297   15.6816 H   0  0  0  0  0
  -12.9807    6.8913   15.0247 H   0  0  0  0  0
  -14.6357    6.8084   15.2005 H   0  0  0  0  0
  -14.7844    5.0481   13.6343 H   0  0  0  0  0
  -13.0837    7.0244   12.2126 H   0  0  0  0  0
  -14.5502    7.6400   13.0822 H   0  0  0  0  0
  -13.7243    5.0565   11.0720 H   0  0  0  0  0
  -13.0852    4.8483   11.3758 H   0  0  0  0  0
  -10.7529    3.5122   12.6656 H   0  0  0  0  0
  -11.9183    2.6659    9.9980 H   0  0  0  0  0
  -13.1532    1.1048   11.2247 H   0  0  0  0  0
   -9.7120    1.7946   10.6103 H   0  0  0  0  0
  -10.3677    1.1872   12.1504 H   0  0  0  0  0
  -10.9270    0.4928   10.6090 H   0  0  0  0  0
   -8.8563    4.2263   12.1533 H   0  0  0  0  0
   -8.4595    5.5626    9.5072 H   0  0  0  0  0
   -8.4941    7.2439   11.2701 H   0  0  0  0  0
   -7.2500    6.3430   12.1709 H   0  0  0  0  0
   -6.8579    7.0644   10.5908 H   0  0  0  0  0
   -6.8528    4.7462    8.3068 H   0  0  0  0  0
   -5.6241    2.5922    8.0984 H   0  0  0  0  0
   -4.9715    2.9227    9.7470 H   0  0  0  0  0
   -2.8443    3.2983    9.5248 H   0  0  0  0  0
   -2.1312    5.2443    7.3546 H   0  0  0  0  0
   -0.8506    6.4211    8.7566 H   0  0  0  0  0
   -0.3228    4.9246    9.6718 H   0  0  0  0  0
   -1.5796    6.7046   11.4741 H   0  0  0  0  0
   -0.8672    4.4991    5.8390 H   0  0  0  0  0
    0.9028    2.2013    6.5110 H   0  0  0  0  0
   -0.4608    2.6606    3.8239 H   0  0  0  0  0
   -2.1425    2.0159    5.3305 H   0  0  0  0  0
   -1.0530    0.7509    6.0822 H   0  0  0  0  0
    1.7238    1.5648    3.6522 H   0  0  0  0  0
    1.2303    0.3670    4.8740 H   0  0  0  0  0
    0.4099    0.4174    3.2943 H   0  0  0  0  0
   -2.2291    0.6992    3.3013 H   0  0  0  0  0
   -1.1695   -0.5311    4.0324 H   0  0  0  0  0
   -2.7969   -0.2485    4.6978 H   0  0  0  0  0
    3.0367    2.5072    6.0408 H   0  0  0  0  0
    3.6583    4.7746    4.2016 H   0  0  0  0  0
    4.3445    5.4983    6.3449 H   0  0  0  0  0
    4.2868    3.3822    7.5395 H   0  0  0  0  0
    5.7569    2.8421    6.6921 H   0  0  0  0  0
    5.8339    4.2186    7.8192 H   0  0  0  0  0
    6.7521    4.3648    4.8782 H   0  0  0  0  0
    5.9534    5.9218    4.5482 H   0  0  0  0  0
    6.7982    5.6645    6.0946 H   0  0  0  0  0
    4.8568    4.2669    2.4508 H   0  0  0  0  0
    6.2523    1.6296    2.5202 H   0  0  0  0  0
    5.7635    1.1616    0.2738 H   0  0  0  0  0
    5.9991    3.2615   -0.7743 H   0  0  0  0  0
    4.5305    3.9035    0.0937 H   0  0  0  0  0
    3.9722    0.6210    1.8629 H   0  0  0  0  0
    3.2539    2.2329    1.6249 H   0  0  0  0  0
    3.2827    1.0639    0.2820 H   0  0  0  0  0
    4.5780    1.7213   -1.9954 H   0  0  0  0  0
    3.1433    2.3485   -1.1474 H   0  0  0  0  0
    4.0587    3.4055   -2.2501 H   0  0  0  0  0
    8.3354    1.5910    1.9266 H   0  0  0  0  0
    9.4777    4.1743    0.9542 H   0  0  0  0  0
   11.6328    3.1335    2.0429 H   0  0  0  0  0
   10.4181    2.2098    3.0068 H   0  0  0  0  0
   12.3421    4.9702    1.5432 H   0  0  0  0  0
   10.5547    6.5915    1.9703 H   0  0  0  0  0
   10.7326    4.1619   -0.7939 H   0  0  0  0  0
   11.2614    1.4867   -2.0316 H   0  0  0  0  0
   11.0840    4.0700   -3.5560 H   0  0  0  0  0
    9.6099    3.0997   -3.1399 H   0  0  0  0  0
   12.3521    3.2239   -4.9647 H   0  0  0  0  0
   13.3078    0.9876   -2.5350 H   0  0  0  0  0
   15.3511    3.1502   -2.1087 H   0  0  0  0  0
   15.5373    1.5114   -0.3575 H   0  0  0  0  0
   16.8525    1.1623   -1.5285 H   0  0  0  0  0
   14.9249    0.5339    1.0334 H   0  0  0  0  0
   12.9266    0.4856   -0.3871 H   0  0  0  0  0
   16.6632    3.6465   -3.6729 H   0  0  0  0  0
   16.9771    1.7279   -5.9382 H   0  0  0  0  0
   16.6433    4.7083   -6.2972 H   0  0  0  0  0
   15.2864    3.4956   -6.4605 H   0  0  0  0  0
   17.8100    3.5856   -8.0995 H   0  0  0  0  0
   16.1696    4.1843   -8.6123 H   0  0  0  0  0
   14.9653    2.7904   -9.3921 H   0  0  0  0  0
   18.6140    3.2092   -7.3007 H   0  0  0  0  0
  1  2  1  0  0  0
  2  3  1  0  0  0
  2  5  1  0  0  0
  3  4  2  0  0  0
  3  9  1  0  0  0
  5  6  1  0  0  0
  6  7  2  0  0  0
  6  8  1  0  0  0
  9 10  1  0  0  0
 10 11  1  0  0  0
 10 13  1  0  0  0
 11 12  2  0  0  0
 11 16  1  0  0  0
 13 14  1  0  0  0
 13 15  1  0  0  0
 16 17  1  0  0  0
 17 18  1  0  0  0
 17 20  1  0  0  0
 18 19  2  0  0  0
 18 21  1  0  0  0
 21 22  1  0  0  0
 22 23  1  0  0  0
 23 24  2  0  0  0
 23 25  1  0  0  0
 25 26  1  0  0  0
 26 27  1  0  0  0
 26 29  1  0  0  0
 27 28  2  0  0  0
 27 31  1  0  0  0
 29 30  1  0  0  0
 31 32  1  0  0  0
 32 33  1  0  0  0
 32 35  1  0  0  0
 33 34  2  0  0  0
 33 39  1  0  0  0
 35 36  1  0  0  0
 35 37  1  0  0  0
 36 38  1  0  0  0
 39 40  1  0  0  0
 40 41  1  0  0  0
 40 43  1  0  0  0
 41 42  2  0  0  0
 41 46  1  0  0  0
 43 44  1  0  0  0
 43 45  1  0  0  0
 46 47  1  0  0  0
 47 48  1  0  0  0
 47 50  1  0  0  0
 48 49  2  0  0  0
 48 54  1  0  0  0
 50 51  1  0  0  0
 50 52  1  0  0  0
 51 53  1  0  0  0
 54 55  1  0  0  0
 55 56  1  0  0  0
 55 58  1  0  0  0
 56 57  1  0  0  0
 57 60  1  0  0  0
 58 59  2  0  0  0
 58 64  1  0  0  0
 60 61  1  0  0  0
 60 62  2  0  0  0
 60 63  1  0  0  0
 64 65  1  0  0  0
 65 66  1  0  0  0
 65 68  1  0  0  0
 66 67  2  0  0  0
 66 72  1  0  0  0
 68 69  1  0  0  0
 69 70  1  0  0  0
 69 71  2  0  0  0
 72 73  1  0  0  0
 73 74  1  0  0  0
 73 76  1  0  0  0
 74 75  1  0  0  0
 75 78  1  0  0  0
 76 77  2  0  0  0
 76 82  1  0  0  0
 78 79  2  0  0  0
 78 80  1  0  0  0
 78 81  1  0  0  0
 82 83  1  0  0  0
 83 84  1  0  0  0
 83 86  1  0  0  0
 84 85  2  0  0  0
 84 91  1  0  0  0
 86 87  1  0  0  0
 87 88  1  0  0  0
 88 89  2  0  0  0
 88 90  1  0  0  0
  1 92  1  0  0  0
  1 93  1  0  0  0
  1 94  1  0  0  0
  2 95  1  0  0  0
  5 96  1  0  0  0
  5 97  1  0  0  0
  8 98  1  0  0  0
  9 99  1  0  0  0
 10100  1  0  0  0
 13101  1  0  0  0
 14102  1  0  0  0
 15103  1  0  0  0
 15104  1  0  0  0
 15105  1  0  0  0
 16106  1  0  0  0
 17107  1  0  0  0
 20108  1  0  0  0
 20109  1  0  0  0
 20110  1  0  0  0
 21111  1  0  0  0
 22112  1  0  0  0
 22113  1  0  0  0
 25114  1  0  0  0
 26115  1  0  0  0
 29116  1  0  0  0
 29117  1  0  0  0
 30118  1  0  0  0
 31119  1  0  0  0
 32120  1  0  0  0
 35121  1  0  0  0
 36122  1  0  0  0
 36123  1  0  0  0
 37124  1  0  0  0
 37125  1  0  0  0
 37126  1  0  0  0
 38127  1  0  0  0
 38128  1  0  0  0
 38129  1  0  0  0
 39130  1  0  0  0
 40131  1  0  0  0
 43132  1  0  0  0
 44133  1  0  0  0
 44134  1  0  0  0
 44135  1  0  0  0
 45136  1  0  0  0
 45137  1  0  0  0
 45138  1  0  0  0
 46139  1  0  0  0
 47140  1  0  0  0
 50141  1  0  0  0
 51142  1  0  0  0
 51143  1  0  0  0
 52144  1  0  0  0
 52145  1  0  0  0
 52146  1  0  0  0
 53147  1  0  0  0
 53148  1  0  0  0
 53149  1  0  0  0
 54150  1  0  0  0
 55151  1  0  0  0
 56152  1  0  0  0
 56153  1  0  0  0
 61154  1  0  0  0
 63155  1  0  0  0
 64156  1  0  0  0
 65157  1  0  0  0
 68158  1  0  0  0
 68159  1  0  0  0
 70160  1  0  0  0
 72161  1  0  0  0
 73162  1  0  0  0
 74163  1  0  0  0
 74164  1  0  0  0
 80165  1  0  0  0
 81166  1  0  0  0
 82167  1  0  0  0
 83168  1  0  0  0
 86169  1  0  0  0
 86170  1  0  0  0
 87171  1  0  0  0
 87172  1  0  0  0
 90173  1  0  0  0
 91174  1  0  0  0
M  END
$$$$
