### 
### Created by X-TOOL on Mon Aug  2 16:14:39 2021
### 

@<TRIPOS>MOLECULE
6k5r_ligand
  166   165     1     0     0
SMALL
GAST_HUCK


@<TRIPOS>ATOM
      1 N         -13.7920    6.2740   14.9930 N.4       1 ASP         0.2391
      2 CA        -13.9040    5.6900   13.6630 C.3       1 ASP         0.0764
      3 C         -12.6640    4.8590   13.3630 C.2       1 ASP         0.2285
      4 O         -11.9050    4.5270   14.2790 O.2       1 ASP        -0.3906
      5 CB        -14.0710    6.7840   12.6070 C.3       1 ASP         0.0607
      6 CG        -14.9440    6.3430   11.4470 C.2       1 ASP         0.0425
      7 OD1       -16.0140    6.9500   11.2290 O.co2     1 ASP        -0.5686
      8 OD2       -14.5650    5.3820   10.7420 O.co2     1 ASP        -0.5686
      9 N         -12.4390    4.5370   12.1010 N.am      1 ASP        -0.2585
     10 CA        -11.2810    3.7450   11.7410 C.3       1 ASP         0.1566
     11 C         -10.3420    4.5140   10.8170 C.2       1 ASP         0.2065
     12 O         -10.7420    5.0060    9.7550 O.2       1 ASP        -0.3943
     13 CB        -11.7100    2.4410   11.0440 C.3       1 ASP         0.0924
     14 OG1       -12.8940    1.9170   11.6660 O.3       1 ASP        -0.3874
     15 CG2       -10.6000    1.4050   11.1080 C.3       1 ASP        -0.0346
     16 N          -9.0980    4.6270   11.2470 N.am      1 ASP        -0.2639
     17 CA         -8.0640    5.2950   10.4870 C.3       1 ASP         0.1282
     18 C          -6.8860    4.3620   10.2940 C.2       1 ASP         0.2034
     19 O          -6.4060    3.7650   11.2570 O.2       1 ASP        -0.3944
     20 CB         -7.6360    6.5780   11.1790 C.3       1 ASP        -0.0244
     21 N          -6.4200    4.2290    9.0720 N.am      1 ASP        -0.2664
     22 CA         -5.3020    3.3580    8.8040 C.3       1 ASP         0.1201
     23 C          -4.1480    4.1070    8.1970 C.2       1 ASP         0.2008
     24 O          -4.3420    4.8690    7.2520 O.2       1 ASP        -0.3947
     25 N          -2.9560    3.9240    8.7270 N.am      1 ASP        -0.2632
     26 CA         -1.8010    4.6110    8.1780 C.3       1 ASP         0.1396
     27 C          -0.7940    3.6010    7.6520 C.2       1 ASP         0.2047
     28 O          -0.3620    2.6950    8.3720 O.2       1 ASP        -0.3944
     29 CB         -1.1490    5.4940    9.2460 C.3       1 ASP         0.0311
     30 SG         -2.2420    5.9420   10.6090 S.3       1 ASP        -0.1735
     31 N          -0.4460    3.7460    6.3830 N.am      1 ASP        -0.2634
     32 CA          0.5170    2.8670    5.7390 C.3       1 ASP         0.1335
     33 C           1.6550    3.6770    5.1320 C.2       1 ASP         0.2042
     34 O           1.4100    4.6480    4.4160 O.2       1 ASP        -0.3944
     35 CB         -0.1340    2.0050    4.6310 C.3       1 ASP        -0.0037
     36 CG1        -1.3640    1.2690    5.1750 C.3       1 ASP        -0.0491
     37 CG2         0.8800    1.0180    4.0730 C.3       1 ASP        -0.0582
     38 CD1        -1.9300    0.2230    4.2350 C.3       1 ASP        -0.0648
     39 N           2.8880    3.2980    5.4140 N.am      1 ASP        -0.2635
     40 CA          4.0360    3.9840    4.8500 C.3       1 ASP         0.1332
     41 C           4.8750    3.0040    4.0380 C.2       1 ASP         0.2042
     42 O           5.2180    1.9230    4.5210 O.2       1 ASP        -0.3944
     43 CB          4.9100    4.6620    5.9340 C.3       1 ASP        -0.0063
     44 CG1         5.2190    3.7080    7.0780 C.3       1 ASP        -0.0584
     45 CG2         6.1950    5.1910    5.3200 C.3       1 ASP        -0.0584
     46 N           5.1830    3.3670    2.8030 N.am      1 ASP        -0.2635
     47 CA          5.9770    2.5090    1.9380 C.3       1 ASP         0.1335
     48 C           7.2400    3.2410    1.5000 C.2       1 ASP         0.2042
     49 O           7.1950    4.4100    1.1130 O.2       1 ASP        -0.3944
     50 CB          5.1830    1.9740    0.7110 C.3       1 ASP        -0.0037
     51 CG1         5.0110    3.0420   -0.3700 C.3       1 ASP        -0.0491
     52 CG2         3.8250    1.4340    1.1520 C.3       1 ASP        -0.0582
     53 CD1         4.1360    2.5980   -1.5220 C.3       1 ASP        -0.0648
     54 N           8.3680    2.5550    1.5950 N.am      1 ASP        -0.2613
     55 CA          9.6520    3.1370    1.2400 C.3       1 ASP         0.1586
     56 CB         10.6130    3.1120    2.4270 C.3       1 ASP         0.1184
     57 OG         10.4320    4.2340    3.2740 O.3       1 ASP        -0.2714
     58 C          10.2690    2.3940    0.0680 C.2       1 ASP         0.2066
     59 O          10.2670    1.1640    0.0250 O.2       1 ASP        -0.3943
     60 P          11.5750    5.3550    3.3630 P.3       1 ASP         0.2010
     61 O1P        12.6930    5.1620    2.4160 O.co2     1 ASP        -0.5537
     62 O2P        12.0140    5.6560    4.7380 O.co2     1 ASP        -0.5537
     63 O3P        10.8720    6.7070    2.8690 O.co2     1 ASP        -0.5537
     64 N          10.7710    3.1470   -0.8880 N.am      1 ASP        -0.2621
     65 CA         11.3760    2.5700   -2.0690 C.3       1 ASP         0.1423
     66 C          12.8550    2.9150   -2.1050 C.2       1 ASP         0.2057
     67 O          13.2360    4.0660   -1.8980 O.2       1 ASP        -0.3943
     68 CB         10.6830    3.0820   -3.3300 C.3       1 ASP         0.0406
     69 CG         10.9290    2.1950   -4.5270 C.2       1 ASP         0.0393
     70 OD1        11.8870    2.4480   -5.2860 O.co2     1 ASP        -0.5688
     71 OD2        10.1570    1.2350   -4.7140 O.co2     1 ASP        -0.5688
     72 N          13.6850    1.9180   -2.3550 N.am      1 ASP        -0.2612
     73 CA         15.1240    2.1190   -2.3790 C.3       1 ASP         0.1586
     74 CB         15.7750    1.1670   -1.3640 C.3       1 ASP         0.1184
     75 OG         15.2820   -0.1570   -1.5230 O.3       1 ASP        -0.2714
     76 C          15.6820    1.8760   -3.7830 C.2       1 ASP         0.2060
     77 O          15.3920    0.8640   -4.4270 O.2       1 ASP        -0.3943
     78 P          14.5320   -0.8970   -0.3190 P.3       1 ASP         0.2010
     79 O1P        14.5070   -2.3630   -0.4450 O.co2     1 ASP        -0.5537
     80 O2P        14.9290   -0.4260    1.0190 O.co2     1 ASP        -0.5537
     81 O3P        12.9990   -0.4690   -0.4590 O.co2     1 ASP        -0.5537
     82 N          16.4720    2.8310   -4.2550 N.am      1 ASP        -0.2693
     83 CA         17.0750    2.7520   -5.5780 C.3       1 ASP         0.0959
     84 C          18.5530    3.1140   -5.5080 C.2       1 ASP         0.0602
     85 O          19.1190    3.2050   -4.4170 O.co2     1 ASP        -0.5666
     86 CB         16.3550    3.6890   -6.5540 C.3       1 ASP        -0.0064
     87 CG         16.7300    3.4660   -8.0140 C.3       1 ASP         0.0038
     88 CD         16.3800    2.0770   -8.5160 C.2       1 ASP         0.0350
     89 OE1        17.1040    1.1180   -8.1800 O.co2     1 ASP        -0.5690
     90 OE2        15.3830    1.9370   -9.2550 O.co2     1 ASP        -0.5690
     91 OXT        19.1920    3.3180   -6.5420 O.co2     1 ASP        -0.5666
     92 H1        -14.6140    6.8235   15.1890 H         1 ASP         0.2016
     93 H2        -12.9759    6.8643   15.0332 H         1 ASP         0.2016
     94 H3        -13.7087    5.5384   15.6771 H         1 ASP         0.2016
     95 H4        -14.7875    5.0352   13.6361 H         1 ASP         0.1117
     96 H5        -13.0779    7.0539   12.2185 H         1 ASP         0.0512
     97 H6        -14.5312    7.6639   13.0802 H         1 ASP         0.0512
     98 H7        -13.0725    4.8422   11.3900 H         1 ASP         0.1885
     99 H8        -10.7367    3.4914   12.6626 H         1 ASP         0.0826
    100 H9        -11.9288    2.6608    9.9886 H         1 ASP         0.0639
    101 H10       -13.1505    1.1132   11.2293 H         1 ASP         0.2101
    102 H11       -10.9288    0.4838   10.6047 H         1 ASP         0.0257
    103 H12       -10.3647    1.1842   12.1596 H         1 ASP         0.0257
    104 H13        -9.7032    1.7970   10.6060 H         1 ASP         0.0257
    105 H14        -8.8610    4.2341   12.1355 H         1 ASP         0.1883
    106 H15        -8.4689    5.5545    9.4977 H         1 ASP         0.0797
    107 H16        -6.8507    7.0699   10.5863 H         1 ASP         0.0277
    108 H17        -7.2462    6.3422   12.1802 H         1 ASP         0.0277
    109 H18        -8.5012    7.2510   11.2715 H         1 ASP         0.0277
    110 H19        -6.8443    4.7361    8.3218 H         1 ASP         0.1881
    111 H20        -5.6226    2.5704    8.1062 H         1 ASP         0.0763
    112 H21        -4.9726    2.8996    9.7481 H         1 ASP         0.0763
    113 H22        -2.8465    3.3106    9.5091 H         1 ASP         0.1884
    114 H23        -2.1318    5.2489    7.3452 H         1 ASP         0.0808
    115 H24        -0.8035    6.4200    8.7632 H         1 ASP         0.0422
    116 H25        -0.2859    4.9525    9.6606 H         1 ASP         0.0422
    117 H26        -1.7399    6.5200   11.2647 H         1 ASP         0.1019
    118 H27        -0.8589    4.4843    5.8497 H         1 ASP         0.1883
    119 H28         0.9313    2.1942    6.5042 H         1 ASP         0.0803
    120 H29        -0.4587    2.6694    3.8167 H         1 ASP         0.0345
    121 H30        -2.1494    2.0123    5.3766 H         1 ASP         0.0267
    122 H31        -1.0805    0.7712    6.1141 H         1 ASP         0.0267
    123 H32         1.7526    1.5666    3.6889 H         1 ASP         0.0235
    124 H33         0.4202    0.4423    3.2562 H         1 ASP         0.0235
    125 H34         1.2005    0.3314    4.8704 H         1 ASP         0.0235
    126 H35        -2.8050   -0.2536    4.7010 H         1 ASP         0.0230
    127 H36        -1.1635   -0.5388    4.0297 H         1 ASP         0.0230
    128 H37        -2.2323    0.7024    3.2922 H         1 ASP         0.0230
    129 H38         3.0338    2.5227    6.0285 H         1 ASP         0.1883
    130 H39         3.6651    4.7686    4.1741 H         1 ASP         0.0802
    131 H40         4.3470    5.5138    6.3432 H         1 ASP         0.0343
    132 H41         5.8395    4.2222    7.8267 H         1 ASP         0.0234
    133 H42         5.7619    2.8336    6.6898 H         1 ASP         0.0234
    134 H43         4.2790    3.3785    7.5447 H         1 ASP         0.0234
    135 H44         5.9519    5.8779    4.4960 H         1 ASP         0.0234
    136 H45         6.7898    4.3504    4.9332 H         1 ASP         0.0234
    137 H46         6.7737    5.7278    6.0862 H         1 ASP         0.0234
    138 H47         4.8632    4.2493    2.4577 H         1 ASP         0.1883
    139 H48         6.2834    1.6355    2.5322 H         1 ASP         0.0803
    140 H49         5.7565    1.1430    0.2746 H         1 ASP         0.0345
    141 H50         6.0042    3.2998   -0.7662 H         1 ASP         0.0267
    142 H51         4.5570    3.9325    0.0892 H         1 ASP         0.0267
    143 H52         3.9695    0.6684    1.9285 H         1 ASP         0.0235
    144 H53         3.3098    0.9878    0.2886 H         1 ASP         0.0235
    145 H54         3.2172    2.2566    1.5568 H         1 ASP         0.0235
    146 H55         4.0572    3.4121   -2.2575 H         1 ASP         0.0230
    147 H56         3.1337    2.3460   -1.1453 H         1 ASP         0.0230
    148 H57         4.5810    1.7132   -2.0007 H         1 ASP         0.0230
    149 H58         8.3361    1.6099    1.9201 H         1 ASP         0.1884
    150 H59         9.4879    4.1839    0.9451 H         1 ASP         0.0827
    151 H60        11.6460    3.1141    2.0490 H         1 ASP         0.0662
    152 H61        10.4371    2.1949    3.0084 H         1 ASP         0.0662
    153 H62        10.7333    4.1420   -0.7958 H         1 ASP         0.1884
    154 H63        11.2665    1.4763   -2.0257 H         1 ASP         0.0819
    155 H64        11.0604    4.0904   -3.5550 H         1 ASP         0.0478
    156 H65         9.6001    3.1291   -3.1428 H         1 ASP         0.0478
    157 H66        13.3152    1.0058   -2.5314 H         1 ASP         0.1884
    158 H67        15.3448    3.1567   -2.0886 H         1 ASP         0.0827
    159 H68        15.5482    1.5160   -0.3458 H         1 ASP         0.0662
    160 H69        16.8642    1.1667   -1.5175 H         1 ASP         0.0662
    161 H70        16.6594    3.6305   -3.6843 H         1 ASP         0.1875
    162 H71        16.9808    1.7196   -5.9458 H         1 ASP         0.0727
    163 H72        16.6052    4.7263   -6.2867 H         1 ASP         0.0323
    164 H73        15.2712    3.5340   -6.4472 H         1 ASP         0.0323
    165 H74        17.8145    3.6140   -8.1229 H         1 ASP         0.0432
    166 H75        16.1955    4.2049   -8.6290 H         1 ASP         0.0432
@<TRIPOS>BOND
     1    1    2 1  
     2    2    3 1  
     3    2    5 1  
     4    3    4 2  
     5    3    9 am 
     6    5    6 1  
     7    6    7 ar 
     8    6    8 ar 
     9    9   10 1  
    10   10   11 1  
    11   10   13 1  
    12   11   12 2  
    13   11   16 am 
    14   13   14 1  
    15   13   15 1  
    16   16   17 1  
    17   17   18 1  
    18   17   20 1  
    19   18   19 2  
    20   18   21 am 
    21   21   22 1  
    22   22   23 1  
    23   23   24 2  
    24   23   25 am 
    25   25   26 1  
    26   26   27 1  
    27   26   29 1  
    28   27   28 2  
    29   27   31 am 
    30   29   30 1  
    31   31   32 1  
    32   32   33 1  
    33   32   35 1  
    34   33   34 2  
    35   33   39 am 
    36   35   36 1  
    37   35   37 1  
    38   36   38 1  
    39   39   40 1  
    40   40   41 1  
    41   40   43 1  
    42   41   42 2  
    43   41   46 am 
    44   43   44 1  
    45   43   45 1  
    46   46   47 1  
    47   47   48 1  
    48   47   50 1  
    49   48   49 2  
    50   48   54 am 
    51   50   51 1  
    52   50   52 1  
    53   51   53 1  
    54   54   55 1  
    55   55   56 1  
    56   55   58 1  
    57   56   57 1  
    58   57   60 1  
    59   58   59 2  
    60   58   64 am 
    61   60   61 ar 
    62   60   62 ar 
    63   60   63 ar 
    64   64   65 1  
    65   65   66 1  
    66   65   68 1  
    67   66   67 2  
    68   66   72 am 
    69   68   69 1  
    70   69   70 ar 
    71   69   71 ar 
    72   72   73 1  
    73   73   74 1  
    74   73   76 1  
    75   74   75 1  
    76   75   78 1  
    77   76   77 2  
    78   76   82 am 
    79   78   79 ar 
    80   78   80 ar 
    81   78   81 ar 
    82   82   83 1  
    83   83   84 1  
    84   83   86 1  
    85   84   85 ar 
    86   84   91 ar 
    87   86   87 1  
    88   87   88 1  
    89   88   89 ar 
    90   88   90 ar 
    91    1   92 1  
    92    1   93 1  
    93    1   94 1  
    94    2   95 1  
    95    5   96 1  
    96    5   97 1  
    97    9   98 1  
    98   10   99 1  
    99   13  100 1  
   100   14  101 1  
   101   15  102 1  
   102   15  103 1  
   103   15  104 1  
   104   16  105 1  
   105   17  106 1  
   106   20  107 1  
   107   20  108 1  
   108   20  109 1  
   109   21  110 1  
   110   22  111 1  
   111   22  112 1  
   112   25  113 1  
   113   26  114 1  
   114   29  115 1  
   115   29  116 1  
   116   30  117 1  
   117   31  118 1  
   118   32  119 1  
   119   35  120 1  
   120   36  121 1  
   121   36  122 1  
   122   37  123 1  
   123   37  124 1  
   124   37  125 1  
   125   38  126 1  
   126   38  127 1  
   127   38  128 1  
   128   39  129 1  
   129   40  130 1  
   130   43  131 1  
   131   44  132 1  
   132   44  133 1  
   133   44  134 1  
   134   45  135 1  
   135   45  136 1  
   136   45  137 1  
   137   46  138 1  
   138   47  139 1  
   139   50  140 1  
   140   51  141 1  
   141   51  142 1  
   142   52  143 1  
   143   52  144 1  
   144   52  145 1  
   145   53  146 1  
   146   53  147 1  
   147   53  148 1  
   148   54  149 1  
   149   55  150 1  
   150   56  151 1  
   151   56  152 1  
   152   64  153 1  
   153   65  154 1  
   154   68  155 1  
   155   68  156 1  
   156   72  157 1  
   157   73  158 1  
   158   74  159 1  
   159   74  160 1  
   160   82  161 1  
   161   83  162 1  
   162   86  163 1  
   163   86  164 1  
   164   87  165 1  
   165   87  166 1  
@<TRIPOS>SUBSTRUCTURE
     1 ASP         1

