### 
### Created by X-TOOL on Wed Jan  1 15:39:37 2020
### 

@<TRIPOS>MOLECULE
6e8m_ligand
   37    37     1     0     0
SMALL
GAST_HUCK


@<TRIPOS>ATOM
      1 N           8.5540   17.3320   16.8140 N.4       1 ALA         0.2377
      2 CA          7.6410   18.3330   16.2740 C.3       1 ALA         0.0621
      3 C           8.1800   18.9630   14.9880 C.2       1 ALA         0.2261
      4 O           7.4630   19.7010   14.3150 O.2       1 ALA        -0.3908
      5 CB          7.3540   19.4030   17.3100 C.3       1 ALA        -0.0040
      6 N           9.4350   18.6790   14.6430 N.am      1 PTR        -0.2637
      7 CA          9.9310   18.9610   13.2880 C.3       1 PTR         0.1104
      8 C           9.8220   17.6820   12.4460 C.2       1 PTR         0.0635
      9 O          10.0930   17.6710   11.2370 O.co2     1 PTR        -0.5663
     10 CB         11.3800   19.4570   13.2710 C.3       1 PTR         0.0345
     11 CG         11.6220   20.8910   13.7070 C.ar      1 PTR        -0.0010
     12 CD1        11.8550   21.2040   15.0450 C.ar      1 PTR        -0.0239
     13 CD2        11.6540   21.9350   12.7770 C.ar      1 PTR        -0.0239
     14 CE1        12.0980   22.5130   15.4470 C.ar      1 PTR         0.0115
     15 CE2        11.8900   23.2440   13.1750 C.ar      1 PTR         0.0115
     16 CZ         12.1130   23.5260   14.5190 C.ar      1 PTR         0.1728
     17 OH         12.3630   24.7580   14.9080 O.3       1 PTR        -0.2040
     18 P          13.7930   25.4700   14.7400 P.3       1 PTR         0.1348
     19 O1P        14.0340   25.7850   13.2570 O.co2     1 PTR        -0.6653
     20 O2P        13.7720   26.7900   15.5270 O.co2     1 PTR        -0.6653
     21 O3P        14.8370   24.5380   15.2870 O.co2     1 PTR        -0.6653
     22 OXT         9.4580   16.6050   12.9390 O.co2     1 PTR        -0.5663
     23 H1          8.1641   16.9421   17.6578 H         1 ALA         0.2015
     24 H2          9.4409   17.7635   17.0219 H         1 ALA         0.2015
     25 H3          8.6879   16.5986   16.1356 H         1 ALA         0.2015
     26 H4          6.6938   17.8292   16.0311 H         1 ALA         0.1095
     27 H5          6.6649   20.1483   16.8861 H         1 ALA         0.0310
     28 H6          8.2943   19.8955   17.5987 H         1 ALA         0.0310
     29 H7          6.8946   18.9413   18.1964 H         1 ALA         0.0310
     30 H8         10.0494   18.2675   15.3162 H         1 PTR         0.1879
     31 H9          9.2955   19.7403   12.8421 H         1 PTR         0.0766
     32 H10        11.7536   19.3556   12.2414 H         1 PTR         0.0577
     33 H11        11.9621   18.8044   13.9383 H         1 PTR         0.0577
     34 H12        11.8467   20.4127   15.7858 H         1 PTR         0.0703
     35 H13        11.4917   21.7184   11.7273 H         1 PTR         0.0703
     36 H14        12.2757   22.7342   16.4932 H         1 PTR         0.0736
     37 H15        11.9005   24.0426   12.4420 H         1 PTR         0.0736
@<TRIPOS>BOND
     1    1    2 1  
     2    2    3 1  
     3    2    5 1  
     4    3    4 2  
     5    3    6 am 
     6    6    7 1  
     7    7    8 1  
     8    7   10 1  
     9    8    9 ar 
    10    8   22 ar 
    11   10   11 1  
    12   11   12 ar 
    13   11   13 ar 
    14   12   14 ar 
    15   13   15 ar 
    16   14   16 ar 
    17   15   16 ar 
    18   16   17 1  
    19   17   18 1  
    20   18   19 ar 
    21   18   20 ar 
    22   18   21 ar 
    23    1   23 1  
    24    1   24 1  
    25    1   25 1  
    26    2   26 1  
    27    5   27 1  
    28    5   28 1  
    29    5   29 1  
    30    6   30 1  
    31    7   31 1  
    32   10   32 1  
    33   10   33 1  
    34   12   34 1  
    35   13   35 1  
    36   14   36 1  
    37   15   37 1  
@<TRIPOS>SUBSTRUCTURE
     1 ALA         1

