6e8m_ligand
  -I-interpret- 

 40 40  0  0  0  0  0  0  0  0999 V2000
    8.5540   17.3320   16.8140 N   0  3  0  0  0
    7.6410   18.3330   16.2740 C   0  0  0  0  0
    8.1800   18.9630   14.9880 C   0  0  0  0  0
    7.4630   19.7010   14.3150 O   0  0  0  0  0
    7.3540   19.4030   17.3100 C   0  0  0  0  0
    9.4350   18.6790   14.6430 N   0  0  0  0  0
    9.9310   18.9610   13.2880 C   0  0  0  0  0
    9.8220   17.6820   12.4460 C   0  0  0  0  0
   10.0930   17.6710   11.2370 O   0  0  0  0  0
   11.3800   19.4570   13.2710 C   0  0  0  0  0
   11.6220   20.8910   13.7070 C   0  0  0  0  0
   11.8550   21.2040   15.0450 C   0  0  0  0  0
   11.6540   21.9350   12.7770 C   0  0  0  0  0
   12.0980   22.5130   15.4470 C   0  0  0  0  0
   11.8900   23.2440   13.1750 C   0  0  0  0  0
   12.1130   23.5260   14.5190 C   0  0  0  0  0
   12.3630   24.7580   14.9080 O   0  0  0  0  0
   13.7930   25.4700   14.7400 P   0  0  0  0  0
   14.0340   25.7850   13.2570 O   0  0  0  0  0
   13.7720   26.7900   15.5270 O   0  0  0  0  0
   14.8370   24.5380   15.2870 O   0  0  0  0  0
    9.4580   16.6050   12.9390 O   0  0  0  0  0
    8.7356   16.6215   16.1050 H   0  0  0  0  0
    9.4306   17.7810   17.0794 H   0  0  0  0  0
    8.1321   16.8959   17.6339 H   0  0  0  0  0
    6.7101   17.8247   16.0229 H   0  0  0  0  0
    8.2734   19.9424   17.5376 H   0  0  0  0  0
    6.6115   20.0975   16.9170 H   0  0  0  0  0
    6.9716   18.9353   18.2172 H   0  0  0  0  0
   10.0617   18.2593   15.3297 H   0  0  0  0  0
    9.3172   19.7613   12.8747 H   0  0  0  0  0
   11.7008   19.4038   12.2306 H   0  0  0  0  0
   11.9166   18.8336   13.9862 H   0  0  0  0  0
   11.8466   20.4083   15.7899 H   0  0  0  0  0
   11.4908   21.7173   11.7215 H   0  0  0  0  0
   12.2767   22.7354   16.4990 H   0  0  0  0  0
   11.9005   24.0470   12.4380 H   0  0  0  0  0
   13.3503   26.3810   12.9424 H   0  0  0  0  0
   13.0992   27.3688   15.1610 H   0  0  0  0  0
    9.2753   16.7276   13.8734 H   0  0  0  0  0
  1  2  1  0  0  0
  2  3  1  0  0  0
  2  5  1  0  0  0
  3  4  2  0  0  0
  3  6  1  0  0  0
  6  7  1  0  0  0
  7  8  1  0  0  0
  7 10  1  0  0  0
  8  9  2  0  0  0
  8 22  1  0  0  0
 10 11  1  0  0  0
 11 12  4  0  0  0
 11 13  4  0  0  0
 12 14  4  0  0  0
 13 15  4  0  0  0
 14 16  4  0  0  0
 15 16  4  0  0  0
 16 17  1  0  0  0
 17 18  1  0  0  0
 18 19  1  0  0  0
 18 20  1  0  0  0
 18 21  2  0  0  0
  1 23  1  0  0  0
  1 24  1  0  0  0
  1 25  1  0  0  0
  2 26  1  0  0  0
  5 27  1  0  0  0
  5 28  1  0  0  0
  5 29  1  0  0  0
  6 30  1  0  0  0
  7 31  1  0  0  0
 10 32  1  0  0  0
 10 33  1  0  0  0
 12 34  1  0  0  0
 13 35  1  0  0  0
 14 36  1  0  0  0
 15 37  1  0  0  0
 19 38  1  0  0  0
 20 39  1  0  0  0
 22 40  1  0  0  0
M  END
$$$$
