4euo_ligand
  -I-interpret- 

 17 16  0  0  0  0  0  0  0  0999 V2000
    8.2130  -14.1210   10.4330 N   0  3  0  0  0
    6.8480  -13.5820   10.3890 C   0  0  0  0  0
    6.4170  -13.2690    8.9770 C   0  0  0  0  0
    5.0400  -12.6990    8.9940 C   0  0  0  0  0
    4.4130  -12.4580    7.6370 C   0  0  0  0  0
    3.0920  -12.3050    7.5890 O   0  0  0  0  0
    5.0900  -12.5180    6.5160 O   0  0  0  0  0
    8.4678  -14.3196   11.4005 H   0  0  0  0  0
    8.2556  -14.9806    9.8856 H   0  0  0  0  0
    8.8605  -13.4359   10.0434 H   0  0  0  0  0
    6.8244  -12.6588   10.9680 H   0  0  0  0  0
    6.1695  -14.3311   10.7972 H   0  0  0  0  0
    6.4251  -14.1830    8.3831 H   0  0  0  0  0
    7.1047  -12.5458    8.5386 H   0  0  0  0  0
    5.1149  -11.7248    9.4771 H   0  0  0  0  0
    4.4094  -13.4299    9.5002 H   0  0  0  0  0
    2.7413  -12.2789    8.4823 H   0  0  0  0  0
  1  2  1  0  0  0
  2  3  1  0  0  0
  3  4  1  0  0  0
  4  5  1  0  0  0
  5  6  1  0  0  0
  5  7  2  0  0  0
  1  8  1  0  0  0
  1  9  1  0  0  0
  1 10  1  0  0  0
  2 11  1  0  0  0
  2 12  1  0  0  0
  3 13  1  0  0  0
  3 14  1  0  0  0
  4 15  1  0  0  0
  4 16  1  0  0  0
  6 17  1  0  0  0
M  END
$$$$
