6pi1_ligand
  -I-interpret- 

 47 47  0  0  0  0  0  0  0  0999 V2000
   16.6160  110.2080   21.3920 O   0  0  0  0  0
   16.0520  111.2260   21.0270 C   0  0  0  0  0
   16.6330  112.5740   21.3280 C   0  0  0  0  0
   17.7250  112.6900   22.1880 C   0  0  0  0  0
   18.3090  113.9210   22.4880 C   0  0  0  0  0
   17.8220  115.1140   21.9300 C   0  0  0  0  0
   18.4130  116.3740   22.2120 N   0  0  0  0  0
   19.5580  116.5490   23.1110 C   0  0  0  0  0
   17.9150  117.6010   21.5830 C   0  0  0  0  0
   16.7290  114.9890   21.0560 C   0  0  0  0  0
   16.1550  113.7540   20.7690 C   0  0  0  0  0
   14.8510  111.1370   20.2950 N   0  0  0  0  0
   14.2050  109.8860   19.9270 C   0  0  0  0  0
   14.6280  109.4620   18.5110 C   0  0  0  0  0
   15.8330  108.5480   18.4590 C   0  0  0  0  0
   15.9480  107.8180   17.1310 C   0  0  0  0  0
   16.0180  108.7770   16.0060 C   0  0  0  0  0
   16.0540  108.1050   14.6770 C   0  0  0  0  0
   17.4020  107.4920   14.4630 C   0  0  0  0  0
   18.4330  108.1080   14.2230 O   0  0  0  0  0
   17.4110  106.1120   14.5590 N   0  0  0  0  0
   18.6010  105.5550   14.3630 O   0  0  0  0  0
   18.1362  111.7880   22.6412 H   0  0  0  0  0
   19.1596  113.9574   23.1686 H   0  0  0  0  0
   20.3940  116.9725   22.5543 H   0  0  0  0  0
   19.2817  117.2224   23.9223 H   0  0  0  0  0
   19.8466  115.5817   23.5223 H   0  0  0  0  0
   17.5973  118.3009   22.3559 H   0  0  0  0  0
   18.7096  118.0510   20.9879 H   0  0  0  0  0
   17.0691  117.3602   20.9392 H   0  0  0  0  0
   16.3190  115.8847   20.5895 H   0  0  0  0  0
   15.3063  113.7106   20.0864 H   0  0  0  0  0
   14.4051  112.0069   20.0039 H   0  0  0  0  0
   13.1240  110.0244   19.9486 H   0  0  0  0  0
   14.5022  109.1112   20.6337 H   0  0  0  0  0
   14.8961  110.3718   17.9738 H   0  0  0  0  0
   13.7919  108.9099   18.0817 H   0  0  0  0  0
   15.7251  107.8019   19.2463 H   0  0  0  0  0
   16.7263  109.1594   18.5868 H   0  0  0  0  0
   15.0685  107.1875   17.0001 H   0  0  0  0  0
   16.8584  107.2186   17.1380 H   0  0  0  0  0
   16.9373  109.3526   16.1143 H   0  0  0  0  0
   15.1239  109.3995   16.0415 H   0  0  0  0  0
   15.8605  108.8384   13.8942 H   0  0  0  0  0
   15.2919  107.3265   14.6433 H   0  0  0  0  0
   16.5732  105.5672   14.7634 H   0  0  0  0  0
   18.5244  104.6016   14.4457 H   0  0  0  0  0
  1  2  2  0  0  0
  2  3  1  0  0  0
  2 12  1  0  0  0
  3  4  4  0  0  0
  3 11  4  0  0  0
  4  5  4  0  0  0
  5  6  4  0  0  0
  6  7  1  0  0  0
  6 10  4  0  0  0
  7  8  1  0  0  0
  7  9  1  0  0  0
 10 11  4  0  0  0
 12 13  1  0  0  0
 13 14  1  0  0  0
 14 15  1  0  0  0
 15 16  1  0  0  0
 16 17  1  0  0  0
 17 18  1  0  0  0
 18 19  1  0  0  0
 19 20  2  0  0  0
 19 21  1  0  0  0
 21 22  1  0  0  0
  4 23  1  0  0  0
  5 24  1  0  0  0
  8 25  1  0  0  0
  8 26  1  0  0  0
  8 27  1  0  0  0
  9 28  1  0  0  0
  9 29  1  0  0  0
  9 30  1  0  0  0
 10 31  1  0  0  0
 11 32  1  0  0  0
 12 33  1  0  0  0
 13 34  1  0  0  0
 13 35  1  0  0  0
 14 36  1  0  0  0
 14 37  1  0  0  0
 15 38  1  0  0  0
 15 39  1  0  0  0
 16 40  1  0  0  0
 16 41  1  0  0  0
 17 42  1  0  0  0
 17 43  1  0  0  0
 18 44  1  0  0  0
 18 45  1  0  0  0
 21 46  1  0  0  0
 22 47  1  0  0  0
M  END
$$$$
