4krs_ligand
  -I-interpret- 

 39 41  0  0  0  0  0  0  0  0999 V2000
  -25.8670  -10.8350    6.6840 C   0  0  0  0  0
  -23.2450   -8.7450    7.9160 C   0  0  0  0  0
  -24.3160   -6.5610    7.8950 C   0  0  0  0  0
  -24.1960   -5.0780    7.6180 C   0  0  0  0  0
  -22.9710   -4.4500    7.8030 C   0  0  0  0  0
  -22.8140   -3.0830    7.5640 C   0  0  0  0  0
  -23.8740   -2.2820    7.1360 C   0  0  0  0  0
  -25.1050   -2.9280    6.9440 C   0  0  0  0  0
  -25.2720   -4.2980    7.1860 C   0  0  0  0  0
  -23.7080   -0.7540    6.8570 C   0  0  0  0  0
  -23.0550   -0.6060    5.4570 C   0  0  0  0  0
  -25.0230  -11.9390    7.8910 S   0  0  0  0  0
  -25.5870   -9.3880    7.1840 C   0  0  0  0  0
  -24.2390   -9.5570    7.7140 N   0  0  0  0  0
  -23.8300  -10.7100    8.0800 C   0  0  0  0  0
  -22.6300  -10.7320    8.4990 N   0  0  0  0  0
  -22.2260   -9.3580    8.3910 N   0  0  0  0  0
  -23.2560   -7.3990    7.6910 N   0  0  0  0  0
  -25.4190   -6.9160    8.3260 O   0  0  0  0  0
  -22.7960   -0.0010    7.8760 C   0  0  0  0  0
  -25.0950   -0.0320    6.8670 C   0  0  0  0  0
  -26.9360  -11.0412    6.6316 H   0  0  0  0  0
  -25.4939  -10.9885    5.6714 H   0  0  0  0  0
  -22.1159   -5.0353    8.1412 H   0  0  0  0  0
  -21.8351   -2.6283    7.7161 H   0  0  0  0  0
  -25.9580   -2.3457    6.5957 H   0  0  0  0  0
  -26.2484   -4.7587    7.0362 H   0  0  0  0  0
  -22.0846   -1.1024    5.4558 H   0  0  0  0  0
  -23.6996   -1.0637    4.7066 H   0  0  0  0  0
  -22.9238    0.4517    5.2287 H   0  0  0  0  0
  -26.3111   -9.0147    7.9081 H   0  0  0  0  0
  -25.6743   -8.6216    6.4139 H   0  0  0  0  0
  -22.3951   -6.9806    7.3387 H   0  0  0  0  0
  -23.2167   -0.0956    8.8771 H   0  0  0  0  0
  -21.7967   -0.4360    7.8578 H   0  0  0  0  0
  -22.7401    1.0525    7.6021 H   0  0  0  0  0
  -25.7330   -0.4628    6.0953 H   0  0  0  0  0
  -25.5639   -0.1622    7.8423 H   0  0  0  0  0
  -24.9515    1.0305    6.6703 H   0  0  0  0  0
  1 12  1  0  0  0
 13  1  1  0  0  0
 14  2  4  0  0  0
  2 17  4  0  0  0
  2 18  1  0  0  0
  3  4  1  0  0  0
 18  3  1  0  0  0
  3 19  2  0  0  0
  4  5  4  0  0  0
  4  9  4  0  0  0
  5  6  4  0  0  0
  6  7  4  0  0  0
  8  7  4  0  0  0
  7 10  1  0  0  0
  9  8  4  0  0  0
 10 11  1  0  0  0
 10 20  1  0  0  0
 10 21  1  0  0  0
 12 15  1  0  0  0
 13 14  1  0  0  0
 14 15  4  0  0  0
 15 16  4  0  0  0
 16 17  4  0  0  0
  1 22  1  0  0  0
  1 23  1  0  0  0
  5 24  1  0  0  0
  6 25  1  0  0  0
  8 26  1  0  0  0
  9 27  1  0  0  0
 11 28  1  0  0  0
 11 29  1  0  0  0
 11 30  1  0  0  0
 13 31  1  0  0  0
 13 32  1  0  0  0
 18 33  1  0  0  0
 20 34  1  0  0  0
 20 35  1  0  0  0
 20 36  1  0  0  0
 21 37  1  0  0  0
 21 38  1  0  0  0
 21 39  1  0  0  0
M  END
$$$$
