1mj7_ligand
  -I-interpret- 

 62 63  0  0  0  0  0  0  0  0999 V2000
   62.1250    3.3260   32.6680 C   0  0  0  0  0
   63.3270    3.0910   32.0030 C   0  0  0  0  0
   63.9290    4.0960   31.2270 C   0  0  0  0  0
   63.3160    5.3420   31.1220 C   0  0  0  0  0
   62.1130    5.5830   31.7880 C   0  0  0  0  0
   61.5300    4.5850   32.5510 C   0  0  0  0  0
   61.4650    2.2350   33.4780 C   0  0  0  0  0
   59.9720    2.3880   33.5790 C   0  0  0  0  0
   59.3120    1.3160   34.3140 N   0  0  0  0  0
   57.9910    1.2230   34.4530 C   0  0  0  0  0
   57.2100    2.0320   33.9470 O   0  0  0  0  0
   57.4620    0.0400   35.2430 C   0  0  0  0  0
   58.1620   -0.0880   36.4750 O   0  0  0  0  0
   59.2410   -1.2450   36.6890 P   0  0  0  0  0
   60.6000   -0.6890   36.4220 O   0  0  0  0  0
   58.7910   -2.4570   35.9540 O   0  0  0  0  0
   59.1850   -1.5780   38.0930 C   0  0  0  0  0
   60.3240   -2.5300   38.5080 C   0  0  0  0  0
   60.0360   -3.3360   39.7550 C   0  0  0  0  0
   59.5560   -4.6410   39.6590 C   0  0  0  0  0
   59.2680   -5.3870   40.8100 C   0  0  0  0  0
   59.4590   -4.8300   42.0730 C   0  0  0  0  0
   59.9430   -3.5210   42.1830 C   0  0  0  0  0
   60.2290   -2.7820   41.0250 C   0  0  0  0  0
   59.2070   -0.3850   38.9390 N   0  0  0  0  0
   58.2390   -0.1580   39.8190 C   0  0  0  0  0
   57.2910   -0.9230   39.9590 O   0  0  0  0  0
   58.3360    1.1190   40.6500 C   0  0  0  0  0
   57.4440    1.0850   41.9000 C   0  0  0  0  0
   57.8850   -0.0510   42.8130 C   0  0  0  0  0
   57.0660   -0.1850   44.0910 C   0  0  0  0  0
   57.1480   -1.2650   44.7120 O   0  0  0  0  0
   56.3590    0.7630   44.4900 O   0  0  0  0  0
   63.8061    2.1155   32.0859 H   0  0  0  0  0
   64.8692    3.9017   30.7109 H   0  0  0  0  0
   63.7745    6.1274   30.5211 H   0  0  0  0  0
   61.6320    6.5578   31.7074 H   0  0  0  0  0
   60.5918    4.7848   33.0687 H   0  0  0  0  0
   61.8700    2.2847   34.4887 H   0  0  0  0  0
   61.6656    1.2872   32.9785 H   0  0  0  0  0
   59.5769    2.3732   32.5632 H   0  0  0  0  0
   59.7787    3.3153   34.1184 H   0  0  0  0  0
   59.8939    0.5979   34.7454 H   0  0  0  0  0
   57.6041   -0.8689   34.6583 H   0  0  0  0  0
   56.4037    0.1973   35.4512 H   0  0  0  0  0
   60.7404    0.0867   36.9698 H   0  0  0  0  0
   58.2352   -2.0915   38.2423 H   0  0  0  0  0
   61.1976   -1.9132   38.7187 H   0  0  0  0  0
   60.4634   -3.2392   37.6921 H   0  0  0  0  0
   59.4027   -5.0870   38.6763 H   0  0  0  0  0
   58.8933   -6.4063   40.7169 H   0  0  0  0  0
   59.2333   -5.4091   42.9684 H   0  0  0  0  0
   60.0974   -3.0767   43.1663 H   0  0  0  0  0
   60.6063   -1.7635   41.1161 H   0  0  0  0  0
   59.9751    0.2805   38.8519 H   0  0  0  0  0
   58.0048    1.9492   40.0261 H   0  0  0  0  0
   59.3694    1.2247   40.9802 H   0  0  0  0  0
   56.4078    0.9271   41.6008 H   0  0  0  0  0
   57.5315    2.0319   42.4327 H   0  0  0  0  0
   58.9121    0.1588   43.1116 H   0  0  0  0  0
   57.7594   -0.9781   42.2538 H   0  0  0  0  0
   57.7385   -1.8587   44.2425 H   0  0  0  0  0
  1  2  4  0  0  0
  1  6  4  0  0  0
  1  7  1  0  0  0
  2  3  4  0  0  0
  3  4  4  0  0  0
  4  5  4  0  0  0
  5  6  4  0  0  0
  7  8  1  0  0  0
  8  9  1  0  0  0
  9 10  1  0  0  0
 10 11  2  0  0  0
 10 12  1  0  0  0
 12 13  1  0  0  0
 13 14  1  0  0  0
 14 15  1  0  0  0
 14 16  2  0  0  0
 14 17  1  0  0  0
 17 18  1  0  0  0
 17 25  1  0  0  0
 18 19  1  0  0  0
 19 20  4  0  0  0
 19 24  4  0  0  0
 20 21  4  0  0  0
 21 22  4  0  0  0
 22 23  4  0  0  0
 23 24  4  0  0  0
 25 26  1  0  0  0
 26 27  2  0  0  0
 26 28  1  0  0  0
 28 29  1  0  0  0
 29 30  1  0  0  0
 30 31  1  0  0  0
 31 32  1  0  0  0
 31 33  2  0  0  0
  2 34  1  0  0  0
  3 35  1  0  0  0
  4 36  1  0  0  0
  5 37  1  0  0  0
  6 38  1  0  0  0
  7 39  1  0  0  0
  7 40  1  0  0  0
  8 41  1  0  0  0
  8 42  1  0  0  0
  9 43  1  0  0  0
 12 44  1  0  0  0
 12 45  1  0  0  0
 15 46  1  0  0  0
 17 47  1  0  0  0
 18 48  1  0  0  0
 18 49  1  0  0  0
 20 50  1  0  0  0
 21 51  1  0  0  0
 22 52  1  0  0  0
 23 53  1  0  0  0
 24 54  1  0  0  0
 25 55  1  0  0  0
 28 56  1  0  0  0
 28 57  1  0  0  0
 29 58  1  0  0  0
 29 59  1  0  0  0
 30 60  1  0  0  0
 30 61  1  0  0  0
 32 62  1  0  0  0
M  END
$$$$
