### 
### Created by X-TOOL on Mon Sep 10 21:12:50 2018
### 

@<TRIPOS>MOLECULE
1mj7_ligand
   60    61     1     0     0
SMALL
GAST_HUCK


@<TRIPOS>ATOM
      1 CP1        62.1250    3.3260   32.6680 C.ar      1 HAL        -0.0411
      2 CP2        63.3270    3.0910   32.0030 C.ar      1 HAL        -0.0603
      3 CP3        63.9290    4.0960   31.2270 C.ar      1 HAL        -0.0686
      4 CP4        63.3160    5.3420   31.1220 C.ar      1 HAL        -0.0687
      5 CP5        62.1130    5.5830   31.7880 C.ar      1 HAL        -0.0686
      6 CP6        61.5300    4.5850   32.5510 C.ar      1 HAL        -0.0603
      7 C1         61.4650    2.2350   33.4780 C.3       1 HAL         0.0011
      8 C2         59.9720    2.3880   33.5790 C.3       1 HAL         0.0405
      9 N1         59.3120    1.3160   34.3140 N.am      1 HAL        -0.2828
     10 C3         57.9910    1.2230   34.4530 C.2       1 HAL         0.2080
     11 O1         57.2100    2.0320   33.9470 O.2       1 HAL        -0.3941
     12 C4         57.4620    0.0400   35.2430 C.3       1 HAL         0.1705
     13 O2         58.1620   -0.0880   36.4750 O.3       1 HAL        -0.2575
     14 P          59.2410   -1.2450   36.6890 P.3       1 HAL         0.1512
     15 O3         60.6000   -0.6890   36.4220 O.co2     1 HAL        -0.6186
     16 O4         58.7910   -2.4570   35.9540 O.co2     1 HAL        -0.6186
     17 C5         59.1850   -1.5780   38.0930 C.3       1 HAL         0.1404
     18 C6         60.3240   -2.5300   38.5080 C.3       1 HAL         0.0226
     19 CR1        60.0360   -3.3360   39.7550 C.ar      1 HAL        -0.0392
     20 CR2        59.5560   -4.6410   39.6590 C.ar      1 HAL        -0.0602
     21 CR3        59.2680   -5.3870   40.8100 C.ar      1 HAL        -0.0686
     22 CR4        59.4590   -4.8300   42.0730 C.ar      1 HAL        -0.0687
     23 CR5        59.9430   -3.5210   42.1830 C.ar      1 HAL        -0.0686
     24 CR6        60.2290   -2.7820   41.0250 C.ar      1 HAL        -0.0602
     25 N2         59.2070   -0.3850   38.9390 N.am      1 HAL        -0.2643
     26 C7         58.2390   -0.1580   39.8190 C.2       1 HAL         0.1777
     27 O5         57.2910   -0.9230   39.9590 O.2       1 HAL        -0.3970
     28 C8         58.3360    1.1190   40.6500 C.3       1 HAL         0.0388
     29 C9         57.4440    1.0850   41.9000 C.3       1 HAL        -0.0245
     30 C10        57.8850   -0.0510   42.8130 C.3       1 HAL         0.0023
     31 C11        57.0660   -0.1850   44.0910 C.2       1 HAL         0.0349
     32 O6         57.1480   -1.2650   44.7120 O.co2     1 HAL        -0.5690
     33 O7         56.3590    0.7630   44.4900 O.co2     1 HAL        -0.5690
     34 H1         63.8035    2.1208   32.0854 H         1 HAL         0.0557
     35 H2         64.8640    3.9027   30.7137 H         1 HAL         0.0599
     36 H3         63.7720    6.1231   30.5244 H         1 HAL         0.0559
     37 H4         61.6346    6.5524   31.7078 H         1 HAL         0.0599
     38 H5         60.5970    4.7837   33.0658 H         1 HAL         0.0557
     39 H6         61.8868    2.2507   34.4938 H         1 HAL         0.0446
     40 H7         61.6853    1.2669   33.0044 H         1 HAL         0.0446
     41 H8         59.5578    2.4142   32.5603 H         1 HAL         0.0542
     42 H9         59.7559    3.3392   34.0873 H         1 HAL         0.0542
     43 H10        59.8825    0.6120   34.7369 H         1 HAL         0.1853
     44 H11        57.5962   -0.8787   34.6531 H         1 HAL         0.0868
     45 H12        56.3920    0.1909   35.4484 H         1 HAL         0.0868
     46 H13        58.2317   -2.0977   38.2690 H         1 HAL         0.0810
     47 H14        61.2278   -1.9290   38.6870 H         1 HAL         0.0465
     48 H15        60.5073   -3.2301   37.6796 H         1 HAL         0.0465
     49 H16        59.4035   -5.0846   38.6817 H         1 HAL         0.0557
     50 H17        58.8954   -6.4007   40.7174 H         1 HAL         0.0599
     51 H18        59.2345   -5.4059   42.9635 H         1 HAL         0.0559
     52 H19        60.0965   -3.0792   43.1609 H         1 HAL         0.0599
     53 H20        60.6042   -1.7691   41.1156 H         1 HAL         0.0557
     54 H21        59.9600    0.2674   38.8536 H         1 HAL         0.1872
     55 H22        58.0307    1.9700   40.0235 H         1 HAL         0.0503
     56 H23        59.3806    1.2533   40.9673 H         1 HAL         0.0503
     57 H24        56.3979    0.9271   41.5988 H         1 HAL         0.0307
     58 H25        57.5306    2.0409   42.4374 H         1 HAL         0.0307
     59 H26        58.9347    0.1206   43.0934 H         1 HAL         0.0432
     60 H27        57.8047   -0.9940   42.2524 H         1 HAL         0.0432
@<TRIPOS>BOND
     1    1    2 ar 
     2    1    6 ar 
     3    1    7 1  
     4    2    3 ar 
     5    3    4 ar 
     6    4    5 ar 
     7    5    6 ar 
     8    7    8 1  
     9    8    9 1  
    10    9   10 am 
    11   10   11 2  
    12   10   12 1  
    13   12   13 1  
    14   13   14 1  
    15   14   15 ar 
    16   14   16 ar 
    17   14   17 1  
    18   17   18 1  
    19   17   25 1  
    20   18   19 1  
    21   19   20 ar 
    22   19   24 ar 
    23   20   21 ar 
    24   21   22 ar 
    25   22   23 ar 
    26   23   24 ar 
    27   25   26 am 
    28   26   27 2  
    29   26   28 1  
    30   28   29 1  
    31   29   30 1  
    32   30   31 1  
    33   31   32 ar 
    34   31   33 ar 
    35    2   34 1  
    36    3   35 1  
    37    4   36 1  
    38    5   37 1  
    39    6   38 1  
    40    7   39 1  
    41    7   40 1  
    42    8   41 1  
    43    8   42 1  
    44    9   43 1  
    45   12   44 1  
    46   12   45 1  
    47   17   46 1  
    48   18   47 1  
    49   18   48 1  
    50   20   49 1  
    51   21   50 1  
    52   22   51 1  
    53   23   52 1  
    54   24   53 1  
    55   25   54 1  
    56   28   55 1  
    57   28   56 1  
    58   29   57 1  
    59   29   58 1  
    60   30   59 1  
    61   30   60 1  
@<TRIPOS>SUBSTRUCTURE
     1 HAL         1

