3o87_ligand
  -I-interpret- 

 30 30  0  0  0  0  0  0  0  0999 V2000
   20.2640    3.4890    7.7590 O   0  0  0  0  0
   23.3110    7.5490   13.6990 O   0  0  0  0  0
   25.0880    6.4700   12.2740 O   0  0  0  0  0
   18.7330    4.5790    8.9100 O   0  0  0  0  0
   26.8370    5.5020   17.4030 O   0  0  0  0  0
   25.5960    3.5700   16.5190 O   0  0  0  0  0
   23.0260    4.2170   10.9780 C   0  0  0  0  0
   21.1230    5.0140   12.2490 C   0  0  0  0  0
   22.2100    4.0070    9.8720 C   0  0  0  0  0
   20.3140    4.8000   11.1390 C   0  0  0  0  0
   26.3370    5.3820   14.7750 C   0  0  0  0  0
   23.3120    4.8770   13.3970 C   0  0  0  0  0
   25.1090    6.1560   14.9400 N   0  0  0  0  0
   19.8850    4.1120    8.7760 C   0  0  0  0  0
   22.4750    4.7190   12.1550 C   0  0  0  0  0
   20.8590    4.3610    9.9370 C   0  0  0  0  0
   24.2830    6.4080   13.5320 S   0  0  0  0  0
   26.6460    4.6420   16.1840 B   0  0  0  0  0
   21.1796    3.2231    7.8707 H   0  0  0  0  0
   27.0119    4.9429   18.1635 H   0  0  0  0  0
   25.8167    3.1587   17.3579 H   0  0  0  0  0
   24.0908    3.9902   10.9245 H   0  0  0  0  0
   20.7030    5.4060   13.1753 H   0  0  0  0  0
   22.6202    3.5699    8.9616 H   0  0  0  0  0
   19.2411    4.9781   11.2114 H   0  0  0  0  0
   27.1642    6.0368   14.5009 H   0  0  0  0  0
   26.2183    4.6473   13.9786 H   0  0  0  0  0
   24.0352    4.0617   13.3792 H   0  0  0  0  0
   22.6124    4.8888   14.2328 H   0  0  0  0  0
   24.7907    6.5087   15.8426 H   0  0  0  0  0
 14  1  1  0  0  0
 17  2  2  0  0  0
 17  3  2  0  0  0
 14  4  2  0  0  0
 18  5  1  0  0  0
 18  6  1  0  0  0
  9  7  4  0  0  0
  7 15  4  0  0  0
 10  8  4  0  0  0
  8 15  4  0  0  0
 16  9  4  0  0  0
 16 10  4  0  0  0
 13 11  1  0  0  0
 11 18  1  0  0  0
 15 12  1  0  0  0
 12 17  1  0  0  0
 17 13  1  0  0  0
 14 16  1  0  0  0
  1 19  1  0  0  0
  5 20  1  0  0  0
  6 21  1  0  0  0
  7 22  1  0  0  0
  8 23  1  0  0  0
  9 24  1  0  0  0
 10 25  1  0  0  0
 11 26  1  0  0  0
 11 27  1  0  0  0
 12 28  1  0  0  0
 12 29  1  0  0  0
 13 30  1  0  0  0
M  END
$$$$
