### 
### Created by X-TOOL on Mon Sep 10 21:13:03 2018
### 

@<TRIPOS>MOLECULE
3o87_ligand
   29    29     1     0     0
SMALL
GAST_HUCK


@<TRIPOS>ATOM
      1 OAA        20.2640    3.4890    7.7590 O.co2     1 BSG        -0.5625
      2 OAB        23.3110    7.5490   13.6990 O.2       1 BSG        -0.1556
      3 OAC        25.0880    6.4700   12.2740 O.2       1 BSG        -0.1556
      4 OAD        18.7330    4.5790    8.9100 O.co2     1 BSG        -0.5625
      5 OAE        26.8370    5.5020   17.4030 O.3       1 BSG        -0.8710
      6 OAF        25.5960    3.5700   16.5190 O.3       1 BSG        -0.8710
      7 CAH        23.0260    4.2170   10.9780 C.ar      1 BSG        -0.0550
      8 CAI        21.1230    5.0140   12.2490 C.ar      1 BSG        -0.0550
      9 CAJ        22.2100    4.0070    9.8720 C.ar      1 BSG        -0.0542
     10 CAK        20.3140    4.8000   11.1390 C.ar      1 BSG        -0.0542
     11 CAL        26.3370    5.3820   14.7750 C.3       1 BSG        -0.2502
     12 CAM        23.3120    4.8770   13.3970 C.3       1 BSG         0.1166
     13 NAN        25.1090    6.1560   14.9400 N.am      1 BSG        -0.4016
     14 CAO        19.8850    4.1120    8.7760 C.2       1 BSG         0.0584
     15 CAP        22.4750    4.7190   12.1550 C.ar      1 BSG        -0.0176
     16 CAQ        20.8590    4.3610    9.9370 C.ar      1 BSG         0.0032
     17 SAS        24.2830    6.4080   13.5320 S.o2      1 BSG         0.0231
     18 BOR        26.6460    4.6420   16.1840 B         1 BSG         3.0000
     19 H          27.1397    4.9573   18.1333 H         1 BSG        -0.1290
     20 H          25.4581    3.0083   15.7528 H         1 BSG        -0.1290
     21 H          24.0908    3.9902   10.9245 H         1 BSG         0.0565
     22 H          20.7030    5.4060   13.1753 H         1 BSG         0.0565
     23 H          22.6202    3.5699    8.9616 H         1 BSG         0.0634
     24 H          19.2411    4.9781   11.2114 H         1 BSG         0.0634
     25 H          27.1642    6.0368   14.5009 H         1 BSG        -0.1900
     26 H          26.2183    4.6473   13.9786 H         1 BSG        -0.1900
     27 H          24.0352    4.0617   13.3792 H         1 BSG         0.0687
     28 H          22.6124    4.8888   14.2328 H         1 BSG         0.0687
     29 H          24.7907    6.5087   15.8426 H         1 BSG         0.1255
@<TRIPOS>BOND
     1   14    1 ar 
     2   17    2 2  
     3   17    3 2  
     4   14    4 ar 
     5   18    5 1  
     6   18    6 1  
     7    9    7 ar 
     8    7   15 ar 
     9   10    8 ar 
    10    8   15 ar 
    11   16    9 ar 
    12   16   10 ar 
    13   13   11 1  
    14   11   18 1  
    15   15   12 1  
    16   12   17 1  
    17   17   13 am 
    18   14   16 1  
    19    5   19 1  
    20    6   20 1  
    21    7   21 1  
    22    8   22 1  
    23    9   23 1  
    24   10   24 1  
    25   11   25 1  
    26   11   26 1  
    27   12   27 1  
    28   12   28 1  
    29   13   29 1  
@<TRIPOS>SUBSTRUCTURE
     1 BSG         1

