### 
### Created by X-TOOL on Mon Sep 10 21:13:11 2018
### 

@<TRIPOS>MOLECULE
4ayx_ligand
   45    47     1     0     0
SMALL
GAST_HUCK


@<TRIPOS>ATOM
      1 PG        -19.8770   21.3900    5.2170 P.3       1 ACP         0.0781
      2 O1G       -19.4050   19.9900    4.9820 O.co2     1 ACP        -0.5611
      3 O2G       -18.7220   22.3530    5.5690 O.co2     1 ACP        -0.5611
      4 O3G       -20.9500   21.4940    6.3250 O.co2     1 ACP        -0.5611
      5 PB        -21.7180   20.8930    3.0970 P.3       1 ACP         0.1787
      6 O1B       -21.1650   19.7220    2.3040 O.co2     1 ACP        -0.6143
      7 O2B       -22.8680   20.5980    4.1110 O.co2     1 ACP        -0.6143
      8 C3B       -20.5960   21.9860    3.7600 C.3       1 ACP         0.1130
      9 PA        -23.8100   22.4610    1.7590 P.3       1 ACP         0.2952
     10 O1A       -24.0640   23.4290    2.8520 O.co2     1 ACP        -0.6125
     11 O2A       -24.9530   21.5520    1.3010 O.co2     1 ACP        -0.6125
     12 O3A       -22.5280   21.5250    1.8690 O.3       1 ACP        -0.1584
     13 O5'       -23.7320   23.2350    0.3410 O.3       1 ACP        -0.2475
     14 C5'       -22.8830   22.9040   -0.7770 C.3       1 ACP         0.1128
     15 C4'       -22.5280   24.1850   -1.4890 C.3       1 ACP         0.1189
     16 O4'       -23.7230   24.9690   -1.7040 O.3       1 ACP        -0.3364
     17 C3'       -21.5210   25.0920   -0.7770 C.3       1 ACP         0.1149
     18 O3'       -20.4700   25.4890   -1.6530 O.3       1 ACP        -0.3864
     19 C2'       -22.3880   26.2440   -0.2440 C.3       1 ACP         0.1385
     20 O2'       -21.6990   27.4860   -0.1350 O.3       1 ACP        -0.3836
     21 C1'       -23.5070   26.3020   -1.2870 C.3       1 ACP         0.2010
     22 N9        -24.7760   26.8550   -0.8080 N.pl3     1 ACP        -0.1919
     23 C8        -25.4580   26.5040    0.3280 C.2       1 ACP         0.1123
     24 N7        -26.5560   27.1930    0.5290 N.2       1 ACP        -0.2958
     25 C5        -26.6030   28.0580   -0.5560 C.ar      1 ACP         0.1045
     26 C6        -27.5220   29.0610   -0.9330 C.ar      1 ACP         0.1298
     27 N6        -28.5830   29.4070   -0.1990 N.pl3     1 ACP        -0.3152
     28 N1        -27.2880   29.7290   -2.0890 N.ar      1 ACP        -0.2698
     29 C2        -26.2000   29.4180   -2.8040 C.ar      1 ACP         0.0533
     30 N3        -25.2590   28.5040   -2.5430 N.ar      1 ACP        -0.2714
     31 C4        -25.5180   27.8540   -1.3940 C.ar      1 ACP         0.1613
     32 H1        -19.8007   22.1671    3.0219 H         1 ACP         0.0680
     33 H2        -21.1126   22.9314    3.9819 H         1 ACP         0.0680
     34 H3        -23.4164   22.2307   -1.4641 H         1 ACP         0.0648
     35 H4        -21.9678   22.4110   -0.4174 H         1 ACP         0.0648
     36 H5        -22.0997   23.9085   -2.4637 H         1 ACP         0.0651
     37 H6        -21.0673   24.5574    0.0705 H         1 ACP         0.0648
     38 H7        -19.8629   26.0493   -1.1839 H         1 ACP         0.2100
     39 H8        -22.7935   25.9873    0.7458 H         1 ACP         0.0676
     40 H9        -21.3812   27.7468   -0.9915 H         1 ACP         0.2101
     41 H10       -23.1657   26.9116   -2.1366 H         1 ACP         0.0996
     42 H11       -25.1180   25.7214    1.0046 H         1 ACP         0.1349
     43 H12       -29.2178   30.1480   -0.5288 H         1 ACP         0.1820
     44 H13       -28.7663   28.9328    0.6968 H         1 ACP         0.1820
     45 H14       -26.0629   29.9836   -3.7186 H         1 ACP         0.0996
@<TRIPOS>BOND
     1    1    2 ar 
     2    1    3 ar 
     3    1    4 ar 
     4    8    1 1  
     5    5    6 ar 
     6    5    7 ar 
     7    5    8 1  
     8   12    5 1  
     9    9   10 ar 
    10    9   11 ar 
    11    9   12 1  
    12    9   13 1  
    13   13   14 1  
    14   14   15 1  
    15   15   16 1  
    16   15   17 1  
    17   16   21 1  
    18   17   18 1  
    19   17   19 1  
    20   19   20 1  
    21   19   21 1  
    22   21   22 1  
    23   22   23 1  
    24   22   31 1  
    25   23   24 2  
    26   24   25 1  
    27   25   26 ar 
    28   25   31 ar 
    29   26   27 1  
    30   26   28 ar 
    31   28   29 ar 
    32   29   30 ar 
    33   30   31 ar 
    34    8   32 1  
    35    8   33 1  
    36   14   34 1  
    37   14   35 1  
    38   15   36 1  
    39   17   37 1  
    40   18   38 1  
    41   19   39 1  
    42   20   40 1  
    43   21   41 1  
    44   23   42 1  
    45   27   43 1  
    46   27   44 1  
    47   29   45 1  
@<TRIPOS>SUBSTRUCTURE
     1 ACP         1

