4ayx_ligand
  -I-interpret- 

 49 51  0  0  0  0  0  0  0  0999 V2000
  -19.8770   21.3900    5.2170 P   0  0  0  0  0
  -19.4050   19.9900    4.9820 O   0  0  0  0  0
  -18.7220   22.3530    5.5690 O   0  0  0  0  0
  -20.9500   21.4940    6.3250 O   0  0  0  0  0
  -21.7180   20.8930    3.0970 P   0  0  0  0  0
  -21.1650   19.7220    2.3040 O   0  0  0  0  0
  -22.8680   20.5980    4.1110 O   0  0  0  0  0
  -20.5960   21.9860    3.7600 C   0  0  0  0  0
  -23.8100   22.4610    1.7590 P   0  0  0  0  0
  -24.0640   23.4290    2.8520 O   0  0  0  0  0
  -24.9530   21.5520    1.3010 O   0  0  0  0  0
  -22.5280   21.5250    1.8690 O   0  0  0  0  0
  -23.7320   23.2350    0.3410 O   0  0  0  0  0
  -22.8830   22.9040   -0.7770 C   0  0  0  0  0
  -22.5280   24.1850   -1.4890 C   0  0  0  0  0
  -23.7230   24.9690   -1.7040 O   0  0  0  0  0
  -21.5210   25.0920   -0.7770 C   0  0  0  0  0
  -20.4700   25.4890   -1.6530 O   0  0  0  0  0
  -22.3880   26.2440   -0.2440 C   0  0  0  0  0
  -21.6990   27.4860   -0.1350 O   0  0  0  0  0
  -23.5070   26.3020   -1.2870 C   0  0  0  0  0
  -24.7760   26.8550   -0.8080 N   0  0  0  0  0
  -25.4580   26.5040    0.3280 C   0  0  0  0  0
  -26.5560   27.1930    0.5290 N   0  0  0  0  0
  -26.6030   28.0580   -0.5560 C   0  0  0  0  0
  -27.5220   29.0610   -0.9330 C   0  0  0  0  0
  -28.5830   29.4070   -0.1990 N   0  0  0  0  0
  -27.2880   29.7290   -2.0890 N   0  0  0  0  0
  -26.2000   29.4180   -2.8040 C   0  0  0  0  0
  -25.2590   28.5040   -2.5430 N   0  0  0  0  0
  -25.5180   27.8540   -1.3940 C   0  0  0  0  0
  -19.0739   23.2350    5.7100 H   0  0  0  0  0
  -21.2124   22.4115    6.4297 H   0  0  0  0  0
  -23.1275   21.4140    4.5451 H   0  0  0  0  0
  -19.8015   22.1385    3.0295 H   0  0  0  0  0
  -21.1244   22.9093    3.9977 H   0  0  0  0  0
  -24.6435   20.9829    0.5925 H   0  0  0  0  0
  -23.4018   22.2274   -1.4561 H   0  0  0  0  0
  -21.9792   22.4045   -0.4282 H   0  0  0  0  0
  -22.0545   23.8508   -2.4122 H   0  0  0  0  0
  -20.9830   24.6078    0.0380 H   0  0  0  0  0
  -19.8565   26.0552   -1.1790 H   0  0  0  0  0
  -22.7279   26.0719    0.7772 H   0  0  0  0  0
  -22.2992   28.1551    0.2023 H   0  0  0  0  0
  -23.1858   26.9748   -2.0821 H   0  0  0  0  0
  -25.1177   25.7207    1.0053 H   0  0  0  0  0
  -28.7645   28.9374    0.6881 H   0  0  0  0  0
  -29.2117   30.1408   -0.5256 H   0  0  0  0  0
  -26.0622   29.9867   -3.7236 H   0  0  0  0  0
  1  2  2  0  0  0
  1  3  1  0  0  0
  1  4  1  0  0  0
  8  1  1  0  0  0
  5  6  2  0  0  0
  5  7  1  0  0  0
  5  8  1  0  0  0
 12  5  1  0  0  0
  9 10  2  0  0  0
  9 11  1  0  0  0
  9 12  1  0  0  0
  9 13  1  0  0  0
 13 14  1  0  0  0
 14 15  1  0  0  0
 15 16  1  0  0  0
 15 17  1  0  0  0
 16 21  1  0  0  0
 17 18  1  0  0  0
 17 19  1  0  0  0
 19 20  1  0  0  0
 19 21  1  0  0  0
 21 22  1  0  0  0
 22 23  4  0  0  0
 22 31  4  0  0  0
 23 24  4  0  0  0
 24 25  4  0  0  0
 25 26  4  0  0  0
 25 31  4  0  0  0
 26 27  1  0  0  0
 26 28  4  0  0  0
 28 29  4  0  0  0
 29 30  4  0  0  0
 30 31  4  0  0  0
  3 32  1  0  0  0
  4 33  1  0  0  0
  7 34  1  0  0  0
  8 35  1  0  0  0
  8 36  1  0  0  0
 11 37  1  0  0  0
 14 38  1  0  0  0
 14 39  1  0  0  0
 15 40  1  0  0  0
 17 41  1  0  0  0
 18 42  1  0  0  0
 19 43  1  0  0  0
 20 44  1  0  0  0
 21 45  1  0  0  0
 23 46  1  0  0  0
 27 47  1  0  0  0
 27 48  1  0  0  0
 29 49  1  0  0  0
M  END
$$$$
