2yhw_ligand
  -I-interpret- 

 30 30  0  0  0  0  0  0  0  0999 V2000
  -11.4390   31.2200   17.2280 C   0  0  0  0  0
  -12.4770   30.6520   17.9500 O   0  0  0  0  0
  -10.8320   30.1610   16.2990 C   0  0  0  0  0
   -9.9050   30.8430   15.3430 N   0  0  0  0  0
   -9.8920   30.6190   14.0410 C   0  0  0  0  0
  -10.5960   29.7670   13.4720 O   0  0  0  0  0
   -8.9660   31.5630   13.2470 C   0  0  0  0  0
  -10.1930   29.0690   17.1090 C   0  0  0  0  0
   -9.5510   28.0780   16.2570 O   0  0  0  0  0
   -9.1920   29.6340   18.0690 C   0  0  0  0  0
   -8.6570   28.5870   18.9070 O   0  0  0  0  0
   -9.8020   30.7030   18.9370 C   0  0  0  0  0
   -8.8850   31.4500   19.8470 C   0  0  0  0  0
   -7.8260   32.1090   19.1850 O   0  0  0  0  0
  -10.4080   31.7220   18.1000 O   0  0  0  0  0
  -11.8408   32.0530   16.6511 H   0  0  0  0  0
  -13.1469   30.3274   17.3438 H   0  0  0  0  0
  -11.5981   29.6662   15.7021 H   0  0  0  0  0
   -9.2431   31.5219   15.7191 H   0  0  0  0  0
   -8.2390   30.9725   12.6895 H   0  0  0  0  0
   -9.5622   32.1564   12.5538 H   0  0  0  0  0
   -8.4447   32.2249   13.9386 H   0  0  0  0  0
  -10.9874   28.5771   17.6703 H   0  0  0  0  0
  -10.1962   27.7188   15.6436 H   0  0  0  0  0
   -8.3907   30.0816   17.4811 H   0  0  0  0  0
   -8.0175   28.9621   19.5169 H   0  0  0  0  0
  -10.4934   30.1368   19.5610 H   0  0  0  0  0
   -8.4384   30.7214   20.5237 H   0  0  0  0  0
   -9.4792   32.2155   20.3460 H   0  0  0  0  0
   -7.2812   32.5653   19.8305 H   0  0  0  0  0
  1  2  1  0  0  0
  1  3  1  0  0  0
  1 15  1  0  0  0
  3  4  1  0  0  0
  3  8  1  0  0  0
  4  5  1  0  0  0
  5  6  2  0  0  0
  5  7  1  0  0  0
  8  9  1  0  0  0
  8 10  1  0  0  0
 10 11  1  0  0  0
 10 12  1  0  0  0
 12 13  1  0  0  0
 12 15  1  0  0  0
 13 14  1  0  0  0
  1 16  1  0  0  0
  2 17  1  0  0  0
  3 18  1  0  0  0
  4 19  1  0  0  0
  7 20  1  0  0  0
  7 21  1  0  0  0
  7 22  1  0  0  0
  8 23  1  0  0  0
  9 24  1  0  0  0
 10 25  1  0  0  0
 11 26  1  0  0  0
 12 27  1  0  0  0
 13 28  1  0  0  0
 13 29  1  0  0  0
 14 30  1  0  0  0
M  END
$$$$
