3inh_ligand
  -I-interpret- 

 47 50  0  0  0  0  0  0  0  0999 V2000
   16.0900   -4.3700   17.5830 C   0  0  0  0  0
   18.0930  -12.2350   16.4360 F   0  0  0  0  0
   15.4120   -5.4950   16.9580 N   0  0  0  0  0
   14.4240   -6.4610   18.8290 O   0  0  0  0  0
   14.6650   -6.4230   17.6300 C   0  0  0  0  0
   17.9810  -12.4460   18.6060 F   0  0  0  0  0
   14.6830   -6.8270   15.3100 N   0  0  0  0  0
   16.0930  -12.7310   17.4230 O   0  0  0  0  0
   14.1430   -7.4110   16.5790 C   0  0  0  0  0
   17.8160  -14.2300   17.3400 F   0  0  0  0  0
   16.1750   -5.0820   14.7500 N   0  0  0  0  0
   15.4190   -5.8030   15.6330 C   0  0  0  0  0
    8.5020   -7.1070   16.3820 F   0  0  0  0  0
    9.8720   -3.0270   13.9290 N   0  0  0  0  0
   14.6680   -8.8330   16.8400 C   0  0  0  0  0
    8.4630   -2.9550   15.8740 N   0  0  0  0  0
   14.8740   -9.7320   15.7840 C   0  0  0  0  0
   15.3510  -11.0230   16.0250 C   0  0  0  0  0
   15.6310  -11.4470   17.3260 C   0  0  0  0  0
   15.4300  -10.5660   18.3860 C   0  0  0  0  0
   14.9540   -9.2730   18.1450 C   0  0  0  0  0
   17.4990  -12.9210   17.4340 C   0  0  0  0  0
   12.6130   -7.3840   16.5410 C   0  0  0  0  0
   11.8080   -8.4680   16.9170 C   0  0  0  0  0
   10.4210   -8.3590   16.8550 C   0  0  0  0  0
    9.8380   -7.1720   16.4220 C   0  0  0  0  0
   10.6020   -6.0630   16.0380 C   0  0  0  0  0
   11.9950   -6.1960   16.1080 C   0  0  0  0  0
   10.0070   -4.8030   15.5800 C   0  0  0  0  0
   10.3870   -4.1860   14.3940 C   0  0  0  0  0
    8.9280   -2.4740   14.7080 C   0  0  0  0  0
    9.0220   -4.1170   16.2820 C   0  0  0  0  0
   17.1619   -4.4465   17.4005 H   0  0  0  0  0
   15.7134   -3.4392   17.1588 H   0  0  0  0  0
   15.9009   -4.3842   18.6564 H   0  0  0  0  0
   14.5064   -7.1690   14.3654 H   0  0  0  0  0
   16.7428   -4.3026   15.0825 H   0  0  0  0  0
   14.6593   -9.4198   14.7620 H   0  0  0  0  0
   15.5061  -11.7058   15.1896 H   0  0  0  0  0
   15.6442  -10.8850   19.4060 H   0  0  0  0  0
   14.8019   -8.5939   18.9839 H   0  0  0  0  0
   12.2673   -9.3959   17.2578 H   0  0  0  0  0
    9.7934   -9.2017   17.1450 H   0  0  0  0  0
   12.6205   -5.3519   15.8176 H   0  0  0  0  0
   11.1568   -4.6729   13.7953 H   0  0  0  0  0
    8.4936   -1.5375   14.3583 H   0  0  0  0  0
    8.6775   -4.5442   17.2238 H   0  0  0  0  0
  3  1  1  0  0  0
 22  2  1  0  0  0
  5  3  1  0  0  0
 12  3  4  0  0  0
  5  4  2  0  0  0
  9  5  1  0  0  0
 22  6  1  0  0  0
  9  7  1  0  0  0
  7 12  1  0  0  0
 19  8  1  0  0  0
  8 22  1  0  0  0
  9 15  1  0  0  0
 23  9  1  0  0  0
 22 10  1  0  0  0
 12 11  2  0  0  0
 26 13  1  0  0  0
 30 14  4  0  0  0
 14 31  4  0  0  0
 15 17  4  0  0  0
 15 21  4  0  0  0
 31 16  4  0  0  0
 16 32  4  0  0  0
 17 18  4  0  0  0
 18 19  4  0  0  0
 20 19  4  0  0  0
 21 20  4  0  0  0
 23 24  4  0  0  0
 28 23  4  0  0  0
 25 24  4  0  0  0
 26 25  4  0  0  0
 27 26  4  0  0  0
 27 28  4  0  0  0
 29 27  1  0  0  0
 29 30  4  0  0  0
 29 32  4  0  0  0
  1 33  1  0  0  0
  1 34  1  0  0  0
  1 35  1  0  0  0
  7 36  1  0  0  0
 11 37  1  0  0  0
 17 38  1  0  0  0
 18 39  1  0  0  0
 20 40  1  0  0  0
 21 41  1  0  0  0
 24 42  1  0  0  0
 25 43  1  0  0  0
 28 44  1  0  0  0
 30 45  1  0  0  0
 31 46  1  0  0  0
 32 47  1  0  0  0
M  END
$$$$
