2vpp_ligand
  -I-interpret- 

 29 30  0  0  0  0  0  0  0  0999 V2000
   57.2890   20.9970   11.7070 O   0  0  0  0  0
   58.0570   21.8500   10.8450 C   0  0  0  0  0
   58.7980   20.9710    9.8500 C   0  0  0  0  0
   59.8590   20.2730   10.5220 O   0  0  0  0  0
   59.9460   18.9270   10.0040 C   0  0  0  0  0
   60.5630   18.0170   10.9820 N   0  0  0  0  0
   60.2740   18.1040   12.2840 C   0  0  0  0  0
   60.8830   17.2630   13.1980 C   0  0  0  0  0
   61.8260   16.3500   12.7210 C   0  0  0  0  0
   62.1010   16.3070   11.4060 N   0  0  0  0  0
   61.4740   17.1390   10.5520 C   0  0  0  0  0
   61.7740   17.0490    9.2340 O   0  0  0  0  0
   62.4730   15.4930   13.5450 N   0  0  0  0  0
   58.5110   18.5770    9.6250 C   0  0  0  0  0
   58.5260   17.7370    8.6000 F   0  0  0  0  0
   57.8930   18.0860   10.6780 F   0  0  0  0  0
   57.8790   19.9060    9.2570 C   0  0  0  0  0
   57.8670   20.0190    7.8390 O   0  0  0  0  0
   56.8123   21.5337   12.3444 H   0  0  0  0  0
   58.7660   22.4356   11.4302 H   0  0  0  0  0
   57.3999   22.5423   10.3186 H   0  0  0  0  0
   59.1753   21.6218    9.0612 H   0  0  0  0  0
   60.5983   18.8333    9.1358 H   0  0  0  0  0
   59.5520   18.8442   12.6287 H   0  0  0  0  0
   60.6344   17.3114   14.2582 H   0  0  0  0  0
   63.1520   14.8339   13.1642 H   0  0  0  0  0
   62.2816   15.5062   14.5468 H   0  0  0  0  0
   56.8584   20.0061    9.6265 H   0  0  0  0  0
   57.4694   20.8563    7.5892 H   0  0  0  0  0
  1  2  1  0  0  0
  2  3  1  0  0  0
  3  4  1  0  0  0
  3 17  1  0  0  0
  4  5  1  0  0  0
  5  6  1  0  0  0
  5 14  1  0  0  0
  6  7  1  0  0  0
  6 11  1  0  0  0
  7  8  2  0  0  0
  8  9  1  0  0  0
  9 10  2  0  0  0
  9 13  1  0  0  0
 10 11  1  0  0  0
 11 12  2  0  0  0
 14 15  1  0  0  0
 14 16  1  0  0  0
 14 17  1  0  0  0
 17 18  1  0  0  0
  1 19  1  0  0  0
  2 20  1  0  0  0
  2 21  1  0  0  0
  3 22  1  0  0  0
  5 23  1  0  0  0
  7 24  1  0  0  0
  8 25  1  0  0  0
 13 26  1  0  0  0
 13 27  1  0  0  0
 17 28  1  0  0  0
 18 29  1  0  0  0
M  END
$$$$
