220l_ligand
  -I-interpret- 

 12 12  0  0  0  0  0  0  0  0999 V2000
   30.3320    8.8900    1.1050 C   0  0  0  0  0
   30.9980   10.0850    1.3100 C   0  0  0  0  0
   30.2880   11.2650    1.4270 C   0  0  0  0  0
   28.9160   11.2430    1.3150 C   0  0  0  0  0
   28.2450   10.0330    1.1040 C   0  0  0  0  0
   28.9480    8.8550    1.0060 C   0  0  0  0  0
   30.9012    7.9643    1.0202 H   0  0  0  0  0
   32.0857   10.0960    1.3794 H   0  0  0  0  0
   30.8098   12.2050    1.6064 H   0  0  0  0  0
   28.3501   12.1715    1.3909 H   0  0  0  0  0
   27.1585   10.0242    1.0168 H   0  0  0  0  0
   28.4271    7.9098    0.8532 H   0  0  0  0  0
  1  2  4  0  0  0
  1  6  4  0  0  0
  2  3  4  0  0  0
  3  4  4  0  0  0
  4  5  4  0  0  0
  5  6  4  0  0  0
  1  7  1  0  0  0
  2  8  1  0  0  0
  3  9  1  0  0  0
  4 10  1  0  0  0
  5 11  1  0  0  0
  6 12  1  0  0  0
M  END
$$$$
