2g71_ligand
  -I-interpret- 

 39 40  0  0  0  0  0  0  0  0999 V2000
   28.0050   43.2620   16.7460 C   0  0  0  0  0
   28.5970   43.7970   17.8890 C   0  0  0  0  0
   28.8530   42.9050   19.1070 C   0  0  0  0  0
   29.7420   43.5700   20.0600 N   0  3  0  0  0
   29.2360   44.9090   20.4020 C   0  0  0  0  0
   29.8960   45.4340   21.6800 C   0  0  0  0  0
   29.3460   46.6000   22.0480 F   0  0  0  0  0
   29.5340   45.7790   19.1780 C   0  0  0  0  0
   28.9140   45.1530   17.9280 C   0  0  0  0  0
   28.6350   45.9520   16.8230 C   0  0  0  0  0
   28.0440   45.4240   15.6800 C   0  0  0  0  0
   27.7300   44.0670   15.6450 C   0  0  0  0  0
   26.9860   43.3480   14.2190 S   0  0  0  0  0
   25.6500   42.9830   14.6130 O   0  0  0  0  0
   27.8700   42.3030   13.7680 O   0  0  0  0  0
   26.8340   44.4240   13.0250 N   0  0  0  0  0
   27.9740   44.6230   12.1160 C   0  0  0  0  0
   27.7140   44.2790   10.6630 C   0  0  0  0  0
   27.0420   45.2940    9.7870 C   0  0  0  0  0
   27.0200   44.9920    8.4790 F   0  0  0  0  0
   27.6450   46.4890    9.8000 F   0  0  0  0  0
   25.7740   45.5770   10.1170 F   0  0  0  0  0
   27.7548   42.2016   16.7144 H   0  0  0  0  0
   29.3240   41.9805   18.7730 H   0  0  0  0  0
   27.9019   42.6991   19.5981 H   0  0  0  0  0
   30.6649   43.6660   19.6364 H   0  0  0  0  0
   29.7895   43.0096   20.9109 H   0  0  0  0  0
   28.1679   44.9076   20.6193 H   0  0  0  0  0
   30.9587   45.5875   21.4923 H   0  0  0  0  0
   29.7503   44.7063   22.4783 H   0  0  0  0  0
   30.6133   45.8527   19.0446 H   0  0  0  0  0
   29.1088   46.7709   19.3309 H   0  0  0  0  0
   28.8846   47.0126   16.8540 H   0  0  0  0  0
   27.8294   46.0630   14.8234 H   0  0  0  0  0
   25.9699   44.9523   12.9038 H   0  0  0  0  0
   28.7648   43.9551   12.4575 H   0  0  0  0  0
   28.2146   45.6857   12.1462 H   0  0  0  0  0
   27.0269   43.4333   10.6924 H   0  0  0  0  0
   28.7025   44.1396   10.2253 H   0  0  0  0  0
  1  2  4  0  0  0
  1 12  4  0  0  0
  2  3  1  0  0  0
  2  9  4  0  0  0
  3  4  1  0  0  0
  4  5  1  0  0  0
  5  6  1  0  0  0
  5  8  1  0  0  0
  6  7  1  0  0  0
  8  9  1  0  0  0
  9 10  4  0  0  0
 10 11  4  0  0  0
 11 12  4  0  0  0
 12 13  1  0  0  0
 13 14  2  0  0  0
 13 15  2  0  0  0
 13 16  1  0  0  0
 16 17  1  0  0  0
 17 18  1  0  0  0
 18 19  1  0  0  0
 19 20  1  0  0  0
 19 21  1  0  0  0
 19 22  1  0  0  0
  1 23  1  0  0  0
  3 24  1  0  0  0
  3 25  1  0  0  0
  4 26  1  0  0  0
  4 27  1  0  0  0
  5 28  1  0  0  0
  6 29  1  0  0  0
  6 30  1  0  0  0
  8 31  1  0  0  0
  8 32  1  0  0  0
 10 33  1  0  0  0
 11 34  1  0  0  0
 16 35  1  0  0  0
 17 36  1  0  0  0
 17 37  1  0  0  0
 18 38  1  0  0  0
 18 39  1  0  0  0
M  END
$$$$
