3mkf_ligand
  -I-interpret- 

 47 48  0  0  0  0  0  0  0  0999 V2000
   31.2850   65.6920    4.2740 C   0  0  0  0  0
   30.8820   68.0890    4.6100 N   0  0  0  0  0
   30.2050   65.5810    3.6980 O   0  0  0  0  0
   31.9030   67.0430    4.5370 C   0  0  0  0  0
   25.2920   72.1220    6.4980 C   0  0  0  0  0
   31.8780   69.1720    6.2750 O   0  0  0  0  0
   27.3830   71.6590    3.9700 O   0  0  0  0  0
   28.7650   69.3120    3.7410 O   0  0  0  0  0
   35.7070   68.3620    0.5700 O   0  0  0  0  0
   31.2190   62.7020    7.1610 O   0  0  0  0  0
   33.5000   62.7500    6.1820 O   0  0  0  0  0
   35.1480   68.0580    2.8760 C   0  0  0  0  0
   33.4890   67.7070    1.1620 C   0  0  0  0  0
   34.2210   67.7330    3.8630 C   0  0  0  0  0
   32.5610   67.3820    2.1480 C   0  0  0  0  0
   26.7170   72.5410    6.2800 C   0  0  0  0  0
   31.5750   63.2490    4.5680 C   0  0  0  0  0
   28.6220   71.4420    7.0800 C   0  0  0  0  0
   29.8280   70.7750    6.7390 C   0  0  0  0  0
   31.9740   64.6460    4.7090 N   0  0  0  0  0
   30.9430   69.1030    5.4870 C   0  0  0  0  0
   27.9020   71.0960    4.9290 C   0  0  0  0  0
   28.9220   70.0670    4.6850 C   0  0  0  0  0
   34.7890   68.0420    1.5300 C   0  0  0  0  0
   32.9150   67.3900    3.5000 C   0  0  0  0  0
   32.0260   62.4760    5.8850 B   0  0  0  0  0
   27.5210   71.3750    6.1850 N   0  0  0  0  0
   29.9720   70.0440    5.5260 N   0  0  0  0  0
   30.0910   68.0455    3.9675 H   0  0  0  0  0
   32.4064   66.9817    5.5019 H   0  0  0  0  0
   24.9622   71.5098    5.6586 H   0  0  0  0  0
   25.2213   71.5450    7.4201 H   0  0  0  0  0
   24.6615   73.0080    6.5731 H   0  0  0  0  0
   35.2972   68.3012   -0.2960 H   0  0  0  0  0
   30.2906   62.5324    6.9854 H   0  0  0  0  0
   34.0171   62.6106    5.3853 H   0  0  0  0  0
   36.1653   68.3278    3.1596 H   0  0  0  0  0
   33.1999   67.6991    0.1111 H   0  0  0  0  0
   34.5120   67.7459    4.9133 H   0  0  0  0  0
   31.5433   67.1174    1.8611 H   0  0  0  0  0
   27.0544   73.1583    7.1126 H   0  0  0  0  0
   26.7969   73.1233    5.3620 H   0  0  0  0  0
   32.0481   62.8080    3.6907 H   0  0  0  0  0
   30.4952   63.1760    4.4385 H   0  0  0  0  0
   28.5421   71.9972    8.0146 H   0  0  0  0  0
   30.6709   70.8242    7.4283 H   0  0  0  0  0
   32.8579   64.8334    5.1823 H   0  0  0  0  0
  1  3  2  0  0  0
  4  1  1  0  0  0
  1 20  1  0  0  0
  2  4  1  0  0  0
 21  2  1  0  0  0
  4 25  1  0  0  0
 16  5  1  0  0  0
 21  6  2  0  0  0
 22  7  2  0  0  0
 23  8  2  0  0  0
 24  9  1  0  0  0
 26 10  1  0  0  0
 26 11  1  0  0  0
 14 12  4  0  0  0
 12 24  4  0  0  0
 15 13  4  0  0  0
 13 24  4  0  0  0
 25 14  4  0  0  0
 25 15  4  0  0  0
 27 16  1  0  0  0
 20 17  1  0  0  0
 17 26  1  0  0  0
 18 19  2  0  0  0
 27 18  1  0  0  0
 19 28  1  0  0  0
 28 21  1  0  0  0
 22 23  1  0  0  0
 22 27  1  0  0  0
 23 28  1  0  0  0
  2 29  1  0  0  0
  4 30  1  0  0  0
  5 31  1  0  0  0
  5 32  1  0  0  0
  5 33  1  0  0  0
  9 34  1  0  0  0
 10 35  1  0  0  0
 11 36  1  0  0  0
 12 37  1  0  0  0
 13 38  1  0  0  0
 14 39  1  0  0  0
 15 40  1  0  0  0
 16 41  1  0  0  0
 16 42  1  0  0  0
 17 43  1  0  0  0
 17 44  1  0  0  0
 18 45  1  0  0  0
 19 46  1  0  0  0
 20 47  1  0  0  0
M  END
$$$$
