### 
### Created by X-TOOL on Mon Sep 10 21:13:02 2018
### 

@<TRIPOS>MOLECULE
3mkf_ligand
   47    48     1     0     0
SMALL
GAST_HUCK


@<TRIPOS>ATOM
      1 C          31.2850   65.6920    4.2740 C.2       1 CZ7         0.1831
      2 N          30.8820   68.0890    4.6100 N.am      1 CZ7        -0.2337
      3 O          30.2050   65.5810    3.6980 O.2       1 CZ7        -0.3945
      4 CA         31.9030   67.0430    4.5370 C.3       1 CZ7         0.1581
      5 CAA        25.2920   72.1220    6.4980 C.3       1 CZ7        -0.0396
      6 OAC        31.8780   69.1720    6.2750 O.2       1 CZ7        -0.3837
      7 OAD        27.3830   71.6590    3.9700 O.2       1 CZ7        -0.3571
      8 OAE        28.7650   69.3120    3.7410 O.2       1 CZ7        -0.3490
      9 OAF        35.7070   68.3620    0.5700 O.3       1 CZ7        -0.3374
     10 OAG        31.2190   62.7020    7.1610 O.3       1 CZ7        -0.8710
     11 OAH        33.5000   62.7500    6.1820 O.3       1 CZ7        -0.8710
     12 CAI        35.1480   68.0580    2.8760 C.ar      1 CZ7        -0.0393
     13 CAJ        33.4890   67.7070    1.1620 C.ar      1 CZ7        -0.0393
     14 CAK        34.2210   67.7330    3.8630 C.ar      1 CZ7        -0.0642
     15 CAL        32.5610   67.3820    2.1480 C.ar      1 CZ7        -0.0642
     16 CAM        26.7170   72.5410    6.2800 C.3       1 CZ7         0.0487
     17 CAN        31.5750   63.2490    4.5680 C.3       1 CZ7        -0.2406
     18 CAO        28.6220   71.4420    7.0800 C.2       1 CZ7         0.0337
     19 CAP        29.8280   70.7750    6.7390 C.2       1 CZ7         0.0533
     20 NAQ        31.9740   64.6460    4.7090 N.am      1 CZ7        -0.4376
     21 CAT        30.9430   69.1030    5.4870 C.2       1 CZ7         0.3154
     22 CAU        27.9020   71.0960    4.9290 C.2       1 CZ7         0.3120
     23 CAV        28.9220   70.0670    4.6850 C.2       1 CZ7         0.3319
     24 CAW        34.7890   68.0420    1.5300 C.ar      1 CZ7         0.0809
     25 CAX        32.9150   67.3900    3.5000 C.ar      1 CZ7        -0.0100
     26 BAY        32.0260   62.4760    5.8850 B         1 CZ7         3.0000
     27 NBA        27.5210   71.3750    6.1850 N.am      1 CZ7        -0.2332
     28 NBB        29.9720   70.0440    5.5260 N.am      1 CZ7        -0.1368
     29 H          30.0910   68.0455    3.9675 H         1 CZ7         0.1912
     30 H          32.4064   66.9817    5.5019 H         1 CZ7         0.0936
     31 H          24.9622   71.5098    5.6586 H         1 CZ7         0.0254
     32 H          25.2213   71.5450    7.4201 H         1 CZ7         0.0254
     33 H          24.6615   73.0080    6.5731 H         1 CZ7         0.0254
     34 H          35.2972   68.3012   -0.2960 H         1 CZ7         0.2459
     35 H          30.2906   62.5324    6.9854 H         1 CZ7        -0.1290
     36 H          33.6025   63.6579    6.4766 H         1 CZ7        -0.1290
     37 H          36.1653   68.3278    3.1596 H         1 CZ7         0.0526
     38 H          33.1999   67.6991    0.1111 H         1 CZ7         0.0526
     39 H          34.5120   67.7459    4.9133 H         1 CZ7         0.0535
     40 H          31.5433   67.1174    1.8611 H         1 CZ7         0.0535
     41 H          27.0544   73.1583    7.1126 H         1 CZ7         0.0584
     42 H          26.7969   73.1233    5.3620 H         1 CZ7         0.0584
     43 H          32.0481   62.8080    3.6907 H         1 CZ7        -0.1856
     44 H          30.4952   63.1760    4.4385 H         1 CZ7        -0.1856
     45 H          28.5421   71.9972    8.0146 H         1 CZ7         0.0671
     46 H          30.6709   70.8242    7.4283 H         1 CZ7         0.0654
     47 H          32.8579   64.8334    5.1823 H         1 CZ7         0.1458
@<TRIPOS>BOND
     1    1    3 2  
     2    4    1 1  
     3    1   20 am 
     4    2    4 1  
     5   21    2 am 
     6    4   25 1  
     7   16    5 1  
     8   21    6 2  
     9   22    7 2  
    10   23    8 2  
    11   24    9 1  
    12   26   10 1  
    13   26   11 1  
    14   14   12 ar 
    15   12   24 ar 
    16   15   13 ar 
    17   13   24 ar 
    18   25   14 ar 
    19   25   15 ar 
    20   27   16 1  
    21   20   17 1  
    22   17   26 1  
    23   18   19 2  
    24   27   18 1  
    25   19   28 1  
    26   28   21 am 
    27   22   23 1  
    28   22   27 am 
    29   23   28 am 
    30    2   29 1  
    31    4   30 1  
    32    5   31 1  
    33    5   32 1  
    34    5   33 1  
    35    9   34 1  
    36   10   35 1  
    37   11   36 1  
    38   12   37 1  
    39   13   38 1  
    40   14   39 1  
    41   15   40 1  
    42   16   41 1  
    43   16   42 1  
    44   17   43 1  
    45   17   44 1  
    46   18   45 1  
    47   19   46 1  
    48   20   47 1  
@<TRIPOS>SUBSTRUCTURE
     1 CZ7         1

