5ou1_ligand
  -I-interpret- 

 37 38  0  0  0  0  0  0  0  0999 V2000
   43.8530  162.8700   -7.0860 C   0  0  0  0  0
   44.8670  162.5110   -6.1670 N   0  0  0  0  0
   45.1000  163.0820   -4.8890 C   0  0  0  0  0
   46.1160  162.7910   -2.7370 C   0  0  0  0  0
   40.1810  161.8680   -8.8070 C   0  0  0  0  0
   39.0390  161.2940   -8.2750 C   0  0  0  0  0
   37.8410  159.4290   -5.4130 C   0  0  0  0  0
   37.9140  159.8230   -6.7650 O   0  0  0  0  0
   39.1250  160.3720   -7.2430 C   0  0  0  0  0
   40.3780  160.0110   -6.7510 C   0  0  0  0  0
   41.5330  160.5890   -7.2890 C   0  0  0  0  0
   41.4320  161.5260   -8.3200 C   0  0  0  0  0
   42.5340  162.1600   -8.9410 O   0  0  0  0  0
   43.8130  162.0700   -8.3740 C   0  0  0  0  0
   44.8050  162.5880   -9.3970 C   0  0  0  0  0
   43.0550  163.7650   -6.8700 O   0  0  0  0  0
   45.8470  162.3210   -4.0060 C   0  0  0  0  0
   45.6290  164.0250   -2.3590 C   0  0  0  0  0
   44.8780  164.7990   -3.2350 C   0  0  0  0  0
   44.6110  164.3240   -4.5100 C   0  0  0  0  0
   46.0480  164.7050   -0.4040 I   0  0  0  0  0
   45.4976  161.7622   -6.4535 H   0  0  0  0  0
   46.7063  162.1944   -2.0415 H   0  0  0  0  0
   40.0952  162.5945   -9.6151 H   0  0  0  0  0
   38.0619  161.5698   -8.6716 H   0  0  0  0  0
   38.5909  158.6623   -5.2183 H   0  0  0  0  0
   38.0275  160.2920   -4.7738 H   0  0  0  0  0
   36.8484  159.0293   -5.2055 H   0  0  0  0  0
   40.4581  159.2788   -5.9475 H   0  0  0  0  0
   42.5128  160.3078   -6.9031 H   0  0  0  0  0
   44.0684  161.0411   -8.1205 H   0  0  0  0  0
   44.7451  161.9799  -10.2996 H   0  0  0  0  0
   44.5679  163.6240   -9.6389 H   0  0  0  0  0
   45.8126  162.5312   -8.9853 H   0  0  0  0  0
   46.2243  161.3461   -4.3148 H   0  0  0  0  0
   44.5014  165.7728   -2.9221 H   0  0  0  0  0
   44.0229  164.9203   -5.2076 H   0  0  0  0  0
  1  2  1  0  0  0
 14  1  1  0  0  0
  1 16  2  0  0  0
  2  3  1  0  0  0
  3 17  4  0  0  0
  3 20  4  0  0  0
 17  4  4  0  0  0
  4 18  4  0  0  0
  5  6  4  0  0  0
 12  5  4  0  0  0
  6  9  4  0  0  0
  8  7  1  0  0  0
  9  8  1  0  0  0
 10  9  4  0  0  0
 11 10  4  0  0  0
 12 11  4  0  0  0
 13 12  1  0  0  0
 13 14  1  0  0  0
 14 15  1  0  0  0
 18 19  4  0  0  0
 18 21  1  0  0  0
 19 20  4  0  0  0
  2 22  1  0  0  0
  4 23  1  0  0  0
  5 24  1  0  0  0
  6 25  1  0  0  0
  7 26  1  0  0  0
  7 27  1  0  0  0
  7 28  1  0  0  0
 10 29  1  0  0  0
 11 30  1  0  0  0
 14 31  1  0  0  0
 15 32  1  0  0  0
 15 33  1  0  0  0
 15 34  1  0  0  0
 17 35  1  0  0  0
 19 36  1  0  0  0
 20 37  1  0  0  0
M  END
$$$$
