2r5p_ligand
  -I-interpret- 

 94 98  0  0  0  0  0  0  0  0999 V2000
   26.4360   -8.3120   -1.5830 N   0  3  0  0  0
   27.9290   -8.3930   -1.5440 C   0  0  0  0  0
   28.4980   -9.5290   -2.4010 C   0  0  0  0  0
   30.0200   -9.5050   -2.2950 C   0  0  0  0  0
   30.5500   -9.8940   -1.2470 O   0  0  0  0  0
   30.6940   -9.0480   -3.3730 N   0  0  0  0  0
   32.1510   -8.9380   -3.5100 C   0  0  0  0  0
   32.3650   -8.3490   -4.9030 C   0  0  0  0  0
   32.7860  -10.3210   -3.4480 C   0  0  0  0  0
   32.7520   -7.9740   -2.4800 C   0  0  0  0  0
   27.8750  -10.8290   -1.8520 N   0  3  0  0  0
   26.3900  -10.8170   -1.9150 C   0  0  0  0  0
   25.8920   -9.6050   -1.1300 C   0  0  0  0  0
   28.3230  -12.0320   -2.6040 C   0  0  0  0  0
   28.6030  -13.2040   -1.6400 C   0  0  0  0  0
   28.2070  -14.3830   -2.3530 O   0  0  0  0  0
   30.0940  -13.3640   -1.2560 C   0  0  0  0  0
   30.3800  -14.5220   -0.2780 C   0  0  0  0  0
   31.9030  -14.6030    0.0040 C   0  0  0  0  0
   32.2710  -15.7110    0.9750 C   0  0  0  0  0
   31.9590  -17.0730    0.7120 C   0  0  0  0  0
   32.2940  -18.0880    1.6280 C   0  0  0  0  0
   32.9530  -17.7250    2.8300 C   0  0  0  0  0
   33.2690  -16.3760    3.1010 C   0  0  0  0  0
   32.9290  -15.3610    2.1760 C   0  0  0  0  0
   29.6300  -14.3110    1.0470 C   0  0  0  0  0
   29.5680  -13.2300    1.6440 O   0  0  0  0  0
   29.0600  -15.4200    1.5200 N   0  0  0  0  0
   28.6760  -15.6000    2.8800 C   0  0  0  0  0
   28.9850  -16.9600    3.4790 C   0  0  0  0  0
   28.8000  -18.0050    2.5130 O   0  0  0  0  0
   28.0110  -17.1060    4.6180 C   0  0  0  0  0
   26.7800  -16.3380    4.1890 C   0  0  0  0  0
   25.4220  -16.3750    4.6140 C   0  0  0  0  0
   24.4970  -15.5160    4.0040 C   0  0  0  0  0
   24.8650  -14.6250    2.9830 C   0  0  0  0  0
   26.2050  -14.5930    2.5660 C   0  0  0  0  0
   27.1900  -15.4310    3.1370 C   0  0  0  0  0
   25.9490   -7.1870   -0.7530 C   0  0  0  0  0
   26.3920   -5.7760   -1.0760 C   0  0  0  0  0
   25.9800   -5.1460   -2.2680 C   0  0  0  0  0
   26.3330   -3.8390   -2.6700 N   0  0  0  0  0
   27.1670   -3.2090   -1.7210 C   0  0  0  0  0
   27.6260   -3.7530   -0.5110 C   0  0  0  0  0
   27.2300   -5.0630   -0.1810 C   0  0  0  0  0
   26.1165   -8.1296   -2.5344 H   0  0  0  0  0
   28.2215   -8.5818   -0.5111 H   0  0  0  0  0
   28.3199   -7.4553   -1.9390 H   0  0  0  0  0
   28.2588   -9.4367   -3.4604 H   0  0  0  0  0
   30.1341   -8.7495   -4.1717 H   0  0  0  0  0
   33.4337   -8.2708   -5.1028 H   0  0  0  0  0
   31.9018   -8.9985   -5.6458 H   0  0  0  0  0
   31.9117   -7.3589   -4.9510 H   0  0  0  0  0
   32.3219  -10.9663   -4.1939 H   0  0  0  0  0
   33.8538  -10.2386   -3.6509 H   0  0  0  0  0
   32.6352  -10.7445   -2.4550 H   0  0  0  0  0
   33.8176   -7.8538   -2.6753 H   0  0  0  0  0
   32.2558   -7.0065   -2.5569 H   0  0  0  0  0
   32.6083   -8.3788   -1.4782 H   0  0  0  0  0
   28.1903  -10.8743   -0.8830 H   0  0  0  0  0
   25.9881  -11.7344   -1.4849 H   0  0  0  0  0
   26.0583  -10.7557   -2.9515 H   0  0  0  0  0
   24.8116   -9.5602   -1.2671 H   0  0  0  0  0
   26.2148   -9.7410   -0.0978 H   0  0  0  0  0
   29.2401  -11.7906   -3.1414 H   0  0  0  0  0
   27.5364  -12.3269   -3.2985 H   0  0  0  0  0
   28.0645  -13.0269   -0.7090 H   0  0  0  0  0
   28.3577  -15.1546   -1.8020 H   0  0  0  0  0
   30.3964  -12.4428   -0.7579 H   0  0  0  0  0
   30.6394  -13.5795   -2.1748 H   0  0  0  0  0
   30.0370  -15.4510   -0.7335 H   0  0  0  0  0
   32.2079  -13.6566    0.4505 H   0  0  0  0  0
   32.4042  -14.8110   -0.9413 H   0  0  0  0  0
   31.4511  -17.3360   -0.2159 H   0  0  0  0  0
   32.0522  -19.1299    1.4180 H   0  0  0  0  0
   33.2186  -18.4963    3.5529 H   0  0  0  0  0
   33.7781  -16.1149    4.0287 H   0  0  0  0  0
   33.1720  -14.3197    2.3873 H   0  0  0  0  0
   28.8886  -16.1858    0.8685 H   0  0  0  0  0
   29.2772  -14.8181    3.3440 H   0  0  0  0  0
   30.0213  -17.0350    3.8085 H   0  0  0  0  0
   29.0016  -18.8521    2.9171 H   0  0  0  0  0
   28.4218  -16.7185    5.5503 H   0  0  0  0  0
   27.7819  -18.1525    4.8193 H   0  0  0  0  0
   25.1064  -17.0600    5.4009 H   0  0  0  0  0
   23.4582  -15.5406    4.3331 H   0  0  0  0  0
   24.1244  -13.9708    2.5231 H   0  0  0  0  0
   26.4954  -13.8997    1.7766 H   0  0  0  0  0
   26.3510   -7.3824    0.2411 H   0  0  0  0  0
   24.8695   -7.1793   -0.9035 H   0  0  0  0  0
   25.3342   -5.7160   -2.9360 H   0  0  0  0  0
   27.4883   -2.1934   -1.9521 H   0  0  0  0  0
   28.2704   -3.1777    0.1538 H   0  0  0  0  0
   27.5628   -5.5230    0.7495 H   0  0  0  0  0
  1  2  1  0  0  0
  1 13  1  0  0  0
  1 39  1  0  0  0
  2  3  1  0  0  0
  3  4  1  0  0  0
  3 11  1  0  0  0
  4  5  2  0  0  0
  4  6  1  0  0  0
  6  7  1  0  0  0
  7  8  1  0  0  0
  7  9  1  0  0  0
  7 10  1  0  0  0
 11 12  1  0  0  0
 11 14  1  0  0  0
 12 13  1  0  0  0
 14 15  1  0  0  0
 15 16  1  0  0  0
 15 17  1  0  0  0
 17 18  1  0  0  0
 18 19  1  0  0  0
 18 26  1  0  0  0
 19 20  1  0  0  0
 20 21  4  0  0  0
 20 25  4  0  0  0
 21 22  4  0  0  0
 22 23  4  0  0  0
 23 24  4  0  0  0
 24 25  4  0  0  0
 26 27  2  0  0  0
 26 28  1  0  0  0
 28 29  1  0  0  0
 29 30  1  0  0  0
 29 38  1  0  0  0
 30 31  1  0  0  0
 30 32  1  0  0  0
 32 33  1  0  0  0
 33 34  4  0  0  0
 33 38  4  0  0  0
 34 35  4  0  0  0
 35 36  4  0  0  0
 36 37  4  0  0  0
 37 38  4  0  0  0
 39 40  1  0  0  0
 40 41  4  0  0  0
 40 45  4  0  0  0
 41 42  4  0  0  0
 42 43  4  0  0  0
 43 44  4  0  0  0
 44 45  4  0  0  0
  1 46  1  0  0  0
  2 47  1  0  0  0
  2 48  1  0  0  0
  3 49  1  0  0  0
  6 50  1  0  0  0
  8 51  1  0  0  0
  8 52  1  0  0  0
  8 53  1  0  0  0
  9 54  1  0  0  0
  9 55  1  0  0  0
  9 56  1  0  0  0
 10 57  1  0  0  0
 10 58  1  0  0  0
 10 59  1  0  0  0
 11 60  1  0  0  0
 12 61  1  0  0  0
 12 62  1  0  0  0
 13 63  1  0  0  0
 13 64  1  0  0  0
 14 65  1  0  0  0
 14 66  1  0  0  0
 15 67  1  0  0  0
 16 68  1  0  0  0
 17 69  1  0  0  0
 17 70  1  0  0  0
 18 71  1  0  0  0
 19 72  1  0  0  0
 19 73  1  0  0  0
 21 74  1  0  0  0
 22 75  1  0  0  0
 23 76  1  0  0  0
 24 77  1  0  0  0
 25 78  1  0  0  0
 28 79  1  0  0  0
 29 80  1  0  0  0
 30 81  1  0  0  0
 31 82  1  0  0  0
 32 83  1  0  0  0
 32 84  1  0  0  0
 34 85  1  0  0  0
 35 86  1  0  0  0
 36 87  1  0  0  0
 37 88  1  0  0  0
 39 89  1  0  0  0
 39 90  1  0  0  0
 41 91  1  0  0  0
 43 92  1  0  0  0
 44 93  1  0  0  0
 45 94  1  0  0  0
M  END
$$$$
