4ohk_ligand
  -I-interpret- 

 64 66  0  0  0  0  0  0  0  0999 V2000
   32.5670  -22.6240  -23.7370 C   0  0  0  0  0
   33.2670  -22.1560  -22.4730 C   0  0  0  0  0
   34.3570  -22.0220  -21.7910 C   0  0  0  0  0
   35.5750  -21.9810  -20.9990 C   0  0  0  0  0
   35.6770  -20.6220  -20.3950 C   0  0  0  0  0
   35.8020  -19.5640  -21.4490 C   0  0  0  0  0
   36.8870  -19.7930  -22.1980 F   0  0  0  0  0
   34.7160  -19.5470  -22.2340 F   0  0  0  0  0
   35.8280  -18.4590  -20.7200 F   0  0  0  0  0
   34.4860  -20.4050  -19.6450 O   0  0  0  0  0
   36.8450  -20.7880  -19.4650 C   0  0  0  0  0
   38.0120  -21.3970  -19.9240 C   0  0  0  0  0
   39.0780  -21.6260  -19.0510 C   0  0  0  0  0
   36.7140  -20.4450  -18.1450 C   0  0  0  0  0
   37.7800  -20.6680  -17.2670 C   0  0  0  0  0
   38.9720  -21.2440  -17.7000 C   0  0  0  0  0
   39.9990  -21.5060  -16.7930 N   0  0  0  0  0
   39.9390  -20.9340  -15.4830 C   0  0  0  0  0
   41.3080  -21.0380  -14.7810 C   0  0  0  0  0
   38.9710  -21.7760  -14.7850 C   0  0  0  0  0
   38.2580  -22.6200  -14.2730 C   0  0  0  0  0
   37.3960  -23.6460  -13.7250 C   0  0  0  0  0
   40.8850  -22.6980  -17.0100 C   0  0  0  0  0
   42.1910  -22.6540  -16.2090 C   0  0  0  0  0
   41.8350  -22.3950  -14.8280 N   0  0  0  0  0
   43.1990  -22.4230  -14.0740 S   0  0  0  0  0
   42.9190  -22.5030  -12.6190 O   0  0  0  0  0
   43.9370  -23.6190  -14.5400 O   0  0  0  0  0
   44.1370  -20.9700  -14.4280 C   0  0  0  0  0
   45.1020  -20.9860  -15.4410 C   0  0  0  0  0
   45.8110  -19.8170  -15.7250 C   0  0  0  0  0
   45.5240  -18.6740  -14.9900 C   0  0  0  0  0
   46.1810  -17.5650  -15.2490 N   0  0  0  0  0
   44.6130  -18.6810  -13.9940 N   0  0  0  0  0
   43.9230  -19.7790  -13.7090 C   0  0  0  0  0
   32.9828  -22.0987  -24.5968 H   0  0  0  0  0
   32.7169  -23.6969  -23.8578 H   0  0  0  0  0
   31.5007  -22.4112  -23.6603 H   0  0  0  0  0
   32.9017  -22.9879  -21.8708 H   0  0  0  0  0
   33.2156  -21.1013  -22.7431 H   0  0  0  0  0
   33.7754  -21.7371  -20.9143 H   0  0  0  0  0
   34.9442  -22.2247  -22.6866 H   0  0  0  0  0
   36.4428  -22.1833  -21.6268 H   0  0  0  0  0
   35.5461  -22.7417  -20.2189 H   0  0  0  0  0
   33.7451  -20.3000  -20.2464 H   0  0  0  0  0
   38.0930  -21.6959  -20.9691 H   0  0  0  0  0
   39.9899  -22.0994  -19.4148 H   0  0  0  0  0
   35.7867  -20.0019  -17.7819 H   0  0  0  0  0
   37.6754  -20.3844  -16.2197 H   0  0  0  0  0
   39.6689  -19.8781  -15.5007 H   0  0  0  0  0
   41.1809  -20.7547  -13.7362 H   0  0  0  0  0
   42.0084  -20.3793  -15.2944 H   0  0  0  0  0
   36.3842  -23.5110  -14.1073 H   0  0  0  0  0
   37.7689  -24.6272  -14.0189 H   0  0  0  0  0
   37.3882  -23.5696  -12.6377 H   0  0  0  0  0
   41.1527  -22.7153  -18.0665 H   0  0  0  0  0
   40.3319  -23.5776  -16.6808 H   0  0  0  0  0
   42.8498  -21.8734  -16.5895 H   0  0  0  0  0
   42.7287  -23.5980  -16.2973 H   0  0  0  0  0
   45.2980  -21.8999  -16.0017 H   0  0  0  0  0
   46.5719  -19.8019  -16.5053 H   0  0  0  0  0
   46.8907  -17.5519  -15.9815 H   0  0  0  0  0
   45.9810  -16.7177  -14.7174 H   0  0  0  0  0
   43.1826  -19.7579  -12.9093 H   0  0  0  0  0
  1  2  1  0  0  0
  2  3  1  0  0  0
  3  4  1  0  0  0
  4  5  1  0  0  0
  5  6  1  0  0  0
  5 10  1  0  0  0
  5 11  1  0  0  0
  6  7  1  0  0  0
  6  8  1  0  0  0
  6  9  1  0  0  0
 11 12  4  0  0  0
 11 14  4  0  0  0
 12 13  4  0  0  0
 13 16  4  0  0  0
 14 15  4  0  0  0
 15 16  4  0  0  0
 16 17  1  0  0  0
 17 18  1  0  0  0
 17 23  1  0  0  0
 18 19  1  0  0  0
 18 20  1  0  0  0
 19 25  1  0  0  0
 20 21  3  0  0  0
 21 22  1  0  0  0
 23 24  1  0  0  0
 24 25  1  0  0  0
 25 26  1  0  0  0
 26 27  2  0  0  0
 26 28  2  0  0  0
 26 29  1  0  0  0
 29 30  4  0  0  0
 29 35  4  0  0  0
 30 31  4  0  0  0
 31 32  4  0  0  0
 32 33  1  0  0  0
 32 34  4  0  0  0
 34 35  4  0  0  0
  1 36  1  0  0  0
  1 37  1  0  0  0
  1 38  1  0  0  0
  2 39  1  0  0  0
  2 40  1  0  0  0
  3 41  1  0  0  0
  3 42  1  0  0  0
  4 43  1  0  0  0
  4 44  1  0  0  0
 10 45  1  0  0  0
 12 46  1  0  0  0
 13 47  1  0  0  0
 14 48  1  0  0  0
 15 49  1  0  0  0
 18 50  1  0  0  0
 19 51  1  0  0  0
 19 52  1  0  0  0
 22 53  1  0  0  0
 22 54  1  0  0  0
 22 55  1  0  0  0
 23 56  1  0  0  0
 23 57  1  0  0  0
 24 58  1  0  0  0
 24 59  1  0  0  0
 30 60  1  0  0  0
 31 61  1  0  0  0
 33 62  1  0  0  0
 33 63  1  0  0  0
 35 64  1  0  0  0
M  END
$$$$
