### 
### Created by X-TOOL on Mon Sep 10 21:13:34 2018
### 

@<TRIPOS>MOLECULE
5mlw_ligand
  189   189     1     0     0
SMALL
GAST_HUCK


@<TRIPOS>ATOM
      1 N          -6.5420  -16.0310    0.9850 N.4       1 GLY         0.2357
      2 CA         -7.4210  -15.3500    1.9900 C.3       1 GLY         0.0545
      3 C          -7.3800  -16.0230    3.3510 C.2       1 GLY         0.2237
      4 O          -6.2960  -16.2400    3.9030 O.2       1 GLY        -0.3910
      5 N          -8.5670  -16.2790    3.9110 N.am      1 SER        -0.2591
      6 CA         -8.7720  -17.2460    5.0020 C.3       1 SER         0.1540
      7 C          -9.5270  -18.5110    4.5390 C.2       1 SER         0.2063
      8 O         -10.3620  -18.4470    3.6370 O.2       1 SER        -0.3943
      9 CB         -9.5690  -16.5780    6.1230 C.3       1 SER         0.0843
     10 OG         -9.0100  -15.3220    6.5030 O.3       1 SER        -0.3903
     11 N          -9.2350  -19.6500    5.1740 N.am      1 ASP        -0.2621
     12 CA         -9.9340  -20.9230    4.9050 C.3       1 ASP         0.1423
     13 C          -9.7110  -21.9000    6.0620 C.2       1 ASP         0.2056
     14 O          -8.5890  -22.2950    6.3430 O.2       1 ASP        -0.3943
     15 CB         -9.4620  -21.5630    3.5900 C.3       1 ASP         0.0406
     16 CG        -10.1480  -22.9090    3.2940 C.2       1 ASP         0.0393
     17 OD1       -11.0000  -23.3570    4.0890 O.co2     1 ASP        -0.5688
     18 OD2        -9.8240  -23.5320    2.2590 O.co2     1 ASP        -0.5688
     19 N         -10.8010  -22.3270    6.6850 N.am      1 ILE        -0.2634
     20 CA        -10.7440  -23.1560    7.8930 C.3       1 ILE         0.1335
     21 C         -10.8840  -24.6670    7.6210 C.2       1 ILE         0.2042
     22 O         -10.6900  -25.4710    8.5200 O.2       1 ILE        -0.3944
     23 CB        -11.8390  -22.7210    8.8900 C.3       1 ILE        -0.0037
     24 CG1       -11.5470  -23.2660   10.2760 C.3       1 ILE        -0.0491
     25 CG2       -13.2200  -23.1680    8.4160 C.3       1 ILE        -0.0582
     26 CD1       -12.0870  -22.4120   11.4020 C.3       1 ILE        -0.0648
     27 N         -11.2370  -25.0420    6.3960 N.am      1 THR        -0.2613
     28 CA        -11.5130  -26.4390    6.0590 C.3       1 THR         0.1565
     29 C         -10.2930  -27.3360    6.3230 C.2       1 THR         0.2065
     30 O         -10.3550  -28.2590    7.1370 O.2       1 THR        -0.3943
     31 CB        -11.9460  -26.5720    4.5880 C.3       1 THR         0.0924
     32 OG1       -10.9950  -25.9040    3.7430 O.3       1 THR        -0.3874
     33 CG2       -13.3120  -25.9410    4.3940 C.3       1 THR        -0.0346
     34 N          -9.1590  -26.9500    5.7510 N.am      1 ARG        -0.2636
     35 CA         -7.8780  -27.5990    6.0040 C.3       1 ARG         0.1311
     36 C          -7.6110  -27.9640    7.4670 C.2       1 ARG         0.2040
     37 O          -6.7760  -28.8210    7.7270 O.2       1 ARG        -0.3944
     38 CB         -6.7220  -26.7440    5.4650 C.3       1 ARG        -0.0092
     39 CG         -6.2660  -25.6000    6.3620 C.3       1 ARG        -0.0156
     40 CD         -5.0010  -24.9450    5.8160 C.3       1 ARG         0.0627
     41 NE         -4.7400  -23.6540    6.4530 N.pl3     1 ARG        -0.2723
     42 CZ         -5.3270  -22.5100    6.0950 C.cat     1 ARG         0.2882
     43 NH1        -6.2220  -22.4820    5.1100 N.pl3     1 ARG        -0.2849
     44 NH2        -5.0340  -21.3840    6.7350 N.pl3     1 ARG        -0.2849
     45 N          -8.2950  -27.3320    8.4200 N.am      1 PHE        -0.2619
     46 CA         -8.1070  -27.6630    9.8470 C.3       1 PHE         0.1404
     47 C          -9.1570  -28.6290   10.3920 C.2       1 PHE         0.2060
     48 O          -9.1350  -28.9820   11.5830 O.2       1 PHE        -0.3942
     49 CB         -8.1210  -26.3920   10.7070 C.3       1 PHE         0.0214
     50 CG         -7.0000  -25.4360   10.4060 C.ar      1 PHE        -0.0386
     51 CD1        -5.7440  -25.6040   10.9990 C.ar      1 PHE        -0.0601
     52 CD2        -7.2040  -24.3420    9.5670 C.ar      1 PHE        -0.0601
     53 CE1        -4.7100  -24.7150   10.7370 C.ar      1 PHE        -0.0686
     54 CE2        -6.1740  -23.4460    9.3150 C.ar      1 PHE        -0.0686
     55 CZ         -4.9240  -23.6380    9.8940 C.ar      1 PHE        -0.0687
     56 N         -10.0910  -29.0440    9.5480 N.am      1 LEU        -0.2636
     57 CA        -11.2440  -29.8310   10.0140 C.3       1 LEU         0.1312
     58 C         -10.9780  -31.3430   10.1530 C.2       1 LEU         0.2039
     59 O         -10.5280  -32.0060    9.2140 O.2       1 LEU        -0.3944
     60 CB        -12.4410  -29.6210    9.0800 C.3       1 LEU        -0.0101
     61 CG        -13.0900  -28.2350    9.0740 C.3       1 LEU        -0.0425
     62 CD1       -14.2380  -28.2220    8.0800 C.3       1 LEU        -0.0625
     63 CD2       -13.5750  -27.8540   10.4620 C.3       1 LEU        -0.0625
     64 N         -11.3630  -31.8750   11.3070 N.am      1 VAL        -0.2635
     65 CA        -11.2360  -33.2920   11.6340 C.3       1 VAL         0.1332
     66 C         -12.6270  -33.9370   11.6670 C.2       1 VAL         0.2041
     67 O         -13.5520  -33.4120   12.2900 O.2       1 VAL        -0.3944
     68 CB        -10.4970  -33.4600   12.9910 C.3       1 VAL        -0.0063
     69 CG1       -11.2190  -34.4060   13.9450 C.3       1 VAL        -0.0584
     70 CG2        -9.0610  -33.9090   12.7580 C.3       1 VAL        -0.0584
     71 N         -12.7570  -35.0850   11.0040 N.am      1 LYS        -0.2637
     72 CA        -14.0440  -35.7870   10.8800 C.3       1 LYS         0.1309
     73 C         -14.4170  -36.4700   12.1900 C.2       1 LYS         0.2033
     74 O         -14.1410  -37.6470   12.3840 O.2       1 LYS        -0.3944
     75 CB        -13.9860  -36.8170    9.7410 C.3       1 LYS        -0.0122
     76 CG        -13.8980  -36.1860    8.3580 C.3       1 LYS        -0.0440
     77 CD        -13.1090  -37.0220    7.3640 C.3       1 LYS        -0.0124
     78 CE        -12.7720  -36.1990    6.1300 C.3       1 LYS        -0.0354
     79 NZ        -11.9200  -36.9460    5.1660 N.4       1 LYS         0.2185
     80 N         -15.0490  -35.7180   13.0820 N.am      1 LYS        -0.2695
     81 CA        -15.2400  -36.1470   14.4710 C.3       1 LYS         0.0944
     82 C         -16.0960  -35.1010   15.1950 C.2       1 LYS         0.0601
     83 O         -17.0110  -35.4430   15.9490 O.co2     1 LYS        -0.5666
     84 CB        -13.8740  -36.3190   15.1610 C.3       1 LYS        -0.0177
     85 CG        -13.9130  -36.7060   16.6380 C.3       1 LYS        -0.0446
     86 CD        -12.6270  -36.3000   17.3570 C.3       1 LYS        -0.0125
     87 CE        -12.7930  -36.2730   18.8710 C.3       1 LYS        -0.0354
     88 NZ        -12.6950  -37.6290   19.4790 N.4       1 LYS         0.2185
     89 OXT       -15.8880  -33.8950   15.0390 O.co2     1 LYS        -0.5666
     90 H1         -6.6043  -15.5482    0.1023 H         1 GLY         0.2012
     91 H2         -6.8429  -16.9858    0.8677 H         1 GLY         0.2012
     92 H3         -5.5876  -16.0169    1.3090 H         1 GLY         0.2012
     93 H4         -8.4569  -15.3654    1.6202 H         1 GLY         0.1061
     94 H5         -7.0870  -14.3079    2.1018 H         1 GLY         0.1061
     95 H6         -9.3646  -15.7831    3.5676 H         1 SER         0.1885
     96 H7         -7.7876  -17.5485    5.3887 H         1 SER         0.0823
     97 H8         -9.5751  -17.2432    6.9990 H         1 SER         0.0606
     98 H9        -10.6009  -16.4171    5.7775 H         1 SER         0.0606
     99 H10        -9.0063  -14.7385    5.7533 H         1 SER         0.2097
    100 H11        -8.5101  -19.6400    5.8628 H         1 ASP         0.1884
    101 H12       -11.0109  -20.7146    4.8222 H         1 ASP         0.0819
    102 H13        -8.3764  -21.7293    3.6513 H         1 ASP         0.0478
    103 H14        -9.6808  -20.8695    2.7647 H         1 ASP         0.0478
    104 H15       -11.6957  -22.0740    6.3170 H         1 ILE         0.1883
    105 H16        -9.7623  -22.9903    8.3608 H         1 ILE         0.0803
    106 H17       -11.8351  -21.6224    8.9449 H         1 ILE         0.0345
    107 H18       -10.4561  -23.3436   10.3939 H         1 ILE         0.0267
    108 H19       -11.9965  -24.2668   10.3554 H         1 ILE         0.0267
    109 H20       -13.4116  -22.7631    7.4114 H         1 ILE         0.0235
    110 H21       -13.9852  -22.7961    9.1133 H         1 ILE         0.0235
    111 H22       -13.2581  -24.2668    8.3818 H         1 ILE         0.0235
    112 H23       -11.8337  -22.8749   12.3672 H         1 ILE         0.0230
    113 H24       -13.1802  -22.3317   11.3096 H         1 ILE         0.0230
    114 H25       -11.6398  -21.4085   11.3481 H         1 ILE         0.0230
    115 H26       -11.3166  -24.3471    5.6813 H         1 THR         0.1884
    116 H27       -12.3396  -26.7858    6.6966 H         1 THR         0.0826
    117 H28       -11.9930  -27.6371    4.3170 H         1 THR         0.0639
    118 H29       -10.9546  -24.9846    3.9787 H         1 THR         0.2101
    119 H30       -13.6152  -26.0395    3.3412 H         1 THR         0.0257
    120 H31       -13.2655  -24.8757    4.6640 H         1 THR         0.0257
    121 H32       -14.0457  -26.4503    5.0360 H         1 THR         0.0257
    122 H33        -9.1845  -26.1775    5.1165 H         1 ARG         0.1883
    123 H34        -7.8871  -28.5424    5.4384 H         1 ARG         0.0800
    124 H35        -7.0410  -26.3127    4.5047 H         1 ARG         0.0313
    125 H36        -5.8602  -27.4075    5.3007 H         1 ARG         0.0313
    126 H37        -6.0614  -25.9926    7.3690 H         1 ARG         0.0301
    127 H38        -7.0654  -24.8465    6.4177 H         1 ARG         0.0301
    128 H39        -5.1187  -24.7906    4.7333 H         1 ARG         0.0689
    129 H40        -4.1463  -25.6124    6.0004 H         1 ARG         0.0689
    130 H41        -4.0604  -23.6262    7.2265 H         1 ARG         0.2642
    131 H42        -6.6674  -21.5922    4.8440 H         1 ARG         0.2615
    132 H43        -6.4691  -23.3502    4.6139 H         1 ARG         0.2615
    133 H44        -4.3434  -21.3907    7.4992 H         1 ARG         0.2615
    134 H45        -5.4973  -20.5039    6.4672 H         1 ARG         0.2615
    135 H46        -8.9484  -26.6196    8.1640 H         1 PHE         0.1885
    136 H47        -7.1217  -28.1415    9.9483 H         1 PHE         0.0823
    137 H48        -8.0478  -26.6888   11.7637 H         1 PHE         0.0474
    138 H49        -9.0747  -25.8706   10.5378 H         1 PHE         0.0474
    139 H50        -5.5761  -26.4379   11.6709 H         1 PHE         0.0557
    140 H51        -8.1741  -24.1896    9.1078 H         1 PHE         0.0557
    141 H52        -3.7373  -24.8640   11.1916 H         1 PHE         0.0599
    142 H53        -6.3443  -22.5949    8.6656 H         1 PHE         0.0599
    143 H54        -4.1175  -22.9444    9.6852 H         1 PHE         0.0559
    144 H55       -10.0108  -28.8183    8.5771 H         1 LEU         0.1883
    145 H56       -11.5135  -29.4518   11.0108 H         1 LEU         0.0800
    146 H57       -13.2156  -30.3476    9.3665 H         1 LEU         0.0315
    147 H58       -12.1017  -29.8317    8.0551 H         1 LEU         0.0315
    148 H59       -12.3394  -27.4969    8.7550 H         1 LEU         0.0298
    149 H60       -14.7063  -27.2267    8.0737 H         1 LEU         0.0232
    150 H61       -14.9838  -28.9763    8.3713 H         1 LEU         0.0232
    151 H62       -13.8555  -28.4535    7.0750 H         1 LEU         0.0232
    152 H63       -12.7280  -27.8702   11.1636 H         1 LEU         0.0232
    153 H64       -14.3393  -28.5723   10.7934 H         1 LEU         0.0232
    154 H65       -14.0089  -26.8436   10.4343 H         1 LEU         0.0232
    155 H66       -11.7641  -31.2685   11.9935 H         1 VAL         0.1883
    156 H67       -10.6410  -33.7849   10.8510 H         1 VAL         0.0802
    157 H68       -10.4655  -32.4718   13.4731 H         1 VAL         0.0343
    158 H69       -10.6508  -34.4842   14.8836 H         1 VAL         0.0234
    159 H70       -11.3016  -35.4006   13.4825 H         1 VAL         0.0234
    160 H71       -12.2252  -34.0155   14.1570 H         1 VAL         0.0234
    161 H72        -8.5657  -33.2101   12.0679 H         1 VAL         0.0234
    162 H73        -9.0587  -34.9187   12.3215 H         1 VAL         0.0234
    163 H74        -8.5210  -33.9226   13.7162 H         1 VAL         0.0234
    164 H75       -11.9480  -35.4854   10.5736 H         1 LYS         0.1883
    165 H76       -14.8212  -35.0462   10.6409 H         1 LYS         0.0800
    166 H77       -14.8941  -37.4362    9.7844 H         1 LYS         0.0312
    167 H78       -13.1011  -37.4529    9.8909 H         1 LYS         0.0312
    168 H79       -13.4107  -35.2044    8.4526 H         1 LYS         0.0269
    169 H80       -14.9185  -36.0529    7.9695 H         1 LYS         0.0269
    170 H81       -13.7101  -37.8935    7.0655 H         1 LYS         0.0317
    171 H82       -12.1768  -37.3642    7.8373 H         1 LYS         0.0317
    172 H83       -12.2361  -35.2918    6.4458 H         1 LYS         0.0813
    173 H84       -13.7086  -35.9155    5.6277 H         1 LYS         0.0813
    174 H85       -11.7241  -36.3620    4.3681 H         1 LYS         0.1994
    175 H86       -12.4040  -37.7768    4.8635 H         1 LYS         0.1994
    176 H87       -11.0546  -37.2053    5.6132 H         1 LYS         0.1994
    177 H88       -15.4071  -34.8288   12.7974 H         1 LYS         0.1875
    178 H89       -15.7669  -37.1125   14.4833 H         1 LYS         0.0726
    179 H90       -13.3324  -35.3652   15.0774 H         1 LYS         0.0305
    180 H91       -13.3214  -37.1029   14.6224 H         1 LYS         0.0305
    181 H92       -14.0390  -37.7958   16.7189 H         1 LYS         0.0269
    182 H93       -14.7650  -36.2018   17.1174 H         1 LYS         0.0269
    183 H94       -12.3330  -35.2964   17.0158 H         1 LYS         0.0317
    184 H95       -11.8363  -37.0206   17.1010 H         1 LYS         0.0317
    185 H96       -13.7795  -35.8494   19.1104 H         1 LYS         0.0813
    186 H97       -12.0062  -35.6358   19.3010 H         1 LYS         0.0813
    187 H98       -12.8109  -37.5585   20.4778 H         1 LYS         0.1994
    188 H99       -11.7914  -38.0252   19.2727 H         1 LYS         0.1994
    189 H100      -13.4164  -38.2210   19.0981 H         1 LYS         0.1994
@<TRIPOS>BOND
     1    1    2 1  
     2    2    3 1  
     3    3    4 2  
     4    3    5 am 
     5    5    6 1  
     6    6    7 1  
     7    6    9 1  
     8    7    8 2  
     9    7   11 am 
    10    9   10 1  
    11   11   12 1  
    12   12   13 1  
    13   12   15 1  
    14   13   14 2  
    15   13   19 am 
    16   15   16 1  
    17   16   17 ar 
    18   16   18 ar 
    19   19   20 1  
    20   20   21 1  
    21   20   23 1  
    22   21   22 2  
    23   21   27 am 
    24   23   24 1  
    25   23   25 1  
    26   24   26 1  
    27   27   28 1  
    28   28   29 1  
    29   28   31 1  
    30   29   30 2  
    31   29   34 am 
    32   31   32 1  
    33   31   33 1  
    34   34   35 1  
    35   35   36 1  
    36   35   38 1  
    37   36   37 2  
    38   36   45 am 
    39   38   39 1  
    40   39   40 1  
    41   40   41 1  
    42   41   42 ar 
    43   42   43 ar 
    44   42   44 ar 
    45   45   46 1  
    46   46   47 1  
    47   46   49 1  
    48   47   48 2  
    49   47   56 am 
    50   49   50 1  
    51   50   51 ar 
    52   50   52 ar 
    53   51   53 ar 
    54   52   54 ar 
    55   53   55 ar 
    56   54   55 ar 
    57   56   57 1  
    58   57   58 1  
    59   57   60 1  
    60   58   59 2  
    61   58   64 am 
    62   60   61 1  
    63   61   62 1  
    64   61   63 1  
    65   64   65 1  
    66   65   66 1  
    67   65   68 1  
    68   66   67 2  
    69   66   71 am 
    70   68   69 1  
    71   68   70 1  
    72   71   72 1  
    73   72   73 1  
    74   72   75 1  
    75   73   74 2  
    76   73   80 am 
    77   75   76 1  
    78   76   77 1  
    79   77   78 1  
    80   78   79 1  
    81   80   81 1  
    82   81   82 1  
    83   81   84 1  
    84   82   83 ar 
    85   82   89 ar 
    86   84   85 1  
    87   85   86 1  
    88   86   87 1  
    89   87   88 1  
    90    1   90 1  
    91    1   91 1  
    92    1   92 1  
    93    2   93 1  
    94    2   94 1  
    95    5   95 1  
    96    6   96 1  
    97    9   97 1  
    98    9   98 1  
    99   10   99 1  
   100   11  100 1  
   101   12  101 1  
   102   15  102 1  
   103   15  103 1  
   104   19  104 1  
   105   20  105 1  
   106   23  106 1  
   107   24  107 1  
   108   24  108 1  
   109   25  109 1  
   110   25  110 1  
   111   25  111 1  
   112   26  112 1  
   113   26  113 1  
   114   26  114 1  
   115   27  115 1  
   116   28  116 1  
   117   31  117 1  
   118   32  118 1  
   119   33  119 1  
   120   33  120 1  
   121   33  121 1  
   122   34  122 1  
   123   35  123 1  
   124   38  124 1  
   125   38  125 1  
   126   39  126 1  
   127   39  127 1  
   128   40  128 1  
   129   40  129 1  
   130   41  130 1  
   131   43  131 1  
   132   43  132 1  
   133   44  133 1  
   134   44  134 1  
   135   45  135 1  
   136   46  136 1  
   137   49  137 1  
   138   49  138 1  
   139   51  139 1  
   140   52  140 1  
   141   53  141 1  
   142   54  142 1  
   143   55  143 1  
   144   56  144 1  
   145   57  145 1  
   146   60  146 1  
   147   60  147 1  
   148   61  148 1  
   149   62  149 1  
   150   62  150 1  
   151   62  151 1  
   152   63  152 1  
   153   63  153 1  
   154   63  154 1  
   155   64  155 1  
   156   65  156 1  
   157   68  157 1  
   158   69  158 1  
   159   69  159 1  
   160   69  160 1  
   161   70  161 1  
   162   70  162 1  
   163   70  163 1  
   164   71  164 1  
   165   72  165 1  
   166   75  166 1  
   167   75  167 1  
   168   76  168 1  
   169   76  169 1  
   170   77  170 1  
   171   77  171 1  
   172   78  172 1  
   173   78  173 1  
   174   79  174 1  
   175   79  175 1  
   176   79  176 1  
   177   80  177 1  
   178   81  178 1  
   179   84  179 1  
   180   84  180 1  
   181   85  181 1  
   182   85  182 1  
   183   86  183 1  
   184   86  184 1  
   185   87  185 1  
   186   87  186 1  
   187   88  187 1  
   188   88  188 1  
   189   88  189 1  
@<TRIPOS>SUBSTRUCTURE
     1 GLY         1

