5mlw_ligand
  -I-interpret- 

190190  0  0  0  0  0  0  0  0999 V2000
   -6.5420  -16.0310    0.9850 N   0  3  0  0  0
   -7.4210  -15.3500    1.9900 C   0  0  0  0  0
   -7.3800  -16.0230    3.3510 C   0  0  0  0  0
   -6.2960  -16.2400    3.9030 O   0  0  0  0  0
   -8.5670  -16.2790    3.9110 N   0  0  0  0  0
   -8.7720  -17.2460    5.0020 C   0  0  0  0  0
   -9.5270  -18.5110    4.5390 C   0  0  0  0  0
  -10.3620  -18.4470    3.6370 O   0  0  0  0  0
   -9.5690  -16.5780    6.1230 C   0  0  0  0  0
   -9.0100  -15.3220    6.5030 O   0  0  0  0  0
   -9.2350  -19.6500    5.1740 N   0  0  0  0  0
   -9.9340  -20.9230    4.9050 C   0  0  0  0  0
   -9.7110  -21.9000    6.0620 C   0  0  0  0  0
   -8.5890  -22.2950    6.3430 O   0  0  0  0  0
   -9.4620  -21.5630    3.5900 C   0  0  0  0  0
  -10.1480  -22.9090    3.2940 C   0  0  0  0  0
  -11.0000  -23.3570    4.0890 O   0  0  0  0  0
   -9.8240  -23.5320    2.2590 O   0  0  0  0  0
  -10.8010  -22.3270    6.6850 N   0  0  0  0  0
  -10.7440  -23.1560    7.8930 C   0  0  0  0  0
  -10.8840  -24.6670    7.6210 C   0  0  0  0  0
  -10.6900  -25.4710    8.5200 O   0  0  0  0  0
  -11.8390  -22.7210    8.8900 C   0  0  0  0  0
  -11.5470  -23.2660   10.2760 C   0  0  0  0  0
  -13.2200  -23.1680    8.4160 C   0  0  0  0  0
  -12.0870  -22.4120   11.4020 C   0  0  0  0  0
  -11.2370  -25.0420    6.3960 N   0  0  0  0  0
  -11.5130  -26.4390    6.0590 C   0  0  0  0  0
  -10.2930  -27.3360    6.3230 C   0  0  0  0  0
  -10.3550  -28.2590    7.1370 O   0  0  0  0  0
  -11.9460  -26.5720    4.5880 C   0  0  0  0  0
  -10.9950  -25.9040    3.7430 O   0  0  0  0  0
  -13.3120  -25.9410    4.3940 C   0  0  0  0  0
   -9.1590  -26.9500    5.7510 N   0  0  0  0  0
   -7.8780  -27.5990    6.0040 C   0  0  0  0  0
   -7.6110  -27.9640    7.4670 C   0  0  0  0  0
   -6.7760  -28.8210    7.7270 O   0  0  0  0  0
   -6.7220  -26.7440    5.4650 C   0  0  0  0  0
   -6.2660  -25.6000    6.3620 C   0  0  0  0  0
   -5.0010  -24.9450    5.8160 C   0  0  0  0  0
   -4.7400  -23.6540    6.4530 N   0  0  0  0  0
   -5.3270  -22.5100    6.0950 C   0  0  0  0  0
   -6.2220  -22.4820    5.1100 N   0  0  0  0  0
   -5.0340  -21.3840    6.7350 N   0  0  0  0  0
   -8.2950  -27.3320    8.4200 N   0  0  0  0  0
   -8.1070  -27.6630    9.8470 C   0  0  0  0  0
   -9.1570  -28.6290   10.3920 C   0  0  0  0  0
   -9.1350  -28.9820   11.5830 O   0  0  0  0  0
   -8.1210  -26.3920   10.7070 C   0  0  0  0  0
   -7.0000  -25.4360   10.4060 C   0  0  0  0  0
   -5.7440  -25.6040   10.9990 C   0  0  0  0  0
   -7.2040  -24.3420    9.5670 C   0  0  0  0  0
   -4.7100  -24.7150   10.7370 C   0  0  0  0  0
   -6.1740  -23.4460    9.3150 C   0  0  0  0  0
   -4.9240  -23.6380    9.8940 C   0  0  0  0  0
  -10.0910  -29.0440    9.5480 N   0  0  0  0  0
  -11.2440  -29.8310   10.0140 C   0  0  0  0  0
  -10.9780  -31.3430   10.1530 C   0  0  0  0  0
  -10.5280  -32.0060    9.2140 O   0  0  0  0  0
  -12.4410  -29.6210    9.0800 C   0  0  0  0  0
  -13.0900  -28.2350    9.0740 C   0  0  0  0  0
  -14.2380  -28.2220    8.0800 C   0  0  0  0  0
  -13.5750  -27.8540   10.4620 C   0  0  0  0  0
  -11.3630  -31.8750   11.3070 N   0  0  0  0  0
  -11.2360  -33.2920   11.6340 C   0  0  0  0  0
  -12.6270  -33.9370   11.6670 C   0  0  0  0  0
  -13.5520  -33.4120   12.2900 O   0  0  0  0  0
  -10.4970  -33.4600   12.9910 C   0  0  0  0  0
  -11.2190  -34.4060   13.9450 C   0  0  0  0  0
   -9.0610  -33.9090   12.7580 C   0  0  0  0  0
  -12.7570  -35.0850   11.0040 N   0  0  0  0  0
  -14.0440  -35.7870   10.8800 C   0  0  0  0  0
  -14.4170  -36.4700   12.1900 C   0  0  0  0  0
  -14.1410  -37.6470   12.3840 O   0  0  0  0  0
  -13.9860  -36.8170    9.7410 C   0  0  0  0  0
  -13.8980  -36.1860    8.3580 C   0  0  0  0  0
  -13.1090  -37.0220    7.3640 C   0  0  0  0  0
  -12.7720  -36.1990    6.1300 C   0  0  0  0  0
  -11.9200  -36.9460    5.1660 N   0  3  0  0  0
  -15.0490  -35.7180   13.0820 N   0  0  0  0  0
  -15.2400  -36.1470   14.4710 C   0  0  0  0  0
  -16.0960  -35.1010   15.1950 C   0  0  0  0  0
  -17.0110  -35.4430   15.9490 O   0  0  0  0  0
  -13.8740  -36.3190   15.1610 C   0  0  0  0  0
  -13.9130  -36.7060   16.6380 C   0  0  0  0  0
  -12.6270  -36.3000   17.3570 C   0  0  0  0  0
  -12.7930  -36.2730   18.8710 C   0  0  0  0  0
  -12.6950  -37.6290   19.4790 N   0  3  0  0  0
  -15.8880  -33.8950   15.0390 O   0  0  0  0  0
   -6.6059  -15.5417    0.0923 H   0  0  0  0  0
   -5.5766  -16.0161    1.3140 H   0  0  0  0  0
   -6.8474  -16.9970    0.8672 H   0  0  0  0  0
   -8.4467  -15.3946    1.6240 H   0  0  0  0  0
   -7.0639  -14.3272    2.1102 H   0  0  0  0  0
   -9.3805  -15.7731    3.5607 H   0  0  0  0  0
   -7.7869  -17.5565    5.3501 H   0  0  0  0  0
   -9.5504  -17.2356    6.9921 H   0  0  0  0  0
  -10.5829  -16.4041    5.7626 H   0  0  0  0  0
   -9.5382  -14.9376    7.2065 H   0  0  0  0  0
   -8.4956  -19.6398    5.8766 H   0  0  0  0  0
  -10.9971  -20.7016    4.8105 H   0  0  0  0  0
   -8.3915  -21.7487    3.6772 H   0  0  0  0  0
   -9.7120  -20.8782    2.7796 H   0  0  0  0  0
   -9.1600  -23.0308    1.7798 H   0  0  0  0  0
  -11.7136  -22.0689    6.3096 H   0  0  0  0  0
   -9.7504  -22.9987    8.3126 H   0  0  0  0  0
  -11.8360  -21.6322    8.9403 H   0  0  0  0  0
  -10.4632  -23.2992   10.3877 H   0  0  0  0  0
  -12.0320  -24.2395   10.3485 H   0  0  0  0  0
  -13.4323  -22.7197    7.4454 H   0  0  0  0  0
  -13.2385  -24.2543    8.3278 H   0  0  0  0  0
  -13.9716  -22.8480    9.1376 H   0  0  0  0  0
  -11.6431  -21.4180   11.3474 H   0  0  0  0  0
  -13.1702  -22.3332   11.3092 H   0  0  0  0  0
  -11.8354  -22.8717   12.3578 H   0  0  0  0  0
  -11.3182  -24.3332    5.6671 H   0  0  0  0  0
  -12.3280  -26.7700    6.7027 H   0  0  0  0  0
  -11.9928  -27.6290    4.3260 H   0  0  0  0  0
  -11.2679  -25.9888    2.8265 H   0  0  0  0  0
  -14.0381  -26.4465    5.0307 H   0  0  0  0  0
  -13.2646  -24.8855    4.6619 H   0  0  0  0  0
  -13.6113  -26.0392    3.3505 H   0  0  0  0  0
   -9.1850  -26.1620    5.1038 H   0  0  0  0  0
   -7.9384  -28.5468    5.4691 H   0  0  0  0  0
   -7.0822  -26.2867    4.5435 H   0  0  0  0  0
   -5.8675  -27.4128    5.3622 H   0  0  0  0  0
   -6.0524  -25.9982    7.3539 H   0  0  0  0  0
   -7.0572  -24.8513    6.4019 H   0  0  0  0  0
   -5.1349  -24.7790    4.7471 H   0  0  0  0  0
   -4.1578  -25.6048    6.0203 H   0  0  0  0  0
   -4.0670  -23.6265    7.2190 H   0  0  0  0  0
   -6.6730  -21.6032    4.8555 H   0  0  0  0  0
   -6.4568  -23.3393    4.6097 H   0  0  0  0  0
   -4.3601  -21.3931    7.5006 H   0  0  0  0  0
   -8.9615  -26.6054    8.1589 H   0  0  0  0  0
   -7.1372  -28.1572    9.9047 H   0  0  0  0  0
   -8.0095  -26.7036   11.7455 H   0  0  0  0  0
   -9.0550  -25.8706   10.4975 H   0  0  0  0  0
   -5.5752  -26.4426   11.6746 H   0  0  0  0  0
   -8.1794  -24.1888    9.1053 H   0  0  0  0  0
   -3.7319  -24.8648   11.1941 H   0  0  0  0  0
   -6.3452  -22.5902    8.6620 H   0  0  0  0  0
   -4.1131  -22.9406    9.6840 H   0  0  0  0  0
  -10.0092  -28.8138    8.5577 H   0  0  0  0  0
  -11.4541  -29.4600   11.0172 H   0  0  0  0  0
  -13.2125  -30.3071    9.4294 H   0  0  0  0  0
  -12.0585  -29.7727    8.0706 H   0  0  0  0  0
  -12.3463  -27.4970    8.7734 H   0  0  0  0  0
  -13.8577  -28.4516    7.0846 H   0  0  0  0  0
  -14.9762  -28.9698    8.3697 H   0  0  0  0  0
  -14.7012  -27.2353    8.0747 H   0  0  0  0  0
  -14.3106  -28.5833   10.8013 H   0  0  0  0  0
  -12.7297  -27.8415   11.1501 H   0  0  0  0  0
  -14.0315  -26.8648   10.4272 H   0  0  0  0  0
  -11.7721  -31.2563   12.0072 H   0  0  0  0  0
  -10.6448  -33.7960   10.8694 H   0  0  0  0  0
  -10.4902  -32.4837   13.4756 H   0  0  0  0  0
  -12.2159  -34.0179   14.1542 H   0  0  0  0  0
  -11.3002  -35.3911   13.4855 H   0  0  0  0  0
  -10.6551  -34.4826   14.8746 H   0  0  0  0  0
   -9.0610  -34.8633   12.2314 H   0  0  0  0  0
   -8.5408  -33.1618   12.1587 H   0  0  0  0  0
   -8.5568  -34.0222   13.7177 H   0  0  0  0  0
  -11.9318  -35.4934   10.5650 H   0  0  0  0  0
  -14.8119  -35.0494   10.6467 H   0  0  0  0  0
  -14.9065  -37.3996    9.7781 H   0  0  0  0  0
  -13.0874  -37.4166    9.8861 H   0  0  0  0  0
  -13.3851  -35.2301    8.4644 H   0  0  0  0  0
  -14.9139  -36.0905    7.9746 H   0  0  0  0  0
  -13.7106  -37.8804    7.0652 H   0  0  0  0  0
  -12.1830  -37.3530    7.8342 H   0  0  0  0  0
  -12.2209  -35.3160    6.4535 H   0  0  0  0  0
  -13.7058  -35.9450    5.6285 H   0  0  0  0  0
  -11.7224  -36.3541    4.3591 H   0  0  0  0  0
  -11.0447  -37.2078    5.6196 H   0  0  0  0  0
  -12.4108  -37.7864    4.8606 H   0  0  0  0  0
  -15.4142  -34.8110   12.7917 H   0  0  0  0  0
  -15.7516  -37.1090   14.5012 H   0  0  0  0  0
  -17.0601  -36.4013   15.9766 H   0  0  0  0  0
  -13.3823  -35.3474   15.1123 H   0  0  0  0  0
  -13.3710  -37.1362   14.6440 H   0  0  0  0  0
  -14.0214  -37.7883   16.7088 H   0  0  0  0  0
  -14.7496  -36.1895   17.1085 H   0  0  0  0  0
  -12.3594  -35.2956   17.0288 H   0  0  0  0  0
  -11.8586  -37.0341   17.1147 H   0  0  0  0  0
  -13.7829  -35.8749   19.0940 H   0  0  0  0  0
  -11.9936  -35.6593   19.2863 H   0  0  0  0  0
  -12.8124  -37.5565   20.4896 H   0  0  0  0  0
  -13.4254  -38.2271   19.0927 H   0  0  0  0  0
  -11.7803  -38.0289   19.2696 H   0  0  0  0  0
  1  2  1  0  0  0
  2  3  1  0  0  0
  3  4  2  0  0  0
  3  5  1  0  0  0
  5  6  1  0  0  0
  6  7  1  0  0  0
  6  9  1  0  0  0
  7  8  2  0  0  0
  7 11  1  0  0  0
  9 10  1  0  0  0
 11 12  1  0  0  0
 12 13  1  0  0  0
 12 15  1  0  0  0
 13 14  2  0  0  0
 13 19  1  0  0  0
 15 16  1  0  0  0
 16 17  2  0  0  0
 16 18  1  0  0  0
 19 20  1  0  0  0
 20 21  1  0  0  0
 20 23  1  0  0  0
 21 22  2  0  0  0
 21 27  1  0  0  0
 23 24  1  0  0  0
 23 25  1  0  0  0
 24 26  1  0  0  0
 27 28  1  0  0  0
 28 29  1  0  0  0
 28 31  1  0  0  0
 29 30  2  0  0  0
 29 34  1  0  0  0
 31 32  1  0  0  0
 31 33  1  0  0  0
 34 35  1  0  0  0
 35 36  1  0  0  0
 35 38  1  0  0  0
 36 37  2  0  0  0
 36 45  1  0  0  0
 38 39  1  0  0  0
 39 40  1  0  0  0
 40 41  1  0  0  0
 41 42  1  0  0  0
 42 43  1  0  0  0
 42 44  2  0  0  0
 45 46  1  0  0  0
 46 47  1  0  0  0
 46 49  1  0  0  0
 47 48  2  0  0  0
 47 56  1  0  0  0
 49 50  1  0  0  0
 50 51  4  0  0  0
 50 52  4  0  0  0
 51 53  4  0  0  0
 52 54  4  0  0  0
 53 55  4  0  0  0
 54 55  4  0  0  0
 56 57  1  0  0  0
 57 58  1  0  0  0
 57 60  1  0  0  0
 58 59  2  0  0  0
 58 64  1  0  0  0
 60 61  1  0  0  0
 61 62  1  0  0  0
 61 63  1  0  0  0
 64 65  1  0  0  0
 65 66  1  0  0  0
 65 68  1  0  0  0
 66 67  2  0  0  0
 66 71  1  0  0  0
 68 69  1  0  0  0
 68 70  1  0  0  0
 71 72  1  0  0  0
 72 73  1  0  0  0
 72 75  1  0  0  0
 73 74  2  0  0  0
 73 80  1  0  0  0
 75 76  1  0  0  0
 76 77  1  0  0  0
 77 78  1  0  0  0
 78 79  1  0  0  0
 80 81  1  0  0  0
 81 82  1  0  0  0
 81 84  1  0  0  0
 82 83  1  0  0  0
 82 89  2  0  0  0
 84 85  1  0  0  0
 85 86  1  0  0  0
 86 87  1  0  0  0
 87 88  1  0  0  0
  1 90  1  0  0  0
  1 91  1  0  0  0
  1 92  1  0  0  0
  2 93  1  0  0  0
  2 94  1  0  0  0
  5 95  1  0  0  0
  6 96  1  0  0  0
  9 97  1  0  0  0
  9 98  1  0  0  0
 10 99  1  0  0  0
 11100  1  0  0  0
 12101  1  0  0  0
 15102  1  0  0  0
 15103  1  0  0  0
 18104  1  0  0  0
 19105  1  0  0  0
 20106  1  0  0  0
 23107  1  0  0  0
 24108  1  0  0  0
 24109  1  0  0  0
 25110  1  0  0  0
 25111  1  0  0  0
 25112  1  0  0  0
 26113  1  0  0  0
 26114  1  0  0  0
 26115  1  0  0  0
 27116  1  0  0  0
 28117  1  0  0  0
 31118  1  0  0  0
 32119  1  0  0  0
 33120  1  0  0  0
 33121  1  0  0  0
 33122  1  0  0  0
 34123  1  0  0  0
 35124  1  0  0  0
 38125  1  0  0  0
 38126  1  0  0  0
 39127  1  0  0  0
 39128  1  0  0  0
 40129  1  0  0  0
 40130  1  0  0  0
 41131  1  0  0  0
 43132  1  0  0  0
 43133  1  0  0  0
 44134  1  0  0  0
 45135  1  0  0  0
 46136  1  0  0  0
 49137  1  0  0  0
 49138  1  0  0  0
 51139  1  0  0  0
 52140  1  0  0  0
 53141  1  0  0  0
 54142  1  0  0  0
 55143  1  0  0  0
 56144  1  0  0  0
 57145  1  0  0  0
 60146  1  0  0  0
 60147  1  0  0  0
 61148  1  0  0  0
 62149  1  0  0  0
 62150  1  0  0  0
 62151  1  0  0  0
 63152  1  0  0  0
 63153  1  0  0  0
 63154  1  0  0  0
 64155  1  0  0  0
 65156  1  0  0  0
 68157  1  0  0  0
 69158  1  0  0  0
 69159  1  0  0  0
 69160  1  0  0  0
 70161  1  0  0  0
 70162  1  0  0  0
 70163  1  0  0  0
 71164  1  0  0  0
 72165  1  0  0  0
 75166  1  0  0  0
 75167  1  0  0  0
 76168  1  0  0  0
 76169  1  0  0  0
 77170  1  0  0  0
 77171  1  0  0  0
 78172  1  0  0  0
 78173  1  0  0  0
 79174  1  0  0  0
 79175  1  0  0  0
 79176  1  0  0  0
 80177  1  0  0  0
 81178  1  0  0  0
 83179  1  0  0  0
 84180  1  0  0  0
 84181  1  0  0  0
 85182  1  0  0  0
 85183  1  0  0  0
 86184  1  0  0  0
 86185  1  0  0  0
 87186  1  0  0  0
 87187  1  0  0  0
 88188  1  0  0  0
 88189  1  0  0  0
 88190  1  0  0  0
M  END
$$$$
