5aok_ligand
  -I-interpret- 

 27 30  0  0  0  0  0  0  0  0999 V2000
   90.8210   91.7720  -46.6050 C   0  0  0  0  0
   90.6120   92.9920  -46.1420 N   0  0  0  0  0
   91.1420   93.0560  -44.8530 C   0  0  0  0  0
   91.6820   91.8080  -44.5500 C   0  0  0  0  0
   91.4960   90.9620  -45.6680 O   0  0  0  0  0
   91.0910   94.2040  -44.0170 C   0  0  0  0  0
   92.3290   91.2690  -43.4680 N   0  0  0  0  0
   90.4880   91.1540  -47.8820 C   0  0  0  0  0
   93.6000   91.6340  -43.0180 C   0  0  0  0  0
   93.8840   90.8440  -41.9040 C   0  0  0  0  0
   92.7620   89.9740  -41.6700 C   0  0  0  0  0
   91.8100   90.2570  -42.6440 C   0  0  0  0  0
   91.2050   94.2020  -42.6300 N   0  0  0  0  0
   91.0880   95.4450  -42.2910 N   0  0  0  0  0
   90.8990   96.2110  -43.3560 N   0  0  0  0  0
   90.8820   95.5150  -44.4460 N   0  0  0  0  0
   91.4160   90.1200  -48.4670 C   0  0  0  0  0
   90.0810   89.7030  -47.9240 C   0  0  0  0  0
   90.0499   92.0882  -48.2333 H   0  0  0  0  0
   94.2481   92.3935  -43.4552 H   0  0  0  0  0
   94.7988   90.8796  -41.3124 H   0  0  0  0  0
   92.6743   89.2313  -40.8770 H   0  0  0  0  0
   90.8360   89.7791  -42.7489 H   0  0  0  0  0
   92.4607   89.8205  -48.3836 H   0  0  0  0  0
   92.0122   89.9748  -49.3679 H   0  0  0  0  0
   89.2247   89.1041  -48.2341 H   0  0  0  0  0
   89.6732   88.9498  -47.2498 H   0  0  0  0  0
  1  2  4  0  0  0
  1  5  4  0  0  0
  1  8  1  0  0  0
  2  3  4  0  0  0
  3  4  4  0  0  0
  3  6  1  0  0  0
  4  5  4  0  0  0
  4  7  1  0  0  0
  6 13  4  0  0  0
  6 16  4  0  0  0
  7  9  4  0  0  0
  7 12  4  0  0  0
  8 17  1  0  0  0
  8 18  1  0  0  0
  9 10  4  0  0  0
 10 11  4  0  0  0
 11 12  4  0  0  0
 13 14  4  0  0  0
 14 15  4  0  0  0
 15 16  4  0  0  0
 17 18  1  0  0  0
  8 19  1  0  0  0
  9 20  1  0  0  0
 10 21  1  0  0  0
 11 22  1  0  0  0
 12 23  1  0  0  0
 17 24  1  0  0  0
 17 25  1  0  0  0
 18 26  1  0  0  0
 18 27  1  0  0  0
M  END
$$$$
