3arw_ligand
  -I-interpret- 

 45 49  0  0  0  0  0  0  0  0999 V2000
   20.1890   -9.9140   22.4820 C   0  0  0  0  0
   18.9240   -9.8270   21.8590 C   0  0  0  0  0
   18.7580  -10.3610   20.6010 C   0  0  0  0  0
   19.8780  -10.9420   19.9770 C   0  0  0  0  0
   17.8610   -9.2610   22.5420 C   0  0  0  0  0
   16.5700   -9.2070   22.0010 C   0  0  0  0  0
   16.4010   -9.7470   20.7270 C   0  0  0  0  0
   17.4960  -10.3030   20.0150 C   0  0  0  0  0
   18.1220   -8.7860   23.8460 N   0  0  0  0  0
   15.5240   -8.6440   22.7540 C   0  0  0  0  0
   15.8040   -8.1510   24.0490 C   0  0  0  0  0
   17.0780   -8.2330   24.5790 C   0  0  0  0  0
   19.4750   -8.8530   24.4730 C   0  0  0  0  0
   13.5190   -7.4680   24.3400 C   0  0  0  0  0
   13.1960   -7.9430   23.0540 C   0  0  0  0  0
   14.2080   -8.5360   22.2820 C   0  0  0  0  0
   14.8100   -7.5700   24.8560 C   0  0  0  0  0
   15.0880   -7.0260   26.1210 O   0  0  0  0  0
   15.3140   -7.7360   27.3920 C   0  0  0  0  0
   12.5720   -6.8750   25.1250 O   0  0  0  0  0
   12.3480   -7.5730   26.3720 C   0  0  0  0  0
   21.2950  -10.4960   21.8670 C   0  0  0  0  0
   21.1370  -11.0040   20.5780 C   0  0  0  0  0
   22.6220  -10.6540   22.2710 O   0  0  0  0  0
   23.2140  -11.6110   21.3230 C   0  0  0  0  0
   22.3630  -11.4930   20.1450 O   0  0  0  0  0
   20.3045   -9.5083   23.4871 H   0  0  0  0  0
   19.7570  -11.3629   18.9788 H   0  0  0  0  0
   15.4115   -9.7422   20.2699 H   0  0  0  0  0
   17.3484  -10.6862   19.0053 H   0  0  0  0  0
   17.3742   -7.1934   24.7194 H   0  0  0  0  0
   16.9680   -8.9037   25.4312 H   0  0  0  0  0
   19.8101   -7.8455   24.7195 H   0  0  0  0  0
   19.4236   -9.4528   25.3817 H   0  0  0  0  0
   20.1758   -9.3095   23.7740 H   0  0  0  0  0
   12.1814   -7.8522   22.6660 H   0  0  0  0  0
   13.9647   -8.9217   21.2920 H   0  0  0  0  0
   14.4301   -8.3234   27.6407 H   0  0  0  0  0
   16.1743   -8.3974   27.2892 H   0  0  0  0  0
   15.5042   -7.0106   28.1831 H   0  0  0  0  0
   12.0144   -8.5895   26.1631 H   0  0  0  0  0
   13.2769   -7.6039   26.9415 H   0  0  0  0  0
   11.5845   -7.0498   26.9477 H   0  0  0  0  0
   23.2430  -12.6266   21.7176 H   0  0  0  0  0
   24.2598  -11.3925   21.1067 H   0  0  0  0  0
  2  1  4  0  0  0
  1 22  4  0  0  0
  2  3  4  0  0  0
  5  2  4  0  0  0
  3  4  4  0  0  0
  8  3  4  0  0  0
  4 23  4  0  0  0
  6  5  4  0  0  0
  9  5  1  0  0  0
  6  7  4  0  0  0
 10  6  1  0  0  0
  7  8  4  0  0  0
 12  9  1  0  0  0
  9 13  1  0  0  0
 11 10  4  0  0  0
 10 16  4  0  0  0
 11 12  1  0  0  0
 17 11  4  0  0  0
 14 15  4  0  0  0
 14 17  4  0  0  0
 14 20  1  0  0  0
 15 16  4  0  0  0
 17 18  1  0  0  0
 18 19  1  0  0  0
 20 21  1  0  0  0
 22 23  4  0  0  0
 22 24  1  0  0  0
 23 26  1  0  0  0
 24 25  1  0  0  0
 25 26  1  0  0  0
  1 27  1  0  0  0
  4 28  1  0  0  0
  7 29  1  0  0  0
  8 30  1  0  0  0
 12 31  1  0  0  0
 12 32  1  0  0  0
 13 33  1  0  0  0
 13 34  1  0  0  0
 13 35  1  0  0  0
 15 36  1  0  0  0
 16 37  1  0  0  0
 19 38  1  0  0  0
 19 39  1  0  0  0
 19 40  1  0  0  0
 21 41  1  0  0  0
 21 42  1  0  0  0
 21 43  1  0  0  0
 25 44  1  0  0  0
 25 45  1  0  0  0
M  END
$$$$
