3f48_ligand
  -I-interpret- 

 14 13  0  0  0  0  0  0  0  0999 V2000
   25.1770   32.4060   18.9430 N   0  3  0  0  0
   26.5080   31.7400   18.8570 C   0  0  0  0  0
   26.3760   30.3630   18.2020 C   0  0  0  0  0
   27.3870   29.6240   18.1340 O   0  0  0  0  0
   27.1090   31.6120   20.2560 C   0  0  0  0  0
   25.2540   30.0330   17.7530 O   0  0  0  0  0
   24.7790   32.4897   18.0076 H   0  0  0  0  0
   24.5562   31.8481   19.5293 H   0  0  0  0  0
   25.2884   33.3343   19.3507 H   0  0  0  0  0
   27.1706   32.3471   18.2401 H   0  0  0  0  0
   28.1357   30.0701   18.5366 H   0  0  0  0  0
   26.4626   30.9868   20.8719 H   0  0  0  0  0
   28.0968   31.1567   20.1854 H   0  0  0  0  0
   27.1948   32.6015   20.7051 H   0  0  0  0  0
  1  2  1  0  0  0
  2  3  1  0  0  0
  2  5  1  0  0  0
  3  4  1  0  0  0
  3  6  2  0  0  0
  1  7  1  0  0  0
  1  8  1  0  0  0
  1  9  1  0  0  0
  2 10  1  0  0  0
  4 11  1  0  0  0
  5 12  1  0  0  0
  5 13  1  0  0  0
  5 14  1  0  0  0
M  END
$$$$
