5o9h_ligand
  -I-interpret- 

 79 85  0  0  0  0  0  0  0  0999 V2000
  102.1110  -11.3540   29.6470 C   0  0  0  0  0
  102.3080  -12.6030   29.0520 C   0  0  0  0  0
  103.4770  -13.2540   29.2060 C   0  0  0  0  0
  104.5700  -12.6480   30.0180 C   0  0  0  0  0
  102.0030  -14.6520   28.0810 C   0  0  0  0  0
  102.4490  -14.0990   32.9420 C   0  0  0  0  0
  103.6060  -14.8920   32.7790 N   0  0  0  0  0
  104.6970  -14.1420   33.0260 C   0  0  0  0  0
  104.2380  -12.8340   33.3760 C   0  0  0  0  0
  102.8440  -12.8570   33.2900 N   0  0  0  0  0
  102.0170  -11.7570   33.5840 C   0  0  0  0  0
  101.8840  -11.7310   35.1120 C   0  0  0  0  0
  100.7980  -10.7640   35.6610 C   0  0  0  0  0
  100.7090  -10.8760   37.2200 C   0  0  0  0  0
  105.1260  -11.5730   33.7430 C   0  0  0  0  0
  104.8360  -10.5010   32.8100 N   0  3  0  0  0
  105.4540  -10.7420   31.4670 C   0  0  0  0  0
  104.3740  -11.3970   30.6080 C   0  0  0  0  0
  103.1890  -10.7500   30.4530 C   0  0  0  0  0
  103.4000  -14.5030   28.4870 O   0  0  0  0  0
  101.4130  -13.3760   28.2330 O   0  0  0  0  0
  105.1520   -9.2030   33.3630 C   0  0  0  0  0
  103.8020   -8.5240   33.7930 C   0  0  0  0  0
  103.6110   -8.0840   35.0740 C   0  0  0  0  0
  102.3040   -7.4480   35.4510 C   0  0  0  0  0
  101.8490   -6.9300   36.6230 O   0  0  0  0  0
  100.6680   -6.2250   36.3110 C   0  0  0  0  0
  100.2230   -6.7080   35.1060 O   0  0  0  0  0
  101.2980   -7.3100   34.5130 C   0  0  0  0  0
  101.4980   -7.7760   33.1710 C   0  0  0  0  0
  102.7460   -8.3820   32.8150 C   0  0  0  0  0
  105.9850  -14.5930   32.9770 C   0  0  0  0  0
  106.4640  -15.2480   31.8450 C   0  0  0  0  0
  107.8010  -15.7260   31.8220 C   0  0  0  0  0
  108.6370  -15.5540   32.9320 C   0  0  0  0  0
  108.1470  -14.8960   34.0920 C   0  0  0  0  0
  106.8340  -14.4290   34.1150 C   0  0  0  0  0
  101.0760  -14.5910   32.7440 C   0  0  0  0  0
  100.1600  -13.8940   31.9360 C   0  0  0  0  0
   98.8690  -14.3660   31.7510 C   0  0  0  0  0
   98.4790  -15.5330   32.3470 C   0  0  0  0  0
   99.3980  -16.2420   33.1490 C   0  0  0  0  0
  100.6910  -15.7580   33.3310 C   0  0  0  0  0
  101.1651  -10.8284   29.5162 H   0  0  0  0  0
  105.5142  -13.1763   30.1504 H   0  0  0  0  0
  101.4926  -15.3974   28.6909 H   0  0  0  0  0
  101.9269  -15.0013   27.0513 H   0  0  0  0  0
  101.0437  -11.8528   33.1028 H   0  0  0  0  0
  102.4443  -10.8277   33.2072 H   0  0  0  0  0
  102.8402  -11.3858   35.5051 H   0  0  0  0  0
  101.5948  -12.7359   35.4197 H   0  0  0  0  0
   99.8332  -11.0304   35.2294 H   0  0  0  0  0
  101.0632   -9.7415   35.3922 H   0  0  0  0  0
  100.4484  -11.8980   37.4953 H   0  0  0  0  0
  101.6727  -10.6150   37.6573 H   0  0  0  0  0
   99.9441  -10.1927   37.5890 H   0  0  0  0  0
  106.1817  -11.8373   33.6814 H   0  0  0  0  0
  104.8988  -11.2473   34.7581 H   0  0  0  0  0
  103.8281  -10.4983   32.6534 H   0  0  0  0  0
  106.3315  -11.3834   31.5491 H   0  0  0  0  0
  105.7969   -9.8086   31.0205 H   0  0  0  0  0
  103.0343   -9.7804   30.9263 H   0  0  0  0  0
  105.6651   -8.5902   32.6219 H   0  0  0  0  0
  105.8137   -9.3084   34.2227 H   0  0  0  0  0
  104.4019   -8.1943   35.8159 H   0  0  0  0  0
  100.8610   -5.1539   36.2512 H   0  0  0  0  0
   99.9157   -6.3676   37.0868 H   0  0  0  0  0
  100.7070   -7.6698   32.4286 H   0  0  0  0  0
  102.9014   -8.7396   31.7971 H   0  0  0  0  0
  105.8157  -15.3930   30.9808 H   0  0  0  0  0
  108.1795  -16.2308   30.9332 H   0  0  0  0  0
  109.6619  -15.9242   32.9062 H   0  0  0  0  0
  108.7938  -14.7573   34.9584 H   0  0  0  0  0
  106.4516  -13.9347   35.0081 H   0  0  0  0  0
  100.4690  -12.9696   31.4481 H   0  0  0  0  0
   98.1669  -13.8077   31.1318 H   0  0  0  0  0
   97.4672  -15.9122   32.2038 H   0  0  0  0  0
   99.0946  -17.1728   33.6283 H   0  0  0  0  0
  101.3977  -16.3154   33.9457 H   0  0  0  0  0
  2  1  4  0  0  0
  1 19  4  0  0  0
  3  2  4  0  0  0
  2 21  1  0  0  0
  4  3  4  0  0  0
  3 20  1  0  0  0
 18  4  4  0  0  0
 20  5  1  0  0  0
  5 21  1  0  0  0
  6  7  4  0  0  0
 10  6  4  0  0  0
  6 38  1  0  0  0
  8  7  4  0  0  0
  9  8  4  0  0  0
  8 32  1  0  0  0
  9 10  4  0  0  0
 15  9  1  0  0  0
 10 11  1  0  0  0
 11 12  1  0  0  0
 12 13  1  0  0  0
 13 14  1  0  0  0
 16 15  1  0  0  0
 17 16  1  0  0  0
 16 22  1  0  0  0
 17 18  1  0  0  0
 18 19  4  0  0  0
 22 23  1  0  0  0
 23 24  4  0  0  0
 23 31  4  0  0  0
 24 25  4  0  0  0
 25 26  1  0  0  0
 25 29  4  0  0  0
 26 27  1  0  0  0
 27 28  1  0  0  0
 28 29  1  0  0  0
 29 30  4  0  0  0
 30 31  4  0  0  0
 32 33  4  0  0  0
 32 37  4  0  0  0
 33 34  4  0  0  0
 34 35  4  0  0  0
 35 36  4  0  0  0
 36 37  4  0  0  0
 38 39  4  0  0  0
 38 43  4  0  0  0
 39 40  4  0  0  0
 40 41  4  0  0  0
 41 42  4  0  0  0
 42 43  4  0  0  0
  1 44  1  0  0  0
  4 45  1  0  0  0
  5 46  1  0  0  0
  5 47  1  0  0  0
 11 48  1  0  0  0
 11 49  1  0  0  0
 12 50  1  0  0  0
 12 51  1  0  0  0
 13 52  1  0  0  0
 13 53  1  0  0  0
 14 54  1  0  0  0
 14 55  1  0  0  0
 14 56  1  0  0  0
 15 57  1  0  0  0
 15 58  1  0  0  0
 16 59  1  0  0  0
 17 60  1  0  0  0
 17 61  1  0  0  0
 19 62  1  0  0  0
 22 63  1  0  0  0
 22 64  1  0  0  0
 24 65  1  0  0  0
 27 66  1  0  0  0
 27 67  1  0  0  0
 30 68  1  0  0  0
 31 69  1  0  0  0
 33 70  1  0  0  0
 34 71  1  0  0  0
 35 72  1  0  0  0
 36 73  1  0  0  0
 37 74  1  0  0  0
 39 75  1  0  0  0
 40 76  1  0  0  0
 41 77  1  0  0  0
 42 78  1  0  0  0
 43 79  1  0  0  0
M  END
$$$$
