4k6i_ligand
  -I-interpret- 

 54 56  0  0  0  0  0  0  0  0999 V2000
   -9.6200   18.9690   -2.4360 O   0  0  0  0  0
   -8.7570   19.6730   -3.0050 C   0  0  0  0  0
   -9.0200   20.5530   -3.8510 O   0  0  0  0  0
   -7.2810   19.4260   -2.6730 C   0  0  0  0  0
   -6.3020   19.7110   -3.6190 C   0  0  0  0  0
   -6.9110   18.8430   -1.4650 C   0  0  0  0  0
   -5.5790   18.5380   -1.2150 C   0  0  0  0  0
   -4.5950   18.8090   -2.1650 C   0  0  0  0  0
   -4.9690   19.4030   -3.3660 C   0  0  0  0  0
   -3.2740   18.4370   -1.9390 C   0  0  0  0  0
   -2.9620   17.6090   -0.8690 C   0  0  0  0  0
   -2.2450   18.8670   -2.7790 C   0  0  0  0  0
   -1.5010   19.9840   -2.4230 C   0  0  0  0  0
   -1.8450   20.7860   -1.1650 C   0  0  0  0  0
   -0.4630   20.4020   -3.2460 C   0  0  0  0  0
   -1.9320   18.1890   -3.9510 C   0  0  0  0  0
   -0.8900   18.6050   -4.7760 C   0  0  0  0  0
   -0.6010   17.8050   -6.0500 C   0  0  0  0  0
   -0.5480   16.3170   -5.6980 C   0  0  0  0  0
   -1.7300   18.0570   -7.0490 C   0  0  0  0  0
    0.7280   18.2180   -6.6930 C   0  0  0  0  0
    0.8520   19.7370   -6.7160 C   0  0  0  0  0
    1.0080   20.2420   -5.2810 C   0  0  0  0  0
   -0.1500   19.7300   -4.4180 C   0  0  0  0  0
    1.0310   21.7680   -5.2870 C   0  0  0  0  0
    2.3210   19.7330   -4.6920 C   0  0  0  0  0
   -9.1880   18.3637   -1.8289 H   0  0  0  0  0
   -6.5806   20.1781   -4.5636 H   0  0  0  0  0
   -7.6687   18.6249   -0.7124 H   0  0  0  0  0
   -5.2999   18.0816   -0.2653 H   0  0  0  0  0
   -4.2108   19.6292   -4.1157 H   0  0  0  0  0
   -3.7516   17.2518   -0.2080 H   0  0  0  0  0
   -1.9274   17.3162   -0.6900 H   0  0  0  0  0
   -2.8615   21.1706   -1.2476 H   0  0  0  0  0
   -1.7699   20.1388   -0.2912 H   0  0  0  0  0
   -1.1476   21.6176   -1.0638 H   0  0  0  0  0
    0.1194   21.2791   -2.9639 H   0  0  0  0  0
   -2.5153   17.3117   -4.2309 H   0  0  0  0  0
    0.2422   16.1458   -4.9670 H   0  0  0  0  0
   -1.5059   16.0099   -5.2782 H   0  0  0  0  0
   -0.3427   15.7389   -6.5990 H   0  0  0  0  0
   -2.6765   17.7356   -6.6144 H   0  0  0  0  0
   -1.7778   19.1211   -7.2805 H   0  0  0  0  0
   -1.5380   17.4935   -7.9621 H   0  0  0  0  0
    0.7618   17.8417   -7.7154 H   0  0  0  0  0
    1.5504   17.8016   -6.1113 H   0  0  0  0  0
   -0.0401   20.1731   -7.1656 H   0  0  0  0  0
    1.7216   20.0272   -7.3057 H   0  0  0  0  0
    1.8692   22.1151   -5.8912 H   0  0  0  0  0
    0.0981   22.1425   -5.7083 H   0  0  0  0  0
    1.1421   22.1324   -4.2658 H   0  0  0  0  0
    2.3195   18.6430   -4.6924 H   0  0  0  0  0
    3.1532   20.0967   -5.2946 H   0  0  0  0  0
    2.4245   20.0971   -3.6698 H   0  0  0  0  0
  1  2  1  0  0  0
  2  3  2  0  0  0
  2  4  1  0  0  0
  4  5  4  0  0  0
  4  6  4  0  0  0
  5  9  4  0  0  0
  6  7  4  0  0  0
  7  8  4  0  0  0
  8  9  4  0  0  0
  8 10  1  0  0  0
 10 11  2  0  0  0
 10 12  1  0  0  0
 12 13  4  0  0  0
 12 16  4  0  0  0
 13 14  1  0  0  0
 13 15  4  0  0  0
 15 24  4  0  0  0
 16 17  4  0  0  0
 17 18  1  0  0  0
 17 24  4  0  0  0
 18 19  1  0  0  0
 18 20  1  0  0  0
 18 21  1  0  0  0
 21 22  1  0  0  0
 22 23  1  0  0  0
 23 24  1  0  0  0
 23 25  1  0  0  0
 23 26  1  0  0  0
  1 27  1  0  0  0
  5 28  1  0  0  0
  6 29  1  0  0  0
  7 30  1  0  0  0
  9 31  1  0  0  0
 11 32  1  0  0  0
 11 33  1  0  0  0
 14 34  1  0  0  0
 14 35  1  0  0  0
 14 36  1  0  0  0
 15 37  1  0  0  0
 16 38  1  0  0  0
 19 39  1  0  0  0
 19 40  1  0  0  0
 19 41  1  0  0  0
 20 42  1  0  0  0
 20 43  1  0  0  0
 20 44  1  0  0  0
 21 45  1  0  0  0
 21 46  1  0  0  0
 22 47  1  0  0  0
 22 48  1  0  0  0
 25 49  1  0  0  0
 25 50  1  0  0  0
 25 51  1  0  0  0
 26 52  1  0  0  0
 26 53  1  0  0  0
 26 54  1  0  0  0
M  END
$$$$
