5icp_ligand
  -I-interpret- 

 38 41  0  0  0  0  0  0  0  0999 V2000
    4.7590   12.4540    6.5310 C   0  0  0  0  0
    5.2540   13.4620    7.3520 C   0  0  0  0  0
    5.0200   13.4410    8.7200 C   0  0  0  0  0
    4.2860   12.3980    9.2850 C   0  0  0  0  0
    3.7930   11.3940    8.4580 C   0  0  0  0  0
    4.0240   11.4170    7.0910 C   0  0  0  0  0
    4.0000   12.3020   10.7720 C   0  0  0  0  0
    2.7620   14.2970   11.1990 C   0  0  0  0  0
    4.1030   14.3640   11.9770 C   0  0  0  0  0
    4.8720   13.1510   11.6210 N   0  0  0  0  0
    6.8440   11.6770   11.6350 C   0  0  0  0  0
    8.1060    9.5620   11.3220 C   0  0  0  0  0
    7.4210    9.3780    7.7180 C   0  0  0  0  0
    5.0460   12.4810    4.8160 Cl  0  0  0  0  0
    2.5560   12.7670   11.0480 C   0  0  0  0  0
    6.1430   12.9100   12.0380 C   0  0  0  0  0
    6.7090   13.7140   12.7500 O   0  0  0  0  0
    6.8690   11.2440   10.4260 N   0  0  0  0  0
    7.5430   10.0690   10.1880 N   0  0  0  0  0
    8.7330    8.4180   10.9590 C   0  0  0  0  0
    8.5470    8.2240    9.6410 N   0  0  0  0  0
    7.8470    9.2110    9.1580 C   0  0  0  0  0
    7.7590   10.6140   12.6970 S   0  0  0  0  0
    5.8318   14.2771    6.9163 H   0  0  0  0  0
    5.4095   14.2389    9.3523 H   0  0  0  0  0
    3.2163   10.5768    8.8912 H   0  0  0  0  0
    3.6296   10.6228    6.4571 H   0  0  0  0  0
    4.1788   11.2575   11.0272 H   0  0  0  0  0
    2.7876   14.8262   10.2464 H   0  0  0  0  0
    1.9393   14.7959   11.7112 H   0  0  0  0  0
    3.9235   14.4049   13.0513 H   0  0  0  0  0
    4.6580   15.2638   11.7114 H   0  0  0  0  0
    6.3325    9.3912    7.6616 H   0  0  0  0  0
    7.8176   10.3160    7.3296 H   0  0  0  0  0
    7.8066    8.5468    7.1276 H   0  0  0  0  0
    2.0993   12.2953   11.9181 H   0  0  0  0  0
    1.8471   12.4923   10.2669 H   0  0  0  0  0
    9.2952    7.7629   11.6245 H   0  0  0  0  0
  2  1  4  0  0  0
  6  1  4  0  0  0
  1 14  1  0  0  0
  3  2  4  0  0  0
  4  3  4  0  0  0
  4  5  4  0  0  0
  7  4  1  0  0  0
  5  6  4  0  0  0
 10  7  1  0  0  0
  7 15  1  0  0  0
  9  8  1  0  0  0
  8 15  1  0  0  0
 10  9  1  0  0  0
 16 10  1  0  0  0
 11 16  1  0  0  0
 18 11  4  0  0  0
 11 23  4  0  0  0
 19 12  4  0  0  0
 12 20  4  0  0  0
 12 23  4  0  0  0
 22 13  1  0  0  0
 16 17  2  0  0  0
 19 18  4  0  0  0
 19 22  4  0  0  0
 20 21  4  0  0  0
 21 22  4  0  0  0
  2 24  1  0  0  0
  3 25  1  0  0  0
  5 26  1  0  0  0
  6 27  1  0  0  0
  7 28  1  0  0  0
  8 29  1  0  0  0
  8 30  1  0  0  0
  9 31  1  0  0  0
  9 32  1  0  0  0
 13 33  1  0  0  0
 13 34  1  0  0  0
 13 35  1  0  0  0
 15 36  1  0  0  0
 15 37  1  0  0  0
 20 38  1  0  0  0
M  END
$$$$
