5lpm_ligand
  -I-interpret- 

 48 50  0  0  0  0  0  0  0  0999 V2000
   39.9790    5.4330    9.4690 N   0  0  0  0  0
   38.7930    6.6930   13.2370 C   0  0  0  0  0
   37.8820    5.6990   13.5450 C   0  0  0  0  0
   37.0360    5.7570   14.7410 C   0  0  0  0  0
   35.7270    5.0300   14.7800 C   0  0  0  0  0
   39.2600    7.8790   14.0200 C   0  0  0  0  0
   40.4790    4.8910    8.1930 C   0  0  0  0  0
   42.0380    5.1480    5.6620 C   0  0  0  0  0
   40.0590    6.3290    4.6900 C   0  0  0  0  0
   38.0860    6.7690    5.9310 C   0  0  0  0  0
   42.5060    4.1700    9.2510 O   0  0  0  0  0
   38.7910    6.8690    4.7570 C   0  0  0  0  0
   39.9030    5.6020    6.9810 C   0  0  0  0  0
   38.6210    6.1490    7.0410 C   0  0  0  0  0
   40.6360    5.6940    5.7880 C   0  0  0  0  0
   39.1280    3.4240   10.0410 O   0  0  0  0  0
   42.0120    4.9120    8.1380 C   0  0  0  0  0
   39.2950    4.6290   10.2850 C   0  0  0  0  0
   38.8590    5.1920   11.5730 C   0  0  0  0  0
   37.9240    4.7240   12.4840 C   0  0  0  0  0
   37.0860    3.4830   12.3620 C   0  0  0  0  0
   42.5120    4.3120    6.8390 C   0  0  0  0  0
   36.4720    7.4160    6.0120 Cl  0  0  0  0  0
   39.3430    6.3850   12.0250 N   0  0  0  0  0
   37.3550    6.4740   15.6930 O   0  0  0  0  0
   37.5560    2.3890   13.2400 C   0  0  0  0  0
   40.1527    6.4053    9.7237 H   0  0  0  0  0
   35.7092    4.3623   15.6414 H   0  0  0  0  0
   34.9143    5.7518   14.8613 H   0  0  0  0  0
   35.6083    4.4487   13.8656 H   0  0  0  0  0
   38.4092    8.5222   14.2448 H   0  0  0  0  0
   39.7177    7.5415   14.9499 H   0  0  0  0  0
   39.9921    8.4344   13.4338 H   0  0  0  0  0
   40.1373    3.8567    8.1542 H   0  0  0  0  0
   42.7052    6.0076    5.5986 H   0  0  0  0  0
   42.0430    4.4939    4.7901 H   0  0  0  0  0
   40.6210    6.4006    3.7588 H   0  0  0  0  0
   43.4659    4.1713    9.2344 H   0  0  0  0  0
   38.3555    7.3675    3.8910 H   0  0  0  0  0
   38.0433    6.0866    7.9632 H   0  0  0  0  0
   42.3693    5.9408    8.1830 H   0  0  0  0  0
   37.1499    3.1358   11.3308 H   0  0  0  0  0
   36.0679    3.7359   12.6578 H   0  0  0  0  0
   43.6018    4.2937    6.8492 H   0  0  0  0  0
   42.1218    3.2992    6.7389 H   0  0  0  0  0
   38.5809    2.1281   12.9763 H   0  0  0  0  0
   37.5190    2.7172   14.2788 H   0  0  0  0  0
   36.9131    1.5185   13.1095 H   0  0  0  0  0
  1  7  1  0  0  0
 18  1  1  0  0  0
  3  2  4  0  0  0
  2  6  1  0  0  0
  2 24  4  0  0  0
  3  4  1  0  0  0
 20  3  4  0  0  0
  4  5  1  0  0  0
  4 25  2  0  0  0
  7 13  1  0  0  0
  7 17  1  0  0  0
 15  8  1  0  0  0
 22  8  1  0  0  0
  9 12  4  0  0  0
 15  9  4  0  0  0
 10 12  4  0  0  0
 14 10  4  0  0  0
 10 23  1  0  0  0
 17 11  1  0  0  0
 13 14  4  0  0  0
 13 15  4  0  0  0
 18 16  2  0  0  0
 17 22  1  0  0  0
 19 18  1  0  0  0
 19 20  4  0  0  0
 19 24  4  0  0  0
 20 21  1  0  0  0
 21 26  1  0  0  0
  1 27  1  0  0  0
  5 28  1  0  0  0
  5 29  1  0  0  0
  5 30  1  0  0  0
  6 31  1  0  0  0
  6 32  1  0  0  0
  6 33  1  0  0  0
  7 34  1  0  0  0
  8 35  1  0  0  0
  8 36  1  0  0  0
  9 37  1  0  0  0
 11 38  1  0  0  0
 12 39  1  0  0  0
 14 40  1  0  0  0
 17 41  1  0  0  0
 21 42  1  0  0  0
 21 43  1  0  0  0
 22 44  1  0  0  0
 22 45  1  0  0  0
 26 46  1  0  0  0
 26 47  1  0  0  0
 26 48  1  0  0  0
M  END
$$$$
