3is9_ligand
  -I-interpret- 

 63 64  0  0  0  0  0  0  0  0999 V2000
   50.0780  -28.7320   38.2230 C   0  0  0  0  0
   51.1610  -30.4810   35.0620 O   0  0  0  0  0
   50.8800  -29.0920   37.0940 C   0  0  0  0  0
   46.2770  -33.0780   43.3100 O   0  0  0  0  0
   50.4020  -30.1070   36.1830 C   0  0  0  0  0
   50.8840  -23.4290   36.9350 O   0  0  0  0  0
   49.0810  -30.6380   36.3720 C   0  0  0  0  0
   48.3140  -30.2690   37.4840 C   0  0  0  0  0
   52.7230  -27.4860   37.9320 O   0  0  0  0  0
   48.7630  -29.2870   38.4090 C   0  0  0  0  0
   52.2600  -28.4570   36.9450 C   0  0  0  0  0
   48.4850  -34.6450   42.2630 O   0  0  0  0  0
   47.8620  -28.8750   39.6160 C   0  0  0  0  0
   47.3970  -27.5950   39.7910 C   0  0  0  0  0
   46.6500  -32.0640   42.4300 C   0  0  0  0  0
   45.9410  -30.8010   42.4270 C   0  0  0  0  0
   46.3310  -29.7760   41.5070 C   0  0  0  0  0
   47.4390  -29.9640   40.6240 C   0  0  0  0  0
   48.1220  -31.1970   40.6590 C   0  0  0  0  0
   47.7750  -32.2300   41.5400 C   0  0  0  0  0
   48.6310  -33.4810   41.4210 C   0  0  0  0  0
   47.6760  -26.4120   38.8800 C   0  0  0  0  0
   48.8430  -25.5930   39.3880 C   0  0  0  0  0
   49.0600  -24.3980   38.4590 C   0  0  0  0  0
   50.3360  -24.5690   37.6550 C   0  0  0  0  0
   52.1170  -23.4990   36.2090 C   0  0  0  0  0
   51.0120  -29.8900   33.7540 C   0  0  0  0  0
   45.2570  -34.0320   42.9220 C   0  0  0  0  0
   53.9920  -27.6510   38.5720 C   0  0  0  0  0
   49.1610  -35.8510   41.8700 C   0  0  0  0  0
   52.9960  -28.7190   35.9900 O   0  0  0  0  0
   49.5160  -33.5310   40.5610 O   0  0  0  0  0
   50.9150  -25.6540   37.5960 O   0  0  0  0  0
   48.1740  -32.3420   34.8860 N   0  0  0  0  0
   44.0190  -30.3670   43.9280 N   0  0  0  0  0
   48.6020  -31.5380   35.5970 C   0  0  0  0  0
   44.9210  -30.5790   43.2150 C   0  0  0  0  0
   50.4696  -28.0254   38.9547 H   0  0  0  0  0
   47.3477  -30.7470   37.6446 H   0  0  0  0  0
   46.7702  -27.4109   40.6636 H   0  0  0  0  0
   45.7751  -28.8388   41.4795 H   0  0  0  0  0
   48.9542  -31.3531   39.9725 H   0  0  0  0  0
   46.7906  -25.7768   38.8537 H   0  0  0  0  0
   47.9212  -26.7881   37.8867 H   0  0  0  0  0
   49.7418  -26.2094   39.4075 H   0  0  0  0  0
   48.6300  -25.2386   40.3965 H   0  0  0  0  0
   49.1415  -23.4933   39.0615 H   0  0  0  0  0
   48.2169  -24.3281   37.7717 H   0  0  0  0  0
   52.9248  -23.7619   36.8919 H   0  0  0  0  0
   52.0362  -24.2577   35.4306 H   0  0  0  0  0
   52.3248  -22.5305   35.7541 H   0  0  0  0  0
   49.9939  -30.0492   33.3986 H   0  0  0  0  0
   51.2139  -28.8206   33.8148 H   0  0  0  0  0
   51.7160  -30.3554   33.0641 H   0  0  0  0  0
   44.3262  -33.5033   42.7165 H   0  0  0  0  0
   45.5799  -34.5632   42.0267 H   0  0  0  0  0
   45.1006  -34.7443   43.7321 H   0  0  0  0  0
   54.0043  -28.5971   39.1131 H   0  0  0  0  0
   54.7800  -27.6514   37.8189 H   0  0  0  0  0
   54.1551  -26.8297   39.2698 H   0  0  0  0  0
   48.8031  -36.1634   40.8890 H   0  0  0  0  0
   50.2343  -35.6661   41.8247 H   0  0  0  0  0
   48.9565  -36.6348   42.5994 H   0  0  0  0  0
  1  3  4  0  0  0
 10  1  4  0  0  0
  5  2  1  0  0  0
  2 27  1  0  0  0
  3  5  4  0  0  0
  3 11  1  0  0  0
 15  4  1  0  0  0
  4 28  1  0  0  0
  7  5  4  0  0  0
 25  6  1  0  0  0
  6 26  1  0  0  0
  8  7  4  0  0  0
  7 36  1  0  0  0
 10  8  4  0  0  0
 11  9  1  0  0  0
  9 29  1  0  0  0
 13 10  1  0  0  0
 11 31  2  0  0  0
 21 12  1  0  0  0
 12 30  1  0  0  0
 14 13  2  0  0  0
 13 18  1  0  0  0
 22 14  1  0  0  0
 16 15  4  0  0  0
 20 15  4  0  0  0
 17 16  4  0  0  0
 16 37  1  0  0  0
 18 17  4  0  0  0
 18 19  4  0  0  0
 19 20  4  0  0  0
 20 21  1  0  0  0
 21 32  2  0  0  0
 23 22  1  0  0  0
 24 23  1  0  0  0
 24 25  1  0  0  0
 25 33  2  0  0  0
 36 34  3  0  0  0
 37 35  3  0  0  0
  1 38  1  0  0  0
  8 39  1  0  0  0
 14 40  1  0  0  0
 17 41  1  0  0  0
 19 42  1  0  0  0
 22 43  1  0  0  0
 22 44  1  0  0  0
 23 45  1  0  0  0
 23 46  1  0  0  0
 24 47  1  0  0  0
 24 48  1  0  0  0
 26 49  1  0  0  0
 26 50  1  0  0  0
 26 51  1  0  0  0
 27 52  1  0  0  0
 27 53  1  0  0  0
 27 54  1  0  0  0
 28 55  1  0  0  0
 28 56  1  0  0  0
 28 57  1  0  0  0
 29 58  1  0  0  0
 29 59  1  0  0  0
 29 60  1  0  0  0
 30 61  1  0  0  0
 30 62  1  0  0  0
 30 63  1  0  0  0
M  END
$$$$
