6qs5_ligand
  -I-interpret- 

 23 23  0  0  0  0  0  0  0  0999 V2000
   20.1700    9.3100   20.6130 C   0  0  0  0  0
   21.2030    8.5330   19.7880 C   0  0  0  0  0
   21.4410    8.9980   18.5930 C   0  0  0  0  0
   22.3260    8.4320   17.4990 C   0  0  0  0  0
   23.0890    7.2770   17.6320 C   0  0  0  0  0
   23.8360    6.8010   16.5260 C   0  0  0  0  0
   23.7820    7.4770   15.3160 C   0  0  0  0  0
   23.0200    8.6220   15.1830 C   0  0  0  0  0
   22.2760    9.0940   16.2880 C   0  0  0  0  0
   21.8500    7.3090   20.3930 C   0  0  0  0  0
   19.7570    8.8150   21.9820 N   0  0  0  0  0
   22.3340    6.4050   20.8590 N   0  0  0  0  0
   19.6480   10.2820   20.1270 O   0  0  0  0  0
   24.5910    5.6940   16.6610 O   0  0  0  0  0
   24.5430    7.0090   14.1750 O   0  0  0  0  0
   20.9299    9.9281   18.3445 H   0  0  0  0  0
   23.1123    6.7413   18.5810 H   0  0  0  0  0
   22.9929    9.1568   14.2336 H   0  0  0  0  0
   21.6587    9.9863   16.1838 H   0  0  0  0  0
   19.0300    9.3048   22.5035 H   0  0  0  0  0
   20.2056    7.9915   22.3833 H   0  0  0  0  0
   25.0306    5.5044   15.8289 H   0  0  0  0  0
   24.3883    7.5916   13.4279 H   0  0  0  0  0
  1  2  1  0  0  0
  1 11  1  0  0  0
  1 13  2  0  0  0
  2  3  2  0  0  0
  2 10  1  0  0  0
  3  4  1  0  0  0
  4  5  4  0  0  0
  4  9  4  0  0  0
  5  6  4  0  0  0
  6  7  4  0  0  0
  6 14  1  0  0  0
  7  8  4  0  0  0
  7 15  1  0  0  0
  8  9  4  0  0  0
 10 12  3  0  0  0
  3 16  1  0  0  0
  5 17  1  0  0  0
  8 18  1  0  0  0
  9 19  1  0  0  0
 11 20  1  0  0  0
 11 21  1  0  0  0
 14 22  1  0  0  0
 15 23  1  0  0  0
M  END
$$$$
