5k0s_ligand
  -I-interpret- 

 45 47  0  0  0  0  0  0  0  0999 V2000
   28.9590    9.9640   11.7140 C   0  0  0  0  0
   27.9060   10.5100   10.9510 C   0  0  0  0  0
   27.9290   10.3830    9.2410 Cl  0  0  0  0  0
   26.8540   11.1540   11.5850 C   0  0  0  0  0
   26.8370   11.2530   12.9510 C   0  0  0  0  0
   25.5010   12.0690   13.7550 Cl  0  0  0  0  0
   27.8990   10.6990   13.7230 C   0  0  0  0  0
   28.9490   10.0590   13.0910 C   0  0  0  0  0
   30.0810    9.4670   13.9120 C   0  0  0  0  0
   30.7330    8.3780   13.2030 N   0  3  0  0  0
   29.9520    7.1670   13.3680 C   0  0  0  0  0
   30.7950    5.9750   13.9940 C   0  0  0  0  0
   30.7180    4.7220   13.1150 C   0  0  0  0  0
   29.3400    4.2400   13.0240 N   0  0  0  0  0
   28.8940    3.5080   11.8720 C   0  0  0  0  0
   29.7870    2.7640   11.1290 C   0  0  0  0  0
   29.3520    2.0520   10.0090 C   0  0  0  0  0
   30.2380    1.3200    9.2810 O   0  0  0  0  0
   27.9880    2.0970    9.6360 C   0  0  0  0  0
   27.5000    1.3390    8.4310 C   0  0  0  0  0
   26.1610    1.3840    8.0690 C   0  0  0  0  0
   25.2580    2.1420    8.8250 C   0  0  0  0  0
   25.7310    2.8780    9.9950 C   0  0  0  0  0
   27.1310    2.8240   10.3680 C   0  0  0  0  0
   27.5930    3.5510   11.5190 N   0  0  0  0  0
   29.7871    9.4632   11.2125 H   0  0  0  0  0
   26.0416   11.5809   10.9969 H   0  0  0  0  0
   27.8835   10.7797   14.8099 H   0  0  0  0  0
   29.6683    9.0777   14.8427 H   0  0  0  0  0
   30.8174   10.2478   14.1021 H   0  0  0  0  0
   31.6697    8.2356   13.5808 H   0  0  0  0  0
   30.8030    8.6080   12.2117 H   0  0  0  0  0
   29.6089    6.8529   12.3822 H   0  0  0  0  0
   29.1297    7.3889   14.0482 H   0  0  0  0  0
   30.3861    5.7373   14.9760 H   0  0  0  0  0
   31.8372    6.2860   14.0667 H   0  0  0  0  0
   31.3364    3.9414   13.5582 H   0  0  0  0  0
   31.0717    4.9706   12.1144 H   0  0  0  0  0
   28.6890    4.4258   13.7869 H   0  0  0  0  0
   30.8376    2.7316   11.4176 H   0  0  0  0  0
   29.7789    0.8969    8.5517 H   0  0  0  0  0
   28.2020    0.7515    7.8393 H   0  0  0  0  0
   25.8125    0.8301    7.1973 H   0  0  0  0  0
   24.2063    2.1826    8.5415 H   0  0  0  0  0
   25.0314    3.4677   10.5875 H   0  0  0  0  0
  1  2  4  0  0  0
  1  8  4  0  0  0
  2  3  1  0  0  0
  2  4  4  0  0  0
  4  5  4  0  0  0
  5  6  1  0  0  0
  5  7  4  0  0  0
  7  8  4  0  0  0
  8  9  1  0  0  0
  9 10  1  0  0  0
 10 11  1  0  0  0
 11 12  1  0  0  0
 12 13  1  0  0  0
 13 14  1  0  0  0
 14 15  1  0  0  0
 15 16  4  0  0  0
 15 25  4  0  0  0
 16 17  4  0  0  0
 17 18  1  0  0  0
 17 19  4  0  0  0
 19 20  4  0  0  0
 19 24  4  0  0  0
 20 21  4  0  0  0
 21 22  4  0  0  0
 22 23  4  0  0  0
 23 24  4  0  0  0
 24 25  4  0  0  0
  1 26  1  0  0  0
  4 27  1  0  0  0
  7 28  1  0  0  0
  9 29  1  0  0  0
  9 30  1  0  0  0
 10 31  1  0  0  0
 10 32  1  0  0  0
 11 33  1  0  0  0
 11 34  1  0  0  0
 12 35  1  0  0  0
 12 36  1  0  0  0
 13 37  1  0  0  0
 13 38  1  0  0  0
 14 39  1  0  0  0
 16 40  1  0  0  0
 18 41  1  0  0  0
 20 42  1  0  0  0
 21 43  1  0  0  0
 22 44  1  0  0  0
 23 45  1  0  0  0
M  END
$$$$
