2x2c_ligand
  -I-interpret- 

198198  0  0  0  0  0  0  0  0999 V2000
   36.4750    0.5930  -54.9050 N   0  0  0  0  0
   36.4180   -0.6040  -55.7620 C   0  0  0  0  0
   37.3660   -0.4820  -56.9020 C   0  0  0  0  0
   35.0140   -0.7680  -56.2980 C   0  0  0  0  0
   34.3550    0.2300  -56.5850 O   0  0  0  0  0
   34.5300   -2.0160  -56.4180 N   0  0  0  0  0
   35.2940   -3.2280  -56.0680 C   0  0  0  0  0
   33.1050   -2.2200  -56.7380 C   0  0  0  0  0
   32.9890   -2.9360  -58.0720 C   0  0  0  0  0
   33.6120   -2.1820  -59.2450 C   0  0  0  0  0
   32.9990   -0.7780  -59.5290 C   0  0  0  0  0
   33.5060   -3.0700  -60.4900 C   0  0  0  0  0
   32.3380   -2.9960  -55.6810 C   0  0  0  0  0
   32.0490   -4.1590  -55.8930 O   0  0  0  0  0
   32.0170   -2.3880  -54.5360 N   0  0  0  0  0
   32.4400   -1.0150  -54.2330 C   0  0  0  0  0
   31.3380   -3.1690  -53.4760 C   0  0  0  0  0
   32.0490   -3.0000  -52.1440 C   0  0  0  0  0
   33.4670   -3.6000  -52.0610 C   0  0  0  0  0
   33.5240   -5.0680  -52.5050 C   0  0  0  0  0
   34.0210   -3.5320  -50.6420 C   0  0  0  0  0
   29.8920   -2.7200  -53.4070 C   0  0  0  0  0
   29.5780   -1.6250  -53.9300 O   0  0  0  0  0
   28.9780   -3.4950  -52.8020 N   0  0  0  0  0
   29.2420   -4.8380  -52.3290 C   0  0  0  0  0
   27.6140   -2.9810  -52.6630 C   0  0  0  0  0
   26.5780   -3.8180  -53.3400 C   0  0  0  0  0
   27.0330   -4.1670  -54.7330 C   0  0  0  0  0
   25.2630   -3.0010  -53.3310 C   0  0  0  0  0
   27.1760   -2.8860  -51.2550 C   0  0  0  0  0
   26.6600   -3.8590  -50.6940 O   0  0  0  0  0
   27.9510   -1.7820  -50.2720 N   0  0  0  0  0
   28.3370   -0.5980  -51.0610 C   0  0  0  0  0
   27.5740   -1.7990  -48.8740 C   0  0  0  0  0
   26.4320   -0.8510  -48.5310 C   0  0  0  0  0
   25.8380   -0.2020  -49.4060 O   0  0  0  0  0
   28.8810   -1.5560  -48.0910 C   0  0  0  0  0
   29.2730   -0.2750  -48.4020 O   0  0  0  0  0
   30.0650   -2.5350  -48.3720 C   0  0  0  0  0
   29.5950   -3.9860  -48.4520 C   0  0  0  0  0
   31.2600   -2.4180  -47.3940 C   0  0  0  0  0
   31.0760   -2.8050  -45.9320 C   0  0  0  0  0
   31.2860   -1.8510  -44.8360 C   0  0  0  0  0
   30.8630   -2.2470  -43.4440 C   0  0  0  0  0
   26.0840   -0.7950  -47.2560 N   0  0  0  0  0
   24.9800   -0.0140  -46.7850 C   0  0  0  0  0
   25.5520    0.8640  -45.6910 C   0  0  0  0  0
   25.4130    0.5400  -44.5420 O   0  0  0  0  0
   23.9250   -0.9690  -46.1830 C   0  0  0  0  0
   23.3480   -1.9490  -47.2110 C   0  0  0  0  0
   26.2230    1.9550  -46.0460 N   0  0  0  0  0
   26.6830    2.9050  -45.0330 C   0  0  0  0  0
   28.1190    3.3410  -45.1590 C   0  0  0  0  0
   28.3520    4.5000  -45.4260 O   0  0  0  0  0
   26.4450    2.3070  -47.4240 C   0  0  0  0  0
   29.1000    2.4550  -44.9480 N   0  0  0  0  0
   28.7730    1.0490  -44.8300 C   0  0  0  0  0
   30.5090    2.7900  -45.3510 C   0  0  0  0  0
   31.5650    2.1800  -44.4590 C   0  0  0  0  0
   32.6280    3.0980  -43.8740 C   0  0  0  0  0
   32.9160    4.3740  -44.6520 C   0  0  0  0  0
   33.8920    2.2660  -43.6590 C   0  0  0  0  0
   30.7130    2.2450  -46.7430 C   0  0  0  0  0
   30.9150    1.0170  -46.9280 O   0  0  0  0  0
   30.5980    3.1180  -47.7380 N   0  0  0  0  0
   30.8560    2.7040  -49.0740 C   0  0  0  0  0
   32.3700    2.6570  -49.1580 C   0  0  0  0  0
   33.0230    3.5990  -48.7310 O   0  0  0  0  0
   30.2440    3.6250  -50.1250 C   0  0  0  0  0
   30.4940    3.0080  -51.5230 C   0  0  0  0  0
   28.7310    3.7750  -49.8510 C   0  0  0  0  0
   32.9240    1.5470  -49.6530 N   0  0  0  0  0
   32.1910    0.3280  -50.0650 C   0  0  0  0  0
   34.3630    1.5120  -49.8550 C   0  0  0  0  0
   35.0080    0.3040  -49.1410 C   0  0  0  0  0
   34.7220    0.3480  -47.6280 C   0  0  0  0  0
   35.4630    1.5050  -46.9940 C   0  0  0  0  0
   35.0620   -0.9420  -46.8910 C   0  0  0  0  0
   34.7810    1.5150  -51.3210 C   0  0  0  0  0
   33.9780    1.2700  -52.2270 O   0  0  0  0  0
   36.0530    1.8520  -51.5240 N   0  0  0  0  0
   36.7270    1.8110  -52.8200 C   0  0  0  0  0
   36.5240    0.5150  -53.5890 C   0  0  0  0  0
   36.4630   -0.5390  -53.0080 O   0  0  0  0  0
   38.2360    1.9910  -52.5820 C   0  0  0  0  0
   36.4766    1.5136  -55.3442 H   0  0  0  0  0
   36.6974   -1.4728  -55.1660 H   0  0  0  0  0
   37.3111   -1.3807  -57.5163 H   0  0  0  0  0
   37.0995    0.3874  -57.5031 H   0  0  0  0  0
   38.3796   -0.3636  -56.5189 H   0  0  0  0  0
   34.8496   -3.6949  -55.1890 H   0  0  0  0  0
   35.2679   -3.9265  -56.9044 H   0  0  0  0  0
   36.3271   -2.9552  -55.8529 H   0  0  0  0  0
   32.6529   -1.2290  -56.7782 H   0  0  0  0  0
   31.9259   -3.0433  -58.2875 H   0  0  0  0  0
   33.5242   -3.8808  -57.9770 H   0  0  0  0  0
   34.6482   -1.9774  -58.9755 H   0  0  0  0  0
   31.9382   -0.8852  -59.7553 H   0  0  0  0  0
   33.1222   -0.1447  -58.6505 H   0  0  0  0  0
   33.5093   -0.3254  -60.3792 H   0  0  0  0  0
   34.0409   -4.0035  -60.3155 H   0  0  0  0  0
   32.4568   -3.2836  -60.6941 H   0  0  0  0  0
   33.9452   -2.5520  -61.3426 H   0  0  0  0  0
   33.5287   -0.9622  -54.2378 H   0  0  0  0  0
   32.0388   -0.3378  -54.9870 H   0  0  0  0  0
   32.0654   -0.7293  -53.2501 H   0  0  0  0  0
   31.3695   -4.2328  -53.7113 H   0  0  0  0  0
   31.4471   -3.5277  -51.4041 H   0  0  0  0  0
   32.1586   -1.9270  -51.9869 H   0  0  0  0  0
   34.0675   -2.9953  -52.7405 H   0  0  0  0  0
   32.8733   -5.6650  -51.8661 H   0  0  0  0  0
   33.1907   -5.1465  -53.5398 H   0  0  0  0  0
   34.5484   -5.4314  -52.4233 H   0  0  0  0  0
   34.0669   -2.4914  -50.3207 H   0  0  0  0  0
   33.3692   -4.0922  -49.9716 H   0  0  0  0  0
   35.0216   -3.9640  -50.6229 H   0  0  0  0  0
   29.5468   -5.4639  -53.1677 H   0  0  0  0  0
   30.0393   -4.8101  -51.5862 H   0  0  0  0  0
   28.3379   -5.2474  -51.8782 H   0  0  0  0  0
   27.6816   -1.9995  -53.1322 H   0  0  0  0  0
   26.4165   -4.7649  -52.8249 H   0  0  0  0  0
   27.1863   -3.2512  -55.3039 H   0  0  0  0  0
   27.9683   -4.7242  -54.6794 H   0  0  0  0  0
   26.2724   -4.7773  -55.2201 H   0  0  0  0  0
   24.9759   -2.7884  -52.3012 H   0  0  0  0  0
   25.4148   -2.0646  -53.8679 H   0  0  0  0  0
   24.4757   -3.5767  -53.8176 H   0  0  0  0  0
   29.0088   -0.9013  -51.8640 H   0  0  0  0  0
   27.4442   -0.1394  -51.4862 H   0  0  0  0  0
   28.8424    0.1191  -50.4141 H   0  0  0  0  0
   27.1403   -2.7584  -48.5919 H   0  0  0  0  0
   28.6551   -1.7255  -47.0382 H   0  0  0  0  0
   30.0880   -0.0694  -47.9382 H   0  0  0  0  0
   30.4418   -2.2178  -49.3444 H   0  0  0  0  0
   29.1329   -4.2696  -47.5064 H   0  0  0  0  0
   28.8680   -4.0872  -49.2579 H   0  0  0  0  0
   30.4498   -4.6331  -48.6487 H   0  0  0  0  0
   31.4941   -1.3537  -47.3704 H   0  0  0  0  0
   31.9987   -3.1231  -47.7752 H   0  0  0  0  0
   31.8504   -3.5544  -45.7683 H   0  0  0  0  0
   30.0140   -3.0408  -45.8634 H   0  0  0  0  0
   30.6674   -0.9893  -45.0868 H   0  0  0  0  0
   32.3663   -1.7182  -44.7778 H   0  0  0  0  0
   29.7921   -2.4498  -43.4350 H   0  0  0  0  0
   31.4062   -3.1423  -43.1415 H   0  0  0  0  0
   31.0860   -1.4342  -42.7528 H   0  0  0  0  0
   26.6258   -1.3317  -46.5786 H   0  0  0  0  0
   24.5108    0.5742  -47.5737 H   0  0  0  0  0
   23.1028   -0.3605  -45.8065 H   0  0  0  0  0
   24.4133   -1.5544  -45.4039 H   0  0  0  0  0
   22.8691   -1.3901  -48.0149 H   0  0  0  0  0
   24.1527   -2.5596  -47.6206 H   0  0  0  0  0
   22.6134   -2.5917  -46.7259 H   0  0  0  0  0
   26.5948    2.4003  -44.0709 H   0  0  0  0  0
   26.0746    3.8019  -45.1491 H   0  0  0  0  0
   27.0028    1.5101  -47.9159 H   0  0  0  0  0
   25.4850    2.4415  -47.9225 H   0  0  0  0  0
   27.0146    3.2350  -47.4734 H   0  0  0  0  0
   28.0927    0.9047  -43.9907 H   0  0  0  0  0
   28.2951    0.7100  -45.7491 H   0  0  0  0  0
   29.6860    0.4778  -44.6617 H   0  0  0  0  0
   30.6220    3.8718  -45.2807 H   0  0  0  0  0
   32.1075    1.4787  -45.0931 H   0  0  0  0  0
   31.0228    1.7836  -43.6005 H   0  0  0  0  0
   32.2327    3.4831  -42.9340 H   0  0  0  0  0
   33.2580    4.1173  -45.6546 H   0  0  0  0  0
   32.0062    4.9705  -44.7187 H   0  0  0  0  0
   33.6893    4.9448  -44.1379 H   0  0  0  0  0
   33.6750    1.4490  -42.9709 H   0  0  0  0  0
   34.2247    1.8596  -44.6141 H   0  0  0  0  0
   34.6745    2.8981  -43.2393 H   0  0  0  0  0
   30.3256    4.0817  -47.5444 H   0  0  0  0  0
   30.3931    1.7414  -49.2914 H   0  0  0  0  0
   30.6996    4.6144  -50.0850 H   0  0  0  0  0
   31.5669    2.9126  -51.6900 H   0  0  0  0  0
   30.0283    2.0238  -51.5729 H   0  0  0  0  0
   30.0622    3.6549  -52.2867 H   0  0  0  0  0
   28.2552    2.7956  -49.9007 H   0  0  0  0  0
   28.5833    4.2022  -48.8591 H   0  0  0  0  0
   28.2908    4.4327  -50.6005 H   0  0  0  0  0
   31.6484   -0.0747  -49.2097 H   0  0  0  0  0
   31.4867    0.5797  -50.8579 H   0  0  0  0  0
   32.9002   -0.4151  -50.4296 H   0  0  0  0  0
   34.7285    2.4390  -49.4132 H   0  0  0  0  0
   36.0863    0.3379  -49.2965 H   0  0  0  0  0
   34.5873   -0.6136  -49.5522 H   0  0  0  0  0
   33.6443    0.4804  -47.5325 H   0  0  0  0  0
   36.5340    1.3799  -47.1534 H   0  0  0  0  0
   35.1333    2.4390  -47.4490 H   0  0  0  0  0
   35.2536    1.5266  -45.9245 H   0  0  0  0  0
   34.4741   -1.7612  -47.3049 H   0  0  0  0  0
   36.1236   -1.1583  -47.0106 H   0  0  0  0  0
   34.8306   -0.8258  -45.8322 H   0  0  0  0  0
   36.5957    2.1608  -50.7174 H   0  0  0  0  0
   36.2919    2.6076  -53.4235 H   0  0  0  0  0
   38.4140    2.9505  -52.0964 H   0  0  0  0  0
   38.6004    1.1861  -51.9437 H   0  0  0  0  0
   38.7591    1.9635  -53.5379 H   0  0  0  0  0
  1  2  1  0  0  0
  1 83  1  0  0  0
  2  3  1  0  0  0
  2  4  1  0  0  0
  4  5  2  0  0  0
  4  6  1  0  0  0
  6  7  1  0  0  0
  6  8  1  0  0  0
  8  9  1  0  0  0
  8 13  1  0  0  0
  9 10  1  0  0  0
 10 11  1  0  0  0
 10 12  1  0  0  0
 13 14  2  0  0  0
 13 15  1  0  0  0
 15 16  1  0  0  0
 15 17  1  0  0  0
 17 18  1  0  0  0
 17 22  1  0  0  0
 18 19  1  0  0  0
 19 20  1  0  0  0
 19 21  1  0  0  0
 22 23  2  0  0  0
 22 24  1  0  0  0
 24 25  1  0  0  0
 24 26  1  0  0  0
 26 27  1  0  0  0
 26 30  1  0  0  0
 27 28  1  0  0  0
 27 29  1  0  0  0
 30 31  2  0  0  0
 30 32  1  0  0  0
 32 33  1  0  0  0
 32 34  1  0  0  0
 34 35  1  0  0  0
 34 37  1  0  0  0
 35 36  2  0  0  0
 35 45  1  0  0  0
 37 38  1  0  0  0
 37 39  1  0  0  0
 39 40  1  0  0  0
 39 41  1  0  0  0
 41 42  1  0  0  0
 42 43  1  0  0  0
 43 44  1  0  0  0
 45 46  1  0  0  0
 46 47  1  0  0  0
 46 49  1  0  0  0
 47 48  2  0  0  0
 47 51  1  0  0  0
 49 50  1  0  0  0
 51 52  1  0  0  0
 51 55  1  0  0  0
 52 53  1  0  0  0
 53 54  2  0  0  0
 53 56  1  0  0  0
 56 57  1  0  0  0
 56 58  1  0  0  0
 58 59  1  0  0  0
 58 63  1  0  0  0
 59 60  1  0  0  0
 60 61  1  0  0  0
 60 62  1  0  0  0
 63 64  2  0  0  0
 63 65  1  0  0  0
 65 66  1  0  0  0
 66 67  1  0  0  0
 66 69  1  0  0  0
 67 68  2  0  0  0
 67 72  1  0  0  0
 69 70  1  0  0  0
 69 71  1  0  0  0
 72 73  1  0  0  0
 72 74  1  0  0  0
 74 75  1  0  0  0
 74 79  1  0  0  0
 75 76  1  0  0  0
 76 77  1  0  0  0
 76 78  1  0  0  0
 79 80  2  0  0  0
 79 81  1  0  0  0
 81 82  1  0  0  0
 82 83  1  0  0  0
 82 85  1  0  0  0
 83 84  2  0  0  0
  1 86  1  0  0  0
  2 87  1  0  0  0
  3 88  1  0  0  0
  3 89  1  0  0  0
  3 90  1  0  0  0
  7 91  1  0  0  0
  7 92  1  0  0  0
  7 93  1  0  0  0
  8 94  1  0  0  0
  9 95  1  0  0  0
  9 96  1  0  0  0
 10 97  1  0  0  0
 11 98  1  0  0  0
 11 99  1  0  0  0
 11100  1  0  0  0
 12101  1  0  0  0
 12102  1  0  0  0
 12103  1  0  0  0
 16104  1  0  0  0
 16105  1  0  0  0
 16106  1  0  0  0
 17107  1  0  0  0
 18108  1  0  0  0
 18109  1  0  0  0
 19110  1  0  0  0
 20111  1  0  0  0
 20112  1  0  0  0
 20113  1  0  0  0
 21114  1  0  0  0
 21115  1  0  0  0
 21116  1  0  0  0
 25117  1  0  0  0
 25118  1  0  0  0
 25119  1  0  0  0
 26120  1  0  0  0
 27121  1  0  0  0
 28122  1  0  0  0
 28123  1  0  0  0
 28124  1  0  0  0
 29125  1  0  0  0
 29126  1  0  0  0
 29127  1  0  0  0
 33128  1  0  0  0
 33129  1  0  0  0
 33130  1  0  0  0
 34131  1  0  0  0
 37132  1  0  0  0
 38133  1  0  0  0
 39134  1  0  0  0
 40135  1  0  0  0
 40136  1  0  0  0
 40137  1  0  0  0
 41138  1  0  0  0
 41139  1  0  0  0
 42140  1  0  0  0
 42141  1  0  0  0
 43142  1  0  0  0
 43143  1  0  0  0
 44144  1  0  0  0
 44145  1  0  0  0
 44146  1  0  0  0
 45147  1  0  0  0
 46148  1  0  0  0
 49149  1  0  0  0
 49150  1  0  0  0
 50151  1  0  0  0
 50152  1  0  0  0
 50153  1  0  0  0
 52154  1  0  0  0
 52155  1  0  0  0
 55156  1  0  0  0
 55157  1  0  0  0
 55158  1  0  0  0
 57159  1  0  0  0
 57160  1  0  0  0
 57161  1  0  0  0
 58162  1  0  0  0
 59163  1  0  0  0
 59164  1  0  0  0
 60165  1  0  0  0
 61166  1  0  0  0
 61167  1  0  0  0
 61168  1  0  0  0
 62169  1  0  0  0
 62170  1  0  0  0
 62171  1  0  0  0
 65172  1  0  0  0
 66173  1  0  0  0
 69174  1  0  0  0
 70175  1  0  0  0
 70176  1  0  0  0
 70177  1  0  0  0
 71178  1  0  0  0
 71179  1  0  0  0
 71180  1  0  0  0
 73181  1  0  0  0
 73182  1  0  0  0
 73183  1  0  0  0
 74184  1  0  0  0
 75185  1  0  0  0
 75186  1  0  0  0
 76187  1  0  0  0
 77188  1  0  0  0
 77189  1  0  0  0
 77190  1  0  0  0
 78191  1  0  0  0
 78192  1  0  0  0
 78193  1  0  0  0
 81194  1  0  0  0
 82195  1  0  0  0
 85196  1  0  0  0
 85197  1  0  0  0
 85198  1  0  0  0
M  END
$$$$
