### 
### Created by X-TOOL on Mon Sep 10 21:13:04 2018
### 

@<TRIPOS>MOLECULE
2x2c_ligand
  198   198     1     0     0
SMALL
GAST_HUCK


@<TRIPOS>ATOM
      1 N          36.4750    0.5930  -54.9050 N.am      1 DAL        -0.2640
      2 CA         36.4180   -0.6040  -55.7620 C.3       1 DAL         0.1284
      3 CB         37.3660   -0.4820  -56.9020 C.3       1 DAL        -0.0244
      4 C          35.0140   -0.7680  -56.2980 C.2       1 DAL         0.2059
      5 O          34.3550    0.2300  -56.5850 O.2       1 DAL        -0.3942
      6 N          34.5300   -2.0160  -56.4180 N.am      1 MLE        -0.2529
      7 CN         35.2940   -3.2280  -56.0680 C.3       1 MLE         0.0254
      8 CA         33.1050   -2.2200  -56.7380 C.3       1 MLE         0.1338
      9 CB         32.9890   -2.9360  -58.0720 C.3       1 MLE        -0.0099
     10 CG         33.6120   -2.1820  -59.2450 C.3       1 MLE        -0.0425
     11 CD1        32.9990   -0.7780  -59.5290 C.3       1 MLE        -0.0625
     12 CD2        33.5060   -3.0700  -60.4900 C.3       1 MLE        -0.0625
     13 C          32.3380   -2.9960  -55.6810 C.2       1 MLE         0.2064
     14 O          32.0490   -4.1590  -55.8930 O.2       1 MLE        -0.3942
     15 N          32.0170   -2.3880  -54.5360 N.am      1 MLE        -0.2529
     16 CN         32.4400   -1.0150  -54.2330 C.3       1 MLE         0.0254
     17 CA         31.3380   -3.1690  -53.4760 C.3       1 MLE         0.1338
     18 CB         32.0490   -3.0000  -52.1440 C.3       1 MLE        -0.0099
     19 CG         33.4670   -3.6000  -52.0610 C.3       1 MLE        -0.0425
     20 CD1        33.5240   -5.0680  -52.5050 C.3       1 MLE        -0.0625
     21 CD2        34.0210   -3.5320  -50.6420 C.3       1 MLE        -0.0625
     22 C          29.8920   -2.7200  -53.4070 C.2       1 MLE         0.2064
     23 O          29.5780   -1.6250  -53.9300 O.2       1 MLE        -0.3942
     24 N          28.9780   -3.4950  -52.8020 N.am      1 MVA        -0.2526
     25 CN         29.2420   -4.8380  -52.3290 C.3       1 MVA         0.0254
     26 CA         27.6140   -2.9810  -52.6630 C.3       1 MVA         0.1359
     27 CB         26.5780   -3.8180  -53.3400 C.3       1 MVA        -0.0061
     28 CG1        27.0330   -4.1670  -54.7330 C.3       1 MVA        -0.0584
     29 CG2        25.2630   -3.0010  -53.3310 C.3       1 MVA        -0.0584
     30 C          27.1760   -2.8860  -51.2550 C.2       1 MVA         0.2067
     31 O          26.6600   -3.8590  -50.6940 O.2       1 MVA        -0.3942
     32 N          27.9510   -1.7820  -50.2720 N.am      1 BMT        -0.2503
     33 CN         28.3370   -0.5980  -51.0610 C.3       1 BMT         0.0255
     34 CA         27.5740   -1.7990  -48.8740 C.3       1 BMT         0.1592
     35 C          26.4320   -0.8510  -48.5310 C.2       1 BMT         0.2067
     36 O          25.8380   -0.2020  -49.4060 O.2       1 BMT        -0.3943
     37 CB         28.8810   -1.5560  -48.0910 C.3       1 BMT         0.0979
     38 OG1        29.2730   -0.2750  -48.4020 O.3       1 BMT        -0.3868
     39 CG2        30.0650   -2.5350  -48.3720 C.3       1 BMT        -0.0134
     40 CD1        29.5950   -3.9860  -48.4520 C.3       1 BMT        -0.0598
     41 CD2        31.2600   -2.4180  -47.3940 C.3       1 BMT        -0.0479
     42 CE         31.0760   -2.8050  -45.9320 C.3       1 BMT        -0.0530
     43 CZ         31.2860   -1.8510  -44.8360 C.3       1 BMT        -0.0559
     44 CH         30.8630   -2.2470  -43.4440 C.3       1 BMT        -0.0653
     45 N          26.0840   -0.7950  -47.2560 N.am      1 ABA        -0.2636
     46 CA         24.9800   -0.0140  -46.7850 C.3       1 ABA         0.1309
     47 C          25.5520    0.8640  -45.6910 C.2       1 ABA         0.2059
     48 O          25.4130    0.5400  -44.5420 O.2       1 ABA        -0.3942
     49 CB         23.9250   -0.9690  -46.1830 C.3       1 ABA        -0.0152
     50 CG         23.3480   -1.9490  -47.2110 C.3       1 ABA        -0.0610
     51 N          26.2230    1.9550  -46.0460 N.am      1 SAR        -0.2556
     52 CA         26.6830    2.9050  -45.0330 C.3       1 SAR         0.1227
     53 C          28.1190    3.3410  -45.1590 C.2       1 SAR         0.2032
     54 O          28.3520    4.5000  -45.4260 O.2       1 SAR        -0.3945
     55 CN         26.4450    2.3070  -47.4240 C.3       1 SAR         0.0252
     56 N          29.1000    2.4550  -44.9480 N.am      1 MLE        -0.2531
     57 CN         28.7730    1.0490  -44.8300 C.3       1 MLE         0.0254
     58 CA         30.5090    2.7900  -45.3510 C.3       1 MLE         0.1336
     59 CB         31.5650    2.1800  -44.4590 C.3       1 MLE        -0.0099
     60 CG         32.6280    3.0980  -43.8740 C.3       1 MLE        -0.0425
     61 CD1        32.9160    4.3740  -44.6520 C.3       1 MLE        -0.0625
     62 CD2        33.8920    2.2660  -43.6590 C.3       1 MLE        -0.0625
     63 C          30.7130    2.2450  -46.7430 C.2       1 MLE         0.2041
     64 O          30.9150    1.0170  -46.9280 O.2       1 MLE        -0.3944
     65 N          30.5980    3.1180  -47.7380 N.am      1 VAL        -0.2635
     66 CA         30.8560    2.7040  -49.0740 C.3       1 VAL         0.1334
     67 C          32.3700    2.6570  -49.1580 C.2       1 VAL         0.2064
     68 O          33.0230    3.5990  -48.7310 O.2       1 VAL        -0.3942
     69 CB         30.2440    3.6250  -50.1250 C.3       1 VAL        -0.0062
     70 CG1        30.4940    3.0080  -51.5230 C.3       1 VAL        -0.0584
     71 CG2        28.7310    3.7750  -49.8510 C.3       1 VAL        -0.0584
     72 N          32.9240    1.5470  -49.6530 N.am      1 MLE        -0.2529
     73 CN         32.1910    0.3280  -50.0650 C.3       1 MLE         0.0254
     74 CA         34.3630    1.5120  -49.8550 C.3       1 MLE         0.1336
     75 CB         35.0080    0.3040  -49.1410 C.3       1 MLE        -0.0099
     76 CG         34.7220    0.3480  -47.6280 C.3       1 MLE        -0.0425
     77 CD1        35.4630    1.5050  -46.9940 C.3       1 MLE        -0.0625
     78 CD2        35.0620   -0.9420  -46.8910 C.3       1 MLE        -0.0625
     79 C          34.7810    1.5150  -51.3210 C.2       1 MLE         0.2041
     80 O          33.9780    1.2700  -52.2270 O.2       1 MLE        -0.3944
     81 N          36.0530    1.8520  -51.5240 N.am      1 ALA        -0.2640
     82 CA         36.7270    1.8110  -52.8200 C.3       1 ALA         0.1282
     83 C          36.5240    0.5150  -53.5890 C.2       1 ALA         0.2036
     84 O          36.4630   -0.5390  -53.0080 O.2       1 ALA        -0.3944
     85 CB         38.2360    1.9910  -52.5820 C.3       1 ALA        -0.0244
     86 H1         36.4766    1.4955  -55.3356 H         1 DAL         0.1883
     87 H2         36.6861   -1.4875  -55.1640 H         1 DAL         0.0797
     88 H3         37.3062   -1.3853  -57.5269 H         1 DAL         0.0277
     89 H4         38.3902   -0.3698  -56.5168 H         1 DAL         0.0277
     90 H5         37.1025    0.3992  -57.5053 H         1 DAL         0.0277
     91 H6         36.3369   -2.9540  -55.8506 H         1 MLE         0.0488
     92 H7         35.2685   -3.9338  -56.9113 H         1 MLE         0.0488
     93 H8         34.8465   -3.7002  -55.1810 H         1 MLE         0.0488
     94 H9         32.6374   -1.2285  -56.8293 H         1 MLE         0.0802
     95 H10        31.9217   -3.0898  -58.2890 H         1 MLE         0.0315
     96 H11        33.4897   -3.9115  -57.9844 H         1 MLE         0.0315
     97 H12        34.6766   -2.0298  -59.0138 H         1 MLE         0.0298
     98 H13        33.5132   -0.3202  -60.3869 H         1 MLE         0.0232
     99 H14        33.1228   -0.1378  -58.6431 H         1 MLE         0.0232
    100 H15        31.9283   -0.8848  -59.7576 H         1 MLE         0.0232
    101 H16        33.9422   -4.0566  -60.2748 H         1 MLE         0.0232
    102 H17        34.0518   -2.6014  -61.3222 H         1 MLE         0.0232
    103 H18        32.4480   -3.1893  -60.7664 H         1 MLE         0.0232
    104 H19        32.9243   -0.5768  -55.1181 H         1 MLE         0.0488
    105 H20        33.1514   -1.0272  -53.3941 H         1 MLE         0.0488
    106 H21        31.5612   -0.4124  -53.9598 H         1 MLE         0.0488
    107 H22        31.3635   -4.2349  -53.7463 H         1 MLE         0.0802
    108 H23        31.4333   -3.4800  -51.3691 H         1 MLE         0.0315
    109 H24        32.1255   -1.9225  -51.9362 H         1 MLE         0.0315
    110 H25        34.1178   -3.0104  -52.7233 H         1 MLE         0.0298
    111 H26        34.5574   -5.4360  -52.4230 H         1 MLE         0.0232
    112 H27        33.1879   -5.1486  -53.5493 H         1 MLE         0.0232
    113 H28        32.8677   -5.6717  -51.8609 H         1 MLE         0.0232
    114 H29        33.9961   -2.4908  -50.2882 H         1 MLE         0.0232
    115 H30        35.0588   -3.8966  -50.6357 H         1 MLE         0.0232
    116 H31        33.4078   -4.1595  -49.9785 H         1 MLE         0.0232
    117 H32        30.3006   -5.0848  -52.4980 H         1 MVA         0.0488
    118 H33        28.6075   -5.5508  -52.8761 H         1 MVA         0.0488
    119 H34        29.0186   -4.8986  -51.2536 H         1 MVA         0.0488
    120 H35        27.5995   -1.9753  -53.1084 H         1 MVA         0.0804
    121 H36        26.4276   -4.7505  -52.7763 H         1 MVA         0.0343
    122 H37        26.2662   -4.7829  -55.2256 H         1 MVA         0.0234
    123 H38        27.9769   -4.7294  -54.6803 H         1 MVA         0.0234
    124 H39        27.1881   -3.2436  -55.3103 H         1 MVA         0.0234
    125 H40        24.9789   -2.7750  -52.2926 H         1 MVA         0.0234
    126 H41        24.4645   -3.5861  -53.8106 H         1 MVA         0.0234
    127 H42        25.4113   -2.0613  -53.8833 H         1 MVA         0.0234
    128 H43        28.5681   -0.9039  -52.0920 H         1 BMT         0.0488
    129 H44        29.2244   -0.1300  -50.6098 H         1 BMT         0.0488
    130 H45        27.5066    0.1233  -51.0700 H         1 BMT         0.0488
    131 H46        27.2178   -2.8105  -48.6291 H         1 BMT         0.0828
    132 H47        28.6502   -1.6201  -47.0174 H         1 BMT         0.0645
    133 H48        30.0795   -0.0716  -47.9430 H         1 BMT         0.2101
    134 H49        30.4512   -2.2666  -49.3664 H         1 BMT         0.0325
    135 H50        30.4568   -4.6401  -48.6504 H         1 BMT         0.0233
    136 H51        28.8613   -4.0895  -49.2650 H         1 BMT         0.0233
    137 H52        29.1285   -4.2735  -47.4982 H         1 BMT         0.0233
    138 H53        31.5826   -1.3665  -47.4080 H         1 BMT         0.0269
    139 H54        32.0638   -3.0536  -47.7940 H         1 BMT         0.0269
    140 H55        31.7663   -3.6412  -45.7470 H         1 BMT         0.0265
    141 H56        30.0386   -3.1580  -45.8365 H         1 BMT         0.0265
    142 H57        30.7353   -0.9344  -45.0938 H         1 BMT         0.0263
    143 H58        32.3635   -1.6329  -44.7978 H         1 BMT         0.0263
    144 H59        31.0876   -1.4275  -42.7455 H         1 BMT         0.0230
    145 H60        31.4105   -3.1504  -43.1374 H         1 BMT         0.0230
    146 H61        29.7823   -2.4519  -43.4335 H         1 BMT         0.0230
    147 H62        26.6152   -1.3212  -46.5919 H         1 ABA         0.1883
    148 H63        24.5400    0.5898  -47.5923 H         1 ABA         0.0800
    149 H64        23.1012   -0.3670  -45.7719 H         1 ABA         0.0310
    150 H65        24.3961   -1.5467  -45.3741 H         1 ABA         0.0310
    151 H66        22.6064   -2.5983  -46.7226 H         1 ABA         0.0232
    152 H67        24.1592   -2.5659  -47.6251 H         1 ABA         0.0232
    153 H68        22.8643   -1.3861  -48.0229 H         1 ABA         0.0232
    154 H69        26.5564    2.4361  -44.0460 H         1 SAR         0.0765
    155 H70        26.0495    3.8020  -45.0968 H         1 SAR         0.0765
    156 H71        26.0534    1.5103  -48.0736 H         1 SAR         0.0488
    157 H72        27.5236    2.4283  -47.6023 H         1 SAR         0.0488
    158 H73        25.9276    3.2512  -47.6492 H         1 SAR         0.0488
    159 H74        27.7198    0.9413  -44.5314 H         1 MLE         0.0488
    160 H75        29.4188    0.5848  -44.0701 H         1 MLE         0.0488
    161 H76        28.9319    0.5530  -45.7989 H         1 MLE         0.0488
    162 H77        30.6308    3.8832  -45.3489 H         1 MLE         0.0802
    163 H78        32.0861    1.4114  -45.0486 H         1 MLE         0.0315
    164 H79        31.0443    1.7042  -43.6149 H         1 MLE         0.0315
    165 H80        32.2650    3.4185  -42.8863 H         1 MLE         0.0298
    166 H81        33.6964    4.9509  -44.1341 H         1 MLE         0.0232
    167 H82        31.9985    4.9770  -44.7200 H         1 MLE         0.0232
    168 H83        33.2613    4.1163  -45.6641 H         1 MLE         0.0232
    169 H84        33.6403    1.3559  -43.0948 H         1 MLE         0.0232
    170 H85        34.6278    2.8564  -43.0933 H         1 MLE         0.0232
    171 H86        34.3176    1.9869  -44.6342 H         1 MLE         0.0232
    172 H87        30.3310    4.0628  -47.5482 H         1 VAL         0.1883
    173 H88        30.4452    1.6956  -49.2304 H         1 VAL         0.0803
    174 H89        30.7208    4.6149  -50.0730 H         1 VAL         0.0343
    175 H90        30.0587    3.6599  -52.2947 H         1 VAL         0.0234
    176 H91        30.0244    2.0146  -51.5747 H         1 VAL         0.0234
    177 H92        31.5765    2.9112  -51.6928 H         1 VAL         0.0234
    178 H93        28.5808    4.2145  -48.8539 H         1 VAL         0.0234
    179 H94        28.2511    2.7860  -49.8918 H         1 VAL         0.0234
    180 H95        28.2838    4.4313  -50.6121 H         1 VAL         0.0234
    181 H96        31.1169    0.4623  -49.8692 H         1 MLE         0.0488
    182 H97        32.5630   -0.5346  -49.4927 H         1 MLE         0.0488
    183 H98        32.3485    0.1509  -51.1391 H         1 MLE         0.0488
    184 H99        34.7702    2.4262  -49.3985 H         1 MLE         0.0802
    185 H100       36.0957    0.3273  -49.3034 H         1 MLE         0.0315
    186 H101       34.5946   -0.6255  -49.5595 H         1 MLE         0.0315
    187 H102       33.6429    0.5221  -47.5043 H         1 MLE         0.0298
    188 H103       35.2525    1.5278  -45.9146 H         1 MLE         0.0232
    189 H104       35.1311    2.4483  -47.4523 H         1 MLE         0.0232
    190 H105       36.5441    1.3800  -47.1541 H         1 MLE         0.0232
    191 H106       34.5224   -1.7816  -47.3534 H         1 MLE         0.0232
    192 H107       34.7639   -0.8511  -45.8361 H         1 MLE         0.0232
    193 H108       36.1451   -1.1244  -46.9516 H         1 MLE         0.0232
    194 H109       36.5851    2.1547  -50.7333 H         1 ALA         0.1883
    195 H110       36.3483    2.6416  -53.4338 H         1 ALA         0.0797
    196 H111       38.7651    1.9634  -53.5460 H         1 ALA         0.0277
    197 H112       38.6050    1.1793  -51.9379 H         1 ALA         0.0277
    198 H113       38.4170    2.9590  -52.0920 H         1 ALA         0.0277
@<TRIPOS>BOND
     1    1    2 1  
     2    1   83 am 
     3    2    3 1  
     4    2    4 1  
     5    4    5 2  
     6    4    6 am 
     7    6    7 1  
     8    6    8 1  
     9    8    9 1  
    10    8   13 1  
    11    9   10 1  
    12   10   11 1  
    13   10   12 1  
    14   13   14 2  
    15   13   15 am 
    16   15   16 1  
    17   15   17 1  
    18   17   18 1  
    19   17   22 1  
    20   18   19 1  
    21   19   20 1  
    22   19   21 1  
    23   22   23 2  
    24   22   24 am 
    25   24   25 1  
    26   24   26 1  
    27   26   27 1  
    28   26   30 1  
    29   27   28 1  
    30   27   29 1  
    31   30   31 2  
    32   30   32 am 
    33   32   33 1  
    34   32   34 1  
    35   34   35 1  
    36   34   37 1  
    37   35   36 2  
    38   35   45 am 
    39   37   38 1  
    40   37   39 1  
    41   39   40 1  
    42   39   41 1  
    43   41   42 1  
    44   42   43 1  
    45   43   44 1  
    46   45   46 1  
    47   46   47 1  
    48   46   49 1  
    49   47   48 2  
    50   47   51 am 
    51   49   50 1  
    52   51   52 1  
    53   51   55 1  
    54   52   53 1  
    55   53   54 2  
    56   53   56 am 
    57   56   57 1  
    58   56   58 1  
    59   58   59 1  
    60   58   63 1  
    61   59   60 1  
    62   60   61 1  
    63   60   62 1  
    64   63   64 2  
    65   63   65 am 
    66   65   66 1  
    67   66   67 1  
    68   66   69 1  
    69   67   68 2  
    70   67   72 am 
    71   69   70 1  
    72   69   71 1  
    73   72   73 1  
    74   72   74 1  
    75   74   75 1  
    76   74   79 1  
    77   75   76 1  
    78   76   77 1  
    79   76   78 1  
    80   79   80 2  
    81   79   81 am 
    82   81   82 1  
    83   82   83 1  
    84   82   85 1  
    85   83   84 2  
    86    1   86 1  
    87    2   87 1  
    88    3   88 1  
    89    3   89 1  
    90    3   90 1  
    91    7   91 1  
    92    7   92 1  
    93    7   93 1  
    94    8   94 1  
    95    9   95 1  
    96    9   96 1  
    97   10   97 1  
    98   11   98 1  
    99   11   99 1  
   100   11  100 1  
   101   12  101 1  
   102   12  102 1  
   103   12  103 1  
   104   16  104 1  
   105   16  105 1  
   106   16  106 1  
   107   17  107 1  
   108   18  108 1  
   109   18  109 1  
   110   19  110 1  
   111   20  111 1  
   112   20  112 1  
   113   20  113 1  
   114   21  114 1  
   115   21  115 1  
   116   21  116 1  
   117   25  117 1  
   118   25  118 1  
   119   25  119 1  
   120   26  120 1  
   121   27  121 1  
   122   28  122 1  
   123   28  123 1  
   124   28  124 1  
   125   29  125 1  
   126   29  126 1  
   127   29  127 1  
   128   33  128 1  
   129   33  129 1  
   130   33  130 1  
   131   34  131 1  
   132   37  132 1  
   133   38  133 1  
   134   39  134 1  
   135   40  135 1  
   136   40  136 1  
   137   40  137 1  
   138   41  138 1  
   139   41  139 1  
   140   42  140 1  
   141   42  141 1  
   142   43  142 1  
   143   43  143 1  
   144   44  144 1  
   145   44  145 1  
   146   44  146 1  
   147   45  147 1  
   148   46  148 1  
   149   49  149 1  
   150   49  150 1  
   151   50  151 1  
   152   50  152 1  
   153   50  153 1  
   154   52  154 1  
   155   52  155 1  
   156   55  156 1  
   157   55  157 1  
   158   55  158 1  
   159   57  159 1  
   160   57  160 1  
   161   57  161 1  
   162   58  162 1  
   163   59  163 1  
   164   59  164 1  
   165   60  165 1  
   166   61  166 1  
   167   61  167 1  
   168   61  168 1  
   169   62  169 1  
   170   62  170 1  
   171   62  171 1  
   172   65  172 1  
   173   66  173 1  
   174   69  174 1  
   175   70  175 1  
   176   70  176 1  
   177   70  177 1  
   178   71  178 1  
   179   71  179 1  
   180   71  180 1  
   181   73  181 1  
   182   73  182 1  
   183   73  183 1  
   184   74  184 1  
   185   75  185 1  
   186   75  186 1  
   187   76  187 1  
   188   77  188 1  
   189   77  189 1  
   190   77  190 1  
   191   78  191 1  
   192   78  192 1  
   193   78  193 1  
   194   81  194 1  
   195   82  195 1  
   196   85  196 1  
   197   85  197 1  
   198   85  198 1  
@<TRIPOS>SUBSTRUCTURE
     1 DAL         1

