### 
### Created by X-TOOL on Mon Sep 10 21:13:19 2018
### 

@<TRIPOS>MOLECULE
4qk4_ligand
  139   139     1     0     0
SMALL
GAST_HUCK


@<TRIPOS>ATOM
      1 P1        -24.0350   46.5740  -12.0170 P.3       1 PIK         0.2557
      2 O11       -25.4230   46.0680  -12.3060 O.co2     1 PIK        -0.6177
      3 O12       -23.5910   46.0710  -10.6700 O.co2     1 PIK        -0.6177
      4 O13       -23.0430   46.0440  -13.1440 O.3       1 PIK        -0.2511
      5 CBG       -18.7310   37.0300   -3.9890 C.3       1 PIK        -0.0653
      6 CBF       -18.2260   38.0480   -4.9800 C.3       1 PIK        -0.0559
      7 CBE       -18.5310   37.6150   -6.4440 C.3       1 PIK        -0.0533
      8 CBD       -19.4380   38.6210   -7.1590 C.3       1 PIK        -0.0531
      9 CBC       -20.7880   37.9550   -7.6280 C.3       1 PIK        -0.0531
     10 CBB       -22.0080   38.8520   -7.3720 C.3       1 PIK        -0.0531
     11 CBA       -23.2400   38.0530   -6.9180 C.3       1 PIK        -0.0531
     12 CB9       -24.3760   38.0780   -7.9420 C.3       1 PIK        -0.0531
     13 CB8       -23.8930   37.8280   -9.3820 C.3       1 PIK        -0.0531
     14 CB7       -25.0150   37.3090  -10.2940 C.3       1 PIK        -0.0531
     15 CB6       -24.5040   36.9540  -11.7230 C.3       1 PIK        -0.0531
     16 CB5       -24.9920   37.9450  -12.7940 C.3       1 PIK        -0.0529
     17 CB4       -24.7800   39.4360  -12.3930 C.3       1 PIK        -0.0509
     18 CB3       -24.5240   40.3500  -13.6240 C.3       1 PIK        -0.0348
     19 CB2       -23.1200   41.0090  -13.5930 C.3       1 PIK         0.0487
     20 CB1       -23.0340   42.2460  -14.5060 C.2       1 PIK         0.2341
     21 OB2       -23.8980   42.4210  -15.3520 O.2       1 PIK        -0.3704
     22 OB1       -21.7480   42.9340  -14.6360 O.3       1 PIK        -0.2681
     23 C8        -21.6520   44.2620  -14.0380 C.3       1 PIK         0.1433
     24 C7        -22.9780   44.6240  -13.3450 C.3       1 PIK         0.1167
     25 C1        -25.2820   48.7930  -12.3370 C.3       1 PIK         0.1512
     26 C2        -25.2480   49.3430  -13.7530 C.3       1 PIK         0.1175
     27 C3        -26.6120   49.8980  -14.0910 C.3       1 PIK         0.1172
     28 C4        -27.0000   50.9910  -13.0990 C.3       1 PIK         0.1503
     29 C5        -26.9990   50.4470  -11.6810 C.3       1 PIK         0.1507
     30 C6        -25.6230   49.9010  -11.3540 C.3       1 PIK         0.1222
     31 O1        -24.0520   48.1580  -12.0210 O.3       1 PIK        -0.2454
     32 O2        -24.3130   50.3860  -13.8080 O.3       1 PIK        -0.3861
     33 O3        -26.6330   50.3890  -15.4290 O.3       1 PIK        -0.3861
     34 O4        -28.2650   51.5400  -13.4430 O.3       1 PIK        -0.2672
     35 O5        -27.3550   51.4310  -10.7830 O.3       1 PIK        -0.2672
     36 O6        -25.5730   49.4210   -9.9970 O.3       1 PIK        -0.3857
     37 P4        -28.3320   53.0380  -13.8530 P.3       1 PIK         0.2013
     38 O41       -27.7990   53.1930  -15.2530 O.co2     1 PIK        -0.5537
     39 O42       -29.7630   53.5090  -13.8050 O.co2     1 PIK        -0.5537
     40 O43       -27.4960   53.8600  -12.8990 O.co2     1 PIK        -0.5537
     41 P5        -28.3270   51.0520   -9.5930 P.3       1 PIK         0.2013
     42 O51       -27.5230   50.8130   -8.3440 O.co2     1 PIK        -0.5537
     43 O52       -29.3010   52.1880   -9.3540 O.co2     1 PIK        -0.5537
     44 O53       -29.0920   49.7960   -9.9470 O.co2     1 PIK        -0.5537
     45 C9        -21.2080   45.2750  -15.1150 C.3       1 PIK         0.1098
     46 OA1       -20.1820   44.6590  -15.9420 O.3       1 PIK        -0.2738
     47 CA1       -18.9460   44.3120  -15.2660 C.2       1 PIK         0.2338
     48 OA2       -18.5950   44.9260  -14.2620 O.2       1 PIK        -0.3704
     49 CA2       -17.9230   43.3730  -15.9750 C.3       1 PIK         0.0487
     50 CA3       -18.3040   41.8930  -15.8530 C.3       1 PIK        -0.0348
     51 CA4       -18.6140   41.4660  -14.4200 C.3       1 PIK        -0.0509
     52 CA5       -18.9910   39.9850  -14.3460 C.3       1 PIK        -0.0529
     53 CA6       -18.6560   39.3510  -13.0080 C.3       1 PIK        -0.0531
     54 CA7       -19.6810   38.2560  -12.6150 C.3       1 PIK        -0.0531
     55 CA8       -19.2220   37.4330  -11.4020 C.3       1 PIK        -0.0531
     56 CA9       -19.8240   36.0080  -11.4040 C.3       1 PIK        -0.0531
     57 CAA       -19.8190   35.3620  -10.0190 C.3       1 PIK        -0.0531
     58 CAB       -20.5400   34.0160  -10.0200 C.3       1 PIK        -0.0531
     59 CAC       -20.9350   33.5610   -8.6030 C.3       1 PIK        -0.0531
     60 CAD       -21.9630   34.4920   -7.9800 C.3       1 PIK        -0.0531
     61 CAE       -22.8890   33.7670   -6.9890 C.3       1 PIK        -0.0533
     62 CAF       -23.3570   34.6670   -5.8520 C.3       1 PIK        -0.0559
     63 CAG       -24.3060   33.9530   -4.9000 C.3       1 PIK        -0.0653
     64 H         -18.4996   37.3665   -2.9676 H         1 PIK         0.0230
     65 H         -18.2422   36.0625   -4.1759 H         1 PIK         0.0230
     66 H         -19.8196   36.9184   -4.1004 H         1 PIK         0.0230
     67 H         -17.1382   38.1571   -4.8583 H         1 PIK         0.0263
     68 H         -18.7157   39.0131   -4.7828 H         1 PIK         0.0263
     69 H         -19.0298   36.6347   -6.4285 H         1 PIK         0.0265
     70 H         -17.5831   37.5355   -6.9963 H         1 PIK         0.0265
     71 H         -18.9096   39.0149   -8.0397 H         1 PIK         0.0265
     72 H         -19.6681   39.4468   -6.4697 H         1 PIK         0.0265
     73 H         -20.9239   37.0105   -7.0807 H         1 PIK         0.0265
     74 H         -20.7229   37.7479   -8.7063 H         1 PIK         0.0265
     75 H         -22.2559   39.3846   -8.3020 H         1 PIK         0.0265
     76 H         -21.7520   39.5810   -6.5890 H         1 PIK         0.0265
     77 H         -23.6085   38.4820   -5.9745 H         1 PIK         0.0265
     78 H         -22.9393   37.0079   -6.7529 H         1 PIK         0.0265
     79 H         -24.8627   39.0636   -7.9017 H         1 PIK         0.0265
     80 H         -25.1047   37.2980   -7.6763 H         1 PIK         0.0265
     81 H         -23.0837   37.0834   -9.3589 H         1 PIK         0.0265
     82 H         -23.5104   38.7728   -9.7954 H         1 PIK         0.0265
     83 H         -25.7890   38.0860  -10.3788 H         1 PIK         0.0265
     84 H         -25.4498   36.4062   -9.8402 H         1 PIK         0.0265
     85 H         -24.8637   35.9481  -11.9851 H         1 PIK         0.0265
     86 H         -23.4041   36.9594  -11.7144 H         1 PIK         0.0265
     87 H         -26.0661   37.7775  -12.9618 H         1 PIK         0.0265
     88 H         -24.4407   37.7519  -13.7261 H         1 PIK         0.0265
     89 H         -23.9133   39.5007  -11.7187 H         1 PIK         0.0267
     90 H         -25.6794   39.7923  -11.8694 H         1 PIK         0.0267
     91 H         -25.2858   41.1434  -13.6388 H         1 PIK         0.0291
     92 H         -24.6087   39.7432  -14.5376 H         1 PIK         0.0291
     93 H         -22.3755   40.2710  -13.9264 H         1 PIK         0.0518
     94 H         -22.8958   41.3153  -12.5606 H         1 PIK         0.0518
     95 H         -20.8714   44.2378  -13.2634 H         1 PIK         0.0704
     96 H         -23.8203   44.3044  -13.9762 H         1 PIK         0.0651
     97 H         -23.0342   44.1134  -12.3723 H         1 PIK         0.0651
     98 H         -26.0768   48.0347  -12.2812 H         1 PIK         0.0711
     99 H         -24.9740   48.5487  -14.4629 H         1 PIK         0.0651
    100 H         -27.3473   49.0837  -14.0117 H         1 PIK         0.0650
    101 H         -26.2504   51.7939  -13.1577 H         1 PIK         0.0706
    102 H         -27.7314   49.6290  -11.6137 H         1 PIK         0.0706
    103 H         -24.8857   50.7099  -11.4635 H         1 PIK         0.0654
    104 H         -24.3040   50.7559  -14.6830 H         1 PIK         0.2100
    105 H         -27.5076   50.6946  -15.6393 H         1 PIK         0.2100
    106 H         -25.7691   50.1353   -9.4022 H         1 PIK         0.2100
    107 H         -20.8016   46.1753  -14.6309 H         1 PIK         0.0644
    108 H         -22.0698   45.5520  -15.7400 H         1 PIK         0.0644
    109 H         -16.9329   43.5213  -15.5192 H         1 PIK         0.0518
    110 H         -17.8794   43.6395  -17.0413 H         1 PIK         0.0518
    111 H         -17.4664   41.2848  -16.2252 H         1 PIK         0.0291
    112 H         -19.1942   41.7093  -16.4725 H         1 PIK         0.0291
    113 H         -19.4532   42.0679  -14.0411 H         1 PIK         0.0267
    114 H         -17.7259   41.6405  -13.7948 H         1 PIK         0.0267
    115 H         -18.4467   39.4454  -15.1350 H         1 PIK         0.0265
    116 H         -20.0735   39.8904  -14.5168 H         1 PIK         0.0265
    117 H         -18.6561   40.1326  -12.2340 H         1 PIK         0.0265
    118 H         -17.6562   38.8965  -13.0700 H         1 PIK         0.0265
    119 H         -19.8190   37.5780  -13.4701 H         1 PIK         0.0265
    120 H         -20.6387   38.7394  -12.3720 H         1 PIK         0.0265
    121 H         -19.5367   37.9496  -10.4833 H         1 PIK         0.0265
    122 H         -18.1250   37.3545  -11.4212 H         1 PIK         0.0265
    123 H         -19.2354   35.3786  -12.0876 H         1 PIK         0.0265
    124 H         -20.8627   36.0656  -11.7613 H         1 PIK         0.0265
    125 H         -20.3227   36.0354   -9.3099 H         1 PIK         0.0265
    126 H         -18.7772   35.2078   -9.7015 H         1 PIK         0.0265
    127 H         -19.8749   33.2592  -10.4615 H         1 PIK         0.0265
    128 H         -21.4513   34.1038  -10.6297 H         1 PIK         0.0265
    129 H         -20.0360   33.5474   -7.9693 H         1 PIK         0.0265
    130 H         -21.3594   32.5477   -8.6592 H         1 PIK         0.0265
    131 H         -22.5766   34.9276   -8.7823 H         1 PIK         0.0265
    132 H         -21.4340   35.2950   -7.4458 H         1 PIK         0.0265
    133 H         -22.3448   32.9128   -6.5599 H         1 PIK         0.0265
    134 H         -23.7717   33.4026   -7.5349 H         1 PIK         0.0265
    135 H         -23.8754   35.5373   -6.2808 H         1 PIK         0.0263
    136 H         -22.4775   35.0066   -5.2853 H         1 PIK         0.0263
    137 H         -24.6126   34.6442   -4.1010 H         1 PIK         0.0230
    138 H         -23.7967   33.0841   -4.4577 H         1 PIK         0.0230
    139 H         -25.1946   33.6148   -5.4532 H         1 PIK         0.0230
@<TRIPOS>BOND
     1    1    2 ar 
     2    1    3 ar 
     3    1    4 1  
     4   31    1 1  
     5    4   24 1  
     6    6    5 1  
     7    7    6 1  
     8    8    7 1  
     9    9    8 1  
    10   10    9 1  
    11   11   10 1  
    12   12   11 1  
    13   13   12 1  
    14   14   13 1  
    15   15   14 1  
    16   16   15 1  
    17   17   16 1  
    18   18   17 1  
    19   19   18 1  
    20   20   19 1  
    21   20   21 2  
    22   22   20 1  
    23   23   22 1  
    24   24   23 1  
    25   23   45 1  
    26   25   26 1  
    27   25   30 1  
    28   25   31 1  
    29   26   27 1  
    30   26   32 1  
    31   27   28 1  
    32   27   33 1  
    33   28   29 1  
    34   28   34 1  
    35   29   30 1  
    36   29   35 1  
    37   30   36 1  
    38   34   37 1  
    39   35   41 1  
    40   37   38 ar 
    41   37   39 ar 
    42   37   40 ar 
    43   41   42 ar 
    44   41   43 ar 
    45   41   44 ar 
    46   45   46 1  
    47   46   47 1  
    48   47   48 2  
    49   47   49 1  
    50   49   50 1  
    51   50   51 1  
    52   51   52 1  
    53   52   53 1  
    54   53   54 1  
    55   54   55 1  
    56   55   56 1  
    57   56   57 1  
    58   57   58 1  
    59   58   59 1  
    60   59   60 1  
    61   60   61 1  
    62   61   62 1  
    63   62   63 1  
    64    5   64 1  
    65    5   65 1  
    66    5   66 1  
    67    6   67 1  
    68    6   68 1  
    69    7   69 1  
    70    7   70 1  
    71    8   71 1  
    72    8   72 1  
    73    9   73 1  
    74    9   74 1  
    75   10   75 1  
    76   10   76 1  
    77   11   77 1  
    78   11   78 1  
    79   12   79 1  
    80   12   80 1  
    81   13   81 1  
    82   13   82 1  
    83   14   83 1  
    84   14   84 1  
    85   15   85 1  
    86   15   86 1  
    87   16   87 1  
    88   16   88 1  
    89   17   89 1  
    90   17   90 1  
    91   18   91 1  
    92   18   92 1  
    93   19   93 1  
    94   19   94 1  
    95   23   95 1  
    96   24   96 1  
    97   24   97 1  
    98   25   98 1  
    99   26   99 1  
   100   27  100 1  
   101   28  101 1  
   102   29  102 1  
   103   30  103 1  
   104   32  104 1  
   105   33  105 1  
   106   36  106 1  
   107   45  107 1  
   108   45  108 1  
   109   49  109 1  
   110   49  110 1  
   111   50  111 1  
   112   50  112 1  
   113   51  113 1  
   114   51  114 1  
   115   52  115 1  
   116   52  116 1  
   117   53  117 1  
   118   53  118 1  
   119   54  119 1  
   120   54  120 1  
   121   55  121 1  
   122   55  122 1  
   123   56  123 1  
   124   56  124 1  
   125   57  125 1  
   126   57  126 1  
   127   58  127 1  
   128   58  128 1  
   129   59  129 1  
   130   59  130 1  
   131   60  131 1  
   132   60  132 1  
   133   61  133 1  
   134   61  134 1  
   135   62  135 1  
   136   62  136 1  
   137   63  137 1  
   138   63  138 1  
   139   63  139 1  
@<TRIPOS>SUBSTRUCTURE
     1 PIK         1

