4qk4_ligand
  -I-interpret- 

144144  0  0  0  0  0  0  0  0999 V2000
  -24.0350   46.5740  -12.0170 P   0  0  0  0  0
  -25.4230   46.0680  -12.3060 O   0  0  0  0  0
  -23.5910   46.0710  -10.6700 O   0  0  0  0  0
  -23.0430   46.0440  -13.1440 O   0  0  0  0  0
  -18.7310   37.0300   -3.9890 C   0  0  0  0  0
  -18.2260   38.0480   -4.9800 C   0  0  0  0  0
  -18.5310   37.6150   -6.4440 C   0  0  0  0  0
  -19.4380   38.6210   -7.1590 C   0  0  0  0  0
  -20.7880   37.9550   -7.6280 C   0  0  0  0  0
  -22.0080   38.8520   -7.3720 C   0  0  0  0  0
  -23.2400   38.0530   -6.9180 C   0  0  0  0  0
  -24.3760   38.0780   -7.9420 C   0  0  0  0  0
  -23.8930   37.8280   -9.3820 C   0  0  0  0  0
  -25.0150   37.3090  -10.2940 C   0  0  0  0  0
  -24.5040   36.9540  -11.7230 C   0  0  0  0  0
  -24.9920   37.9450  -12.7940 C   0  0  0  0  0
  -24.7800   39.4360  -12.3930 C   0  0  0  0  0
  -24.5240   40.3500  -13.6240 C   0  0  0  0  0
  -23.1200   41.0090  -13.5930 C   0  0  0  0  0
  -23.0340   42.2460  -14.5060 C   0  0  0  0  0
  -23.8980   42.4210  -15.3520 O   0  0  0  0  0
  -21.7480   42.9340  -14.6360 O   0  0  0  0  0
  -21.6520   44.2620  -14.0380 C   0  0  0  0  0
  -22.9780   44.6240  -13.3450 C   0  0  0  0  0
  -25.2820   48.7930  -12.3370 C   0  0  0  0  0
  -25.2480   49.3430  -13.7530 C   0  0  0  0  0
  -26.6120   49.8980  -14.0910 C   0  0  0  0  0
  -27.0000   50.9910  -13.0990 C   0  0  0  0  0
  -26.9990   50.4470  -11.6810 C   0  0  0  0  0
  -25.6230   49.9010  -11.3540 C   0  0  0  0  0
  -24.0520   48.1580  -12.0210 O   0  0  0  0  0
  -24.3130   50.3860  -13.8080 O   0  0  0  0  0
  -26.6330   50.3890  -15.4290 O   0  0  0  0  0
  -28.2650   51.5400  -13.4430 O   0  0  0  0  0
  -27.3550   51.4310  -10.7830 O   0  0  0  0  0
  -25.5730   49.4210   -9.9970 O   0  0  0  0  0
  -28.3320   53.0380  -13.8530 P   0  0  0  0  0
  -27.7990   53.1930  -15.2530 O   0  0  0  0  0
  -29.7630   53.5090  -13.8050 O   0  0  0  0  0
  -27.4960   53.8600  -12.8990 O   0  0  0  0  0
  -28.3270   51.0520   -9.5930 P   0  0  0  0  0
  -27.5230   50.8130   -8.3440 O   0  0  0  0  0
  -29.3010   52.1880   -9.3540 O   0  0  0  0  0
  -29.0920   49.7960   -9.9470 O   0  0  0  0  0
  -21.2080   45.2750  -15.1150 C   0  0  0  0  0
  -20.1820   44.6590  -15.9420 O   0  0  0  0  0
  -18.9460   44.3120  -15.2660 C   0  0  0  0  0
  -18.5950   44.9260  -14.2620 O   0  0  0  0  0
  -17.9230   43.3730  -15.9750 C   0  0  0  0  0
  -18.3040   41.8930  -15.8530 C   0  0  0  0  0
  -18.6140   41.4660  -14.4200 C   0  0  0  0  0
  -18.9910   39.9850  -14.3460 C   0  0  0  0  0
  -18.6560   39.3510  -13.0080 C   0  0  0  0  0
  -19.6810   38.2560  -12.6150 C   0  0  0  0  0
  -19.2220   37.4330  -11.4020 C   0  0  0  0  0
  -19.8240   36.0080  -11.4040 C   0  0  0  0  0
  -19.8190   35.3620  -10.0190 C   0  0  0  0  0
  -20.5400   34.0160  -10.0200 C   0  0  0  0  0
  -20.9350   33.5610   -8.6030 C   0  0  0  0  0
  -21.9630   34.4920   -7.9800 C   0  0  0  0  0
  -22.8890   33.7670   -6.9890 C   0  0  0  0  0
  -23.3570   34.6670   -5.8520 C   0  0  0  0  0
  -24.3060   33.9530   -4.9000 C   0  0  0  0  0
  -25.7068   46.3886  -13.1652 H   0  0  0  0  0
  -19.8097   36.9204   -4.1005 H   0  0  0  0  0
  -18.2460   36.0718   -4.1753 H   0  0  0  0  0
  -18.5011   37.3645   -2.9774 H   0  0  0  0  0
  -17.1460   38.1385   -4.8635 H   0  0  0  0  0
  -18.7274   38.9966   -4.7879 H   0  0  0  0  0
  -19.0422   36.6527   -6.4167 H   0  0  0  0  0
  -17.5879   37.5582   -6.9875 H   0  0  0  0  0
  -18.9134   38.9924   -8.0393 H   0  0  0  0  0
  -19.6748   39.4260   -6.4633 H   0  0  0  0  0
  -20.9231   37.0343   -7.0604 H   0  0  0  0  0
  -20.7202   37.7786   -8.7015 H   0  0  0  0  0
  -22.2583   39.3546   -8.3063 H   0  0  0  0  0
  -21.7499   39.5527   -6.5780 H   0  0  0  0  0
  -23.6105   38.5062   -5.9985 H   0  0  0  0  0
  -22.9337   37.0153   -6.7858 H   0  0  0  0  0
  -24.8293   39.0688   -7.9110 H   0  0  0  0  0
  -25.0742   37.2821   -7.6830 H   0  0  0  0  0
  -23.1088   37.0717   -9.3482 H   0  0  0  0  0
  -23.5391   38.7755   -9.7884 H   0  0  0  0  0
  -25.7628   38.0962  -10.3895 H   0  0  0  0  0
  -25.4206   36.4018   -9.8462 H   0  0  0  0  0
  -24.8902   35.9677  -11.9801 H   0  0  0  0  0
  -23.4147   36.9900  -11.7065 H   0  0  0  0  0
  -26.0624   37.7876  -12.9264 H   0  0  0  0  0
  -24.4156   37.7617  -13.7008 H   0  0  0  0  0
  -23.9051   39.4899  -11.7452 H   0  0  0  0  0
  -25.6862   39.7840  -11.8972 H   0  0  0  0  0
  -25.2691   41.1455  -13.6130 H   0  0  0  0  0
  -24.5859   39.7324  -14.5200 H   0  0  0  0  0
  -22.3949   40.2764  -13.9474 H   0  0  0  0  0
  -22.9194   41.3291  -12.5705 H   0  0  0  0  0
  -20.8919   44.2840  -13.2570 H   0  0  0  0  0
  -23.8124   44.3078  -13.9710 H   0  0  0  0  0
  -23.0331   44.1184  -12.3809 H   0  0  0  0  0
  -26.0630   48.0362  -12.2634 H   0  0  0  0  0
  -24.9767   48.5555  -14.4560 H   0  0  0  0  0
  -27.3457   49.0954  -14.0158 H   0  0  0  0  0
  -26.2614   51.7911  -13.1474 H   0  0  0  0  0
  -27.7316   49.6434  -11.6057 H   0  0  0  0  0
  -24.8860   50.6989  -11.4446 H   0  0  0  0  0
  -24.2835   50.7411  -14.6994 H   0  0  0  0  0
  -27.5053   50.7374  -15.6272 H   0  0  0  0  0
  -25.7916   50.1378   -9.3970 H   0  0  0  0  0
  -30.1016   53.4097  -12.9122 H   0  0  0  0  0
  -27.8378   53.7594  -12.0076 H   0  0  0  0  0
  -29.8143   52.3409  -10.1507 H   0  0  0  0  0
  -29.6048   49.9490  -10.7440 H   0  0  0  0  0
  -20.8101   46.1709  -14.6383 H   0  0  0  0  0
  -22.0612   45.5560  -15.7324 H   0  0  0  0  0
  -16.9525   43.5113  -15.4984 H   0  0  0  0  0
  -17.9074   43.6305  -17.0340 H   0  0  0  0  0
  -17.4532   41.3042  -16.1957 H   0  0  0  0  0
  -19.2045   41.7344  -16.4464 H   0  0  0  0  0
  -19.4566   42.0555  -14.0585 H   0  0  0  0  0
  -17.7241   41.6268  -13.8114 H   0  0  0  0  0
  -18.4219   39.4598  -15.1130 H   0  0  0  0  0
  -20.0693   39.9104  -14.4870 H   0  0  0  0  0
  -18.6781   40.1296  -12.2455 H   0  0  0  0  0
  -17.6728   38.8869  -13.0860 H   0  0  0  0  0
  -19.7908   37.5775  -13.4610 H   0  0  0  0  0
  -20.6174   38.7487  -12.3535 H   0  0  0  0  0
  -19.5576   37.9426  -10.4988 H   0  0  0  0  0
  -18.1365   37.3435  -11.4430 H   0  0  0  0  0
  -19.2156   35.3892  -12.0635 H   0  0  0  0  0
  -20.8602   36.0835  -11.7337 H   0  0  0  0  0
  -20.3362   36.0277   -9.3280 H   0  0  0  0  0
  -18.7836   35.1964   -9.7214 H   0  0  0  0  0
  -19.8626   33.2708  -10.4371 H   0  0  0  0  0
  -21.4524   34.1225  -10.6067 H   0  0  0  0  0
  -20.0418   33.5682   -7.9783 H   0  0  0  0  0
  -21.3709   32.5643   -8.6712 H   0  0  0  0  0
  -22.5798   34.8973   -8.7821 H   0  0  0  0  0
  -21.4269   35.2680   -7.4336 H   0  0  0  0  0
  -22.3286   32.9406   -6.5517 H   0  0  0  0  0
  -23.7709   33.4357   -7.5372 H   0  0  0  0  0
  -23.8895   35.5122   -6.2882 H   0  0  0  0  0
  -22.4797   34.9770   -5.2842 H   0  0  0  0  0
  -25.1860   33.6184   -5.4493 H   0  0  0  0  0
  -23.8002   33.0923   -4.4625 H   0  0  0  0  0
  -24.6090   34.6388   -4.1088 H   0  0  0  0  0
  1  2  1  0  0  0
  1  3  2  0  0  0
  1  4  1  0  0  0
 31  1  1  0  0  0
  4 24  1  0  0  0
  6  5  1  0  0  0
  7  6  1  0  0  0
  8  7  1  0  0  0
  9  8  1  0  0  0
 10  9  1  0  0  0
 11 10  1  0  0  0
 12 11  1  0  0  0
 13 12  1  0  0  0
 14 13  1  0  0  0
 15 14  1  0  0  0
 16 15  1  0  0  0
 17 16  1  0  0  0
 18 17  1  0  0  0
 19 18  1  0  0  0
 20 19  1  0  0  0
 20 21  2  0  0  0
 22 20  1  0  0  0
 23 22  1  0  0  0
 24 23  1  0  0  0
 23 45  1  0  0  0
 25 26  1  0  0  0
 25 30  1  0  0  0
 25 31  1  0  0  0
 26 27  1  0  0  0
 26 32  1  0  0  0
 27 28  1  0  0  0
 27 33  1  0  0  0
 28 29  1  0  0  0
 28 34  1  0  0  0
 29 30  1  0  0  0
 29 35  1  0  0  0
 30 36  1  0  0  0
 34 37  1  0  0  0
 35 41  1  0  0  0
 37 38  2  0  0  0
 37 39  1  0  0  0
 37 40  1  0  0  0
 41 42  2  0  0  0
 41 43  1  0  0  0
 41 44  1  0  0  0
 45 46  1  0  0  0
 46 47  1  0  0  0
 47 48  2  0  0  0
 47 49  1  0  0  0
 49 50  1  0  0  0
 50 51  1  0  0  0
 51 52  1  0  0  0
 52 53  1  0  0  0
 53 54  1  0  0  0
 54 55  1  0  0  0
 55 56  1  0  0  0
 56 57  1  0  0  0
 57 58  1  0  0  0
 58 59  1  0  0  0
 59 60  1  0  0  0
 60 61  1  0  0  0
 61 62  1  0  0  0
 62 63  1  0  0  0
  2 64  1  0  0  0
  5 65  1  0  0  0
  5 66  1  0  0  0
  5 67  1  0  0  0
  6 68  1  0  0  0
  6 69  1  0  0  0
  7 70  1  0  0  0
  7 71  1  0  0  0
  8 72  1  0  0  0
  8 73  1  0  0  0
  9 74  1  0  0  0
  9 75  1  0  0  0
 10 76  1  0  0  0
 10 77  1  0  0  0
 11 78  1  0  0  0
 11 79  1  0  0  0
 12 80  1  0  0  0
 12 81  1  0  0  0
 13 82  1  0  0  0
 13 83  1  0  0  0
 14 84  1  0  0  0
 14 85  1  0  0  0
 15 86  1  0  0  0
 15 87  1  0  0  0
 16 88  1  0  0  0
 16 89  1  0  0  0
 17 90  1  0  0  0
 17 91  1  0  0  0
 18 92  1  0  0  0
 18 93  1  0  0  0
 19 94  1  0  0  0
 19 95  1  0  0  0
 23 96  1  0  0  0
 24 97  1  0  0  0
 24 98  1  0  0  0
 25 99  1  0  0  0
 26100  1  0  0  0
 27101  1  0  0  0
 28102  1  0  0  0
 29103  1  0  0  0
 30104  1  0  0  0
 32105  1  0  0  0
 33106  1  0  0  0
 36107  1  0  0  0
 39108  1  0  0  0
 40109  1  0  0  0
 43110  1  0  0  0
 44111  1  0  0  0
 45112  1  0  0  0
 45113  1  0  0  0
 49114  1  0  0  0
 49115  1  0  0  0
 50116  1  0  0  0
 50117  1  0  0  0
 51118  1  0  0  0
 51119  1  0  0  0
 52120  1  0  0  0
 52121  1  0  0  0
 53122  1  0  0  0
 53123  1  0  0  0
 54124  1  0  0  0
 54125  1  0  0  0
 55126  1  0  0  0
 55127  1  0  0  0
 56128  1  0  0  0
 56129  1  0  0  0
 57130  1  0  0  0
 57131  1  0  0  0
 58132  1  0  0  0
 58133  1  0  0  0
 59134  1  0  0  0
 59135  1  0  0  0
 60136  1  0  0  0
 60137  1  0  0  0
 61138  1  0  0  0
 61139  1  0  0  0
 62140  1  0  0  0
 62141  1  0  0  0
 63142  1  0  0  0
 63143  1  0  0  0
 63144  1  0  0  0
M  END
$$$$
