1okl_ligand
  -I-interpret- 

 31 32  0  0  0  0  0  0  0  0999 V2000
   -5.2670    2.0110   15.7090 C   0  0  0  0  0
   -4.5510    1.5230   14.5980 C   0  0  0  0  0
   -4.0850    2.4330   13.6540 C   0  0  0  0  0
   -4.3270    3.8040   13.8100 C   0  0  0  0  0
   -5.0370    4.3650   14.8970 C   0  0  0  0  0
   -5.2940    5.7660   15.0740 C   0  0  0  0  0
   -6.0160    6.1860   16.2070 C   0  0  0  0  0
   -6.4910    5.2760   17.1660 C   0  0  0  0  0
   -6.2330    3.9050   16.9830 C   0  0  0  0  0
   -5.5130    3.4240   15.8650 C   0  0  0  0  0
   -4.7820    6.7640   14.0340 N   0  0  0  0  0
   -3.5760    6.8600   14.1100 C   0  0  0  0  0
   -5.4690    6.6220   12.9000 C   0  0  0  0  0
   -5.8600    0.9290   16.8970 S   0  0  0  0  0
   -7.3490    1.0470   16.9670 O   0  0  0  0  0
   -5.2510    1.2730   18.2200 O   0  0  0  0  0
   -5.4860   -0.4700   16.5240 N   0  0  0  0  0
   -4.3660    0.4553   14.4804 H   0  0  0  0  0
   -3.5280    2.0767   12.7874 H   0  0  0  0  0
   -3.9442    4.4806   13.0460 H   0  0  0  0  0
   -6.2124    7.2493   16.3444 H   0  0  0  0  0
   -7.0486    5.6252   18.0350 H   0  0  0  0  0
   -6.5983    3.1937   17.7238 H   0  0  0  0  0
   -3.1145    5.9653   13.6921 H   0  0  0  0  0
   -3.2465    7.7355   13.5504 H   0  0  0  0  0
   -3.2864    6.9653   15.1555 H   0  0  0  0  0
   -5.2826    7.4799   12.2539 H   0  0  0  0  0
   -5.1506    5.7097   12.3956 H   0  0  0  0  0
   -6.5334    6.5608   13.1268 H   0  0  0  0  0
   -4.8989   -1.0243   17.1472 H   0  0  0  0  0
   -5.8180   -0.8699   15.6464 H   0  0  0  0  0
  1 14  1  0  0  0
  1 10  4  0  0  0
  1  2  4  0  0  0
  2  3  4  0  0  0
  3  4  4  0  0  0
  4  5  4  0  0  0
  5 10  4  0  0  0
  5  6  4  0  0  0
  6 11  1  0  0  0
  6  7  4  0  0  0
  7  8  4  0  0  0
  8  9  4  0  0  0
  9 10  4  0  0  0
 11 13  1  0  0  0
 11 12  1  0  0  0
 14 17  1  0  0  0
 14 16  2  0  0  0
 14 15  2  0  0  0
  2 18  1  0  0  0
  3 19  1  0  0  0
  4 20  1  0  0  0
  7 21  1  0  0  0
  8 22  1  0  0  0
  9 23  1  0  0  0
 12 24  1  0  0  0
 12 25  1  0  0  0
 12 26  1  0  0  0
 13 27  1  0  0  0
 13 28  1  0  0  0
 13 29  1  0  0  0
 17 30  1  0  0  0
 17 31  1  0  0  0
M  END
$$$$
