1wok_ligand
  -I-interpret- 

 30 32  0  0  0  0  0  0  0  0999 V2000
   12.0690   -4.7890   46.7380 C   0  0  0  0  0
   10.8480   -4.1000   46.9430 C   0  0  0  0  0
   10.3020   -3.2880   45.9170 C   0  0  0  0  0
   10.9960   -3.1530   44.6310 C   0  0  0  0  0
   12.2440   -3.8600   44.4230 C   0  0  0  0  0
   12.7620   -4.6730   45.4930 C   0  0  0  0  0
    9.1070   -2.6100   46.1120 N   0  0  0  0  0
    8.5560   -1.8210   45.1440 C   0  0  0  0  0
    9.1960   -1.6670   43.8870 C   0  0  0  0  0
   10.4000   -2.3360   43.6600 N   0  0  0  0  0
   13.0090   -3.7840   43.1510 C   0  0  0  0  0
   12.9910   -2.5780   42.5520 N   0  0  0  0  0
   13.6160   -4.6940   42.6060 O   0  0  0  0  0
    8.6760   -0.8300   42.7570 C   0  0  0  0  0
    7.2890   -0.8570   42.4700 C   0  0  0  0  0
    6.7440   -0.0860   41.4130 C   0  0  0  0  0
    7.6130    0.7180   40.6380 C   0  0  0  0  0
    8.9990    0.7620   40.9040 C   0  0  0  0  0
    9.5220   -0.0190   41.9690 C   0  0  0  0  0
    6.9770    1.6500   39.3560 Cl  0  0  0  0  0
   12.4817   -5.4101   47.5330 H   0  0  0  0  0
   10.3255   -4.1948   47.8949 H   0  0  0  0  0
   13.6999   -5.2099   45.3509 H   0  0  0  0  0
    7.6160   -1.3046   45.3383 H   0  0  0  0  0
   13.4764   -2.4417   41.6653 H   0  0  0  0  0
   12.4920   -1.8009   42.9850 H   0  0  0  0  0
    6.6295   -1.4816   43.0725 H   0  0  0  0  0
    5.6751   -0.1119   41.2010 H   0  0  0  0  0
    9.6581    1.3863   40.3008 H   0  0  0  0  0
   10.5909    0.0080   42.1809 H   0  0  0  0  0
  1  2  4  0  0  0
  1  6  4  0  0  0
  2  3  4  0  0  0
  3  4  4  0  0  0
  3  7  4  0  0  0
  4  5  4  0  0  0
  4 10  4  0  0  0
  5  6  4  0  0  0
  5 11  1  0  0  0
  7  8  4  0  0  0
  8  9  4  0  0  0
  9 10  4  0  0  0
  9 14  1  0  0  0
 11 12  1  0  0  0
 11 13  2  0  0  0
 14 15  4  0  0  0
 14 19  4  0  0  0
 15 16  4  0  0  0
 16 17  4  0  0  0
 17 18  4  0  0  0
 17 20  1  0  0  0
 18 19  4  0  0  0
  1 21  1  0  0  0
  2 22  1  0  0  0
  6 23  1  0  0  0
  8 24  1  0  0  0
 12 25  1  0  0  0
 12 26  1  0  0  0
 15 27  1  0  0  0
 16 28  1  0  0  0
 18 29  1  0  0  0
 19 30  1  0  0  0
M  END
$$$$
