### 
### Created by X-TOOL on Mon Sep 10 21:12:50 2018
### 

@<TRIPOS>MOLECULE
1nzv_ligand
  141   144     1     0     0
SMALL
GAST_HUCK


@<TRIPOS>ATOM
      1 N          17.8710   28.3870    4.5660 N.4       1 PRO         0.2461
      2 CA         19.3180   28.7090    4.6360 C.3       1 PRO         0.0670
      3 C          19.4840   30.1550    5.1330 C.2       1 PRO         0.2268
      4 O          20.3990   30.8660    4.7360 O.2       1 PRO        -0.3907
      5 CB         19.8530   28.5460    3.2270 C.3       1 PRO         0.0127
      6 CG         18.6320   28.9440    2.4030 C.3       1 PRO        -0.0053
      7 CD         17.4210   28.3790    3.1590 C.3       1 PRO        -0.0313
      8 N          18.5830   30.5750    6.0120 N.am      1 GLN        -0.2609
      9 CA         18.6050   31.9220    6.5570 C.3       1 GLN         0.1331
     10 C          18.7040   31.9630    8.0650 C.2       1 GLN         0.2042
     11 O          18.3770   31.0060    8.7640 O.2       1 GLN        -0.3944
     12 CB         17.3340   32.6660    6.1870 C.3       1 GLN         0.0045
     13 CG         17.1940   33.0550    4.7530 C.3       1 GLN         0.0412
     14 CD         15.7910   33.5060    4.4950 C.2       1 GLN         0.1737
     15 OE1        15.2100   34.2300    5.3070 O.2       1 GLN        -0.3973
     16 NE2        15.2270   33.0840    3.3770 N.am      1 GLN        -0.3009
     17 N          19.1240   33.1140    8.5640 N.am      1 PTR        -0.2607
     18 CA         19.2270   33.3020    9.9870 C.3       1 PTR         0.1468
     19 C          18.1230   34.2920   10.3430 C.2       1 PTR         0.2074
     20 O          17.4870   34.8670    9.4550 O.2       1 PTR        -0.3941
     21 CB         20.6110   33.8380   10.3380 C.3       1 PTR         0.0400
     22 CG         21.7000   32.7790   10.3240 C.ar      1 PTR        -0.0004
     23 CD1        21.9460   31.9980   11.4460 C.ar      1 PTR        -0.0239
     24 CD2        22.5160   32.5980    9.2050 C.ar      1 PTR        -0.0239
     25 CE1        22.9700   31.0840   11.4650 C.ar      1 PTR         0.0115
     26 CE2        23.5560   31.6740    9.2150 C.ar      1 PTR         0.0115
     27 CZ         23.7770   30.9310   10.3510 C.ar      1 PTR         0.1728
     28 OH         24.8400   30.0750   10.4100 O.3       1 PTR        -0.2040
     29 P          24.6310   28.5610   10.0710 P.3       1 PTR         0.1348
     30 O1P        24.9040   28.4840    8.6200 O.co2     1 PTR        -0.6653
     31 O2P        23.2390   28.1060   10.3730 O.co2     1 PTR        -0.6653
     32 O3P        25.5220   27.7330   10.9370 O.co2     1 PTR        -0.6653
     33 N          17.8730   34.4880   11.6290 N.am      1 ILE        -0.2632
     34 CA         16.8170   35.3990   12.0180 C.3       1 ILE         0.1335
     35 C          17.3340   36.6610   12.6600 C.2       1 ILE         0.2044
     36 O          18.3160   36.6560   13.4090 O.2       1 ILE        -0.3944
     37 CB         15.8330   34.7270   12.9770 C.3       1 ILE        -0.0037
     38 CG1        15.4680   33.3530   12.4100 C.3       1 ILE        -0.0491
     39 CG2        14.6040   35.6270   13.1950 C.3       1 ILE        -0.0582
     40 CD1        13.9950   33.0540   12.3540 C.3       1 ILE        -0.0648
     41 N          16.6450   37.7500   12.3570 N.am      1 PTR        -0.2607
     42 CA         16.9960   39.0400   12.8810 C.3       1 PTR         0.1468
     43 C          15.9930   39.4630   13.9210 C.2       1 PTR         0.2074
     44 O          14.7860   39.2140   13.7920 O.2       1 PTR        -0.3941
     45 CB         17.0050   40.0850   11.7780 C.3       1 PTR         0.0400
     46 CG         18.0820   39.8890   10.7380 C.ar      1 PTR        -0.0004
     47 CD1        19.3390   40.4650   10.8910 C.ar      1 PTR        -0.0239
     48 CD2        17.8340   39.1400    9.5940 C.ar      1 PTR        -0.0239
     49 CE1        20.3140   40.3060    9.9280 C.ar      1 PTR         0.0115
     50 CE2        18.8010   38.9730    8.6340 C.ar      1 PTR         0.0115
     51 CZ         20.0390   39.5570    8.7990 C.ar      1 PTR         0.1728
     52 OH         20.9920   39.3770    7.8150 O.3       1 PTR        -0.2040
     53 P          22.5110   39.9860    7.8130 P.3       1 PTR         0.1348
     54 O1P        23.1680   39.6710    6.5010 O.co2     1 PTR        -0.6653
     55 O2P        23.2940   39.4030    8.9360 O.co2     1 PTR        -0.6653
     56 O3P        22.4640   41.4730    8.0010 O.co2     1 PTR        -0.6653
     57 N          16.5120   40.0970   14.9610 N.am      1 VAL        -0.2632
     58 CA         15.6950   40.6380   16.0100 C.3       1 VAL         0.1335
     59 C          15.1730   41.9320   15.3610 C.2       1 VAL         0.2066
     60 O          15.9080   42.6280   14.6520 O.2       1 VAL        -0.3942
     61 CB         16.5710   40.9080   17.2590 C.3       1 VAL        -0.0062
     62 CG1        15.7790   41.6280   18.3390 C.3       1 VAL        -0.0584
     63 CG2        17.0830   39.5860   17.7930 C.3       1 VAL        -0.0584
     64 N          13.8700   42.2140   15.5140 N.am      1 PRO        -0.2498
     65 CA         13.2260   43.4070   14.9420 C.3       1 PRO         0.1337
     66 C          13.6160   44.7540   15.4890 C.2       1 PRO         0.2035
     67 O          13.8450   44.9190   16.7170 O.2       1 PRO        -0.3944
     68 CB         11.7420   43.1230   15.1350 C.3       1 PRO        -0.0104
     69 CG         11.6670   41.6230   15.0120 C.3       1 PRO        -0.0281
     70 CD         12.8510   41.2070   15.8730 C.3       1 PRO         0.0369
     71 N          13.6880   45.7340   14.5910 N.am      1 ALA        -0.2697
     72 CA         14.0690   47.1090   14.8980 C.3       1 ALA         0.0916
     73 C          15.5710   47.3110   14.7570 C.2       1 ALA         0.0598
     74 O          15.9610   48.2040   13.9760 O.co2     1 ALA        -0.5666
     75 CB         13.5980   47.5140   16.3350 C.3       1 ALA        -0.0300
     76 OXT        16.3410   46.5530   15.4020 O.co2     1 ALA        -0.5666
     77 H1         17.3497   29.0807    5.0789 H         1 PRO         0.2035
     78 H2         17.7114   27.4784    4.9723 H         1 PRO         0.2035
     79 H3         19.8362   28.0214    5.3206 H         1 PRO         0.1099
     80 H4         20.1539   27.5070    3.0270 H         1 PRO         0.0347
     81 H5         20.7038   29.2170    3.0380 H         1 PRO         0.0347
     82 H6         18.6915   28.5096    1.3942 H         1 PRO         0.0320
     83 H7         18.5604   30.0390    2.3271 H         1 PRO         0.0320
     84 H8         16.5370   29.0194    3.0235 H         1 PRO         0.0814
     85 H9         17.1883   27.3572    2.8246 H         1 PRO         0.0814
     86 H10        17.8659   29.9444    6.3089 H         1 GLN         0.1885
     87 H11        19.4727   32.4469    6.1310 H         1 GLN         0.0801
     88 H12        17.2953   33.5853    6.7897 H         1 GLN         0.0337
     89 H13        16.4804   32.0220    6.4452 H         1 GLN         0.0337
     90 H14        17.4247   32.1900    4.1139 H         1 GLN         0.0504
     91 H15        17.8908   33.8752    4.5255 H         1 GLN         0.0504
     92 H16        14.2904   33.3560    3.1558 H         1 GLN         0.1814
     93 H17        15.7367   32.4927    2.7521 H         1 GLN         0.1814
     94 H18        19.3722   33.8604    7.9465 H         1 PTR         0.1886
     95 H19        19.0642   32.3504   10.5141 H         1 PTR         0.0840
     96 H20        20.5675   34.2775   11.3454 H         1 PTR         0.0584
     97 H21        20.8762   34.6178    9.6089 H         1 PTR         0.0584
     98 H22        21.3182   32.1123   12.3222 H         1 PTR         0.0703
     99 H23        22.3359   33.1876    8.3134 H         1 PTR         0.0703
    100 H24        23.1461   30.4836   12.3502 H         1 PTR         0.0736
    101 H25        24.1827   31.5417    8.3405 H         1 PTR         0.0736
    102 H26        18.4091   34.0108   12.3253 H         1 ILE         0.1883
    103 H27        16.2718   35.6817   11.1054 H         1 ILE         0.0803
    104 H28        16.3257   34.5816   13.9497 H         1 ILE         0.0345
    105 H29        15.9469   32.5875   13.0381 H         1 ILE         0.0267
    106 H30        15.8671   33.2901   11.3869 H         1 ILE         0.0267
    107 H31        14.9271   36.5965   13.6019 H         1 ILE         0.0235
    108 H32        13.9160   35.1429   13.9037 H         1 ILE         0.0235
    109 H33        14.0904   35.7851   12.2352 H         1 ILE         0.0235
    110 H34        13.8406   32.0492   11.9339 H         1 ILE         0.0230
    111 H35        13.4937   33.7983   11.7179 H         1 ILE         0.0230
    112 H36        13.5735   33.0957   13.3692 H         1 ILE         0.0230
    113 H37        15.8575   37.6720   11.7456 H         1 PTR         0.1886
    114 H38        17.9956   38.9819   13.3365 H         1 PTR         0.0840
    115 H39        17.1504   41.0721   12.2412 H         1 PTR         0.0584
    116 H40        16.0291   40.0579   11.2711 H         1 PTR         0.0584
    117 H41        19.5555   41.0470   11.7795 H         1 PTR         0.0703
    118 H42        16.8618   38.6804    9.4576 H         1 PTR         0.0703
    119 H43        21.2879   40.7647   10.0555 H         1 PTR         0.0736
    120 H44        18.5918   38.3836    7.7486 H         1 PTR         0.0736
    121 H45        17.5048   40.2023   15.0175 H         1 VAL         0.1883
    122 H46        14.8677   39.9635   16.2757 H         1 VAL         0.0803
    123 H47        17.4254   41.5366   16.9676 H         1 VAL         0.0343
    124 H48        16.4256   41.8055   19.2110 H         1 VAL         0.0234
    125 H49        14.9209   41.0086   18.6389 H         1 VAL         0.0234
    126 H50        15.4177   42.5908   17.9485 H         1 VAL         0.0234
    127 H51        17.6548   39.0701   17.0076 H         1 VAL         0.0234
    128 H52        16.2320   38.9595   18.0984 H         1 VAL         0.0234
    129 H53        17.7340   39.7684   18.6607 H         1 VAL         0.0234
    130 H54        13.4536   43.4328   13.8661 H         1 PRO         0.0802
    131 H55        11.1405   43.6144   14.3561 H         1 PRO         0.0313
    132 H56        11.4010   43.4562   16.1263 H         1 PRO         0.0313
    133 H57        11.7900   41.2956   13.9691 H         1 PRO         0.0287
    134 H58        10.7194   41.2310   15.4101 H         1 PRO         0.0287
    135 H59        12.6020   41.2562   16.9433 H         1 PRO         0.0524
    136 H60        13.1890   40.1909   15.6214 H         1 PRO         0.0524
    137 H61        13.4659   45.5130   13.6413 H         1 ALA         0.1875
    138 H62        13.5670   47.7688   14.1751 H         1 ALA         0.0723
    139 H63        13.8974   48.5524   16.5399 H         1 ALA         0.0270
    140 H64        14.0624   46.8457   17.0751 H         1 ALA         0.0270
    141 H65        12.5033   47.4285   16.3998 H         1 ALA         0.0270
@<TRIPOS>BOND
     1    1    2 1  
     2    1    7 1  
     3    2    3 1  
     4    2    5 1  
     5    3    4 2  
     6    3    8 am 
     7    5    6 1  
     8    6    7 1  
     9    8    9 1  
    10    9   10 1  
    11    9   12 1  
    12   10   11 2  
    13   10   17 am 
    14   12   13 1  
    15   13   14 1  
    16   14   15 2  
    17   14   16 am 
    18   17   18 1  
    19   18   19 1  
    20   18   21 1  
    21   19   20 2  
    22   19   33 am 
    23   21   22 1  
    24   22   23 ar 
    25   22   24 ar 
    26   23   25 ar 
    27   24   26 ar 
    28   25   27 ar 
    29   26   27 ar 
    30   27   28 1  
    31   28   29 1  
    32   29   30 ar 
    33   29   31 ar 
    34   29   32 ar 
    35   33   34 1  
    36   34   35 1  
    37   34   37 1  
    38   35   36 2  
    39   35   41 am 
    40   37   38 1  
    41   37   39 1  
    42   38   40 1  
    43   41   42 1  
    44   42   43 1  
    45   42   45 1  
    46   43   44 2  
    47   43   57 am 
    48   45   46 1  
    49   46   47 ar 
    50   46   48 ar 
    51   47   49 ar 
    52   48   50 ar 
    53   49   51 ar 
    54   50   51 ar 
    55   51   52 1  
    56   52   53 1  
    57   53   54 ar 
    58   53   55 ar 
    59   53   56 ar 
    60   57   58 1  
    61   58   59 1  
    62   58   61 1  
    63   59   60 2  
    64   59   64 am 
    65   61   62 1  
    66   61   63 1  
    67   64   65 1  
    68   64   70 1  
    69   65   66 1  
    70   65   68 1  
    71   66   67 2  
    72   66   71 am 
    73   68   69 1  
    74   69   70 1  
    75   71   72 1  
    76   72   73 1  
    77   72   75 1  
    78   73   74 ar 
    79   73   76 ar 
    80    1   77 1  
    81    1   78 1  
    82    2   79 1  
    83    5   80 1  
    84    5   81 1  
    85    6   82 1  
    86    6   83 1  
    87    7   84 1  
    88    7   85 1  
    89    8   86 1  
    90    9   87 1  
    91   12   88 1  
    92   12   89 1  
    93   13   90 1  
    94   13   91 1  
    95   16   92 1  
    96   16   93 1  
    97   17   94 1  
    98   18   95 1  
    99   21   96 1  
   100   21   97 1  
   101   23   98 1  
   102   24   99 1  
   103   25  100 1  
   104   26  101 1  
   105   33  102 1  
   106   34  103 1  
   107   37  104 1  
   108   38  105 1  
   109   38  106 1  
   110   39  107 1  
   111   39  108 1  
   112   39  109 1  
   113   40  110 1  
   114   40  111 1  
   115   40  112 1  
   116   41  113 1  
   117   42  114 1  
   118   45  115 1  
   119   45  116 1  
   120   47  117 1  
   121   48  118 1  
   122   49  119 1  
   123   50  120 1  
   124   57  121 1  
   125   58  122 1  
   126   61  123 1  
   127   62  124 1  
   128   62  125 1  
   129   62  126 1  
   130   63  127 1  
   131   63  128 1  
   132   63  129 1  
   133   65  130 1  
   134   68  131 1  
   135   68  132 1  
   136   69  133 1  
   137   69  134 1  
   138   70  135 1  
   139   70  136 1  
   140   71  137 1  
   141   72  138 1  
   142   75  139 1  
   143   75  140 1  
   144   75  141 1  
@<TRIPOS>SUBSTRUCTURE
     1 PRO         1

