1nzv_ligand
  -I-interpret- 

146149  0  0  0  0  0  0  0  0999 V2000
   17.8710   28.3870    4.5660 N   0  3  0  0  0
   19.3180   28.7090    4.6360 C   0  0  0  0  0
   19.4840   30.1550    5.1330 C   0  0  0  0  0
   20.3990   30.8660    4.7360 O   0  0  0  0  0
   19.8530   28.5460    3.2270 C   0  0  0  0  0
   18.6320   28.9440    2.4030 C   0  0  0  0  0
   17.4210   28.3790    3.1590 C   0  0  0  0  0
   18.5830   30.5750    6.0120 N   0  0  0  0  0
   18.6050   31.9220    6.5570 C   0  0  0  0  0
   18.7040   31.9630    8.0650 C   0  0  0  0  0
   18.3770   31.0060    8.7640 O   0  0  0  0  0
   17.3340   32.6660    6.1870 C   0  0  0  0  0
   17.1940   33.0550    4.7530 C   0  0  0  0  0
   15.7910   33.5060    4.4950 C   0  0  0  0  0
   15.2100   34.2300    5.3070 O   0  0  0  0  0
   15.2270   33.0840    3.3770 N   0  0  0  0  0
   19.1240   33.1140    8.5640 N   0  0  0  0  0
   19.2270   33.3020    9.9870 C   0  0  0  0  0
   18.1230   34.2920   10.3430 C   0  0  0  0  0
   17.4870   34.8670    9.4550 O   0  0  0  0  0
   20.6110   33.8380   10.3380 C   0  0  0  0  0
   21.7000   32.7790   10.3240 C   0  0  0  0  0
   21.9460   31.9980   11.4460 C   0  0  0  0  0
   22.5160   32.5980    9.2050 C   0  0  0  0  0
   22.9700   31.0840   11.4650 C   0  0  0  0  0
   23.5560   31.6740    9.2150 C   0  0  0  0  0
   23.7770   30.9310   10.3510 C   0  0  0  0  0
   24.8400   30.0750   10.4100 O   0  0  0  0  0
   24.6310   28.5610   10.0710 P   0  0  0  0  0
   24.9040   28.4840    8.6200 O   0  0  0  0  0
   23.2390   28.1060   10.3730 O   0  0  0  0  0
   25.5220   27.7330   10.9370 O   0  0  0  0  0
   17.8730   34.4880   11.6290 N   0  0  0  0  0
   16.8170   35.3990   12.0180 C   0  0  0  0  0
   17.3340   36.6610   12.6600 C   0  0  0  0  0
   18.3160   36.6560   13.4090 O   0  0  0  0  0
   15.8330   34.7270   12.9770 C   0  0  0  0  0
   15.4680   33.3530   12.4100 C   0  0  0  0  0
   14.6040   35.6270   13.1950 C   0  0  0  0  0
   13.9950   33.0540   12.3540 C   0  0  0  0  0
   16.6450   37.7500   12.3570 N   0  0  0  0  0
   16.9960   39.0400   12.8810 C   0  0  0  0  0
   15.9930   39.4630   13.9210 C   0  0  0  0  0
   14.7860   39.2140   13.7920 O   0  0  0  0  0
   17.0050   40.0850   11.7780 C   0  0  0  0  0
   18.0820   39.8890   10.7380 C   0  0  0  0  0
   19.3390   40.4650   10.8910 C   0  0  0  0  0
   17.8340   39.1400    9.5940 C   0  0  0  0  0
   20.3140   40.3060    9.9280 C   0  0  0  0  0
   18.8010   38.9730    8.6340 C   0  0  0  0  0
   20.0390   39.5570    8.7990 C   0  0  0  0  0
   20.9920   39.3770    7.8150 O   0  0  0  0  0
   22.5110   39.9860    7.8130 P   0  0  0  0  0
   23.1680   39.6710    6.5010 O   0  0  0  0  0
   23.2940   39.4030    8.9360 O   0  0  0  0  0
   22.4640   41.4730    8.0010 O   0  0  0  0  0
   16.5120   40.0970   14.9610 N   0  0  0  0  0
   15.6950   40.6380   16.0100 C   0  0  0  0  0
   15.1730   41.9320   15.3610 C   0  0  0  0  0
   15.9080   42.6280   14.6520 O   0  0  0  0  0
   16.5710   40.9080   17.2590 C   0  0  0  0  0
   15.7790   41.6280   18.3390 C   0  0  0  0  0
   17.0830   39.5860   17.7930 C   0  0  0  0  0
   13.8700   42.2140   15.5140 N   0  0  0  0  0
   13.2260   43.4070   14.9420 C   0  0  0  0  0
   13.6160   44.7540   15.4890 C   0  0  0  0  0
   13.8450   44.9190   16.7170 O   0  0  0  0  0
   11.7420   43.1230   15.1350 C   0  0  0  0  0
   11.6670   41.6230   15.0120 C   0  0  0  0  0
   12.8510   41.2070   15.8730 C   0  0  0  0  0
   13.6880   45.7340   14.5910 N   0  0  0  0  0
   14.0690   47.1090   14.8980 C   0  0  0  0  0
   15.5710   47.3110   14.7570 C   0  0  0  0  0
   15.9610   48.2040   13.9760 O   0  0  0  0  0
   13.5980   47.5140   16.3350 C   0  0  0  0  0
   16.3410   46.5530   15.4020 O   0  0  0  0  0
   17.3454   29.0928    5.0818 H   0  0  0  0  0
   17.7128   27.4655    4.9736 H   0  0  0  0  0
   19.8597   28.0604    5.3244 H   0  0  0  0  0
   20.2239   27.5444    3.0096 H   0  0  0  0  0
   20.7390   29.1461    3.0199 H   0  0  0  0  0
   18.6891   28.5474    1.3893 H   0  0  0  0  0
   18.5624   30.0260    2.2913 H   0  0  0  0  0
   16.5156   28.9654    3.0028 H   0  0  0  0  0
   17.1347   27.3856    2.8138 H   0  0  0  0  0
   17.8516   29.9318    6.3148 H   0  0  0  0  0
   19.4940   32.3851    6.1289 H   0  0  0  0  0
   17.3486   33.5960    6.7553 H   0  0  0  0  0
   16.5094   31.9859    6.4005 H   0  0  0  0  0
   17.4232   32.1982    4.1194 H   0  0  0  0  0
   17.8848   33.8674    4.5272 H   0  0  0  0  0
   14.2695   33.3562    3.1545 H   0  0  0  0  0
   15.7491   32.4860    2.7365 H   0  0  0  0  0
   19.3772   33.8753    7.9342 H   0  0  0  0  0
   19.1076   32.3745   10.5470 H   0  0  0  0  0
   20.5580   34.2365   11.3512 H   0  0  0  0  0
   20.8717   34.5825    9.5857 H   0  0  0  0  0
   21.3147   32.1129   12.3271 H   0  0  0  0  0
   22.3349   33.1909    8.3085 H   0  0  0  0  0
   23.1471   30.4803   12.3551 H   0  0  0  0  0
   24.1862   31.5409    8.3357 H   0  0  0  0  0
   23.0827   28.1638   11.3184 H   0  0  0  0  0
   25.2696   27.8477   11.8561 H   0  0  0  0  0
   18.4198   34.0012   12.3392 H   0  0  0  0  0
   16.3106   35.6721   11.0922 H   0  0  0  0  0
   16.2846   34.5819   13.9584 H   0  0  0  0  0
   15.9127   32.6121   13.0744 H   0  0  0  0  0
   15.8309   33.3321   11.3824 H   0  0  0  0  0
   14.9230   36.5789   13.6196 H   0  0  0  0  0
   14.1090   35.8015   12.2397 H   0  0  0  0  0
   13.9125   35.1359   13.8796 H   0  0  0  0  0
   13.5786   33.0957   13.3605 H   0  0  0  0  0
   13.4994   33.7922   11.7235 H   0  0  0  0  0
   13.8433   32.0582   11.9376 H   0  0  0  0  0
   15.8417   37.6705   11.7334 H   0  0  0  0  0
   17.9904   38.9627   13.3207 H   0  0  0  0  0
   17.1918   41.0482   12.2528 H   0  0  0  0  0
   16.0472   40.0129   11.2627 H   0  0  0  0  0
   19.5567   41.0503   11.7844 H   0  0  0  0  0
   16.8564   38.6779    9.4568 H   0  0  0  0  0
   21.2933   40.7672   10.0563 H   0  0  0  0  0
   18.5906   38.3803    7.7437 H   0  0  0  0  0
   22.6528   40.0527    5.7866 H   0  0  0  0  0
   21.9620   41.8692    7.2850 H   0  0  0  0  0
   17.5247   40.2044   15.0187 H   0  0  0  0  0
   14.8900   39.9920   16.3605 H   0  0  0  0  0
   17.4058   41.5477   16.9728 H   0  0  0  0  0
   15.4215   42.5817   17.9508 H   0  0  0  0  0
   14.9290   41.0133   18.6352 H   0  0  0  0  0
   16.4207   41.8033   19.2025 H   0  0  0  0  0
   16.2378   38.9534   18.0642 H   0  0  0  0  0
   17.6773   39.0910   17.0249 H   0  0  0  0  0
   17.7010   39.7658   18.6727 H   0  0  0  0  0
   13.5522   43.5273   13.9089 H   0  0  0  0  0
   11.1145   43.6390   14.4083 H   0  0  0  0  0
   11.3618   43.4888   16.0888 H   0  0  0  0  0
   11.7164   41.2597   13.9855 H   0  0  0  0  0
   10.7154   41.1993   15.3329 H   0  0  0  0  0
   12.6216   41.1898   16.9384 H   0  0  0  0  0
   13.1763   40.1831   15.6892 H   0  0  0  0  0
   13.4615   45.5086   13.6224 H   0  0  0  0  0
   13.5701   47.7556   14.1761 H   0  0  0  0  0
   12.5132   47.4288   16.3979 H   0  0  0  0  0
   14.0588   46.8511   17.0673 H   0  0  0  0  0
   13.8952   48.5431   16.5368 H   0  0  0  0  0
   15.8200   45.9481   15.9352 H   0  0  0  0  0
  1  2  1  0  0  0
  1  7  1  0  0  0
  2  3  1  0  0  0
  2  5  1  0  0  0
  3  4  2  0  0  0
  3  8  1  0  0  0
  5  6  1  0  0  0
  6  7  1  0  0  0
  8  9  1  0  0  0
  9 10  1  0  0  0
  9 12  1  0  0  0
 10 11  2  0  0  0
 10 17  1  0  0  0
 12 13  1  0  0  0
 13 14  1  0  0  0
 14 15  2  0  0  0
 14 16  1  0  0  0
 17 18  1  0  0  0
 18 19  1  0  0  0
 18 21  1  0  0  0
 19 20  2  0  0  0
 19 33  1  0  0  0
 21 22  1  0  0  0
 22 23  4  0  0  0
 22 24  4  0  0  0
 23 25  4  0  0  0
 24 26  4  0  0  0
 25 27  4  0  0  0
 26 27  4  0  0  0
 27 28  1  0  0  0
 28 29  1  0  0  0
 29 30  2  0  0  0
 29 31  1  0  0  0
 29 32  1  0  0  0
 33 34  1  0  0  0
 34 35  1  0  0  0
 34 37  1  0  0  0
 35 36  2  0  0  0
 35 41  1  0  0  0
 37 38  1  0  0  0
 37 39  1  0  0  0
 38 40  1  0  0  0
 41 42  1  0  0  0
 42 43  1  0  0  0
 42 45  1  0  0  0
 43 44  2  0  0  0
 43 57  1  0  0  0
 45 46  1  0  0  0
 46 47  4  0  0  0
 46 48  4  0  0  0
 47 49  4  0  0  0
 48 50  4  0  0  0
 49 51  4  0  0  0
 50 51  4  0  0  0
 51 52  1  0  0  0
 52 53  1  0  0  0
 53 54  1  0  0  0
 53 55  2  0  0  0
 53 56  1  0  0  0
 57 58  1  0  0  0
 58 59  1  0  0  0
 58 61  1  0  0  0
 59 60  2  0  0  0
 59 64  1  0  0  0
 61 62  1  0  0  0
 61 63  1  0  0  0
 64 65  1  0  0  0
 64 70  1  0  0  0
 65 66  1  0  0  0
 65 68  1  0  0  0
 66 67  2  0  0  0
 66 71  1  0  0  0
 68 69  1  0  0  0
 69 70  1  0  0  0
 71 72  1  0  0  0
 72 73  1  0  0  0
 72 75  1  0  0  0
 73 74  2  0  0  0
 73 76  1  0  0  0
  1 77  1  0  0  0
  1 78  1  0  0  0
  2 79  1  0  0  0
  5 80  1  0  0  0
  5 81  1  0  0  0
  6 82  1  0  0  0
  6 83  1  0  0  0
  7 84  1  0  0  0
  7 85  1  0  0  0
  8 86  1  0  0  0
  9 87  1  0  0  0
 12 88  1  0  0  0
 12 89  1  0  0  0
 13 90  1  0  0  0
 13 91  1  0  0  0
 16 92  1  0  0  0
 16 93  1  0  0  0
 17 94  1  0  0  0
 18 95  1  0  0  0
 21 96  1  0  0  0
 21 97  1  0  0  0
 23 98  1  0  0  0
 24 99  1  0  0  0
 25100  1  0  0  0
 26101  1  0  0  0
 31102  1  0  0  0
 32103  1  0  0  0
 33104  1  0  0  0
 34105  1  0  0  0
 37106  1  0  0  0
 38107  1  0  0  0
 38108  1  0  0  0
 39109  1  0  0  0
 39110  1  0  0  0
 39111  1  0  0  0
 40112  1  0  0  0
 40113  1  0  0  0
 40114  1  0  0  0
 41115  1  0  0  0
 42116  1  0  0  0
 45117  1  0  0  0
 45118  1  0  0  0
 47119  1  0  0  0
 48120  1  0  0  0
 49121  1  0  0  0
 50122  1  0  0  0
 54123  1  0  0  0
 56124  1  0  0  0
 57125  1  0  0  0
 58126  1  0  0  0
 61127  1  0  0  0
 62128  1  0  0  0
 62129  1  0  0  0
 62130  1  0  0  0
 63131  1  0  0  0
 63132  1  0  0  0
 63133  1  0  0  0
 65134  1  0  0  0
 68135  1  0  0  0
 68136  1  0  0  0
 69137  1  0  0  0
 69138  1  0  0  0
 70139  1  0  0  0
 70140  1  0  0  0
 71141  1  0  0  0
 72142  1  0  0  0
 75143  1  0  0  0
 75144  1  0  0  0
 75145  1  0  0  0
 76146  1  0  0  0
M  END
$$$$
