6sfk_ligand
  -I-interpret- 

 72 75  0  0  0  0  0  0  0  0999 V2000
   -2.5250   35.6770   22.5290 N   0  0  0  0  0
   -5.1810   40.2370   16.5310 C   0  0  0  0  0
   -0.4170   40.5730   16.0190 O   0  0  0  0  0
   -1.6350   42.1260   14.9430 N   0  0  0  0  0
   -2.7860   40.5350   16.3920 C   0  0  0  0  0
   -0.5250   44.8630   15.2560 N   0  0  0  0  0
   -2.6450   39.6730   17.4670 C   0  0  0  0  0
   -3.7650   39.1010   18.0810 C   0  0  0  0  0
   -1.5180   41.0850   15.7770 C   0  0  0  0  0
   -0.4860   42.6590   14.2080 C   0  0  0  0  0
   -0.5980   44.1890   14.1190 C   0  0  0  0  0
   -0.7930   44.7310   13.0310 O   0  0  0  0  0
   -0.4110   41.9550   12.8400 C   0  0  0  0  0
    0.8150   42.0650   11.9130 C   0  0  0  0  0
    2.1870   41.6570   12.5000 C   0  0  0  0  0
    3.2780   41.8630   11.4620 C   0  0  0  0  0
    4.6530   41.4180   11.9590 C   0  0  0  0  0
    4.6410   39.9750   12.4350 C   0  0  0  0  0
    3.5880   39.7740   13.5060 C   0  0  0  0  0
    2.2130   40.2060   12.9950 C   0  0  0  0  0
   -4.0670   40.8110   15.9230 C   0  0  0  0  0
   -5.0600   39.3860   17.6200 C   0  0  0  0  0
   -6.2940   38.8270   18.3220 C   0  0  0  0  0
   -3.6130   38.2870   19.2470 N   0  0  0  0  0
   -3.0310   38.6840   20.3840 C   0  0  0  0  0
   -2.6620   39.8350   20.5760 O   0  0  0  0  0
   -2.8660   37.6400   21.4520 C   0  0  0  0  0
   -2.4840   37.9250   22.7580 C   0  0  0  0  0
   -2.3010   39.2360   23.4530 C   0  0  0  0  0
   -2.2760   39.1140   24.7820 F   0  0  0  0  0
   -1.1410   39.8740   23.1120 F   0  0  0  0  0
   -3.2800   40.0680   23.1830 F   0  0  0  0  0
   -2.2720   36.7260   23.3670 N   0  0  0  0  0
   -2.8970   36.2370   21.3850 C   0  0  0  0  0
   -1.7080   36.4520   24.6490 C   0  0  0  0  0
   -2.4980   35.9220   25.6640 C   0  0  0  0  0
   -1.9350   35.6600   26.9080 C   0  0  0  0  0
   -0.6050   35.9480   27.1470 C   0  0  0  0  0
    0.1760   36.4950   26.1410 C   0  0  0  0  0
   -0.3690   36.7410   24.8870 C   0  0  0  0  0
   -6.1736   40.4623   16.1411 H   0  0  0  0  0
   -2.5495   42.5596   14.8162 H   0  0  0  0  0
   -0.6320   45.8774   15.2553 H   0  0  0  0  0
   -0.3617   44.3680   16.1327 H   0  0  0  0  0
   -1.6483   39.4370   17.8398 H   0  0  0  0  0
    0.4528   42.4563   14.7235 H   0  0  0  0  0
   -1.2027   42.4370   12.2665 H   0  0  0  0  0
   -0.4334   40.8970   13.1012 H   0  0  0  0  0
    0.9031   43.1226   11.6644 H   0  0  0  0  0
    0.6275   41.3727   11.0923 H   0  0  0  0  0
    2.3648   42.2965   13.3646 H   0  0  0  0  0
    3.3309   42.9283   11.2376 H   0  0  0  0  0
    3.0268   41.2628   10.5875 H   0  0  0  0  0
    4.9361   42.0533   12.7982 H   0  0  0  0  0
    5.3592   41.5004   11.1328 H   0  0  0  0  0
    5.6187   39.7329   12.8518 H   0  0  0  0  0
    4.4122   39.3265   11.5893 H   0  0  0  0  0
    3.8480   40.3780   14.3753 H   0  0  0  0  0
    3.5507   38.7174   13.7713 H   0  0  0  0  0
    1.9543   39.5633   12.1535 H   0  0  0  0  0
    1.5100   40.1252   13.8241 H   0  0  0  0  0
   -4.1994   41.4812   15.0737 H   0  0  0  0  0
   -6.8947   39.6503   18.7086 H   0  0  0  0  0
   -6.8836   38.2478   17.6113 H   0  0  0  0  0
   -5.9822   38.1850   19.1458 H   0  0  0  0  0
   -3.9748   37.3341   19.2088 H   0  0  0  0  0
   -3.1916   35.6753   20.4986 H   0  0  0  0  0
   -3.5527   35.7132   25.4850 H   0  0  0  0  0
   -2.5461   35.2251   27.6989 H   0  0  0  0  0
   -0.1703   35.7452   28.1258 H   0  0  0  0  0
    1.2219   36.7331   26.3345 H   0  0  0  0  0
    0.2504   37.1587   24.0933 H   0  0  0  0  0
  1 33  4  0  0  0
 34  1  4  0  0  0
  2 21  4  0  0  0
 22  2  4  0  0  0
  9  3  2  0  0  0
  9  4  1  0  0  0
  4 10  1  0  0  0
  7  5  4  0  0  0
  5  9  1  0  0  0
  5 21  4  0  0  0
 11  6  1  0  0  0
  8  7  4  0  0  0
  8 22  4  0  0  0
 24  8  1  0  0  0
 10 11  1  0  0  0
 10 13  1  0  0  0
 11 12  2  0  0  0
 13 14  1  0  0  0
 14 15  1  0  0  0
 15 16  1  0  0  0
 15 20  1  0  0  0
 16 17  1  0  0  0
 17 18  1  0  0  0
 19 18  1  0  0  0
 20 19  1  0  0  0
 22 23  1  0  0  0
 25 24  1  0  0  0
 25 26  2  0  0  0
 27 25  1  0  0  0
 27 28  4  0  0  0
 27 34  4  0  0  0
 28 29  1  0  0  0
 28 33  4  0  0  0
 29 30  1  0  0  0
 29 31  1  0  0  0
 29 32  1  0  0  0
 33 35  1  0  0  0
 35 36  4  0  0  0
 35 40  4  0  0  0
 36 37  4  0  0  0
 37 38  4  0  0  0
 38 39  4  0  0  0
 39 40  4  0  0  0
  2 41  1  0  0  0
  4 42  1  0  0  0
  6 43  1  0  0  0
  6 44  1  0  0  0
  7 45  1  0  0  0
 10 46  1  0  0  0
 13 47  1  0  0  0
 13 48  1  0  0  0
 14 49  1  0  0  0
 14 50  1  0  0  0
 15 51  1  0  0  0
 16 52  1  0  0  0
 16 53  1  0  0  0
 17 54  1  0  0  0
 17 55  1  0  0  0
 18 56  1  0  0  0
 18 57  1  0  0  0
 19 58  1  0  0  0
 19 59  1  0  0  0
 20 60  1  0  0  0
 20 61  1  0  0  0
 21 62  1  0  0  0
 23 63  1  0  0  0
 23 64  1  0  0  0
 23 65  1  0  0  0
 24 66  1  0  0  0
 34 67  1  0  0  0
 36 68  1  0  0  0
 37 69  1  0  0  0
 38 70  1  0  0  0
 39 71  1  0  0  0
 40 72  1  0  0  0
M  END
$$$$
