### 
### Created by X-TOOL on Wed Jan  1 15:39:35 2020
### 

@<TRIPOS>MOLECULE
5yy4_ligand
  138   140     1     0     0
SMALL
GAST_HUCK


@<TRIPOS>ATOM
      1 N           0.6590   -7.0850  -15.2290 N.4       1 ILE         0.2381
      2 CA         -0.7510   -6.5830  -15.2750 C.3       1 ILE         0.0676
      3 C          -1.6880   -7.7640  -15.0930 C.2       1 ILE         0.2271
      4 O          -1.6260   -8.7280  -15.8540 O.2       1 ILE        -0.3907
      5 CB         -1.0680   -5.8860  -16.6180 C.3       1 ILE         0.0164
      6 CG1        -0.1330   -4.6750  -16.8120 C.3       1 ILE        -0.0460
      7 CG2        -2.5460   -5.4880  -16.6840 C.3       1 ILE        -0.0551
      8 CD1        -0.2250   -4.0010  -18.1710 C.3       1 ILE        -0.0647
      9 N          -2.5860   -7.6630  -14.1170 N.am      1 ASN        -0.2589
     10 CA         -3.5120   -8.7320  -13.8060 C.3       1 ASN         0.1477
     11 C          -4.6350   -8.7620  -14.8580 C.2       1 ASN         0.2064
     12 O          -5.1870   -7.7170  -15.2320 O.2       1 ASN        -0.3942
     13 CB         -4.0620   -8.5170  -12.3850 C.3       1 ASN         0.0773
     14 CG         -4.8350   -9.6910  -11.8870 C.2       1 ASN         0.1780
     15 OD1        -6.0060   -9.8240  -12.1620 O.2       1 ASN        -0.3970
     16 ND2        -4.1630  -10.5830  -11.1570 N.am      1 ASN        -0.3007
     17 N          -4.9710   -9.9580  -15.3380 N.am      1 TYS        -0.2620
     18 CA         -6.0780  -10.1380  -16.3060 C.3       1 TYS         0.1390
     19 CB         -6.0490  -11.5720  -16.9030 C.3       1 TYS         0.0163
     20 CG         -4.9560  -11.8090  -17.9160 C.ar      1 TYS        -0.0493
     21 CD1        -4.6450  -13.1480  -18.1820 C.ar      1 TYS        -0.0684
     22 CD2        -4.2850  -10.7800  -18.5850 C.ar      1 TYS        -0.0684
     23 CE1        -3.6600  -13.4480  -19.1160 C.ar      1 TYS        -0.0372
     24 CE2        -3.3080  -11.0800  -19.5230 C.ar      1 TYS        -0.0372
     25 CZ         -3.0000  -12.4060  -19.7810 C.ar      1 TYS         0.1129
     26 OH         -2.0200  -12.6850  -20.6960 O.3       1 TYS        -0.2030
     27 S          -0.6430  -13.1720  -20.2290 S.o2      1 TYS        -0.0526
     28 O1          0.4760  -12.1130  -20.7950 O.co2     1 TYS        -0.4580
     29 O2         -0.4660  -14.5020  -20.7670 O.co2     1 TYS        -0.4580
     30 O3         -0.5370  -13.2200  -18.7880 O.co2     1 TYS        -0.4580
     31 C          -7.4750  -10.0060  -15.7920 C.2       1 TYS         0.2058
     32 O          -8.4060   -9.9270  -16.5970 O.2       1 TYS        -0.3942
     33 N          -7.6670  -10.0070  -14.4750 N.am      1 TYS        -0.2620
     34 CA         -8.9890  -10.1590  -13.8720 C.3       1 TYS         0.1390
     35 CB         -8.9570  -11.3530  -12.8920 C.3       1 TYS         0.0163
     36 CG         -8.3100  -12.5590  -13.5580 C.ar      1 TYS        -0.0493
     37 CD1        -8.9650  -13.1610  -14.6180 C.ar      1 TYS        -0.0684
     38 CD2        -7.0770  -13.0700  -13.1250 C.ar      1 TYS        -0.0684
     39 CE1        -8.3970  -14.2760  -15.2580 C.ar      1 TYS        -0.0372
     40 CE2        -6.5070  -14.1890  -13.7750 C.ar      1 TYS        -0.0372
     41 CZ         -7.1720  -14.8060  -14.8380 C.ar      1 TYS         0.1129
     42 OH         -6.6330  -15.9030  -15.5100 O.3       1 TYS        -0.2030
     43 S          -6.6500  -17.2990  -14.8210 S.o2      1 TYS        -0.0526
     44 O1         -7.9980  -17.7200  -14.5570 O.co2     1 TYS        -0.4580
     45 O2         -6.0240  -18.2470  -15.7060 O.co2     1 TYS        -0.4580
     46 O3         -5.8260  -17.2070  -13.4100 O.co2     1 TYS        -0.4580
     47 C          -9.4640   -8.9150  -13.1630 C.2       1 TYS         0.2058
     48 O         -10.6800   -8.6590  -13.1000 O.2       1 TYS        -0.3942
     49 N          -8.5190   -8.1520  -12.6210 N.am      1 THR        -0.2612
     50 CA         -8.7940   -6.8440  -11.9950 C.3       1 THR         0.1565
     51 C          -7.7120   -5.8170  -12.2780 C.2       1 THR         0.2065
     52 O          -6.5130   -6.1460  -12.3800 O.2       1 THR        -0.3943
     53 CB         -8.9990   -6.9890  -10.4640 C.3       1 THR         0.0924
     54 OG1        -9.1570   -5.7020   -9.8780 O.3       1 THR        -0.3874
     55 CG2        -7.8160   -7.6710   -9.8190 C.3       1 THR        -0.0346
     56 N          -8.1270   -4.5440  -12.3930 N.am      1 SER        -0.2615
     57 CA         -7.1850   -3.4430  -12.4830 C.3       1 SER         0.1539
     58 C          -6.7070   -2.9120  -11.1340 C.2       1 SER         0.2062
     59 O          -5.8380   -2.0350  -11.1080 O.2       1 SER        -0.3943
     60 CB         -7.7660   -2.2730  -13.2460 C.3       1 SER         0.0843
     61 OG         -8.8430   -1.6810  -12.5450 O.3       1 SER        -0.3903
     62 N          -7.2380   -3.4440  -10.0390 N.am      1 GLU        -0.2635
     63 CA         -6.8880   -2.9330   -8.7110 C.3       1 GLU         0.1326
     64 C          -5.4640   -3.2880   -8.3910 C.2       1 GLU         0.2059
     65 O          -5.0110   -4.4080   -8.7250 O.2       1 GLU        -0.3942
     66 CB         -7.7930   -3.5430   -7.6420 C.3       1 GLU        -0.0008
     67 CG         -9.2930   -3.2240   -7.7640 C.3       1 GLU         0.0044
     68 CD        -10.1730   -4.2140   -7.0050 C.2       1 GLU         0.0350
     69 OE1       -10.9830   -3.7530   -6.1650 O.co2     1 GLU        -0.5690
     70 OE2       -10.0820   -5.4350   -7.3040 O.co2     1 GLU        -0.5690
     71 N          -4.7370   -2.3950   -7.7330 N.am      1 PRO        -0.2556
     72 CA         -3.3420   -2.7220   -7.3850 C.3       1 PRO         0.0972
     73 C          -3.2570   -3.8710   -6.3780 C.2       1 PRO         0.0603
     74 O          -2.1950   -4.5620   -6.3950 O.co2     1 PRO        -0.5666
     75 CB         -2.7950   -1.4140   -6.8310 C.3       1 PRO        -0.0159
     76 CG         -4.0140   -0.7300   -6.2890 C.3       1 PRO        -0.0288
     77 CD         -5.1080   -1.0470   -7.2700 C.3       1 PRO         0.0362
     78 OXT        -4.1800   -4.1110   -5.5730 O.co2     1 PRO        -0.5666
     79 H1          0.8278   -7.5318  -14.3413 H         1 ILE         0.2015
     80 H2          1.2950   -6.3112  -15.3420 H         1 ILE         0.2015
     81 H3          0.8034   -7.7500  -15.9726 H         1 ILE         0.2015
     82 H4         -0.9023   -5.8638  -14.4565 H         1 ILE         0.1101
     83 H5         -0.8740   -6.5998  -17.4321 H         1 ILE         0.0378
     84 H6          0.9026   -5.0180  -16.6711 H         1 ILE         0.0269
     85 H7         -0.3795   -3.9275  -16.0435 H         1 ILE         0.0269
     86 H8         -3.1728   -6.3806  -16.5409 H         1 ILE         0.0236
     87 H9         -2.7621   -5.0418  -17.6659 H         1 ILE         0.0236
     88 H10        -2.7643   -4.7560  -15.8925 H         1 ILE         0.0236
     89 H11         0.4765   -3.1545  -18.2087 H         1 ILE         0.0230
     90 H12        -1.2500   -3.6350  -18.3302 H         1 ILE         0.0230
     91 H13         0.0321   -4.7255  -18.9578 H         1 ILE         0.0230
     92 H14        -2.6229   -6.8203  -13.5798 H         1 ASN         0.1886
     93 H15        -2.9779   -9.6931  -13.8359 H         1 ASN         0.0826
     94 H16        -4.7224   -7.6373  -12.3919 H         1 ASN         0.0551
     95 H17        -3.2175   -8.3363  -11.7037 H         1 ASN         0.0551
     96 H18        -4.6318  -11.3898  -10.7974 H         1 ASN         0.1814
     97 H19        -3.1905  -10.4448  -10.9695 H         1 ASN         0.1814
     98 H20        -4.4588  -10.7616  -15.0348 H         1 TYS         0.1885
     99 H21        -5.9311   -9.3970  -17.1055 H         1 TYS         0.0821
    100 H22        -7.0163  -11.7597  -17.3919 H         1 TYS         0.0453
    101 H23        -5.9113  -12.2849  -16.0767 H         1 TYS         0.0453
    102 H24        -5.1678  -13.9439  -17.6641 H         1 TYS         0.0530
    103 H25        -4.5290   -9.7459  -18.3700 H         1 TYS         0.0530
    104 H26        -3.4045  -14.4799  -19.3282 H         1 TYS         0.0526
    105 H27        -2.7910  -10.2853  -20.0486 H         1 TYS         0.0526
    106 H28        -6.8748   -9.8994  -13.8743 H         1 TYS         0.1885
    107 H29        -9.7064  -10.3826  -14.6753 H         1 TYS         0.0821
    108 H30        -9.9852  -11.6087  -12.5964 H         1 TYS         0.0453
    109 H31        -8.3770  -11.0757  -11.9994 H         1 TYS         0.0453
    110 H32        -9.9187  -12.7716  -14.9556 H         1 TYS         0.0530
    111 H33        -6.5611  -12.6067  -12.2918 H         1 TYS         0.0530
    112 H34        -8.9172  -14.7335  -16.0918 H         1 TYS         0.0526
    113 H35        -5.5472  -14.5710  -13.4463 H         1 TYS         0.0526
    114 H36        -7.5748   -8.4810  -12.6385 H         1 THR         0.1884
    115 H37        -9.7320   -6.4650  -12.4269 H         1 THR         0.0826
    116 H38        -9.9035   -7.5875  -10.2806 H         1 THR         0.0639
    117 H39        -9.2822   -5.7952   -8.9409 H         1 THR         0.2101
    118 H40        -7.9894   -7.7596   -8.7364 H         1 THR         0.0257
    119 H41        -6.9079   -7.0765   -9.9974 H         1 THR         0.0257
    120 H42        -7.6891   -8.6736  -10.2533 H         1 THR         0.0257
    121 H43        -9.1078   -4.3505  -12.4172 H         1 SER         0.1884
    122 H44        -6.3063   -3.8140  -13.0309 H         1 SER         0.0823
    123 H45        -8.1268   -2.6270  -14.2230 H         1 SER         0.0606
    124 H46        -6.9798   -1.5186  -13.3968 H         1 SER         0.0606
    125 H47        -8.5370   -1.3688  -11.7016 H         1 SER         0.2097
    126 H48        -7.8845   -4.2024  -10.1218 H         1 GLU         0.1883
    127 H49        -7.0041   -1.8392   -8.7046 H         1 GLU         0.0801
    128 H50        -7.4501   -3.1777   -6.6627 H         1 GLU         0.0330
    129 H51        -7.6770   -4.6359   -7.6868 H         1 GLU         0.0330
    130 H52        -9.5722   -3.2497   -8.8276 H         1 GLU         0.0433
    131 H53        -9.4715   -2.2157   -7.3622 H         1 GLU         0.0433
    132 H54        -2.7840   -3.0106   -8.2879 H         1 PRO         0.0728
    133 H55        -2.3280   -0.8144   -7.6262 H         1 PRO         0.0306
    134 H56        -2.0609   -1.6007   -6.0333 H         1 PRO         0.0306
    135 H57        -3.8526    0.3564   -6.2280 H         1 PRO         0.0286
    136 H58        -4.2646   -1.1200   -5.2915 H         1 PRO         0.0286
    137 H59        -6.0928   -1.0516   -6.7800 H         1 PRO         0.0524
    138 H60        -5.1161   -0.3284   -8.1028 H         1 PRO         0.0524
@<TRIPOS>BOND
     1    1    2 1  
     2    2    3 1  
     3    2    5 1  
     4    3    4 2  
     5    3    9 am 
     6    5    6 1  
     7    5    7 1  
     8    6    8 1  
     9    9   10 1  
    10   10   11 1  
    11   10   13 1  
    12   11   12 2  
    13   11   17 am 
    14   13   14 1  
    15   14   15 2  
    16   14   16 am 
    17   17   18 1  
    18   18   19 1  
    19   18   31 1  
    20   19   20 1  
    21   20   21 ar 
    22   20   22 ar 
    23   21   23 ar 
    24   22   24 ar 
    25   23   25 ar 
    26   24   25 ar 
    27   25   26 1  
    28   26   27 1  
    29   27   28 ar 
    30   27   29 ar 
    31   27   30 ar 
    32   31   32 2  
    33   31   33 am 
    34   33   34 1  
    35   34   35 1  
    36   34   47 1  
    37   35   36 1  
    38   36   37 ar 
    39   36   38 ar 
    40   37   39 ar 
    41   38   40 ar 
    42   39   41 ar 
    43   40   41 ar 
    44   41   42 1  
    45   42   43 1  
    46   43   44 ar 
    47   43   45 ar 
    48   43   46 ar 
    49   47   48 2  
    50   47   49 am 
    51   49   50 1  
    52   50   51 1  
    53   50   53 1  
    54   51   52 2  
    55   51   56 am 
    56   53   54 1  
    57   53   55 1  
    58   56   57 1  
    59   57   58 1  
    60   57   60 1  
    61   58   59 2  
    62   58   62 am 
    63   60   61 1  
    64   62   63 1  
    65   63   64 1  
    66   63   66 1  
    67   64   65 2  
    68   64   71 am 
    69   66   67 1  
    70   67   68 1  
    71   68   69 ar 
    72   68   70 ar 
    73   71   72 1  
    74   71   77 1  
    75   72   73 1  
    76   72   75 1  
    77   73   74 ar 
    78   73   78 ar 
    79   75   76 1  
    80   76   77 1  
    81    1   79 1  
    82    1   80 1  
    83    1   81 1  
    84    2   82 1  
    85    5   83 1  
    86    6   84 1  
    87    6   85 1  
    88    7   86 1  
    89    7   87 1  
    90    7   88 1  
    91    8   89 1  
    92    8   90 1  
    93    8   91 1  
    94    9   92 1  
    95   10   93 1  
    96   13   94 1  
    97   13   95 1  
    98   16   96 1  
    99   16   97 1  
   100   17   98 1  
   101   18   99 1  
   102   19  100 1  
   103   19  101 1  
   104   21  102 1  
   105   22  103 1  
   106   23  104 1  
   107   24  105 1  
   108   33  106 1  
   109   34  107 1  
   110   35  108 1  
   111   35  109 1  
   112   37  110 1  
   113   38  111 1  
   114   39  112 1  
   115   40  113 1  
   116   49  114 1  
   117   50  115 1  
   118   53  116 1  
   119   54  117 1  
   120   55  118 1  
   121   55  119 1  
   122   55  120 1  
   123   56  121 1  
   124   57  122 1  
   125   60  123 1  
   126   60  124 1  
   127   61  125 1  
   128   62  126 1  
   129   63  127 1  
   130   66  128 1  
   131   66  129 1  
   132   67  130 1  
   133   67  131 1  
   134   72  132 1  
   135   75  133 1  
   136   75  134 1  
   137   76  135 1  
   138   76  136 1  
   139   77  137 1  
   140   77  138 1  
@<TRIPOS>SUBSTRUCTURE
     1 ILE         1

