5yy4_ligand
  -I-interpret- 

142144  0  0  0  0  0  0  0  0999 V2000
    0.6590   -7.0850  -15.2290 N   0  3  0  0  0
   -0.7510   -6.5830  -15.2750 C   0  0  0  0  0
   -1.6880   -7.7640  -15.0930 C   0  0  0  0  0
   -1.6260   -8.7280  -15.8540 O   0  0  0  0  0
   -1.0680   -5.8860  -16.6180 C   0  0  0  0  0
   -0.1330   -4.6750  -16.8120 C   0  0  0  0  0
   -2.5460   -5.4880  -16.6840 C   0  0  0  0  0
   -0.2250   -4.0010  -18.1710 C   0  0  0  0  0
   -2.5860   -7.6630  -14.1170 N   0  0  0  0  0
   -3.5120   -8.7320  -13.8060 C   0  0  0  0  0
   -4.6350   -8.7620  -14.8580 C   0  0  0  0  0
   -5.1870   -7.7170  -15.2320 O   0  0  0  0  0
   -4.0620   -8.5170  -12.3850 C   0  0  0  0  0
   -4.8350   -9.6910  -11.8870 C   0  0  0  0  0
   -6.0060   -9.8240  -12.1620 O   0  0  0  0  0
   -4.1630  -10.5830  -11.1570 N   0  0  0  0  0
   -4.9710   -9.9580  -15.3380 N   0  0  0  0  0
   -6.0780  -10.1380  -16.3060 C   0  0  0  0  0
   -6.0490  -11.5720  -16.9030 C   0  0  0  0  0
   -4.9560  -11.8090  -17.9160 C   0  0  0  0  0
   -4.6450  -13.1480  -18.1820 C   0  0  0  0  0
   -4.2850  -10.7800  -18.5850 C   0  0  0  0  0
   -3.6600  -13.4480  -19.1160 C   0  0  0  0  0
   -3.3080  -11.0800  -19.5230 C   0  0  0  0  0
   -3.0000  -12.4060  -19.7810 C   0  0  0  0  0
   -2.0200  -12.6850  -20.6960 O   0  0  0  0  0
   -0.6430  -13.1720  -20.2290 S   0  0  0  0  0
    0.4760  -12.1130  -20.7950 O   0  0  0  0  0
   -0.4660  -14.5020  -20.7670 O   0  0  0  0  0
   -0.5370  -13.2200  -18.7880 O   0  0  0  0  0
   -7.4750  -10.0060  -15.7920 C   0  0  0  0  0
   -8.4060   -9.9270  -16.5970 O   0  0  0  0  0
   -7.6670  -10.0070  -14.4750 N   0  0  0  0  0
   -8.9890  -10.1590  -13.8720 C   0  0  0  0  0
   -8.9570  -11.3530  -12.8920 C   0  0  0  0  0
   -8.3100  -12.5590  -13.5580 C   0  0  0  0  0
   -8.9650  -13.1610  -14.6180 C   0  0  0  0  0
   -7.0770  -13.0700  -13.1250 C   0  0  0  0  0
   -8.3970  -14.2760  -15.2580 C   0  0  0  0  0
   -6.5070  -14.1890  -13.7750 C   0  0  0  0  0
   -7.1720  -14.8060  -14.8380 C   0  0  0  0  0
   -6.6330  -15.9030  -15.5100 O   0  0  0  0  0
   -6.6500  -17.2990  -14.8210 S   0  0  0  0  0
   -7.9980  -17.7200  -14.5570 O   0  0  0  0  0
   -6.0240  -18.2470  -15.7060 O   0  0  0  0  0
   -5.8260  -17.2070  -13.4100 O   0  0  0  0  0
   -9.4640   -8.9150  -13.1630 C   0  0  0  0  0
  -10.6800   -8.6590  -13.1000 O   0  0  0  0  0
   -8.5190   -8.1520  -12.6210 N   0  0  0  0  0
   -8.7940   -6.8440  -11.9950 C   0  0  0  0  0
   -7.7120   -5.8170  -12.2780 C   0  0  0  0  0
   -6.5130   -6.1460  -12.3800 O   0  0  0  0  0
   -8.9990   -6.9890  -10.4640 C   0  0  0  0  0
   -9.1570   -5.7020   -9.8780 O   0  0  0  0  0
   -7.8160   -7.6710   -9.8190 C   0  0  0  0  0
   -8.1270   -4.5440  -12.3930 N   0  0  0  0  0
   -7.1850   -3.4430  -12.4830 C   0  0  0  0  0
   -6.7070   -2.9120  -11.1340 C   0  0  0  0  0
   -5.8380   -2.0350  -11.1080 O   0  0  0  0  0
   -7.7660   -2.2730  -13.2460 C   0  0  0  0  0
   -8.8430   -1.6810  -12.5450 O   0  0  0  0  0
   -7.2380   -3.4440  -10.0390 N   0  0  0  0  0
   -6.8880   -2.9330   -8.7110 C   0  0  0  0  0
   -5.4640   -3.2880   -8.3910 C   0  0  0  0  0
   -5.0110   -4.4080   -8.7250 O   0  0  0  0  0
   -7.7930   -3.5430   -7.6420 C   0  0  0  0  0
   -9.2930   -3.2240   -7.7640 C   0  0  0  0  0
  -10.1730   -4.2140   -7.0050 C   0  0  0  0  0
  -10.9830   -3.7530   -6.1650 O   0  0  0  0  0
  -10.0820   -5.4350   -7.3040 O   0  0  0  0  0
   -4.7370   -2.3950   -7.7330 N   0  0  0  0  0
   -3.3420   -2.7220   -7.3850 C   0  0  0  0  0
   -3.2570   -3.8710   -6.3780 C   0  0  0  0  0
   -2.1950   -4.5620   -6.3950 O   0  0  0  0  0
   -2.7950   -1.4140   -6.8310 C   0  0  0  0  0
   -4.0140   -0.7300   -6.2890 C   0  0  0  0  0
   -5.1080   -1.0470   -7.2700 C   0  0  0  0  0
   -4.1800   -4.1110   -5.5730 O   0  0  0  0  0
    0.8286   -7.5368  -14.3304 H   0  0  0  0  0
    0.8039   -7.7577  -15.9819 H   0  0  0  0  0
    1.3016   -6.3012  -15.3435 H   0  0  0  0  0
   -0.8834   -5.8496  -14.4796 H   0  0  0  0  0
   -0.8884   -6.5818  -17.4376 H   0  0  0  0  0
    0.8869   -5.0471  -16.7145 H   0  0  0  0  0
   -0.4261   -3.9304  -16.0719 H   0  0  0  0  0
   -2.7610   -4.7627  -15.8993 H   0  0  0  0  0
   -2.7588   -5.0460  -17.6574 H   0  0  0  0  0
   -3.1660   -6.3732  -16.5421 H   0  0  0  0  0
    0.0299   -4.7199  -18.9497 H   0  0  0  0  0
   -1.2411   -3.6389  -18.3275 H   0  0  0  0  0
    0.4705   -3.1625  -18.2071 H   0  0  0  0  0
   -2.6237   -6.8035  -13.5691 H   0  0  0  0  0
   -3.0082   -9.6982  -13.8343 H   0  0  0  0  0
   -4.7338   -7.6590  -12.4111 H   0  0  0  0  0
   -3.2148   -8.3645  -11.7164 H   0  0  0  0  0
   -4.6362  -11.4163  -10.8075 H   0  0  0  0  0
   -3.1761  -10.4316  -10.9484 H   0  0  0  0  0
   -4.4486  -10.7777  -15.0288 H   0  0  0  0  0
   -5.8853   -9.3244  -17.0053 H   0  0  0  0  0
   -6.9979  -11.7213  -17.4182 H   0  0  0  0  0
   -5.8693  -12.2576  -16.0749 H   0  0  0  0  0
   -5.1707  -13.9483  -17.6612 H   0  0  0  0  0
   -4.5303   -9.7402  -18.3688 H   0  0  0  0  0
   -3.4031  -14.4856  -19.3294 H   0  0  0  0  0
   -2.7881  -10.2810  -20.0515 H   0  0  0  0  0
    0.3184  -11.2472  -20.4113 H   0  0  0  0  0
   -6.8590   -9.8973  -13.8623 H   0  0  0  0  0
   -9.7005  -10.3405  -14.6776 H   0  0  0  0  0
   -9.9772  -11.6075  -12.6047 H   0  0  0  0  0
   -8.3776  -11.0772  -12.0109 H   0  0  0  0  0
   -9.9239  -12.7694  -14.9575 H   0  0  0  0  0
   -6.5583  -12.6041  -12.2871 H   0  0  0  0  0
   -8.9200  -14.7360  -16.0964 H   0  0  0  0  0
   -5.5419  -14.5731  -13.4445 H   0  0  0  0  0
   -4.9249  -16.9258  -13.5847 H   0  0  0  0  0
   -7.5560   -8.4876  -12.6389 H   0  0  0  0  0
   -9.7161   -6.4792  -12.4475 H   0  0  0  0  0
   -9.8905   -7.5944  -10.3001 H   0  0  0  0  0
   -9.2835   -5.7962   -8.9310 H   0  0  0  0  0
   -7.6913   -8.6643  -10.2502 H   0  0  0  0  0
   -6.9169   -7.0810   -9.9965 H   0  0  0  0  0
   -7.9889   -7.7582   -8.7464 H   0  0  0  0  0
   -9.1274   -4.3467  -12.4176 H   0  0  0  0  0
   -6.3313   -3.8734  -13.0065 H   0  0  0  0  0
   -8.1357   -2.6354  -14.2052 H   0  0  0  0  0
   -6.9852   -1.5237  -13.3766 H   0  0  0  0  0
   -9.1883   -0.9441  -13.0542 H   0  0  0  0  0
   -7.8974   -4.2176  -10.1235 H   0  0  0  0  0
   -7.0164   -1.8506   -8.7182 H   0  0  0  0  0
   -7.4677   -3.1230   -6.6902 H   0  0  0  0  0
   -7.7012   -4.6243   -7.7446 H   0  0  0  0  0
   -9.5612   -3.2803   -8.8190 H   0  0  0  0  0
   -9.4593   -2.2349   -7.3374 H   0  0  0  0  0
   -9.3969   -5.5509   -7.9665 H   0  0  0  0  0
   -2.7656   -3.0803   -8.2379 H   0  0  0  0  0
   -1.6081   -4.2280   -7.0774 H   0  0  0  0  0
   -2.2831   -0.8199   -7.5881 H   0  0  0  0  0
   -2.0289   -1.5687   -6.0713 H   0  0  0  0  0
   -3.8621    0.3446   -6.1873 H   0  0  0  0  0
   -4.2589   -1.0774   -5.2853 H   0  0  0  0  0
   -6.1038   -1.0051   -6.8287 H   0  0  0  0  0
   -5.1800   -0.3211   -8.0799 H   0  0  0  0  0
  1  2  1  0  0  0
  2  3  1  0  0  0
  2  5  1  0  0  0
  3  4  2  0  0  0
  3  9  1  0  0  0
  5  6  1  0  0  0
  5  7  1  0  0  0
  6  8  1  0  0  0
  9 10  1  0  0  0
 10 11  1  0  0  0
 10 13  1  0  0  0
 11 12  2  0  0  0
 11 17  1  0  0  0
 13 14  1  0  0  0
 14 15  2  0  0  0
 14 16  1  0  0  0
 17 18  1  0  0  0
 18 19  1  0  0  0
 18 31  1  0  0  0
 19 20  1  0  0  0
 20 21  4  0  0  0
 20 22  4  0  0  0
 21 23  4  0  0  0
 22 24  4  0  0  0
 23 25  4  0  0  0
 24 25  4  0  0  0
 25 26  1  0  0  0
 26 27  1  0  0  0
 27 28  1  0  0  0
 27 29  2  0  0  0
 27 30  2  0  0  0
 31 32  2  0  0  0
 31 33  1  0  0  0
 33 34  1  0  0  0
 34 35  1  0  0  0
 34 47  1  0  0  0
 35 36  1  0  0  0
 36 37  4  0  0  0
 36 38  4  0  0  0
 37 39  4  0  0  0
 38 40  4  0  0  0
 39 41  4  0  0  0
 40 41  4  0  0  0
 41 42  1  0  0  0
 42 43  1  0  0  0
 43 44  2  0  0  0
 43 45  2  0  0  0
 43 46  1  0  0  0
 47 48  2  0  0  0
 47 49  1  0  0  0
 49 50  1  0  0  0
 50 51  1  0  0  0
 50 53  1  0  0  0
 51 52  2  0  0  0
 51 56  1  0  0  0
 53 54  1  0  0  0
 53 55  1  0  0  0
 56 57  1  0  0  0
 57 58  1  0  0  0
 57 60  1  0  0  0
 58 59  2  0  0  0
 58 62  1  0  0  0
 60 61  1  0  0  0
 62 63  1  0  0  0
 63 64  1  0  0  0
 63 66  1  0  0  0
 64 65  2  0  0  0
 64 71  1  0  0  0
 66 67  1  0  0  0
 67 68  1  0  0  0
 68 69  2  0  0  0
 68 70  1  0  0  0
 71 72  1  0  0  0
 71 77  1  0  0  0
 72 73  1  0  0  0
 72 75  1  0  0  0
 73 74  1  0  0  0
 73 78  2  0  0  0
 75 76  1  0  0  0
 76 77  1  0  0  0
  1 79  1  0  0  0
  1 80  1  0  0  0
  1 81  1  0  0  0
  2 82  1  0  0  0
  5 83  1  0  0  0
  6 84  1  0  0  0
  6 85  1  0  0  0
  7 86  1  0  0  0
  7 87  1  0  0  0
  7 88  1  0  0  0
  8 89  1  0  0  0
  8 90  1  0  0  0
  8 91  1  0  0  0
  9 92  1  0  0  0
 10 93  1  0  0  0
 13 94  1  0  0  0
 13 95  1  0  0  0
 16 96  1  0  0  0
 16 97  1  0  0  0
 17 98  1  0  0  0
 18 99  1  0  0  0
 19100  1  0  0  0
 19101  1  0  0  0
 21102  1  0  0  0
 22103  1  0  0  0
 23104  1  0  0  0
 24105  1  0  0  0
 28106  1  0  0  0
 33107  1  0  0  0
 34108  1  0  0  0
 35109  1  0  0  0
 35110  1  0  0  0
 37111  1  0  0  0
 38112  1  0  0  0
 39113  1  0  0  0
 40114  1  0  0  0
 46115  1  0  0  0
 49116  1  0  0  0
 50117  1  0  0  0
 53118  1  0  0  0
 54119  1  0  0  0
 55120  1  0  0  0
 55121  1  0  0  0
 55122  1  0  0  0
 56123  1  0  0  0
 57124  1  0  0  0
 60125  1  0  0  0
 60126  1  0  0  0
 61127  1  0  0  0
 62128  1  0  0  0
 63129  1  0  0  0
 66130  1  0  0  0
 66131  1  0  0  0
 67132  1  0  0  0
 67133  1  0  0  0
 70134  1  0  0  0
 72135  1  0  0  0
 74136  1  0  0  0
 75137  1  0  0  0
 75138  1  0  0  0
 76139  1  0  0  0
 76140  1  0  0  0
 77141  1  0  0  0
 77142  1  0  0  0
M  END
$$$$
