4mp7_ligand
  -I-interpret- 

 30 32  0  0  0  0  0  0  0  0999 V2000
   14.2130    1.1330  -37.3340 N   0  0  0  0  0
   12.7910    1.1240  -37.3500 C   0  0  0  0  0
   15.0200    2.2450  -36.9520 C   0  0  0  0  0
   15.0280    0.0160  -37.7010 C   0  0  0  0  0
   12.0280    2.4020  -36.9590 C   0  0  0  0  0
   12.2090    0.1150  -37.7090 O   0  0  0  0  0
   16.3760    1.8920  -37.4880 C   0  0  0  0  0
   16.3880    0.6090  -37.9240 C   0  0  0  0  0
   11.4570    3.0760  -37.9590 C   0  0  0  0  0
   11.9170    2.8530  -35.6000 C   0  0  0  0  0
   17.5730    2.7120  -37.5880 C   0  0  0  0  0
   17.5500    0.0370  -38.4840 C   0  0  0  0  0
   10.7370    4.2380  -37.6930 C   0  0  0  0  0
   11.6170    2.6050  -39.2350 O   0  0  0  0  0
   11.2170    3.9760  -35.3370 C   0  0  0  0  0
   18.6650    2.1650  -38.1170 C   0  0  0  0  0
   18.6840    0.8090  -38.5810 C   0  0  0  0  0
   10.6200    4.6770  -36.3670 C   0  0  0  0  0
    9.9160    5.8340  -36.0960 O   0  0  0  0  0
   14.7227    3.1379  -36.4021 H   0  0  0  0  0
   14.7291   -1.0278  -37.7968 H   0  0  0  0  0
   12.3917    2.2958  -34.7923 H   0  0  0  0  0
   17.5757    3.7449  -37.2397 H   0  0  0  0  0
   17.5489   -0.9957  -38.8326 H   0  0  0  0  0
   10.2713    4.7979  -38.5040 H   0  0  0  0  0
   11.1570    3.1829  -39.8482 H   0  0  0  0  0
   11.1224    4.3306  -34.3107 H   0  0  0  0  0
   19.5709    2.7655  -38.1997 H   0  0  0  0  0
   19.5948    0.3908  -39.0096 H   0  0  0  0  0
    9.9265    5.9996  -35.1504 H   0  0  0  0  0
  1  2  1  0  0  0
  1  3  4  0  0  0
  1  4  4  0  0  0
  2  5  1  0  0  0
  2  6  2  0  0  0
  3  7  4  0  0  0
  4  8  4  0  0  0
  5  9  4  0  0  0
  5 10  4  0  0  0
  7  8  4  0  0  0
  7 11  4  0  0  0
  8 12  4  0  0  0
  9 13  4  0  0  0
  9 14  1  0  0  0
 10 15  4  0  0  0
 11 16  4  0  0  0
 12 17  4  0  0  0
 13 18  4  0  0  0
 15 18  4  0  0  0
 16 17  4  0  0  0
 18 19  1  0  0  0
  3 20  1  0  0  0
  4 21  1  0  0  0
 10 22  1  0  0  0
 11 23  1  0  0  0
 12 24  1  0  0  0
 13 25  1  0  0  0
 14 26  1  0  0  0
 15 27  1  0  0  0
 16 28  1  0  0  0
 17 29  1  0  0  0
 19 30  1  0  0  0
M  END
$$$$
