1sdt_ligand
  -I-interpret- 

 94 98  0  0  0  0  0  0  0  0999 V2000
   23.3900   20.5370    2.9880 N   0  3  0  0  0
   23.4540   20.4130    4.4810 C   0  0  0  0  0
   24.4290   19.3630    4.9880 C   0  0  0  0  0
   24.4000   19.3790    6.4800 C   0  0  0  0  0
   23.3790   19.0220    7.0810 O   0  0  0  0  0
   25.5100   19.7920    7.0840 N   0  0  0  0  0
   25.6650   19.8940    8.5110 C   0  0  0  0  0
   27.0900   20.4650    8.7220 C   0  0  0  0  0
   25.5660   18.5900    9.0670 C   0  0  0  0  0
   24.7120   20.8320    9.0850 C   0  0  0  0  0
   23.9030   18.0630    4.4290 N   0  3  0  0  0
   23.8240   18.1050    2.9510 C   0  0  0  0  0
   23.0300   19.2800    2.4690 C   0  0  0  0  0
   24.7440   16.9360    4.7610 C   0  0  0  0  0
   23.8980   15.6800    5.0450 C   0  0  0  0  0
   24.6970   14.5980    4.7060 O   0  0  0  0  0
   23.4780   15.5640    6.5210 C   0  0  0  0  0
   22.5800   14.3360    6.8500 C   0  0  0  0  0
   22.4480   14.2260    8.3780 C   0  0  0  0  0
   21.4650   13.1890    8.7950 C   0  0  0  0  0
   21.6500   11.8650    8.4710 C   0  0  0  0  0
   20.7880   10.8820    8.9160 C   0  0  0  0  0
   19.6860   11.2710    9.6830 C   0  0  0  0  0
   19.4850   12.6030    9.9980 C   0  0  0  0  0
   20.3850   13.5700    9.5680 C   0  0  0  0  0
   21.2240   14.4900    6.2260 C   0  0  0  0  0
   20.5460   15.5200    6.3040 O   0  0  0  0  0
   20.7580   13.3900    5.6640 N   0  0  0  0  0
   19.3880   13.2060    5.3480 C   0  0  0  0  0
   18.7910   11.8560    5.6960 C   0  0  0  0  0
   19.6950   10.7930    5.3580 O   0  0  0  0  0
   17.5520   11.7290    4.8090 C   0  0  0  0  0
   17.9040   12.4140    3.5120 C   0  0  0  0  0
   17.4350   12.3500    2.2350 C   0  0  0  0  0
   18.0190   13.1800    1.2800 C   0  0  0  0  0
   19.0380   14.0690    1.5720 C   0  0  0  0  0
   19.5310   14.1560    2.8620 C   0  0  0  0  0
   19.0480   13.3900    3.8560 C   0  0  0  0  0
   22.4420   21.5980    2.6190 C   0  0  0  0  0
   22.7620   23.0540    2.9970 C   0  0  0  0  0
   23.8780   23.7120    2.4450 C   0  0  0  0  0
   24.2560   25.0500    2.6910 N   0  0  0  0  0
   23.3550   25.6440    3.5760 C   0  0  0  0  0
   22.2270   25.0720    4.1520 C   0  0  0  0  0
   21.9200   23.7500    3.8660 C   0  0  0  0  0
   24.2917   20.8043    2.5932 H   0  0  0  0  0
   22.4614   20.1143    4.8181 H   0  0  0  0  0
   23.7939   21.3746    4.8656 H   0  0  0  0  0
   25.4631   19.5265    4.6848 H   0  0  0  0  0
   26.3029   20.0534    6.4981 H   0  0  0  0  0
   27.3051   20.5164    9.7893 H   0  0  0  0  0
   27.8164   19.8147    8.2346 H   0  0  0  0  0
   27.1474   21.4641    8.2899 H   0  0  0  0  0
   26.2876   17.9334    8.5809 H   0  0  0  0  0
   25.7762   18.6351   10.1356 H   0  0  0  0  0
   24.5586   18.2048    8.9095 H   0  0  0  0  0
   24.9161   20.9498   10.1492 H   0  0  0  0  0
   24.8082   21.7965    8.5864 H   0  0  0  0  0
   23.7004   20.4499    8.9478 H   0  0  0  0  0
   22.9801   17.9478    4.8479 H   0  0  0  0  0
   23.3313   17.1951    2.6085 H   0  0  0  0  0
   24.8364   18.1908    2.5563 H   0  0  0  0  0
   23.1994   19.3379    1.3938 H   0  0  0  0  0
   22.0038   19.1033    2.7913 H   0  0  0  0  0
   25.3186   17.1799    5.6546 H   0  0  0  0  0
   25.4024   16.7305    3.9170 H   0  0  0  0  0
   22.9733   15.7237    4.4695 H   0  0  0  0  0
   24.2147   13.7833    4.8648 H   0  0  0  0  0
   22.8943   16.4544    6.7547 H   0  0  0  0  0
   24.3931   15.4514    7.1023 H   0  0  0  0  0
   23.0349   13.4317    6.4458 H   0  0  0  0  0
   22.1004   15.1880    8.7546 H   0  0  0  0  0
   23.4218   13.9454    8.7792 H   0  0  0  0  0
   22.4986   11.5845    7.8471 H   0  0  0  0  0
   20.9620    9.8331    8.6760 H   0  0  0  0  0
   18.9798   10.5192   10.0355 H   0  0  0  0  0
   18.6156   12.8954   10.5869 H   0  0  0  0  0
   20.2409   14.6164    9.8371 H   0  0  0  0  0
   21.4130   12.6387    5.4474 H   0  0  0  0  0
   18.9593   13.9868    5.9762 H   0  0  0  0  0
   18.5737   11.7879    6.7620 H   0  0  0  0  0
   19.2961    9.9503    5.5869 H   0  0  0  0  0
   16.6807   12.1879    5.2763 H   0  0  0  0  0
   17.2857   10.6846    4.6466 H   0  0  0  0  0
   16.6265   11.6695    1.9678 H   0  0  0  0  0
   17.6555   13.1262    0.2538 H   0  0  0  0  0
   19.4523   14.7006    0.7862 H   0  0  0  0  0
   20.3314   14.8636    3.0780 H   0  0  0  0  0
   21.5302   21.3610    3.1673 H   0  0  0  0  0
   22.4240   21.5899    1.5292 H   0  0  0  0  0
   24.5071   23.1361    1.7662 H   0  0  0  0  0
   23.5604   26.6794    3.8476 H   0  0  0  0  0
   21.5921   25.6545    4.8196 H   0  0  0  0  0
   21.0470   23.2687    4.3068 H   0  0  0  0  0
  1  2  1  0  0  0
  1 13  1  0  0  0
  1 39  1  0  0  0
  2  3  1  0  0  0
  3  4  1  0  0  0
  3 11  1  0  0  0
  4  5  2  0  0  0
  4  6  1  0  0  0
  6  7  1  0  0  0
  7  8  1  0  0  0
  7  9  1  0  0  0
  7 10  1  0  0  0
 11 12  1  0  0  0
 11 14  1  0  0  0
 12 13  1  0  0  0
 14 15  1  0  0  0
 15 16  1  0  0  0
 15 17  1  0  0  0
 17 18  1  0  0  0
 18 19  1  0  0  0
 18 26  1  0  0  0
 19 20  1  0  0  0
 20 21  4  0  0  0
 20 25  4  0  0  0
 21 22  4  0  0  0
 22 23  4  0  0  0
 23 24  4  0  0  0
 24 25  4  0  0  0
 26 27  2  0  0  0
 26 28  1  0  0  0
 28 29  1  0  0  0
 29 30  1  0  0  0
 29 38  1  0  0  0
 30 31  1  0  0  0
 30 32  1  0  0  0
 32 33  1  0  0  0
 33 34  4  0  0  0
 33 38  4  0  0  0
 34 35  4  0  0  0
 35 36  4  0  0  0
 36 37  4  0  0  0
 37 38  4  0  0  0
 39 40  1  0  0  0
 40 41  4  0  0  0
 40 45  4  0  0  0
 41 42  4  0  0  0
 42 43  4  0  0  0
 43 44  4  0  0  0
 44 45  4  0  0  0
  1 46  1  0  0  0
  2 47  1  0  0  0
  2 48  1  0  0  0
  3 49  1  0  0  0
  6 50  1  0  0  0
  8 51  1  0  0  0
  8 52  1  0  0  0
  8 53  1  0  0  0
  9 54  1  0  0  0
  9 55  1  0  0  0
  9 56  1  0  0  0
 10 57  1  0  0  0
 10 58  1  0  0  0
 10 59  1  0  0  0
 11 60  1  0  0  0
 12 61  1  0  0  0
 12 62  1  0  0  0
 13 63  1  0  0  0
 13 64  1  0  0  0
 14 65  1  0  0  0
 14 66  1  0  0  0
 15 67  1  0  0  0
 16 68  1  0  0  0
 17 69  1  0  0  0
 17 70  1  0  0  0
 18 71  1  0  0  0
 19 72  1  0  0  0
 19 73  1  0  0  0
 21 74  1  0  0  0
 22 75  1  0  0  0
 23 76  1  0  0  0
 24 77  1  0  0  0
 25 78  1  0  0  0
 28 79  1  0  0  0
 29 80  1  0  0  0
 30 81  1  0  0  0
 31 82  1  0  0  0
 32 83  1  0  0  0
 32 84  1  0  0  0
 34 85  1  0  0  0
 35 86  1  0  0  0
 36 87  1  0  0  0
 37 88  1  0  0  0
 39 89  1  0  0  0
 39 90  1  0  0  0
 41 91  1  0  0  0
 43 92  1  0  0  0
 44 93  1  0  0  0
 45 94  1  0  0  0
M  END
$$$$
