5y80_ligand
  -I-interpret- 

 56 59  0  0  0  0  0  0  0  0999 V2000
   -9.1650  -11.5680   23.2730 C   0  0  0  0  0
   -7.6530  -11.5410   23.1590 C   0  0  0  0  0
   -7.1070  -12.6730   23.8150 O   0  0  0  0  0
   -7.6490  -13.9010   23.3590 C   0  0  0  0  0
   -9.1770  -13.8840   23.3950 C   0  0  0  0  0
   -9.5930  -12.7630   22.5250 N   0  3  0  0  0
  -11.0760  -12.7010   22.5470 C   0  0  0  0  0
  -11.5090  -12.7110   21.0680 C   0  0  0  0  0
  -12.3940  -13.9470   20.7810 C   0  0  0  0  0
  -12.1860  -14.5400   19.4830 O   0  0  0  0  0
  -13.2900  -14.8510   18.6820 C   0  0  0  0  0
  -13.1990  -15.4990   17.3810 C   0  0  0  0  0
  -14.3590  -15.7620   16.6650 C   0  0  0  0  0
  -11.9400  -15.8340   16.9120 O   0  0  0  0  0
  -11.7690  -17.0940   16.2370 C   0  0  0  0  0
  -14.5820  -14.5310   19.1210 C   0  0  0  0  0
  -15.8060  -14.7880   18.4020 C   0  0  0  0  0
  -15.6890  -15.4220   17.1360 C   0  0  0  0  0
  -16.8320  -15.7150   16.3640 N   0  0  0  0  0
  -18.0240  -15.3700   16.8690 C   0  0  0  0  0
  -18.2560  -14.7460   18.0930 N   0  0  0  0  0
  -17.1720  -14.4480   18.8670 C   0  0  0  0  0
  -17.4180  -13.8140   20.1170 N   0  0  0  0  0
  -18.6610  -13.7670   20.8760 C   0  0  0  0  0
  -19.5560  -14.8480   20.9280 C   0  0  0  0  0
  -20.7420  -14.8280   21.6390 C   0  0  0  0  0
  -21.8050  -16.2150   21.6450 Cl  0  0  0  0  0
  -21.1240  -13.6920   22.3780 C   0  0  0  0  0
  -22.2140  -13.6330   23.0530 F   0  0  0  0  0
  -20.2410  -12.6090   22.3410 C   0  0  0  0  0
  -19.0520  -12.6390   21.6180 C   0  0  0  0  0
   -9.6130  -10.6607   22.8679 H   0  0  0  0  0
   -9.4871  -11.6106   24.3135 H   0  0  0  0  0
   -7.2706  -10.6327   23.6247 H   0  0  0  0  0
   -7.3685  -11.5595   22.1070 H   0  0  0  0  0
   -7.2963  -14.6989   24.0125 H   0  0  0  0  0
   -7.3288  -14.0594   22.3292 H   0  0  0  0  0
   -9.5464  -13.7524   24.4120 H   0  0  0  0  0
   -9.5906  -14.8298   23.0450 H   0  0  0  0  0
   -9.2280  -12.8440   21.5760 H   0  0  0  0  0
  -11.4314  -11.8083   23.0617 H   0  0  0  0  0
  -11.5033  -13.5411   23.0945 H   0  0  0  0  0
  -10.6219  -12.7519   20.4360 H   0  0  0  0  0
  -12.0788  -11.8063   20.8561 H   0  0  0  0  0
  -13.4311  -13.6134   20.8179 H   0  0  0  0  0
  -12.1377  -14.7032   21.5230 H   0  0  0  0  0
  -14.2657  -16.2510   15.6953 H   0  0  0  0  0
  -12.0395  -17.9060   16.9120 H   0  0  0  0  0
  -12.4106  -17.1230   15.3563 H   0  0  0  0  0
  -10.7279  -17.2037   15.9334 H   0  0  0  0  0
  -14.6698  -14.0445   20.0924 H   0  0  0  0  0
  -18.8995  -15.6004   16.2619 H   0  0  0  0  0
  -16.6229  -13.3309   20.5350 H   0  0  0  0  0
  -19.3016  -15.7535   20.3771 H   0  0  0  0  0
  -20.4930  -11.7073   22.8992 H   0  0  0  0  0
  -18.4050  -11.7619   21.6275 H   0  0  0  0  0
  1  2  1  0  0  0
  1  6  1  0  0  0
  2  3  1  0  0  0
  3  4  1  0  0  0
  4  5  1  0  0  0
  5  6  1  0  0  0
  6  7  1  0  0  0
  7  8  1  0  0  0
  8  9  1  0  0  0
  9 10  1  0  0  0
 10 11  1  0  0  0
 11 12  4  0  0  0
 11 16  4  0  0  0
 12 13  4  0  0  0
 12 14  1  0  0  0
 13 18  4  0  0  0
 14 15  1  0  0  0
 16 17  4  0  0  0
 17 18  4  0  0  0
 17 22  4  0  0  0
 18 19  4  0  0  0
 19 20  4  0  0  0
 20 21  4  0  0  0
 21 22  4  0  0  0
 22 23  1  0  0  0
 23 24  1  0  0  0
 24 25  4  0  0  0
 24 31  4  0  0  0
 25 26  4  0  0  0
 26 27  1  0  0  0
 26 28  4  0  0  0
 28 29  1  0  0  0
 28 30  4  0  0  0
 30 31  4  0  0  0
  1 32  1  0  0  0
  1 33  1  0  0  0
  2 34  1  0  0  0
  2 35  1  0  0  0
  4 36  1  0  0  0
  4 37  1  0  0  0
  5 38  1  0  0  0
  5 39  1  0  0  0
  6 40  1  0  0  0
  7 41  1  0  0  0
  7 42  1  0  0  0
  8 43  1  0  0  0
  8 44  1  0  0  0
  9 45  1  0  0  0
  9 46  1  0  0  0
 13 47  1  0  0  0
 15 48  1  0  0  0
 15 49  1  0  0  0
 15 50  1  0  0  0
 16 51  1  0  0  0
 20 52  1  0  0  0
 23 53  1  0  0  0
 25 54  1  0  0  0
 30 55  1  0  0  0
 31 56  1  0  0  0
M  END
$$$$
