4v24_ligand
  -I-interpret- 

 65 68  0  0  0  0  0  0  0  0999 V2000
  -27.8050   16.4830  -16.7300 O   0  0  0  0  0
  -27.9490   15.0440  -16.6700 S   0  0  0  0  0
  -28.7830   14.3710  -17.6280 O   0  0  0  0  0
  -28.5230   14.6360  -15.0480 C   0  0  0  0  0
  -28.1740   15.4450  -13.9830 C   0  0  0  0  0
  -28.6810   15.1600  -12.7290 C   0  0  0  0  0
  -29.4960   14.0810  -12.5400 C   0  0  0  0  0
  -29.8420   13.2780  -13.6060 C   0  0  0  0  0
  -29.3620   13.5510  -14.8720 C   0  0  0  0  0
  -26.3020   14.3430  -16.7470 C   0  0  0  0  0
  -26.2730   12.8810  -17.0940 C   0  0  0  0  0
  -26.2670   12.5070  -18.4310 C   0  0  0  0  0
  -25.9740   11.2110  -18.8190 C   0  0  0  0  0
  -25.8810   10.8570  -20.2830 C   0  0  0  0  0
  -25.6980   10.2610  -17.8330 C   0  0  0  0  0
  -25.7100   10.6230  -16.4910 C   0  0  0  0  0
  -26.0270   11.9220  -16.1150 C   0  0  0  0  0
  -25.3470    9.8040  -15.4280 O   0  0  0  0  0
  -24.9490    8.4330  -15.6980 C   0  0  0  0  0
  -24.4110    7.7460  -14.4640 C   0  0  0  0  0
  -24.6530    6.4030  -14.2440 C   0  0  0  0  0
  -24.2850    5.7920  -13.0520 C   0  0  0  0  0
  -23.6530    6.5050  -12.0440 C   0  0  0  0  0
  -23.3750    7.8400  -12.2800 C   0  0  0  0  0
  -23.7480    8.4520  -13.4700 C   0  0  0  0  0
  -23.2750    5.8520  -10.7230 C   0  0  0  0  0
  -24.4280    5.2330   -9.9000 N   0  3  0  0  0
  -25.4300    6.1640   -9.1910 C   0  0  0  0  0
  -26.8230    6.0830   -9.7870 C   0  0  0  0  0
  -27.4240    4.8060   -9.6020 O   0  0  0  0  0
  -25.4420    5.8650   -7.6910 C   0  0  0  0  0
  -24.1620    5.1390   -7.4870 C   0  0  0  0  0
  -23.9950    4.3300   -8.7640 C   0  0  0  0  0
  -27.5084   16.2956  -14.1299 H   0  0  0  0  0
  -28.4283   15.8015  -11.8848 H   0  0  0  0  0
  -29.8742   13.8538  -11.5433 H   0  0  0  0  0
  -30.4985   12.4223  -13.4487 H   0  0  0  0  0
  -29.6398   12.9220  -15.7178 H   0  0  0  0  0
  -25.8601   14.4481  -15.7561 H   0  0  0  0  0
  -25.7629   14.8718  -17.5330 H   0  0  0  0  0
  -26.4984   13.2513  -19.1930 H   0  0  0  0  0
  -26.8352   11.0651  -20.7671 H   0  0  0  0  0
  -25.0973   11.4530  -20.7505 H   0  0  0  0  0
  -25.6436    9.7981  -20.3851 H   0  0  0  0  0
  -25.4726    9.2330  -18.1166 H   0  0  0  0  0
  -26.0829   12.1891  -15.0597 H   0  0  0  0  0
  -24.1604    8.4489  -16.4503 H   0  0  0  0  0
  -25.8270    7.8840  -16.0382 H   0  0  0  0  0
  -25.1412    5.8129  -15.0196 H   0  0  0  0  0
  -24.4968    4.7328  -12.9061 H   0  0  0  0  0
  -22.8544    8.4213  -11.5190 H   0  0  0  0  0
  -23.5158    9.5055  -13.6258 H   0  0  0  0  0
  -22.8568    6.6460  -10.1042 H   0  0  0  0  0
  -22.6094    5.0266  -10.9755 H   0  0  0  0  0
  -24.8707    4.7588  -10.6871 H   0  0  0  0  0
  -25.0984    7.1909   -9.3447 H   0  0  0  0  0
  -26.7402    6.2627  -10.8589 H   0  0  0  0  0
  -27.4462    6.8230   -9.2849 H   0  0  0  0  0
  -28.2999    4.8059   -9.9949 H   0  0  0  0  0
  -26.3115    5.2848   -7.3820 H   0  0  0  0  0
  -25.5202    6.7647   -7.0807 H   0  0  0  0  0
  -24.1794    4.5100   -6.5970 H   0  0  0  0  0
  -23.3251    5.8152   -7.3121 H   0  0  0  0  0
  -22.9614    4.0083   -8.8915 H   0  0  0  0  0
  -24.5973    3.4220   -8.7340 H   0  0  0  0  0
  1  2  2  0  0  0
  2  3  2  0  0  0
  2  4  1  0  0  0
  2 10  1  0  0  0
  4  5  4  0  0  0
  4  9  4  0  0  0
  5  6  4  0  0  0
  6  7  4  0  0  0
  7  8  4  0  0  0
  8  9  4  0  0  0
 10 11  1  0  0  0
 11 12  4  0  0  0
 11 17  4  0  0  0
 12 13  4  0  0  0
 13 14  1  0  0  0
 13 15  4  0  0  0
 15 16  4  0  0  0
 16 17  4  0  0  0
 16 18  1  0  0  0
 18 19  1  0  0  0
 19 20  1  0  0  0
 20 21  4  0  0  0
 20 25  4  0  0  0
 21 22  4  0  0  0
 22 23  4  0  0  0
 23 24  4  0  0  0
 23 26  1  0  0  0
 24 25  4  0  0  0
 26 27  1  0  0  0
 27 28  1  0  0  0
 27 33  1  0  0  0
 28 29  1  0  0  0
 28 31  1  0  0  0
 29 30  1  0  0  0
 31 32  1  0  0  0
 32 33  1  0  0  0
  5 34  1  0  0  0
  6 35  1  0  0  0
  7 36  1  0  0  0
  8 37  1  0  0  0
  9 38  1  0  0  0
 10 39  1  0  0  0
 10 40  1  0  0  0
 12 41  1  0  0  0
 14 42  1  0  0  0
 14 43  1  0  0  0
 14 44  1  0  0  0
 15 45  1  0  0  0
 17 46  1  0  0  0
 19 47  1  0  0  0
 19 48  1  0  0  0
 21 49  1  0  0  0
 22 50  1  0  0  0
 24 51  1  0  0  0
 25 52  1  0  0  0
 26 53  1  0  0  0
 26 54  1  0  0  0
 27 55  1  0  0  0
 28 56  1  0  0  0
 29 57  1  0  0  0
 29 58  1  0  0  0
 30 59  1  0  0  0
 31 60  1  0  0  0
 31 61  1  0  0  0
 32 62  1  0  0  0
 32 63  1  0  0  0
 33 64  1  0  0  0
 33 65  1  0  0  0
M  END
$$$$
