2xx5_ligand
  -I-interpret- 

 60 62  0  0  0  0  0  0  0  0999 V2000
   16.6050   -2.2540    0.8200 C   0  0  0  0  0
   17.6050   -2.2590   -0.1120 C   0  0  0  0  0
   17.8120   -1.1660   -0.8690 C   0  0  0  0  0
   16.9960   -0.0780   -0.6970 C   0  0  0  0  0
   16.0070   -0.0570    0.2250 C   0  0  0  0  0
   15.8070   -1.1580    0.9970 C   0  0  0  0  0
   14.7040   -1.1930    2.0300 C   0  0  0  0  0
   15.0020   -0.2860    3.1120 N   0  0  0  0  0
   14.3790    0.8510    3.2770 C   0  0  0  0  0
   13.5700    1.3280    2.5090 O   0  0  0  0  0
   14.8350    1.5750    4.4840 C   0  0  0  0  0
   13.6580    2.2200    5.1590 C   0  0  0  0  0
   13.0300    1.2240    6.0900 C   0  0  0  0  0
   13.7560    1.1390    7.3880 C   0  0  0  0  0
   15.0880    0.8370    7.2490 C   0  0  0  0  0
   15.8760    1.0920    8.3410 C   0  0  0  0  0
   17.2200    0.8510    8.3490 C   0  0  0  0  0
   18.0240    2.0770    8.0500 C   0  0  0  0  0
   17.9180    2.4960    6.6810 N   0  0  0  0  0
   19.0970    2.6000    5.8580 C   0  0  0  0  0
   20.1000    1.9960    6.1090 O   0  0  0  0  0
   19.0540    3.5090    4.6700 C   0  0  0  0  0
   19.9340    4.5660    4.6850 C   0  0  0  0  0
   20.7070    4.7190    5.7280 O   0  0  0  0  0
   19.9680    5.4340    3.6420 C   0  0  0  0  0
   19.1350    5.2350    2.5920 C   0  0  0  0  0
   19.1700    6.0630    1.5840 O   0  0  0  0  0
   18.2700    4.1600    2.5740 C   0  0  0  0  0
   17.2650    3.9730    1.2310 Cl  0  0  0  0  0
   18.2160    3.2790    3.6210 C   0  0  0  0  0
   17.2540    2.1120    3.6260 C   0  0  0  0  0
   15.8430    2.5820    4.0040 C   0  0  0  0  0
   15.5030    3.7240    3.8830 O   0  0  0  0  0
   16.4408   -3.1400    1.4333 H   0  0  0  0  0
   18.2304   -3.1423   -0.2410 H   0  0  0  0  0
   18.6146   -1.1460   -1.6062 H   0  0  0  0  0
   17.1495    0.7998   -1.3246 H   0  0  0  0  0
   15.3812    0.8271    0.3471 H   0  0  0  0  0
   14.6201   -2.2048    2.4267 H   0  0  0  0  0
   13.7674   -0.8916    1.5608 H   0  0  0  0  0
   15.7310   -0.5436    3.7774 H   0  0  0  0  0
   15.2897    0.9168    5.2243 H   0  0  0  0  0
   12.9309    2.5368    4.4113 H   0  0  0  0  0
   13.9872    3.0944    5.7204 H   0  0  0  0  0
   13.0653    0.2437    5.6148 H   0  0  0  0  0
   12.0075    1.5433    6.2915 H   0  0  0  0  0
   13.2766    1.3007    8.3535 H   0  0  0  0  0
   15.4938    0.4202    6.3272 H   0  0  0  0  0
   15.4923    0.4044    9.0947 H   0  0  0  0  0
   15.8136    2.1748    8.4494 H   0  0  0  0  0
   17.4337    0.1122    7.5766 H   0  0  0  0  0
   17.4935    0.5044    9.3456 H   0  0  0  0  0
   19.0706    1.8443    8.2463 H   0  0  0  0  0
   17.6436    2.8847    8.6753 H   0  0  0  0  0
   17.0038    2.7213    6.2886 H   0  0  0  0  0
   20.9708    5.3338    3.2268 H   0  0  0  0  0
   19.6626    6.3913    4.0643 H   0  0  0  0  0
   18.5453    3.3071    3.1944 H   0  0  0  0  0
   17.5911    1.3777    4.3577 H   0  0  0  0  0
   17.2259    1.6714    2.6294 H   0  0  0  0  0
  1  2  4  0  0  0
  1  6  4  0  0  0
  2  3  4  0  0  0
  3  4  4  0  0  0
  4  5  4  0  0  0
  5  6  4  0  0  0
  6  7  1  0  0  0
  7  8  1  0  0  0
  8  9  1  0  0  0
  9 10  2  0  0  0
  9 11  1  0  0  0
 11 12  1  0  0  0
 11 32  1  0  0  0
 12 13  1  0  0  0
 13 14  1  0  0  0
 14 15  2  0  0  0
 15 16  1  0  0  0
 16 17  1  0  0  0
 17 18  1  0  0  0
 18 19  1  0  0  0
 19 20  1  0  0  0
 20 21  2  0  0  0
 20 22  1  0  0  0
 22 23  1  0  0  0
 22 30  2  0  0  0
 23 24  2  0  0  0
 23 25  1  0  0  0
 25 26  1  0  0  0
 26 27  2  0  0  0
 26 28  1  0  0  0
 28 29  1  0  0  0
 28 30  1  0  0  0
 30 31  1  0  0  0
 31 32  1  0  0  0
 32 33  2  0  0  0
  1 34  1  0  0  0
  2 35  1  0  0  0
  3 36  1  0  0  0
  4 37  1  0  0  0
  5 38  1  0  0  0
  7 39  1  0  0  0
  7 40  1  0  0  0
  8 41  1  0  0  0
 11 42  1  0  0  0
 12 43  1  0  0  0
 12 44  1  0  0  0
 13 45  1  0  0  0
 13 46  1  0  0  0
 14 47  1  0  0  0
 15 48  1  0  0  0
 16 49  1  0  0  0
 16 50  1  0  0  0
 17 51  1  0  0  0
 17 52  1  0  0  0
 18 53  1  0  0  0
 18 54  1  0  0  0
 19 55  1  0  0  0
 25 56  1  0  0  0
 25 57  1  0  0  0
 28 58  1  0  0  0
 31 59  1  0  0  0
 31 60  1  0  0  0
M  END
$$$$
