1gnm_ligand
  -I-interpret- 

 94 94  0  0  0  0  0  0  0  0999 V2000
  -10.0700   15.6730   32.1470 C   0  0  0  0  0
   -9.9670   15.3250   30.6620 C   0  0  0  0  0
  -10.7660   16.0590   28.4260 C   0  0  0  0  0
  -12.2860   16.0110   28.1150 C   0  0  0  0  0
  -12.9240   14.7800   28.7960 C   0  0  0  0  0
  -14.4240   15.0320   28.9640 C   0  0  0  0  0
  -15.0720   13.8480   29.6800 C   0  0  0  0  0
  -14.8530   12.5510   28.8960 C   0  0  0  0  0
  -13.3570   12.2850   28.6920 C   0  0  0  0  0
  -12.6840   13.4800   28.0030 C   0  0  0  0  0
  -10.1840   17.2570   27.6460 C   0  0  0  0  0
   -8.7240   17.6300   27.9550 C   0  0  0  0  0
   -7.8420   18.3080   26.8940 C   0  0  0  0  0
   -6.4850   18.7290   27.4670 C   0  0  0  0  0
   -5.4680   17.5850   27.4920 C   0  0  0  0  0
   -5.8160   19.8490   26.6590 C   0  0  0  0  0
   -7.5900   17.3310   25.7570 C   0  0  0  0  0
   -7.6320   17.0130   23.3490 C   0  0  0  0  0
   -8.9800   16.7580   22.6770 C   0  0  0  0  0
   -8.8790   15.8070   21.4870 C   0  0  0  0  0
   -8.6980   16.5470   20.1650 C   0  0  0  0  0
   -6.6900   17.7470   22.3960 C   0  0  0  0  0
   -4.5510   17.5570   21.2020 C   0  0  0  0  0
   -4.4890   16.7130   19.9260 C   0  0  0  0  0
   -3.1980   17.4750   21.9150 C   0  0  0  0  0
   -2.2580   18.6290   21.5570 C   0  0  0  0  0
   -1.7630   19.4020   22.7840 C   0  0  0  0  0
    0.4810   19.9670   23.6900 C   0  0  0  0  0
  -10.6020   16.1960   29.8880 N   0  0  0  0  0
   -7.8240   17.8130   24.5600 N   0  0  0  0  0
   -8.0500   15.9730   19.1690 N   0  0  0  0  0
   -5.6100   17.0540   22.0870 N   0  0  0  0  0
   -4.1140   17.2520   18.7580 N   0  0  0  0  0
   -0.3720   19.0880   23.1420 N   0  0  0  0  0
    0.0750   21.1950   24.0400 N   0  0  0  0  0
    1.7740   19.7090   23.9290 N   0  0  0  0  0
   -9.3090   14.3330   30.3010 O   0  0  0  0  0
  -10.9450   18.4190   27.8970 O   0  0  0  0  0
   -7.2050   16.1780   25.9830 O   0  0  0  0  0
   -9.1560   17.6810   20.0310 O   0  0  0  0  0
   -6.9600   18.8860   21.9850 O   0  0  0  0  0
   -4.7830   15.5080   19.9420 O   0  0  0  0  0
  -10.5286   14.8419   32.6827 H   0  0  0  0  0
   -9.0725   15.8576   32.5456 H   0  0  0  0  0
  -10.6821   16.5668   32.2678 H   0  0  0  0  0
  -10.2369   15.1564   28.1203 H   0  0  0  0  0
  -12.4301   15.9401   27.0369 H   0  0  0  0  0
  -12.7591   16.9168   28.4942 H   0  0  0  0  0
  -12.4507   14.6440   29.7684 H   0  0  0  0  0
  -14.8810   15.1526   27.9818 H   0  0  0  0  0
  -14.5732   15.9356   29.5551 H   0  0  0  0  0
  -16.1432   14.0314   29.7631 H   0  0  0  0  0
  -14.6189   13.7431   30.6658 H   0  0  0  0  0
  -15.3298   12.6450   27.9203 H   0  0  0  0  0
  -15.2840   11.7229   29.4587 H   0  0  0  0  0
  -13.2380   11.4024   28.0635 H   0  0  0  0  0
  -12.8903   12.1298   29.6647 H   0  0  0  0  0
  -11.6111   13.2951   27.9501 H   0  0  0  0  0
  -13.1092   13.5944   27.0059 H   0  0  0  0  0
  -10.2226   16.9179   26.6108 H   0  0  0  0  0
   -8.2368   16.6712   28.1320 H   0  0  0  0  0
   -8.8020   18.3724   28.7492 H   0  0  0  0  0
   -8.3674   19.1975   26.5463 H   0  0  0  0  0
   -6.7297   19.0623   28.4755 H   0  0  0  0  0
   -5.8520   16.7726   28.1090 H   0  0  0  0  0
   -5.3030   17.2250   26.4765 H   0  0  0  0  0
   -4.5274   17.9458   27.9083 H   0  0  0  0  0
   -5.6539   19.5101   25.6358 H   0  0  0  0  0
   -6.4616   20.7272   26.6542 H   0  0  0  0  0
   -4.8590   20.1024   27.1151 H   0  0  0  0  0
   -7.1887   16.0528   23.6130 H   0  0  0  0  0
   -9.3551   17.7131   22.3094 H   0  0  0  0  0
   -9.6388   16.2999   23.4147 H   0  0  0  0  0
   -9.8067   15.2376   21.4306 H   0  0  0  0  0
   -8.0084   15.1688   21.6382 H   0  0  0  0  0
   -4.7730   18.5929   20.9454 H   0  0  0  0  0
   -2.7163   16.5477   21.6047 H   0  0  0  0  0
   -3.3860   17.5222   22.9876 H   0  0  0  0  0
   -2.8123   19.3253   20.9277 H   0  0  0  0  0
   -1.3865   18.2045   21.0586 H   0  0  0  0  0
   -2.3932   19.1218   23.6280 H   0  0  0  0  0
   -1.8119   20.4649   22.5474 H   0  0  0  0  0
  -11.0060   17.0193   30.3345 H   0  0  0  0  0
   -8.1499   18.7753   24.4699 H   0  0  0  0  0
   -7.9282   16.4695   18.2864 H   0  0  0  0  0
   -7.6709   15.0328   19.2818 H   0  0  0  0  0
   -5.5052   16.1201   22.4836 H   0  0  0  0  0
   -4.0772   16.6743   17.9182 H   0  0  0  0  0
   -3.8654   18.2400   18.7087 H   0  0  0  0  0
   -0.0341   18.1425   22.9625 H   0  0  0  0  0
    0.7361   21.8519   24.4545 H   0  0  0  0  0
    2.3679   20.4247   24.3479 H   0  0  0  0  0
    2.1643   18.7969   23.6920 H   0  0  0  0  0
  -11.8708   18.2387   27.7181 H   0  0  0  0  0
  2  1  1  0  0  0
 29  2  1  0  0  0
  2 37  2  0  0  0
  3  4  1  0  0  0
 11  3  1  0  0  0
  3 29  1  0  0  0
  4  5  1  0  0  0
  5  6  1  0  0  0
  5 10  1  0  0  0
  6  7  1  0  0  0
  7  8  1  0  0  0
  9  8  1  0  0  0
 10  9  1  0  0  0
 12 11  1  0  0  0
 11 38  1  0  0  0
 13 12  1  0  0  0
 13 14  1  0  0  0
 17 13  1  0  0  0
 14 15  1  0  0  0
 14 16  1  0  0  0
 30 17  1  0  0  0
 17 39  2  0  0  0
 18 19  1  0  0  0
 22 18  1  0  0  0
 18 30  1  0  0  0
 19 20  1  0  0  0
 20 21  1  0  0  0
 21 31  1  0  0  0
 21 40  2  0  0  0
 32 22  1  0  0  0
 22 41  2  0  0  0
 23 24  1  0  0  0
 25 23  1  0  0  0
 23 32  1  0  0  0
 24 33  1  0  0  0
 24 42  2  0  0  0
 26 25  1  0  0  0
 27 26  1  0  0  0
 34 27  1  0  0  0
 28 36  1  0  0  0
 28 35  2  0  0  0
 34 28  1  0  0  0
  1 43  1  0  0  0
  1 44  1  0  0  0
  1 45  1  0  0  0
  3 46  1  0  0  0
  4 47  1  0  0  0
  4 48  1  0  0  0
  5 49  1  0  0  0
  6 50  1  0  0  0
  6 51  1  0  0  0
  7 52  1  0  0  0
  7 53  1  0  0  0
  8 54  1  0  0  0
  8 55  1  0  0  0
  9 56  1  0  0  0
  9 57  1  0  0  0
 10 58  1  0  0  0
 10 59  1  0  0  0
 11 60  1  0  0  0
 12 61  1  0  0  0
 12 62  1  0  0  0
 13 63  1  0  0  0
 14 64  1  0  0  0
 15 65  1  0  0  0
 15 66  1  0  0  0
 15 67  1  0  0  0
 16 68  1  0  0  0
 16 69  1  0  0  0
 16 70  1  0  0  0
 18 71  1  0  0  0
 19 72  1  0  0  0
 19 73  1  0  0  0
 20 74  1  0  0  0
 20 75  1  0  0  0
 23 76  1  0  0  0
 25 77  1  0  0  0
 25 78  1  0  0  0
 26 79  1  0  0  0
 26 80  1  0  0  0
 27 81  1  0  0  0
 27 82  1  0  0  0
 29 83  1  0  0  0
 30 84  1  0  0  0
 31 85  1  0  0  0
 31 86  1  0  0  0
 32 87  1  0  0  0
 33 88  1  0  0  0
 33 89  1  0  0  0
 34 90  1  0  0  0
 35 91  1  0  0  0
 36 92  1  0  0  0
 36 93  1  0  0  0
 38 94  1  0  0  0
M  END
$$$$
