#	Name:			4ixv_ligand
#	Creating user name:	wangrx
#	Creation time:		Wed Aug  4 17:46:25 2021

#	Modifying user name:	wangrx
#	Modification time:	Wed Aug  4 17:46:46 2021

@<TRIPOS>MOLECULE
4ixv_ligand
   59    60     1     0     0
SMALL
GAST_HUCK


@<TRIPOS>ATOM
      1 CL1        38.3980   83.0600   80.1910 Cl        1 XA1        -0.0771 
      2 C23        36.9570   83.5060   79.2060 C.ar      1 XA1         0.0330 
      3 C22        36.8040   84.8170   78.7510 C.ar      1 XA1        -0.0544 
      4 C21        35.6910   85.1660   77.9910 C.ar      1 XA1        -0.0547 
      5 C24        35.9920   82.5440   78.8930 C.ar      1 XA1        -0.0544 
      6 C25        34.8840   82.8970   78.1260 C.ar      1 XA1        -0.0547 
      7 C20        34.7240   84.2080   77.6770 C.ar      1 XA1         0.0017 
      8 C19        33.5130   84.5730   76.8340 C.3       1 XA1         0.0021 
      9 N16        33.8970   85.5420   75.7850 N.4       1 XA1         0.2472 
     10 C15        32.6480   86.1370   75.2650 C.3       1 XA1        -0.0301 
     11 C14        32.8510   87.0500   74.0540 C.3       1 XA1        -0.0045 
     12 C17        34.6800   84.8420   74.7390 C.3       1 XA1        -0.0301 
     13 C18        34.2190   85.1410   73.3110 C.3       1 XA1        -0.0045 
     14 C13        34.0410   86.6470   73.1940 C.3       1 XA1         0.0196 
     15 C4         33.9560   87.1660   71.7510 C.3       1 XA1         0.0355 
     16 C1         34.1880   88.6500   71.8510 C.2       1 XA1         0.0962 
     17 O3         35.2340   89.0460   72.4050 O.co2     1 XA1        -0.5422 
     18 O2         33.2980   89.4190   71.4270 O.co2     1 XA1        -0.5422 
     19 N5         32.6160   86.9860   71.1730 N.4       1 XA1         0.2231 
     20 C6         35.0170   86.4710   70.9030 C.3       1 XA1        -0.0037 
     21 C7         35.1930   87.0260   69.5060 C.3       1 XA1        -0.0753 
     22 C8         36.5080   86.5420   68.8700 C.3       1 XA1        -0.1826 
     23 C9         36.8660   87.4210   67.6640 C.3       1 XA1        -0.3457 
     24 B10        37.3880   86.5500   66.4410 B         1 XA1         3.0000 
     25 O27        37.9170   87.6300   65.4620 O.3       1 XA1        -0.8710 
     26 O12        36.3560   85.8990   65.5480 O.3       1 XA1        -0.4105 
     27 O11        38.6210   85.7240   66.6930 O.3       1 XA1        -0.4105 
     28 H1         37.5525   85.5639   78.9897 H         1 XA1         0.0606 
     29 H2         35.5743   86.1854   77.6414 H         1 XA1         0.0559 
     30 H3         36.1057   81.5256   79.2464 H         1 XA1         0.0606 
     31 H4         34.1412   82.1480   77.8764 H         1 XA1         0.0559 
     32 H5         32.7427   85.0212   77.4787 H         1 XA1         0.0981 
     33 H6         33.1120   83.6646   76.3608 H         1 XA1         0.0981 
     34 H7         34.4686   86.2702   76.1839 H         1 XA1         0.2048 
     35 H8         32.1849   86.7273   76.0694 H         1 XA1         0.0815 
     36 H9         31.9712   85.3205   74.9730 H         1 XA1         0.0815 
     37 H10        33.0108   88.0773   74.4132 H         1 XA1         0.0321 
     38 H11        31.9433   87.0155   73.4336 H         1 XA1         0.0321 
     39 H12        34.5948   83.7587   74.9101 H         1 XA1         0.0815 
     40 H13        35.7328   85.1465   74.8333 H         1 XA1         0.0815 
     41 H14        33.2640   84.6333   73.1106 H         1 XA1         0.0321 
     42 H15        34.9761   84.7953   72.5918 H         1 XA1         0.0321 
     43 H16        34.9351   87.1137   73.6332 H         1 XA1         0.0355 
     44 H17        32.6070   87.3394   70.2290 H         1 XA1         0.1999 
     45 H18        31.9408   87.4896   71.7267 H         1 XA1         0.1999 
     46 H19        32.3816   86.0057   71.1670 H         1 XA1         0.1999 
     47 H20        34.7405   85.4100   70.8149 H         1 XA1         0.0315 
     48 H21        35.9805   86.5566   71.4267 H         1 XA1         0.0315 
     49 H22        35.2032   88.1248   69.5563 H         1 XA1         0.0242 
     50 H23        34.3504   86.6953   68.8809 H         1 XA1         0.0242 
     51 H24        36.3896   85.5000   68.5382 H         1 XA1        -0.0084 
     52 H25        37.3153   86.6002   69.6149 H         1 XA1        -0.0084 
     53 H27        37.5142   88.2470   67.9919 H         1 XA1        -0.2101 
     54 H28        35.9454   87.8304   67.2225 H         1 XA1        -0.2101 
     55 H29        38.2785   87.1951   64.6373 H         1 XA1        -0.1290 
     56 H30        35.6156   86.4848   65.4423 H         1 XA1         0.2052 
     57 H31        35.6156   86.4847   65.4423 H         1 XA1         0.2052 
     58 H32        39.2126   86.2050   67.2597 H         1 XA1         0.2052 
     59 H33        39.2126   86.2050   67.2597 H         1 XA1         0.2052 
@<TRIPOS>BOND
     1    1    2 1    
     2    2    3 ar   
     3    2    5 ar   
     4    3    4 ar   
     5    4    7 ar   
     6    5    6 ar   
     7    6    7 ar   
     8    7    8 1    
     9    8    9 1    
    10    9   10 1    
    11    9   12 1    
    12   10   11 1    
    13   11   14 1    
    14   12   13 1    
    15   13   14 1    
    16   14   15 1    
    17   15   16 1    
    18   15   19 1    
    19   15   20 1    
    20   16   17 ar   
    21   16   18 ar   
    22   20   21 1    
    23   21   22 1    
    24   22   23 1    
    25   23   24 1    
    26   24   26 1    
    27   24   27 1    
    28   24   25 1    
    29    3   28 1    
    30    4   29 1    
    31    5   30 1    
    32    6   31 1    
    33    8   32 1    
    34    8   33 1    
    35    9   34 1    
    36   10   35 1    
    37   10   36 1    
    38   11   37 1    
    39   11   38 1    
    40   12   39 1    
    41   12   40 1    
    42   13   41 1    
    43   13   42 1    
    44   14   43 1    
    45   19   44 1    
    46   19   45 1    
    47   19   46 1    
    48   20   47 1    
    49   20   48 1    
    50   21   49 1    
    51   21   50 1    
    52   22   51 1    
    53   22   52 1    
    54   23   53 1    
    55   23   54 1    
    56   25   55 1    
    57   26   56 1    
    58   26   57 1    
    59   27   58 1    
    60   27   59 1    
@<TRIPOS>SUBSTRUCTURE
     1 XA1         1 PERM              0 ****  ****    0 ROOT 
