4ixv_ligand

Created by X-TOOL on Fri Nov 18 17:28:17 2016
 60 61  0  0  0  0  0  0  0  0999 V2000
   38.3980   83.0600   80.1910 Cl 0  0  0  1  0  1
   36.9570   83.5060   79.2060  C 0  0  0  1  0  3
   36.8040   84.8170   78.7510  C 0  0  0  2  0  3
   35.6910   85.1660   77.9910  C 0  0  0  2  0  3
   35.9920   82.5440   78.8930  C 0  0  0  2  0  3
   34.8840   82.8970   78.1260  C 0  0  0  2  0  3
   34.7240   84.2080   77.6770  C 0  0  0  1  0  3
   33.5130   84.5730   76.8340  C 0  0  0  3  0  4
   33.8970   85.5420   75.7850  N 0  3  0  2  0  4
   32.6480   86.1370   75.2650  C 0  0  0  3  0  4
   32.8510   87.0500   74.0540  C 0  0  0  3  0  4
   34.6800   84.8420   74.7390  C 0  0  0  3  0  4
   34.2190   85.1410   73.3110  C 0  0  0  3  0  4
   34.0410   86.6470   73.1940  C 0  0  0  2  0  4
   33.9560   87.1660   71.7510  C 0  0  0  1  0  4
   34.1880   88.6500   71.8510  C 0  5  0  1  0  3
   35.2340   89.0460   72.4050  O 0  0  0  1  0  1
   33.2980   89.4190   71.4270  O 0  0  0  1  0  1
   32.6160   86.9860   71.1730  N 0  3  0  4  0  4
   35.0170   86.4710   70.9030  C 0  0  0  3  0  4
   35.1930   87.0260   69.5060  C 0  0  0  3  0  4
   36.5080   86.5420   68.8700  C 0  0  0  3  0  4
   36.8660   87.4210   67.6640  C 0  0  0  4  0  5
   37.3880   86.5500   66.4410  B 0  0  0  1  0  4
   37.9170   87.6300   65.4620  O 0  0  0  2  0  2
   36.3560   85.8990   65.5480  O 0  0  0  3  0  3
   38.6210   85.7240   66.6930  O 0  0  0  3  0  3
   37.5525   85.5639   78.9897  H 0  0  0  1  0  1
   35.5743   86.1854   77.6414  H 0  0  0  1  0  1
   36.1057   81.5256   79.2464  H 0  0  0  1  0  1
   34.1412   82.1480   77.8764  H 0  0  0  1  0  1
   32.7427   85.0212   77.4787  H 0  0  0  1  0  1
   33.1120   83.6646   76.3608  H 0  0  0  1  0  1
   34.4686   86.2702   76.1839  H 0  0  0  1  0  1
   32.1849   86.7273   76.0694  H 0  0  0  1  0  1
   31.9712   85.3205   74.9730  H 0  0  0  1  0  1
   33.0108   88.0773   74.4132  H 0  0  0  1  0  1
   31.9433   87.0155   73.4336  H 0  0  0  1  0  1
   34.5948   83.7587   74.9101  H 0  0  0  1  0  1
   35.7328   85.1465   74.8333  H 0  0  0  1  0  1
   33.2640   84.6333   73.1106  H 0  0  0  1  0  1
   34.9761   84.7953   72.5918  H 0  0  0  1  0  1
   34.9351   87.1137   73.6332  H 0  0  0  1  0  1
   32.6070   87.3394   70.2290  H 0  0  0  1  0  1
   31.9408   87.4896   71.7267  H 0  0  0  1  0  1
   32.3816   86.0057   71.1670  H 0  0  0  1  0  1
   34.7405   85.4100   70.8149  H 0  0  0  1  0  1
   35.9805   86.5566   71.4267  H 0  0  0  1  0  1
   35.2032   88.1248   69.5563  H 0  0  0  1  0  1
   34.3504   86.6953   68.8809  H 0  0  0  1  0  1
   36.3896   85.5000   68.5382  H 0  0  0  1  0  1
   37.3153   86.6002   69.6149  H 0  0  0  1  0  1
   37.3950   86.8156   66.9132  H 0  0  0  1  0  1
   37.5142   88.2470   67.9919  H 0  0  0  1  0  1
   35.9454   87.8304   67.2225  H 0  0  0  1  0  1
   38.2785   87.1951   64.6373  H 0  0  0  1  0  1
   35.6156   86.4848   65.4423  H 0  0  0  1  0  1
   35.6156   86.4847   65.4423  H 0  0  0  1  0  1
   39.2126   86.2050   67.2597  H 0  0  0  1  0  1
   39.2126   86.2050   67.2597  H 0  0  0  1  0  1
  1  2  1  0  0  2
  2  3  4  0  0  1
  2  5  4  0  0  1
  3  4  4  0  0  1
  4  7  4  0  0  1
  5  6  4  0  0  1
  6  7  4  0  0  1
  7  8  1  0  0  2
  8  9  1  0  0  2
  9 10  1  0  0  1
  9 12  1  0  0  1
 10 11  1  0  0  1
 11 14  1  0  0  1
 12 13  1  0  0  1
 13 14  1  0  0  1
 14 15  1  0  0  2
 15 16  1  0  0  2
 15 19  1  0  0  2
 15 20  1  0  0  2
 16 17  2  0  0  2
 16 18  2  0  0  2
 20 21  1  0  0  2
 21 22  1  0  0  2
 22 23  1  0  0  2
 23 24  1  0  0  2
 24 26  1  0  0  2
 24 27  1  0  0  2
 25 24  2  0  0  2
  3 28  1  0  0  2
  4 29  1  0  0  2
  5 30  1  0  0  2
  6 31  1  0  0  2
  8 32  1  0  0  2
  8 33  1  0  0  2
  9 34  1  0  0  2
 10 35  1  0  0  2
 10 36  1  0  0  2
 11 37  1  0  0  2
 11 38  1  0  0  2
 12 39  1  0  0  2
 12 40  1  0  0  2
 13 41  1  0  0  2
 13 42  1  0  0  2
 14 43  1  0  0  2
 19 44  1  0  0  2
 19 45  1  0  0  2
 19 46  1  0  0  2
 20 47  1  0  0  2
 20 48  1  0  0  2
 21 49  1  0  0  2
 21 50  1  0  0  2
 22 51  1  0  0  2
 22 52  1  0  0  2
 23 53  1  0  0  2
 23 54  1  0  0  2
 23 55  1  0  0  2
 25 56  1  0  0  2
 26 57  1  0  0  2
 26 58  1  0  0  2
 27 59  1  0  0  2
 27 60  1  0  0  2
M  END
> <MOLECULAR_FORMULA>
C18H33N2O5ClB

> <MOLECULAR_WEIGHT>
403.5

> <NUM_HB_ATOMS>
6  

> <NUM_ROTOR>
8  

> <XLOGP2>
-0.44

$$$$
