3uzd_ligand
  -I-interpret- 

141142  0  0  0  0  0  0  0  0999 V2000
   10.5090   12.8850   11.2850 N   0  3  0  0  0
   11.6690   12.0970   10.7930 C   0  0  0  0  0
   11.8530   10.8360   11.6950 C   0  0  0  0  0
   10.9190   10.0140   11.8590 O   0  0  0  0  0
   12.9350   13.0010   10.6520 C   0  0  0  0  0
   13.0220   14.0790   11.6120 O   0  0  0  0  0
   12.9590   10.8290   12.4140 N   0  0  0  0  0
   13.0130   10.0880   13.6610 C   0  0  0  0  0
   12.3500   10.9260   14.7630 C   0  0  0  0  0
   12.6070   10.6270   15.9300 O   0  0  0  0  0
   14.5140    9.9610   13.9220 C   0  0  0  0  0
   15.1240    9.9710   12.5700 C   0  0  0  0  0
   14.2700   10.8890   11.7430 C   0  0  0  0  0
   11.5350   11.9430   14.4420 N   0  0  0  0  0
   10.9810   12.7620   15.5750 C   0  0  0  0  0
   11.1380   14.2710   15.3380 C   0  0  0  0  0
   10.3840   14.6750   14.1360 O   0  0  0  0  0
    9.4980   12.4790   15.7950 C   0  0  0  0  0
    8.9230   11.6710   15.0250 O   0  0  0  0  0
   10.4860   16.1970   13.6410 P   0  0  0  0  0
   10.1700   17.1320   14.7440 O   0  0  0  0  0
   11.8980   16.3460   13.1080 O   0  0  0  0  0
    9.4740   16.3590   12.4670 O   0  0  0  0  0
    8.8770   13.1170   16.7720 N   0  0  0  0  0
    7.4790   12.8150   17.1100 C   0  0  0  0  0
    6.5460   13.1800   15.9650 C   0  0  0  0  0
    6.5990   14.2930   15.4600 O   0  0  0  0  0
    7.0660   13.5950   18.3580 C   0  0  0  0  0
    5.7260   13.2600   19.0120 C   0  0  0  0  0
    5.6930   11.8970   19.6870 C   0  0  0  0  0
    5.4420   14.3330   20.0470 C   0  0  0  0  0
    5.7430   12.1730   15.6380 N   0  0  0  0  0
    4.5550   12.2840   14.8120 C   0  0  0  0  0
    3.6730   13.3800   15.3590 C   0  0  0  0  0
    3.4550   13.5530   16.5580 O   0  0  0  0  0
    3.8800   10.9250   14.9920 C   0  0  0  0  0
    4.2890   10.4900   16.3560 C   0  0  0  0  0
    5.6850   11.0140   16.5470 C   0  0  0  0  0
    3.1720   14.1230   14.4000 N   0  0  0  0  0
    2.3610   15.3180   14.5580 C   0  0  0  0  0
    1.0570   14.9230   15.2720 C   0  0  0  0  0
    0.5620   13.8100   15.1060 O   0  0  0  0  0
    2.1090   15.9100   13.1630 C   0  0  0  0  0
    1.5260   17.3020   13.2020 C   0  0  0  0  0
    1.7990   18.0720   14.1250 O   0  0  0  0  0
    0.7790   17.6570   12.1850 N   0  0  0  0  0
    0.4790   15.7420   16.1380 N   0  0  0  0  0
   -0.6590   15.2250   16.9340 C   0  0  0  0  0
   -1.9010   14.7790   16.1260 C   0  0  0  0  0
   -2.2870   15.4760   15.1870 O   0  0  0  0  0
   -1.1040   16.2450   18.0010 C   0  0  0  0  0
   -0.0830   16.3050   19.1390 C   0  0  0  0  0
   -2.4840   15.8910   18.5340 C   0  0  0  0  0
    0.2990   17.7130   19.5420 C   0  0  0  0  0
   -2.5440   13.6510   16.4780 N   0  0  0  0  0
   -3.8250   13.3500   15.8370 C   0  0  0  0  0
   -4.9800   14.0790   16.5660 C   0  0  0  0  0
   -5.1130   14.0040   17.7980 O   0  0  0  0  0
   -4.0560   11.8090   15.7220 C   0  0  0  0  0
   -3.5930   11.1780   16.9210 O   0  0  0  0  0
   -3.2520   11.2110   14.5120 C   0  0  0  0  0
   -5.7550   14.8540   15.8060 N   0  0  0  0  0
   -6.8210   15.6930   16.3790 C   0  0  0  0  0
   -8.1560   14.9440   16.5460 C   0  0  0  0  0
   -8.3270   13.8420   16.0220 O   0  0  0  0  0
   -7.0130   16.9720   15.5470 C   0  0  0  0  0
   -5.8360   17.9580   15.5520 C   0  0  0  0  0
   -5.6700   18.6570   16.9270 C   0  0  0  0  0
   -9.0730   15.4360   17.2060 O   0  0  0  0  0
    9.6960   12.2748   11.3689 H   0  0  0  0  0
   10.7323   13.2832   12.1971 H   0  0  0  0  0
   10.3054   13.6360   10.6255 H   0  0  0  0  0
   11.4869   11.7258    9.7845 H   0  0  0  0  0
   12.8869   13.4603    9.6647 H   0  0  0  0  0
   13.8010   12.3600   10.8174 H   0  0  0  0  0
   13.8247   14.5816   11.4552 H   0  0  0  0  0
   12.5052    9.1240   13.6317 H   0  0  0  0  0
   14.7587    9.0545   14.4756 H   0  0  0  0  0
   14.8912   10.7696   14.5480 H   0  0  0  0  0
   15.1581    8.9688   12.1428 H   0  0  0  0  0
   16.1580   10.3144   12.6039 H   0  0  0  0  0
   14.6696   11.9019   11.6927 H   0  0  0  0  0
   14.2201   10.5867   10.6969 H   0  0  0  0  0
   11.3014   12.1514   13.4712 H   0  0  0  0  0
   11.5576   12.4715   16.4532 H   0  0  0  0  0
   12.1932   14.5032   15.1939 H   0  0  0  0  0
   10.7513   14.8115   16.2020 H   0  0  0  0  0
   12.0393   15.7150   12.3985 H   0  0  0  0  0
    9.6987   15.7438   11.7651 H   0  0  0  0  0
    9.3770   13.8317   17.3008 H   0  0  0  0  0
    7.4030   11.7437   17.2962 H   0  0  0  0  0
    6.9742   14.6308   18.0311 H   0  0  0  0  0
    7.8191   13.3544   19.1084 H   0  0  0  0  0
    4.9726   13.2258   18.2250 H   0  0  0  0  0
    5.8946   11.1219   18.9477 H   0  0  0  0  0
    6.4519   11.8616   20.4686 H   0  0  0  0  0
    4.7089   11.7345   20.1267 H   0  0  0  0  0
    6.2386   14.3383   20.7910 H   0  0  0  0  0
    5.3945   15.3054   19.5568 H   0  0  0  0  0
    4.4897   14.1233   20.5340 H   0  0  0  0  0
    4.7613   12.5224   13.7686 H   0  0  0  0  0
    4.1824   10.2115   14.2255 H   0  0  0  0  0
    2.7967   10.9875   14.8884 H   0  0  0  0  0
    4.2541    9.4051   16.4550 H   0  0  0  0  0
    3.6111   10.8765   17.1170 H   0  0  0  0  0
    5.8927   11.2836   17.5825 H   0  0  0  0  0
    6.4466   10.2673   16.3221 H   0  0  0  0  0
    3.3731   13.8308   13.4437 H   0  0  0  0  0
    2.8572   16.0772   15.1626 H   0  0  0  0  0
    1.3904   15.2657   12.6564 H   0  0  0  0  0
    3.0698   15.9692   12.6516 H   0  0  0  0  0
    0.3992   18.6024   12.1366 H   0  0  0  0  0
    0.5775   16.9878   11.4420 H   0  0  0  0  0
    0.8077   16.7006   16.2536 H   0  0  0  0  0
   -0.2550   14.3226   17.3929 H   0  0  0  0  0
   -1.1601   17.2301   17.5378 H   0  0  0  0  0
    0.8229   15.8094   18.7899 H   0  0  0  0  0
   -0.5366   15.8294   20.0086 H   0  0  0  0  0
   -3.2020   15.8996   17.7140 H   0  0  0  0  0
   -2.4550   14.8981   18.9828 H   0  0  0  0  0
   -2.7804   16.6225   19.2858 H   0  0  0  0  0
    0.7356   18.2286   18.6866 H   0  0  0  0  0
   -0.5903   18.2481   19.8752 H   0  0  0  0  0
    1.0257   17.6728   20.3534 H   0  0  0  0  0
   -2.1482   13.0204   17.1751 H   0  0  0  0  0
   -3.8021   13.7289   14.8152 H   0  0  0  0  0
   -5.1204   11.6304   15.5695 H   0  0  0  0  0
   -3.7321   10.2303   16.8568 H   0  0  0  0  0
   -3.5822   11.6856   13.5880 H   0  0  0  0  0
   -2.1878   11.3968   14.6572 H   0  0  0  0  0
   -3.4301   10.1372   14.4542 H   0  0  0  0  0
   -5.6048   14.8659   14.7972 H   0  0  0  0  0
   -6.4939   15.9670   17.3820 H   0  0  0  0  0
   -7.8584   17.5007   15.9874 H   0  0  0  0  0
   -7.1393   16.6498   14.5134 H   0  0  0  0  0
   -6.0297   18.7241   14.8012 H   0  0  0  0  0
   -4.9234   17.4008   15.3403 H   0  0  0  0  0
   -6.5791   19.2096   17.1643 H   0  0  0  0  0
   -5.4889   17.9056   17.6956 H   0  0  0  0  0
   -4.8258   19.3451   16.8838 H   0  0  0  0  0
   -8.7966   16.2887   17.5497 H   0  0  0  0  0
  1  2  1  0  0  0
  2  3  1  0  0  0
  2  5  1  0  0  0
  3  4  2  0  0  0
  3  7  1  0  0  0
  5  6  1  0  0  0
  7  8  1  0  0  0
  7 13  1  0  0  0
  8  9  1  0  0  0
  8 11  1  0  0  0
  9 10  2  0  0  0
  9 14  1  0  0  0
 11 12  1  0  0  0
 12 13  1  0  0  0
 14 15  1  0  0  0
 15 16  1  0  0  0
 15 18  1  0  0  0
 16 17  1  0  0  0
 17 20  1  0  0  0
 18 19  2  0  0  0
 18 24  1  0  0  0
 20 21  2  0  0  0
 20 22  1  0  0  0
 20 23  1  0  0  0
 24 25  1  0  0  0
 25 26  1  0  0  0
 25 28  1  0  0  0
 26 27  2  0  0  0
 26 32  1  0  0  0
 28 29  1  0  0  0
 29 30  1  0  0  0
 29 31  1  0  0  0
 32 33  1  0  0  0
 32 38  1  0  0  0
 33 34  1  0  0  0
 33 36  1  0  0  0
 34 35  2  0  0  0
 34 39  1  0  0  0
 36 37  1  0  0  0
 37 38  1  0  0  0
 39 40  1  0  0  0
 40 41  1  0  0  0
 40 43  1  0  0  0
 41 42  2  0  0  0
 41 47  1  0  0  0
 43 44  1  0  0  0
 44 45  2  0  0  0
 44 46  1  0  0  0
 47 48  1  0  0  0
 48 49  1  0  0  0
 48 51  1  0  0  0
 49 50  2  0  0  0
 49 55  1  0  0  0
 51 52  1  0  0  0
 51 53  1  0  0  0
 52 54  1  0  0  0
 55 56  1  0  0  0
 56 57  1  0  0  0
 56 59  1  0  0  0
 57 58  2  0  0  0
 57 62  1  0  0  0
 59 60  1  0  0  0
 59 61  1  0  0  0
 62 63  1  0  0  0
 63 64  1  0  0  0
 63 66  1  0  0  0
 64 65  2  0  0  0
 64 69  1  0  0  0
 66 67  1  0  0  0
 67 68  1  0  0  0
  1 70  1  0  0  0
  1 71  1  0  0  0
  1 72  1  0  0  0
  2 73  1  0  0  0
  5 74  1  0  0  0
  5 75  1  0  0  0
  6 76  1  0  0  0
  8 77  1  0  0  0
 11 78  1  0  0  0
 11 79  1  0  0  0
 12 80  1  0  0  0
 12 81  1  0  0  0
 13 82  1  0  0  0
 13 83  1  0  0  0
 14 84  1  0  0  0
 15 85  1  0  0  0
 16 86  1  0  0  0
 16 87  1  0  0  0
 22 88  1  0  0  0
 23 89  1  0  0  0
 24 90  1  0  0  0
 25 91  1  0  0  0
 28 92  1  0  0  0
 28 93  1  0  0  0
 29 94  1  0  0  0
 30 95  1  0  0  0
 30 96  1  0  0  0
 30 97  1  0  0  0
 31 98  1  0  0  0
 31 99  1  0  0  0
 31100  1  0  0  0
 33101  1  0  0  0
 36102  1  0  0  0
 36103  1  0  0  0
 37104  1  0  0  0
 37105  1  0  0  0
 38106  1  0  0  0
 38107  1  0  0  0
 39108  1  0  0  0
 40109  1  0  0  0
 43110  1  0  0  0
 43111  1  0  0  0
 46112  1  0  0  0
 46113  1  0  0  0
 47114  1  0  0  0
 48115  1  0  0  0
 51116  1  0  0  0
 52117  1  0  0  0
 52118  1  0  0  0
 53119  1  0  0  0
 53120  1  0  0  0
 53121  1  0  0  0
 54122  1  0  0  0
 54123  1  0  0  0
 54124  1  0  0  0
 55125  1  0  0  0
 56126  1  0  0  0
 59127  1  0  0  0
 60128  1  0  0  0
 61129  1  0  0  0
 61130  1  0  0  0
 61131  1  0  0  0
 62132  1  0  0  0
 63133  1  0  0  0
 66134  1  0  0  0
 66135  1  0  0  0
 67136  1  0  0  0
 67137  1  0  0  0
 68138  1  0  0  0
 68139  1  0  0  0
 68140  1  0  0  0
 69141  1  0  0  0
M  END
$$$$
