### 
### Created by X-TOOL on Mon Sep 10 21:13:10 2018
### 

@<TRIPOS>MOLECULE
3uzd_ligand
  138   139     1     0     0
SMALL
GAST_HUCK


@<TRIPOS>ATOM
      1 N          10.5090   12.8850   11.2850 N.4       1 SER         0.2396
      2 CA         11.6690   12.0970   10.7930 C.3       1 SER         0.0886
      3 C          11.8530   10.8360   11.6950 C.2       1 SER         0.2315
      4 O          10.9190   10.0140   11.8590 O.2       1 SER        -0.3904
      5 CB         12.9350   13.0010   10.6520 C.3       1 SER         0.1041
      6 OG         13.0220   14.0790   11.6120 O.3       1 SER        -0.3870
      7 N          12.9590   10.8290   12.4140 N.am      1 PRO        -0.2471
      8 CA         13.0130   10.0880   13.6610 C.3       1 PRO         0.1339
      9 C          12.3500   10.9260   14.7630 C.2       1 PRO         0.2042
     10 O          12.6070   10.6270   15.9300 O.2       1 PRO        -0.3944
     11 CB         14.5140    9.9610   13.9220 C.3       1 PRO        -0.0104
     12 CG         15.1240    9.9710   12.5700 C.3       1 PRO        -0.0281
     13 CD         14.2700   10.8890   11.7430 C.3       1 PRO         0.0371
     14 N          11.5350   11.9430   14.4420 N.am      1 SEP        -0.2613
     15 CA         10.9810   12.7620   15.5750 C.3       1 SEP         0.1586
     16 CB         11.1380   14.2710   15.3380 C.3       1 SEP         0.1184
     17 OG         10.3840   14.6750   14.1360 O.3       1 SEP        -0.2714
     18 C           9.4980   12.4790   15.7950 C.2       1 SEP         0.2065
     19 O           8.9230   11.6710   15.0250 O.2       1 SEP        -0.3943
     20 P          10.4860   16.1970   13.6410 P.3       1 SEP         0.2010
     21 O1P        10.1700   17.1320   14.7440 O.co2     1 SEP        -0.5537
     22 O2P        11.8980   16.3460   13.1080 O.co2     1 SEP        -0.5537
     23 O3P         9.4740   16.3590   12.4670 O.co2     1 SEP        -0.5537
     24 N           8.8770   13.1170   16.7720 N.am      1 LEU        -0.2636
     25 CA          7.4790   12.8150   17.1100 C.3       1 LEU         0.1314
     26 C           6.5460   13.1800   15.9650 C.2       1 LEU         0.2064
     27 O           6.5990   14.2930   15.4600 O.2       1 LEU        -0.3942
     28 CB          7.0660   13.5950   18.3580 C.3       1 LEU        -0.0101
     29 CG          5.7260   13.2600   19.0120 C.3       1 LEU        -0.0425
     30 CD1         5.6930   11.8970   19.6870 C.3       1 LEU        -0.0625
     31 CD2         5.4420   14.3330   20.0470 C.3       1 LEU        -0.0625
     32 N           5.7430   12.1730   15.6380 N.am      1 PRO        -0.2498
     33 CA          4.5550   12.2840   14.8120 C.3       1 PRO         0.1338
     34 C           3.6730   13.3800   15.3590 C.2       1 PRO         0.2042
     35 O           3.4550   13.5530   16.5580 O.2       1 PRO        -0.3944
     36 CB          3.8800   10.9250   14.9920 C.3       1 PRO        -0.0104
     37 CG          4.2890   10.4900   16.3560 C.3       1 PRO        -0.0281
     38 CD          5.6850   11.0140   16.5470 C.3       1 PRO         0.0369
     39 N           3.1720   14.1230   14.4000 N.am      1 ASN        -0.2616
     40 CA          2.3610   15.3180   14.5580 C.3       1 ASN         0.1476
     41 C           1.0570   14.9230   15.2720 C.2       1 ASN         0.2063
     42 O           0.5620   13.8100   15.1060 O.2       1 ASN        -0.3942
     43 CB          2.1090   15.9100   13.1630 C.3       1 ASN         0.0773
     44 CG          1.5260   17.3020   13.2020 C.2       1 ASN         0.1780
     45 OD1         1.7990   18.0720   14.1250 O.2       1 ASN        -0.3970
     46 ND2         0.7790   17.6570   12.1850 N.am      1 ASN        -0.3007
     47 N           0.4790   15.7420   16.1380 N.am      1 ILE        -0.2633
     48 CA         -0.6590   15.2250   16.9340 C.3       1 ILE         0.1335
     49 C          -1.9010   14.7790   16.1260 C.2       1 ILE         0.2042
     50 O          -2.2870   15.4760   15.1870 O.2       1 ILE        -0.3944
     51 CB         -1.1040   16.2450   18.0010 C.3       1 ILE        -0.0037
     52 CG1        -0.0830   16.3050   19.1390 C.3       1 ILE        -0.0491
     53 CG2        -2.4840   15.8910   18.5340 C.3       1 ILE        -0.0582
     54 CD1         0.2990   17.7130   19.5420 C.3       1 ILE        -0.0648
     55 N          -2.5440   13.6510   16.4780 N.am      1 THR        -0.2613
     56 CA         -3.8250   13.3500   15.8370 C.3       1 THR         0.1564
     57 C          -4.9800   14.0790   16.5660 C.2       1 THR         0.2059
     58 O          -5.1130   14.0040   17.7980 O.2       1 THR        -0.3943
     59 CB         -4.0560   11.8090   15.7220 C.3       1 THR         0.0924
     60 OG1        -3.5930   11.1780   16.9210 O.3       1 THR        -0.3874
     61 CG2        -3.2520   11.2110   14.5120 C.3       1 THR        -0.0346
     62 N          -5.7550   14.8540   15.8060 N.am      1 LEU        -0.2694
     63 CA         -6.8210   15.6930   16.3790 C.3       1 LEU         0.0944
     64 C          -8.1560   14.9440   16.5460 C.2       1 LEU         0.0601
     65 O          -8.3270   13.8420   16.0220 O.co2     1 LEU        -0.5666
     66 CB         -7.0130   16.9720   15.5470 C.3       1 LEU        -0.0182
     67 CG         -5.8360   17.9580   15.5520 C.3       1 LEU        -0.0523
     68 CD2        -5.6700   18.6570   16.9270 C.3       1 LEU        -0.0651
     69 OXT        -9.0730   15.4360   17.2060 O.co2     1 LEU        -0.5666
     70 H1         10.3866   13.7004   10.7052 H         1 SER         0.2016
     71 H2         10.6768   13.1716   12.2367 H         1 SER         0.2016
     72 H3          9.6768   12.3175   11.2467 H         1 SER         0.2016
     73 H4         11.4260   11.7359    9.7828 H         1 SER         0.1122
     74 H5         12.9307   13.4407    9.6437 H         1 SER         0.0640
     75 H6         13.8244   12.3648   10.7708 H         1 SER         0.0640
     76 H7         12.2672   14.6479   11.5169 H         1 SER         0.2099
     77 H8         12.5288    9.1038   13.5785 H         1 PRO         0.0802
     78 H9         14.7403    9.0198   14.4444 H         1 PRO         0.0313
     79 H10        14.8785   10.8092   14.5200 H         1 PRO         0.0313
     80 H11        15.1232    8.9578   12.1418 H         1 PRO         0.0287
     81 H12        16.1563   10.3479   12.6182 H         1 PRO         0.0287
     82 H13        14.6704   11.9135   11.7513 H         1 PRO         0.0524
     83 H14        14.1982   10.5318   10.7051 H         1 PRO         0.0524
     84 H15        11.3060   12.1473   13.4902 H         1 SEP         0.1884
     85 H16        11.5322   12.4913   16.4876 H         1 SEP         0.0827
     86 H17        12.2027   14.5086   15.1968 H         1 SEP         0.0662
     87 H18        10.7526   14.8187   16.2106 H         1 SEP         0.0662
     88 H19         9.3672   13.8177   17.2904 H         1 LEU         0.1883
     89 H20         7.3896   11.7375   17.3123 H         1 LEU         0.0800
     90 H21         7.0363   14.6593   18.0818 H         1 LEU         0.0315
     91 H22         7.8471   13.4344   19.1156 H         1 LEU         0.0315
     92 H23         4.9445   13.2799   18.2382 H         1 LEU         0.0298
     93 H24         4.7003   11.7318   20.1312 H         1 LEU         0.0232
     94 H25         6.4585   11.8599   20.4761 H         1 LEU         0.0232
     95 H26         5.8962   11.1138   18.9419 H         1 LEU         0.0232
     96 H27         5.4643   15.3218   19.5656 H         1 LEU         0.0232
     97 H28         6.2067   14.2924   20.8367 H         1 LEU         0.0232
     98 H29         4.4492   14.1627   20.4889 H         1 LEU         0.0232
     99 H30         4.8036   12.4787   13.7583 H         1 PRO         0.0802
    100 H31         4.2325   10.2110   14.2331 H         1 PRO         0.0313
    101 H32         2.7863   11.0210   14.9251 H         1 PRO         0.0313
    102 H33         4.2779    9.3924   16.4283 H         1 PRO         0.0287
    103 H34         3.6130   10.9142   17.1130 H         1 PRO         0.0287
    104 H35         5.8500   11.3231   17.5897 H         1 PRO         0.0524
    105 H36         6.4315   10.2563   16.2666 H         1 PRO         0.0524
    106 H37         3.3692   13.8366   13.4624 H         1 ASN         0.1885
    107 H38         2.8970   16.0572   15.1714 H         1 ASN         0.0826
    108 H39         1.4089   15.2531   12.6261 H         1 ASN         0.0551
    109 H40         3.0657   15.9471   12.6213 H         1 ASN         0.0551
    110 H41         0.3681   18.5684   12.1605 H         1 ASN         0.1814
    111 H42         0.6200   17.0165   11.4337 H         1 ASN         0.1814
    112 H43         0.8013   16.6819   16.2513 H         1 ILE         0.1883
    113 H44        -0.2866   14.3335   17.4598 H         1 ILE         0.0803
    114 H45        -1.1585   17.2381   17.5312 H         1 ILE         0.0345
    115 H46         0.8269   15.7773   18.8171 H         1 ILE         0.0267
    116 H47        -0.5106   15.7970   20.0160 H         1 ILE         0.0267
    117 H48        -3.2005   15.8535   17.7002 H         1 ILE         0.0235
    118 H49        -2.8042   16.6542   19.2585 H         1 ILE         0.0235
    119 H50        -2.4453   14.9092   19.0286 H         1 ILE         0.0235
    120 H51         1.0324   17.6738   20.3608 H         1 ILE         0.0230
    121 H52        -0.5976   18.2541   19.8785 H         1 ILE         0.0230
    122 H53         0.7399   18.2344   18.6796 H         1 ILE         0.0230
    123 H54        -2.1559   13.0327   17.1615 H         1 THR         0.1884
    124 H55        -3.7842   13.7475   14.8121 H         1 THR         0.0826
    125 H56        -5.1291   11.6103   15.5844 H         1 THR         0.0639
    126 H57        -3.7307   10.2401   16.8575 H         1 THR         0.2101
    127 H58        -3.4310   10.1273   14.4527 H         1 THR         0.0257
    128 H59        -2.1778   11.3978   14.6574 H         1 THR         0.0257
    129 H60        -3.5843   11.6891   13.5788 H         1 THR         0.0257
    130 H61        -5.6077   14.8657   14.8170 H         1 LEU         0.1875
    131 H62        -6.4911   15.9957   17.3837 H         1 LEU         0.0726
    132 H63        -7.8958   17.4991   15.9379 H         1 LEU         0.0305
    133 H64        -7.1967   16.6718   14.5048 H         1 LEU         0.0305
    134 H65        -6.0114   18.7245   14.7828 H         1 LEU         0.0264
    135 H66        -4.9117   17.4091   15.3187 H         1 LEU         0.0264
    136 H67        -4.8183   19.3518   16.8846 H         1 LEU         0.0230
    137 H68        -5.4871   17.8998   17.7036 H         1 LEU         0.0230
    138 H69        -6.5868   19.2151   17.1677 H         1 LEU         0.0230
@<TRIPOS>BOND
     1    1    2 1  
     2    2    3 1  
     3    2    5 1  
     4    3    4 2  
     5    3    7 am 
     6    5    6 1  
     7    7    8 1  
     8    7   13 1  
     9    8    9 1  
    10    8   11 1  
    11    9   10 2  
    12    9   14 am 
    13   11   12 1  
    14   12   13 1  
    15   14   15 1  
    16   15   16 1  
    17   15   18 1  
    18   16   17 1  
    19   17   20 1  
    20   18   19 2  
    21   18   24 am 
    22   20   21 ar 
    23   20   22 ar 
    24   20   23 ar 
    25   24   25 1  
    26   25   26 1  
    27   25   28 1  
    28   26   27 2  
    29   26   32 am 
    30   28   29 1  
    31   29   30 1  
    32   29   31 1  
    33   32   33 1  
    34   32   38 1  
    35   33   34 1  
    36   33   36 1  
    37   34   35 2  
    38   34   39 am 
    39   36   37 1  
    40   37   38 1  
    41   39   40 1  
    42   40   41 1  
    43   40   43 1  
    44   41   42 2  
    45   41   47 am 
    46   43   44 1  
    47   44   45 2  
    48   44   46 am 
    49   47   48 1  
    50   48   49 1  
    51   48   51 1  
    52   49   50 2  
    53   49   55 am 
    54   51   52 1  
    55   51   53 1  
    56   52   54 1  
    57   55   56 1  
    58   56   57 1  
    59   56   59 1  
    60   57   58 2  
    61   57   62 am 
    62   59   60 1  
    63   59   61 1  
    64   62   63 1  
    65   63   64 1  
    66   63   66 1  
    67   64   65 ar 
    68   64   69 ar 
    69   66   67 1  
    70   67   68 1  
    71    1   70 1  
    72    1   71 1  
    73    1   72 1  
    74    2   73 1  
    75    5   74 1  
    76    5   75 1  
    77    6   76 1  
    78    8   77 1  
    79   11   78 1  
    80   11   79 1  
    81   12   80 1  
    82   12   81 1  
    83   13   82 1  
    84   13   83 1  
    85   14   84 1  
    86   15   85 1  
    87   16   86 1  
    88   16   87 1  
    89   24   88 1  
    90   25   89 1  
    91   28   90 1  
    92   28   91 1  
    93   29   92 1  
    94   30   93 1  
    95   30   94 1  
    96   30   95 1  
    97   31   96 1  
    98   31   97 1  
    99   31   98 1  
   100   33   99 1  
   101   36  100 1  
   102   36  101 1  
   103   37  102 1  
   104   37  103 1  
   105   38  104 1  
   106   38  105 1  
   107   39  106 1  
   108   40  107 1  
   109   43  108 1  
   110   43  109 1  
   111   46  110 1  
   112   46  111 1  
   113   47  112 1  
   114   48  113 1  
   115   51  114 1  
   116   52  115 1  
   117   52  116 1  
   118   53  117 1  
   119   53  118 1  
   120   53  119 1  
   121   54  120 1  
   122   54  121 1  
   123   54  122 1  
   124   55  123 1  
   125   56  124 1  
   126   59  125 1  
   127   60  126 1  
   128   61  127 1  
   129   61  128 1  
   130   61  129 1  
   131   62  130 1  
   132   63  131 1  
   133   66  132 1  
   134   66  133 1  
   135   67  134 1  
   136   67  135 1  
   137   68  136 1  
   138   68  137 1  
   139   68  138 1  
@<TRIPOS>SUBSTRUCTURE
     1 SER         1

