2nns_ligand
  -I-interpret- 

 30 30  0  0  0  0  0  0  0  0999 V2000
   -5.2600    2.3770   15.8070 C   0  0  0  0  0
   -3.9210    2.3780   15.4430 C   0  0  0  0  0
   -3.4410    3.4560   14.6950 C   0  0  0  0  0
   -4.2500    4.5320   14.3150 C   0  0  0  0  0
   -5.5810    4.4890   14.6740 C   0  0  0  0  0
   -6.1250    3.4340   15.4180 C   0  0  0  0  0
   -5.9350    1.0310   16.7740 S   0  0  0  0  0
   -7.3830    1.1150   16.6540 O   0  0  0  0  0
   -5.3640    1.2050   18.1200 O   0  0  0  0  0
   -5.4740   -0.3460   16.1150 N   0  0  0  0  0
   -3.7190    5.6270   13.4330 C   0  0  0  0  0
   -2.7680    6.5660   14.2060 C   0  0  0  0  0
   -2.3670    7.6970   13.3740 N   0  0  0  0  0
   -1.5950    8.6890   13.8210 C   0  0  0  0  0
   -1.3000    9.7870   12.8460 C   0  0  0  0  0
   -1.1370    8.6790   14.9770 O   0  0  0  0  0
   -3.2615    1.5599   15.7328 H   0  0  0  0  0
   -2.3930    3.4587   14.3952 H   0  0  0  0  0
   -6.2339    5.3062   14.3674 H   0  0  0  0  0
   -7.1804    3.4247   15.6901 H   0  0  0  0  0
   -6.1676   -0.9757   15.7116 H   0  0  0  0  0
   -4.4855   -0.5970   16.0969 H   0  0  0  0  0
   -4.5612    6.2141   13.0669 H   0  0  0  0  0
   -3.1631    5.1711   12.6137 H   0  0  0  0  0
   -1.8772    6.0066   14.4918 H   0  0  0  0  0
   -3.2867    6.9441   15.0870 H   0  0  0  0  0
   -2.6917    7.7301   12.4076 H   0  0  0  0  0
   -1.6539   10.7352   13.2506 H   0  0  0  0  0
   -0.2246    9.8415   12.6766 H   0  0  0  0  0
   -1.8075    9.5805   11.9037 H   0  0  0  0  0
  1  2  4  0  0  0
  1  6  4  0  0  0
  1  7  1  0  0  0
  2  3  4  0  0  0
  3  4  4  0  0  0
  4  5  4  0  0  0
  4 11  1  0  0  0
  5  6  4  0  0  0
  7  8  2  0  0  0
  7  9  2  0  0  0
  7 10  1  0  0  0
 11 12  1  0  0  0
 12 13  1  0  0  0
 13 14  1  0  0  0
 14 15  1  0  0  0
 14 16  2  0  0  0
  2 17  1  0  0  0
  3 18  1  0  0  0
  5 19  1  0  0  0
  6 20  1  0  0  0
 10 21  1  0  0  0
 10 22  1  0  0  0
 11 23  1  0  0  0
 11 24  1  0  0  0
 12 25  1  0  0  0
 12 26  1  0  0  0
 13 27  1  0  0  0
 15 28  1  0  0  0
 15 29  1  0  0  0
 15 30  1  0  0  0
M  END
$$$$
