6hcv_ligand
  -I-interpret- 

 41 43  0  0  0  0  0  0  0  0999 V2000
  -19.3950    0.0070   22.4310 C   0  0  0  0  0
  -14.7100   -6.1230   24.9490 C   0  0  0  0  0
  -17.9520    0.3420   22.8570 C   0  0  0  0  0
  -15.6270    0.9640   22.0940 C   0  0  0  0  0
  -14.1800   -3.7420   26.2710 C   0  0  0  0  0
  -14.7260   -0.0270   24.1310 C   0  0  0  0  0
  -14.5100   -1.2840   24.9130 C   0  0  0  0  0
  -14.0890   -1.2710   26.2460 C   0  0  0  0  0
  -13.8980   -2.4680   26.9550 C   0  0  0  0  0
  -14.0030   -4.9470   26.9400 C   0  0  0  0  0
  -14.2790   -6.1370   26.2800 C   0  0  0  0  0
  -19.9980    1.1810   21.6890 C   0  0  0  0  0
  -14.1140   -7.3080   26.9160 F   0  0  0  0  0
  -14.8730   -4.9030   24.2850 C   0  0  0  0  0
  -14.6070   -3.7030   24.9380 C   0  0  0  0  0
  -13.4980   -2.4920   28.1480 O   0  0  0  0  0
  -14.7670   -2.4830   24.2740 O   0  0  0  0  0
  -14.6220    1.0690   24.6480 O   0  0  0  0  0
  -15.1070   -0.1570   22.8670 N   0  0  0  0  0
  -17.0630    0.6410   21.6590 C   0  0  0  0  0
  -16.9930   -0.5040   20.7850 O   0  0  0  0  0
  -19.1030    1.5210   20.4780 C   0  0  0  0  0
  -17.6680    1.8240   20.9080 C   0  0  0  0  0
  -19.9924   -0.2033   23.3181 H   0  0  0  0  0
  -19.3839   -0.8648   21.7768 H   0  0  0  0  0
  -14.9180   -7.0595   24.4315 H   0  0  0  0  0
  -17.5410   -0.5207   23.3813 H   0  0  0  0  0
  -17.9795    1.2274   23.4922 H   0  0  0  0  0
  -15.0030    1.1280   21.2155 H   0  0  0  0  0
  -15.6201    1.8677   22.7034 H   0  0  0  0  0
  -13.9063   -0.3179   26.7422 H   0  0  0  0  0
  -13.6513   -4.9579   27.9717 H   0  0  0  0  0
  -20.0619    2.0429   22.3532 H   0  0  0  0  0
  -21.0001    0.9242   21.3457 H   0  0  0  0  0
  -15.2108   -4.8918   23.2487 H   0  0  0  0  0
  -15.0336   -1.0716   22.4213 H   0  0  0  0  0
  -16.6121   -1.2456   21.2609 H   0  0  0  0  0
  -19.5095    2.4047   19.9861 H   0  0  0  0  0
  -19.0880    0.6613   19.8081 H   0  0  0  0  0
  -17.0690    2.0176   20.0182 H   0  0  0  0  0
  -17.6757    2.6913   21.5682 H   0  0  0  0  0
  3  1  1  0  0  0
  1 12  1  0  0  0
 11  2  4  0  0  0
  2 14  4  0  0  0
 20  3  1  0  0  0
 19  4  1  0  0  0
  4 20  1  0  0  0
  5  9  1  0  0  0
 10  5  4  0  0  0
  5 15  4  0  0  0
  7  6  1  0  0  0
  6 18  2  0  0  0
  6 19  1  0  0  0
  8  7  2  0  0  0
  7 17  1  0  0  0
  9  8  1  0  0  0
  9 16  2  0  0  0
 10 11  4  0  0  0
 11 13  1  0  0  0
 12 22  1  0  0  0
 14 15  4  0  0  0
 15 17  1  0  0  0
 20 21  1  0  0  0
 20 23  1  0  0  0
 22 23  1  0  0  0
  1 24  1  0  0  0
  1 25  1  0  0  0
  2 26  1  0  0  0
  3 27  1  0  0  0
  3 28  1  0  0  0
  4 29  1  0  0  0
  4 30  1  0  0  0
  8 31  1  0  0  0
 10 32  1  0  0  0
 12 33  1  0  0  0
 12 34  1  0  0  0
 14 35  1  0  0  0
 19 36  1  0  0  0
 21 37  1  0  0  0
 22 38  1  0  0  0
 22 39  1  0  0  0
 23 40  1  0  0  0
 23 41  1  0  0  0
M  END
$$$$
