1bzh_ligand
  -I-interpret- 

119120  0  0  0  0  0  0  0  0999 V2000
   -9.4620   -3.1850   29.0710 N   0  0  0  0  0
  -10.6110   -3.1350   29.9510 C   0  0  0  0  0
   -9.9450   -2.8640   31.2740 C   0  0  0  0  0
  -10.1130   -1.8140   31.8760 O   0  0  0  0  0
  -11.2420   -4.5360   29.9310 C   0  0  0  0  0
  -10.1710   -5.5500   30.2490 C   0  0  0  0  0
  -10.3600   -6.3920   31.1060 O   0  0  0  0  0
   -9.1000   -5.4440   29.5600 O   0  0  0  0  0
   -9.0430   -3.9250   31.6950 N   0  0  0  0  0
   -8.4020   -3.5390   32.9180 C   0  0  0  0  0
   -7.1270   -2.8380   32.5000 C   0  0  0  0  0
   -6.6920   -2.9840   31.3770 O   0  0  0  0  0
   -8.0950   -4.8010   33.7390 C   0  0  0  0  0
   -6.4480   -2.0200   33.4620 N   0  0  0  0  0
   -5.2460   -1.3780   33.0820 C   0  0  0  0  0
   -4.3780   -2.0850   32.0940 C   0  0  0  0  0
   -3.9730   -1.4790   31.1060 O   0  0  0  0  0
   -4.3610   -1.3400   34.3800 C   0  0  0  0  0
   -3.5020   -0.1100   34.2820 C   0  0  0  0  0
   -2.8740    0.0720   33.2460 O   0  0  0  0  0
   -3.4580    0.7060   35.2580 O   0  0  0  0  0
   -3.9800   -3.4530   32.3620 N   0  0  0  0  0
   -3.0790   -3.9640   31.3720 C   0  0  0  0  0
   -3.6360   -4.8910   30.3210 C   0  0  0  0  0
   -4.3430   -5.7640   30.8610 O   0  0  0  0  0
   -2.0020   -4.7980   32.1130 C   0  0  0  0  0
   -1.3580   -4.1910   33.3230 C   0  0  0  0  0
   -1.6510   -2.8020   33.7390 C   0  0  0  0  0
   -2.0990   -1.8750   32.9710 O   0  0  0  0  0
   -1.4230   -2.4860   34.9090 O   0  0  0  0  0
   -3.3780   -4.9530   28.9460 N   0  0  0  0  0
   -2.7760   -4.3250   27.8550 C   0  0  0  0  0
   -1.2520   -4.4320   27.6140 C   0  0  0  0  0
   -0.8780   -3.8660   26.2350 C   0  0  0  0  0
   -0.5550   -2.5270   26.0550 C   0  0  0  0  0
   -0.2250   -2.0300   24.7830 C   0  0  0  0  0
   -0.8710   -4.7170   25.1270 C   0  0  0  0  0
   -0.5350   -4.2400   23.8720 C   0  0  0  0  0
   -0.2180   -2.8750   23.6800 C   0  0  0  0  0
    0.1120   -2.4680   22.3910 O   0  0  0  0  0
    0.8010   -1.2610   22.1440 C   0  0  0  0  0
    2.1870   -1.1490   22.7240 C   0  0  0  0  0
    0.0320   -0.2010   22.4880 F   0  0  0  0  0
    1.1250   -0.1870   20.0630 O   0  0  0  0  0
    1.2510   -2.4910   20.2660 O   0  0  0  0  0
    2.4520   -0.0220   23.3840 O   0  0  0  0  0
    3.0660   -1.9710   22.5420 O   0  0  0  0  0
    1.0610   -1.2160   20.6460 C   0  0  0  0  0
   -3.7150   -4.3730   25.6360 O   0  0  0  0  0
   -3.3280   -4.9900   26.5900 C   0  0  0  0  0
   -3.3040   -6.4310   26.6380 N   0  0  0  0  0
   -3.8490   -7.0710   25.4820 C   0  0  0  0  0
   -5.3570   -7.0350   25.6560 C   0  0  0  0  0
   -5.8240   -8.0300   26.1800 O   0  0  0  0  0
   -3.5140   -8.5730   25.4410 C   0  0  0  0  0
   -2.1260   -8.8280   24.8100 C   0  0  0  0  0
   -1.5780  -10.0770   25.5400 C   0  0  0  0  0
   -2.2900   -9.1490   23.3170 C   0  0  0  0  0
   -6.0160   -5.8670   25.1800 N   0  0  0  0  0
   -7.4290   -5.7260   25.3430 C   0  0  0  0  0
   -7.8560   -5.9350   26.8210 C   0  0  0  0  0
   -8.3530   -6.3100   24.3360 C   0  0  0  0  0
   -8.8890   -7.6430   24.4730 N   0  0  0  0  0
   -7.3700   -4.3520   27.5930 S   0  0  0  0  0
   -8.6190   -3.3140   26.7420 C   0  0  0  0  0
  -10.9730   -3.2560   27.3120 O   0  0  0  0  0
   -9.8080   -3.2510   27.6750 C   0  0  0  0  0
   -8.7080   -5.6280   23.3690 O   0  0  0  0  0
   -8.4994   -3.1745   29.4080 H   0  0  0  0  0
  -11.3895   -2.4120   29.7076 H   0  0  0  0  0
  -11.6651   -4.7388   28.9471 H   0  0  0  0  0
  -12.0402   -4.5944   30.6709 H   0  0  0  0  0
   -9.1850   -4.7079   28.9497 H   0  0  0  0  0
   -8.8909   -4.8033   31.1992 H   0  0  0  0  0
   -9.0199   -2.8873   33.5357 H   0  0  0  0  0
   -7.4994   -5.4880   33.1378 H   0  0  0  0  0
   -7.5388   -4.5239   34.6345 H   0  0  0  0  0
   -9.0298   -5.2832   34.0250 H   0  0  0  0  0
   -6.8245   -1.9031   34.4027 H   0  0  0  0  0
   -5.5538   -0.4351   32.6300 H   0  0  0  0  0
   -3.7469   -2.2372   34.4575 H   0  0  0  0  0
   -4.9840   -1.3082   35.2738 H   0  0  0  0  0
   -4.0164    0.3831   35.9690 H   0  0  0  0  0
   -4.3049   -3.9913   33.1652 H   0  0  0  0  0
   -2.7391   -3.0731   30.8438 H   0  0  0  0  0
   -1.1955   -4.9369   31.3931 H   0  0  0  0  0
   -2.5197   -5.6867   32.4740 H   0  0  0  0  0
   -0.2979   -4.1691   33.0705 H   0  0  0  0  0
   -1.7340   -4.7950   34.1488 H   0  0  0  0  0
   -2.2396   -2.2306   32.0905 H   0  0  0  0  0
   -3.8070   -5.8109   28.5989 H   0  0  0  0  0
   -2.9885   -3.2786   28.0741 H   0  0  0  0  0
   -0.9622   -5.4820   27.6539 H   0  0  0  0  0
   -0.7330   -3.8588   28.3823 H   0  0  0  0  0
   -0.5576   -1.8532   26.9118 H   0  0  0  0  0
    0.0267   -0.9765   24.6608 H   0  0  0  0  0
   -1.1329   -5.7676   25.2523 H   0  0  0  0  0
   -0.5145   -4.9232   23.0229 H   0  0  0  0  0
    1.1117   -3.0719   21.0175 H   0  0  0  0  0
    1.6551    0.5106   23.4384 H   0  0  0  0  0
   -2.9290   -6.9507   27.4315 H   0  0  0  0  0
   -3.4590   -6.5722   24.5948 H   0  0  0  0  0
   -4.2664   -9.0777   24.8349 H   0  0  0  0  0
   -3.5031   -8.9519   26.4629 H   0  0  0  0  0
   -1.4667   -7.9650   24.9033 H   0  0  0  0  0
   -1.5033   -9.8688   26.6073 H   0  0  0  0  0
   -2.2543  -10.9165   25.3787 H   0  0  0  0  0
   -0.5916  -10.3226   25.1465 H   0  0  0  0  0
   -2.9091  -10.0390   23.2039 H   0  0  0  0  0
   -2.7672   -8.3068   22.8159 H   0  0  0  0  0
   -1.3097   -9.3282   22.8754 H   0  0  0  0  0
   -5.4797   -5.1300   24.7222 H   0  0  0  0  0
   -7.5823   -4.6806   25.0753 H   0  0  0  0  0
   -7.3851   -6.8014   27.2854 H   0  0  0  0  0
   -8.9166   -6.1597   26.9337 H   0  0  0  0  0
   -9.5456   -8.0024   23.7801 H   0  0  0  0  0
   -8.6113   -8.2257   25.2628 H   0  0  0  0  0
   -8.8949   -3.7376   25.7763 H   0  0  0  0  0
   -8.2288   -2.3187   26.5294 H   0  0  0  0  0
  2  3  1  0  0  0
  2  5  1  0  0  0
  1  2  1  0  0  0
  5  6  1  0  0  0
  6  7  2  0  0  0
  6  8  1  0  0  0
  3  4  2  0  0  0
 10 11  1  0  0  0
 10 13  1  0  0  0
  9 10  1  0  0  0
 11 12  2  0  0  0
 15 16  1  0  0  0
 15 18  1  0  0  0
 14 15  1  0  0  0
 18 19  1  0  0  0
 19 20  2  0  0  0
 19 21  1  0  0  0
 16 17  2  0  0  0
 23 24  1  0  0  0
 23 26  1  0  0  0
 22 23  1  0  0  0
 26 27  1  0  0  0
 27 28  1  0  0  0
 28 29  1  0  0  0
 28 30  2  0  0  0
 24 25  2  0  0  0
 31 32  1  0  0  0
 32 50  1  0  0  0
 32 33  1  0  0  0
 33 34  1  0  0  0
 34 37  4  0  0  0
 34 35  4  0  0  0
 35 36  4  0  0  0
 36 39  4  0  0  0
 39 40  1  0  0  0
 38 39  4  0  0  0
 37 38  4  0  0  0
 40 41  1  0  0  0
 41 48  1  0  0  0
 41 43  1  0  0  0
 41 42  1  0  0  0
 42 47  2  0  0  0
 42 46  1  0  0  0
 48 44  2  0  0  0
 48 45  1  0  0  0
 50 49  2  0  0  0
 53 52  1  0  0  0
 52 55  1  0  0  0
 52 51  1  0  0  0
 55 56  1  0  0  0
 56 58  1  0  0  0
 56 57  1  0  0  0
 53 54  2  0  0  0
 59 60  1  0  0  0
 60 62  1  0  0  0
 60 61  1  0  0  0
 61 64  1  0  0  0
 64 65  1  0  0  0
 65 67  1  0  0  0
 67 66  2  0  0  0
 62 68  2  0  0  0
 62 63  1  0  0  0
  3  9  1  0  0  0
 11 14  1  0  0  0
 16 22  1  0  0  0
 67  1  1  0  0  0
 24 31  1  0  0  0
 59 53  1  0  0  0
 50 51  1  0  0  0
  1 69  1  0  0  0
  2 70  1  0  0  0
  5 71  1  0  0  0
  5 72  1  0  0  0
  8 73  1  0  0  0
  9 74  1  0  0  0
 10 75  1  0  0  0
 13 76  1  0  0  0
 13 77  1  0  0  0
 13 78  1  0  0  0
 14 79  1  0  0  0
 15 80  1  0  0  0
 18 81  1  0  0  0
 18 82  1  0  0  0
 21 83  1  0  0  0
 22 84  1  0  0  0
 23 85  1  0  0  0
 26 86  1  0  0  0
 26 87  1  0  0  0
 27 88  1  0  0  0
 27 89  1  0  0  0
 29 90  1  0  0  0
 31 91  1  0  0  0
 32 92  1  0  0  0
 33 93  1  0  0  0
 33 94  1  0  0  0
 35 95  1  0  0  0
 36 96  1  0  0  0
 37 97  1  0  0  0
 38 98  1  0  0  0
 45 99  1  0  0  0
 46100  1  0  0  0
 51101  1  0  0  0
 52102  1  0  0  0
 55103  1  0  0  0
 55104  1  0  0  0
 56105  1  0  0  0
 57106  1  0  0  0
 57107  1  0  0  0
 57108  1  0  0  0
 58109  1  0  0  0
 58110  1  0  0  0
 58111  1  0  0  0
 59112  1  0  0  0
 60113  1  0  0  0
 61114  1  0  0  0
 61115  1  0  0  0
 63116  1  0  0  0
 63117  1  0  0  0
 65118  1  0  0  0
 65119  1  0  0  0
M  END
$$$$
