3hll_ligand
  -I-interpret- 

 49 51  0  0  0  0  0  0  0  0999 V2000
   36.6840   36.6680   18.2600 C   0  0  0  0  0
   38.0040   37.0480   18.1550 C   0  0  0  0  0
   38.5950   37.3040   16.9450 C   0  0  0  0  0
   37.8490   37.1850   15.8030 C   0  0  0  0  0
   36.5260   36.8090   15.8790 C   0  0  0  0  0
   35.9440   36.5560   17.1050 C   0  0  0  0  0
   36.0660   36.4280   19.5890 C   0  0  0  0  0
   35.6680   37.7740   19.9480 O   0  0  0  0  0
   35.3280   37.9990   21.2810 C   0  0  0  0  0
   35.0660   39.2620   21.6780 C   0  0  0  0  0
   34.6970   39.5170   23.0960 C   0  0  0  0  0
   34.6460   38.4050   23.9230 N   0  0  0  0  0
   34.9310   37.1250   23.4710 C   0  0  0  0  0
   35.2580   36.9000   22.1960 C   0  0  0  0  0
   34.2270   38.6030   25.2470 C   0  0  0  0  0
   35.1530   39.0970   26.1480 C   0  0  0  0  0
   34.7600   39.2740   27.4600 C   0  0  0  0  0
   33.4800   38.9770   27.8680 C   0  0  0  0  0
   32.5700   38.4900   26.9640 C   0  0  0  0  0
   32.9380   38.2980   25.6500 C   0  0  0  0  0
   38.7710   37.1710   19.2450 F   0  0  0  0  0
   38.4340   37.4590   14.6230 F   0  0  0  0  0
   35.1590   40.6940   20.5260 Br  0  0  0  0  0
   34.4600   40.6580   23.4590 O   0  0  0  0  0
   34.8520   35.9970   24.4400 C   0  0  0  0  0
   35.7200   39.8060   28.4400 C   0  0  0  0  0
   36.5860   40.5800   28.0490 O   0  0  0  0  0
   35.5210   39.4160   29.7530 N   0  0  0  0  0
   35.5240   38.0420   30.2060 C   0  0  0  0  0
   31.8930   37.7630   24.7270 C   0  0  0  0  0
   39.6433   37.5980   16.8927 H   0  0  0  0  0
   35.9363   36.7108   14.9675 H   0  0  0  0  0
   34.8945   36.2665   17.1585 H   0  0  0  0  0
   36.7333   35.9555   20.3098 H   0  0  0  0  0
   35.2446   35.7117   19.5735 H   0  0  0  0  0
   35.4701   35.8869   21.8543 H   0  0  0  0  0
   36.1670   39.3404   25.8306 H   0  0  0  0  0
   33.1894   39.1283   28.9076 H   0  0  0  0  0
   31.5554   38.2548   27.2854 H   0  0  0  0  0
   34.1026   35.2812   24.1021 H   0  0  0  0  0
   35.8229   35.5057   24.5037 H   0  0  0  0  0
   34.5728   36.3813   25.4210 H   0  0  0  0  0
   35.3616   40.1459   30.4475 H   0  0  0  0  0
   34.7385   37.4892   29.6908 H   0  0  0  0  0
   36.4915   37.5905   29.9866 H   0  0  0  0  0
   35.3442   38.0147   31.2807 H   0  0  0  0  0
   31.7193   38.4784   23.9232 H   0  0  0  0  0
   32.2321   36.8166   24.3058 H   0  0  0  0  0
   30.9675   37.6049   25.2807 H   0  0  0  0  0
  1  2  4  0  0  0
  1  6  4  0  0  0
  1  7  1  0  0  0
  2  3  4  0  0  0
  2 21  1  0  0  0
  3  4  4  0  0  0
  4  5  4  0  0  0
  4 22  1  0  0  0
  5  6  4  0  0  0
  7  8  1  0  0  0
  8  9  1  0  0  0
  9 10  2  0  0  0
  9 14  1  0  0  0
 10 11  1  0  0  0
 10 23  1  0  0  0
 11 12  1  0  0  0
 11 24  2  0  0  0
 12 13  1  0  0  0
 12 15  1  0  0  0
 13 14  2  0  0  0
 13 25  1  0  0  0
 15 16  4  0  0  0
 15 20  4  0  0  0
 16 17  4  0  0  0
 17 18  4  0  0  0
 17 26  1  0  0  0
 18 19  4  0  0  0
 19 20  4  0  0  0
 20 30  1  0  0  0
 26 27  2  0  0  0
 26 28  1  0  0  0
 28 29  1  0  0  0
  3 31  1  0  0  0
  5 32  1  0  0  0
  6 33  1  0  0  0
  7 34  1  0  0  0
  7 35  1  0  0  0
 14 36  1  0  0  0
 16 37  1  0  0  0
 18 38  1  0  0  0
 19 39  1  0  0  0
 25 40  1  0  0  0
 25 41  1  0  0  0
 25 42  1  0  0  0
 28 43  1  0  0  0
 29 44  1  0  0  0
 29 45  1  0  0  0
 29 46  1  0  0  0
 30 47  1  0  0  0
 30 48  1  0  0  0
 30 49  1  0  0  0
M  END
$$$$
