1juf_ligand
  -I-interpret- 

147149  0  0  0  0  0  0  0  0999 V2000
   33.4650    7.3440   -3.2500 N   0  3  0  0  0
   33.3600    8.7370   -3.7800 C   0  0  0  0  0
   31.9140    8.9970   -4.2080 C   0  0  0  0  0
   31.3730    8.3000   -5.0800 O   0  0  0  0  0
   34.3270    8.9180   -4.9490 C   0  0  0  0  0
   34.3640   10.2670   -5.3800 O   0  0  0  0  0
   31.3060    9.9960   -3.5720 N   0  0  0  0  0
   29.9060   10.3530   -3.7800 C   0  0  0  0  0
   29.6070   11.0700   -5.0770 C   0  0  0  0  0
   30.4570   11.7320   -5.6320 O   0  0  0  0  0
   29.3980   11.2090   -2.6100 C   0  0  0  0  0
   30.1850   12.3820   -2.4440 O   0  0  0  0  0
   28.3750   10.9070   -5.5450 N   0  0  0  0  0
   27.9130   11.5280   -6.7760 C   0  0  0  0  0
   27.3040   12.8490   -6.3720 C   0  0  0  0  0
   26.8420   13.0110   -5.2390 O   0  0  0  0  0
   26.8190   10.6520   -7.4750 C   0  0  0  0  0
   25.6040   10.5210   -6.5610 C   0  0  0  0  0
   26.4290   11.2470   -8.8190 C   0  0  0  0  0
   27.2990   13.8040   -7.2870 N   0  0  0  0  0
   26.7040   15.1000   -6.9930 C   0  0  0  0  0
   25.5450   15.3860   -7.9580 C   0  0  0  0  0
   25.4910   14.8300   -9.0700 O   0  0  0  0  0
   27.7250   16.2330   -7.1480 C   0  0  0  0  0
   28.1140   16.3730   -8.6060 C   0  0  0  0  0
   28.9800   15.9490   -6.2960 C   0  0  0  0  0
   28.8970   17.6230   -8.8800 C   0  0  0  0  0
   24.6150   16.2240   -7.5220 N   0  0  0  0  0
   23.5120   16.6020   -8.3890 C   0  0  0  0  0
   23.9160   17.8690   -9.1210 C   0  0  0  0  0
   24.7030   18.6740   -8.6110 O   0  0  0  0  0
   23.4070   18.0350  -10.3360 N   0  0  0  0  0
   23.6880   19.2260  -11.1260 C   0  0  0  0  0
   22.3150   19.8560  -11.3490 C   0  0  0  0  0
   21.9080   20.7260  -10.5940 O   0  0  0  0  0
   24.3430   18.8460  -12.4600 C   0  0  0  0  0
   24.6240   20.1010  -13.2740 C   0  0  0  0  0
   25.6320   18.0830  -12.1990 C   0  0  0  0  0
   21.5700   19.3760  -12.3440 N   0  0  0  0  0
   20.2170   19.8970  -12.5900 C   0  0  0  0  0
   19.3320   19.5210  -11.4020 C   0  0  0  0  0
   19.4300   18.4110  -10.8670 O   0  0  0  0  0
   19.6480   19.2950  -13.8840 C   0  0  0  0  0
   20.6200   19.6350  -14.9990 C   0  0  0  0  0
   20.6610   20.7700  -15.7010 C   0  0  0  0  0
   21.6650   18.7940  -15.4440 C   0  0  0  0  0
   21.7840   20.6760  -16.5740 N   0  0  0  0  0
   22.3720   19.5150  -16.3950 C   0  0  0  0  0
   22.0880   17.5000  -15.1120 C   0  0  0  0  0
   23.5270   19.0310  -17.0160 C   0  0  0  0  0
   23.2400   17.0110  -15.7610 C   0  0  0  0  0
   23.9280   17.7450  -16.6650 C   0  0  0  0  0
   18.4530   20.4320  -10.9920 N   0  0  0  0  0
   17.5910   20.1620   -9.8440 C   0  0  0  0  0
   16.3600   19.3740  -10.2490 C   0  0  0  0  0
   16.0540   19.2640  -11.4390 O   0  0  0  0  0
   17.1300   21.4730   -9.2010 C   0  0  0  0  0
   18.2600   22.4110   -8.8780 C   0  0  0  0  0
   18.4760   23.5630   -9.6350 C   0  0  0  0  0
   19.1230   22.1450   -7.7990 C   0  0  0  0  0
   19.5280   24.4430   -9.3190 C   0  0  0  0  0
   20.1610   22.9970   -7.4850 C   0  0  0  0  0
   20.3600   24.1450   -8.2360 C   0  0  0  0  0
   21.3610   25.0190   -7.8740 O   0  0  0  0  0
   15.6660   18.8090   -9.2630 N   0  0  0  0  0
   14.4280   18.0940   -9.5590 C   0  0  0  0  0
   13.4160   19.1260  -10.0810 C   0  0  0  0  0
   13.6490   20.3310   -9.8050 O   0  0  0  0  0
   13.8460   17.4770   -8.2990 C   0  0  0  0  0
   14.6880   16.3990   -7.6270 C   0  0  0  0  0
   13.9690   15.9650   -6.3440 C   0  0  0  0  0
   14.8850   15.2600   -8.5820 C   0  0  0  0  0
   12.4020   18.7070  -10.7050 O   0  0  0  0  0
   32.8177    7.2285   -2.4702 H   0  0  0  0  0
   33.2302    6.6816   -3.9893 H   0  0  0  0  0
   34.4185    7.1742   -2.9300 H   0  0  0  0  0
   33.6305    9.4574   -3.0080 H   0  0  0  0  0
   33.9894    8.2971   -5.7788 H   0  0  0  0  0
   35.3260    8.6301   -4.6216 H   0  0  0  0  0
   34.9780   10.3508   -6.1132 H   0  0  0  0  0
   31.8483   10.5420   -2.9025 H   0  0  0  0  0
   29.3834    9.3981   -3.8361 H   0  0  0  0  0
   29.4611   10.6181   -1.6963 H   0  0  0  0  0
   28.3713   11.5084   -2.8208 H   0  0  0  0  0
   29.8430   12.8938   -1.7073 H   0  0  0  0  0
   27.7258   10.3219   -5.0191 H   0  0  0  0  0
   28.7380   11.6452   -7.4786 H   0  0  0  0  0
   27.2260    9.6580   -7.6606 H   0  0  0  0  0
   25.9037   10.0478   -5.6259 H   0  0  0  0  0
   25.1977   11.5112   -6.3547 H   0  0  0  0  0
   24.8458    9.9107   -7.0518 H   0  0  0  0  0
   26.0331   12.2514   -8.6691 H   0  0  0  0  0
   27.3073   11.2936   -9.4629 H   0  0  0  0  0
   25.6681   10.6210   -9.2850 H   0  0  0  0  0
   27.7138   13.6318   -8.2028 H   0  0  0  0  0
   26.3505   15.0610   -5.9626 H   0  0  0  0  0
   27.2730   17.1627   -6.8023 H   0  0  0  0  0
   27.1972   16.4173   -9.1938 H   0  0  0  0  0
   28.7417   15.5212   -8.8678 H   0  0  0  0  0
   28.6950   15.8691   -5.2470 H   0  0  0  0  0
   29.4352   15.0139   -6.6224 H   0  0  0  0  0
   29.6932   16.7641   -6.4190 H   0  0  0  0  0
   28.2977   18.4923   -8.6092 H   0  0  0  0  0
   29.8130   17.6132   -8.2893 H   0  0  0  0  0
   29.1471   17.6685   -9.9399 H   0  0  0  0  0
   24.6738   16.6037   -6.5771 H   0  0  0  0  0
   22.6093   16.7734   -7.8026 H   0  0  0  0  0
   23.2972   15.8044   -9.1002 H   0  0  0  0  0
   22.8042   17.3104  -10.7259 H   0  0  0  0  0
   24.3815   19.9068  -10.6324 H   0  0  0  0  0
   23.6654   18.2075  -13.0269 H   0  0  0  0  0
   23.6875   20.6238  -13.4682 H   0  0  0  0  0
   25.2960   20.7522  -12.7150 H   0  0  0  0  0
   25.0891   19.8226  -14.2197 H   0  0  0  0  0
   26.3147   18.7108  -11.6264 H   0  0  0  0  0
   25.4089   17.1777  -11.6345 H   0  0  0  0  0
   26.0932   17.8155  -13.1497 H   0  0  0  0  0
   21.9425   18.6385  -12.9421 H   0  0  0  0  0
   20.2490   20.9808  -12.7018 H   0  0  0  0  0
   18.6601   19.7036  -14.0967 H   0  0  0  0  0
   19.5342   18.2152  -13.7886 H   0  0  0  0  0
   19.9684   21.6080  -15.6217 H   0  0  0  0  0
   21.5486   16.8964  -14.3821 H   0  0  0  0  0
   24.0843   19.6290  -17.7371 H   0  0  0  0  0
   23.5887   16.0054  -15.5258 H   0  0  0  0  0
   24.8175   17.3195  -17.1297 H   0  0  0  0  0
   18.3807   21.3237  -11.4820 H   0  0  0  0  0
   18.1768   19.5775   -9.1345 H   0  0  0  0  0
   16.6339   21.2219   -8.2635 H   0  0  0  0  0
   16.4788   21.9774   -9.9149 H   0  0  0  0  0
   17.8234   23.7837  -10.4797 H   0  0  0  0  0
   18.9681   21.2479   -7.1995 H   0  0  0  0  0
   19.6916   25.3440   -9.9103 H   0  0  0  0  0
   20.8225   22.7685   -6.6493 H   0  0  0  0  0
   21.8346   24.6657   -7.1173 H   0  0  0  0  0
   15.9992   18.8757   -8.3013 H   0  0  0  0  0
   14.6305   17.3047  -10.2830 H   0  0  0  0  0
   12.9157   16.9942   -8.5982 H   0  0  0  0  0
   13.7565   18.2880   -7.5762 H   0  0  0  0  0
   15.6767   16.7715   -7.3591 H   0  0  0  0  0
   13.8593   16.8241   -5.6822 H   0  0  0  0  0
   12.9845   15.5710   -6.5963 H   0  0  0  0  0
   14.5539   15.1925   -5.8448 H   0  0  0  0  0
   13.9147   14.8475   -8.8586 H   0  0  0  0  0
   15.3960   15.6204   -9.4748 H   0  0  0  0  0
   15.4870   14.4870   -8.1043 H   0  0  0  0  0
   12.4524   17.7522  -10.7907 H   0  0  0  0  0
  1  2  1  0  0  0
  2  3  1  0  0  0
  2  5  1  0  0  0
  3  4  2  0  0  0
  3  7  1  0  0  0
  5  6  1  0  0  0
  7  8  1  0  0  0
  8  9  1  0  0  0
  8 11  1  0  0  0
  9 10  2  0  0  0
  9 13  1  0  0  0
 11 12  1  0  0  0
 13 14  1  0  0  0
 14 15  1  0  0  0
 14 17  1  0  0  0
 15 16  2  0  0  0
 15 20  1  0  0  0
 17 18  1  0  0  0
 17 19  1  0  0  0
 20 21  1  0  0  0
 21 22  1  0  0  0
 21 24  1  0  0  0
 22 23  2  0  0  0
 22 28  1  0  0  0
 24 25  1  0  0  0
 24 26  1  0  0  0
 25 27  1  0  0  0
 28 29  1  0  0  0
 29 30  1  0  0  0
 30 31  2  0  0  0
 30 32  1  0  0  0
 32 33  1  0  0  0
 33 34  1  0  0  0
 33 36  1  0  0  0
 34 35  2  0  0  0
 34 39  1  0  0  0
 36 37  1  0  0  0
 36 38  1  0  0  0
 39 40  1  0  0  0
 40 41  1  0  0  0
 40 43  1  0  0  0
 41 42  2  0  0  0
 41 53  1  0  0  0
 43 44  1  0  0  0
 44 45  4  0  0  0
 44 46  4  0  0  0
 45 47  4  0  0  0
 46 48  4  0  0  0
 46 49  4  0  0  0
 47 48  4  0  0  0
 48 50  4  0  0  0
 49 51  4  0  0  0
 50 52  4  0  0  0
 51 52  4  0  0  0
 53 54  1  0  0  0
 54 55  1  0  0  0
 54 57  1  0  0  0
 55 56  2  0  0  0
 55 65  1  0  0  0
 57 58  1  0  0  0
 58 59  4  0  0  0
 58 60  4  0  0  0
 59 61  4  0  0  0
 60 62  4  0  0  0
 61 63  4  0  0  0
 62 63  4  0  0  0
 63 64  1  0  0  0
 65 66  1  0  0  0
 66 67  1  0  0  0
 66 69  1  0  0  0
 67 68  2  0  0  0
 67 73  1  0  0  0
 69 70  1  0  0  0
 70 71  1  0  0  0
 70 72  1  0  0  0
  1 74  1  0  0  0
  1 75  1  0  0  0
  1 76  1  0  0  0
  2 77  1  0  0  0
  5 78  1  0  0  0
  5 79  1  0  0  0
  6 80  1  0  0  0
  7 81  1  0  0  0
  8 82  1  0  0  0
 11 83  1  0  0  0
 11 84  1  0  0  0
 12 85  1  0  0  0
 13 86  1  0  0  0
 14 87  1  0  0  0
 17 88  1  0  0  0
 18 89  1  0  0  0
 18 90  1  0  0  0
 18 91  1  0  0  0
 19 92  1  0  0  0
 19 93  1  0  0  0
 19 94  1  0  0  0
 20 95  1  0  0  0
 21 96  1  0  0  0
 24 97  1  0  0  0
 25 98  1  0  0  0
 25 99  1  0  0  0
 26100  1  0  0  0
 26101  1  0  0  0
 26102  1  0  0  0
 27103  1  0  0  0
 27104  1  0  0  0
 27105  1  0  0  0
 28106  1  0  0  0
 29107  1  0  0  0
 29108  1  0  0  0
 32109  1  0  0  0
 33110  1  0  0  0
 36111  1  0  0  0
 37112  1  0  0  0
 37113  1  0  0  0
 37114  1  0  0  0
 38115  1  0  0  0
 38116  1  0  0  0
 38117  1  0  0  0
 39118  1  0  0  0
 40119  1  0  0  0
 43120  1  0  0  0
 43121  1  0  0  0
 45122  1  0  0  0
 49123  1  0  0  0
 50124  1  0  0  0
 51125  1  0  0  0
 52126  1  0  0  0
 53127  1  0  0  0
 54128  1  0  0  0
 57129  1  0  0  0
 57130  1  0  0  0
 59131  1  0  0  0
 60132  1  0  0  0
 61133  1  0  0  0
 62134  1  0  0  0
 64135  1  0  0  0
 65136  1  0  0  0
 66137  1  0  0  0
 69138  1  0  0  0
 69139  1  0  0  0
 70140  1  0  0  0
 71141  1  0  0  0
 71142  1  0  0  0
 71143  1  0  0  0
 72144  1  0  0  0
 72145  1  0  0  0
 72146  1  0  0  0
 73147  1  0  0  0
M  END
$$$$
