### 
### Created by X-TOOL on Mon Sep 10 21:12:49 2018
### 

@<TRIPOS>MOLECULE
1juf_ligand
  147   149     1     0     0
SMALL
GAST_HUCK


@<TRIPOS>ATOM
      1 N          33.4650    7.3440   -3.2500 N.4       1 SER         0.2396
      2 CA         33.3600    8.7370   -3.7800 C.3       1 SER         0.0885
      3 C          31.9140    8.9970   -4.2080 C.2       1 SER         0.2290
      4 O          31.3730    8.3000   -5.0800 O.2       1 SER        -0.3906
      5 CB         34.3270    8.9180   -4.9490 C.3       1 SER         0.1041
      6 OG         34.3640   10.2670   -5.3800 O.3       1 SER        -0.3870
      7 N          31.3060    9.9960   -3.5720 N.am      1 SER        -0.2588
      8 CA         29.9060   10.3530   -3.7800 C.3       1 SER         0.1540
      9 C          29.6070   11.0700   -5.0770 C.2       1 SER         0.2062
     10 O          30.4570   11.7320   -5.6320 O.2       1 SER        -0.3943
     11 CB         29.3980   11.2090   -2.6100 C.3       1 SER         0.0843
     12 OG         30.1850   12.3820   -2.4440 O.3       1 SER        -0.3903
     13 N          28.3750   10.9070   -5.5450 N.am      1 VAL        -0.2634
     14 CA         27.9130   11.5280   -6.7760 C.3       1 VAL         0.1333
     15 C          27.3040   12.8490   -6.3720 C.2       1 VAL         0.2042
     16 O          26.8420   13.0110   -5.2390 O.2       1 VAL        -0.3944
     17 CB         26.8190   10.6520   -7.4750 C.3       1 VAL        -0.0063
     18 CG1        25.6040   10.5210   -6.5610 C.3       1 VAL        -0.0584
     19 CG2        26.4290   11.2470   -8.8190 C.3       1 VAL        -0.0584
     20 N          27.2990   13.8040   -7.2870 N.am      1 ILE        -0.2635
     21 CA         26.7040   15.1000   -6.9930 C.3       1 ILE         0.1335
     22 C          25.5450   15.3860   -7.9580 C.2       1 ILE         0.2040
     23 O          25.4910   14.8300   -9.0700 O.2       1 ILE        -0.3944
     24 CB         27.7250   16.2330   -7.1480 C.3       1 ILE        -0.0037
     25 CG1        28.1140   16.3730   -8.6060 C.3       1 ILE        -0.0491
     26 CG2        28.9800   15.9490   -6.2960 C.3       1 ILE        -0.0582
     27 CD1        28.8970   17.6230   -8.8800 C.3       1 ILE        -0.0648
     28 N          24.6150   16.2240   -7.5220 N.am      1 GLY        -0.2664
     29 CA         23.5120   16.6020   -8.3890 C.3       1 GLY         0.1201
     30 C          23.9160   17.8690   -9.1210 C.2       1 GLY         0.2008
     31 O          24.7030   18.6740   -8.6110 O.2       1 GLY        -0.3947
     32 N          23.4070   18.0350  -10.3360 N.am      1 VAL        -0.2637
     33 CA         23.6880   19.2260  -11.1260 C.3       1 VAL         0.1332
     34 C          22.3150   19.8560  -11.3490 C.2       1 VAL         0.2042
     35 O          21.9080   20.7260  -10.5940 O.2       1 VAL        -0.3944
     36 CB         24.3430   18.8460  -12.4600 C.3       1 VAL        -0.0063
     37 CG1        24.6240   20.1010  -13.2740 C.3       1 VAL        -0.0584
     38 CG2        25.6320   18.0830  -12.1990 C.3       1 VAL        -0.0584
     39 N          21.5700   19.3760  -12.3440 N.am      1 TRP        -0.2627
     40 CA         20.2170   19.8970  -12.5900 C.3       1 TRP         0.1352
     41 C          19.3320   19.5210  -11.4020 C.2       1 TRP         0.2053
     42 O          19.4300   18.4110  -10.8670 O.2       1 TRP        -0.3942
     43 CB         19.6480   19.2950  -13.8840 C.3       1 TRP         0.0042
     44 CG         20.6200   19.6350  -14.9990 C.2       1 TRP        -0.0418
     45 CD1        20.6610   20.7700  -15.7010 C.2       1 TRP         0.0167
     46 CD2        21.6650   18.7940  -15.4440 C.ar      1 TRP        -0.0214
     47 NE1        21.7840   20.6760  -16.5740 N.pl3     1 TRP        -0.2890
     48 CE2        22.3720   19.5150  -16.3950 C.ar      1 TRP         0.0603
     49 CE3        22.0880   17.5000  -15.1120 C.ar      1 TRP        -0.0747
     50 CZ2        23.5270   19.0310  -17.0160 C.ar      1 TRP        -0.0443
     51 CZ3        23.2400   17.0110  -15.7610 C.ar      1 TRP        -0.0792
     52 CH2        23.9280   17.7450  -16.6650 C.ar      1 TRP        -0.0768
     53 N          18.4530   20.4320  -10.9920 N.am      1 TYR        -0.2620
     54 CA         17.5910   20.1620   -9.8440 C.3       1 TYR         0.1390
     55 C          16.3600   19.3740  -10.2490 C.2       1 TYR         0.2052
     56 O          16.0540   19.2640  -11.4390 O.2       1 TYR        -0.3943
     57 CB         17.1300   21.4730   -9.2010 C.3       1 TYR         0.0163
     58 CG         18.2600   22.4110   -8.8780 C.ar      1 TYR        -0.0493
     59 CD1        18.4760   23.5630   -9.6350 C.ar      1 TYR        -0.0685
     60 CD2        19.1230   22.1450   -7.7990 C.ar      1 TYR        -0.0685
     61 CE1        19.5280   24.4430   -9.3190 C.ar      1 TYR        -0.0398
     62 CE2        20.1610   22.9970   -7.4850 C.ar      1 TYR        -0.0398
     63 CZ         20.3600   24.1450   -8.2360 C.ar      1 TYR         0.0805
     64 OH         21.3610   25.0190   -7.8740 O.3       1 TYR        -0.3376
     65 N          15.6660   18.8090   -9.2630 N.am      1 LEU        -0.2693
     66 CA         14.4280   18.0940   -9.5590 C.3       1 LEU         0.0946
     67 C          13.4160   19.1260  -10.0810 C.2       1 LEU         0.0601
     68 O          13.6490   20.3310   -9.8050 O.co2     1 LEU        -0.5666
     69 CB         13.8460   17.4770   -8.2990 C.3       1 LEU        -0.0156
     70 CG         14.6880   16.3990   -7.6270 C.3       1 LEU        -0.0431
     71 CD1        13.9690   15.9650   -6.3440 C.3       1 LEU        -0.0625
     72 CD2        14.8850   15.2600   -8.5820 C.3       1 LEU        -0.0625
     73 OXT        12.4020   18.7070  -10.7050 O.co2     1 LEU        -0.5666
     74 H1         34.4150    7.1636   -2.9653 H         1 SER         0.2016
     75 H2         33.1999    6.6898   -3.9696 H         1 SER         0.2016
     76 H3         32.8511    7.2388   -2.4575 H         1 SER         0.2016
     77 H4         33.6296    9.4481   -2.9853 H         1 SER         0.1122
     78 H5         34.0009    8.2830   -5.7859 H         1 SER         0.0640
     79 H6         35.3355    8.6155   -4.6304 H         1 SER         0.0640
     80 H7         33.4960   10.5326   -5.6604 H         1 SER         0.2099
     81 H8         31.8376   10.5313   -2.9156 H         1 SER         0.1885
     82 H9         29.3348    9.4130   -3.7904 H         1 SER         0.0823
     83 H10        29.4430   10.6143   -1.6857 H         1 SER         0.0606
     84 H11        28.3563   11.5021   -2.8071 H         1 SER         0.0606
     85 H12        31.0856   12.1356   -2.2688 H         1 SER         0.2097
     86 H13        27.7385   10.3333   -5.0294 H         1 VAL         0.1883
     87 H14        28.7570   11.6837   -7.4640 H         1 VAL         0.0802
     88 H15        27.2338    9.6483   -7.6497 H         1 VAL         0.0343
     89 H16        24.8381    9.9053   -7.0552 H         1 VAL         0.0234
     90 H17        25.1929   11.5197   -6.3521 H         1 VAL         0.0234
     91 H18        25.9051   10.0436   -5.6169 H         1 VAL         0.0234
     92 H19        27.3218   11.3299   -9.4562 H         1 VAL         0.0234
     93 H20        25.9941   12.2456   -8.6656 H         1 VAL         0.0234
     94 H21        25.6891   10.5959   -9.3075 H         1 VAL         0.0234
     95 H22        27.7057   13.6352   -8.1848 H         1 ILE         0.1883
     96 H23        26.3273   15.0895   -5.9596 H         1 ILE         0.0803
     97 H24        27.2684   17.1737   -6.8065 H         1 ILE         0.0345
     98 H25        27.1977   16.3916   -9.2143 H         1 ILE         0.0267
     99 H26        28.7262   15.5049   -8.8916 H         1 ILE         0.0267
    100 H27        28.6908   15.8485   -5.2395 H         1 ILE         0.0235
    101 H28        29.6922   16.7804   -6.4037 H         1 ILE         0.0235
    102 H29        29.4515   15.0157   -6.6374 H         1 ILE         0.0235
    103 H30        29.1501   17.6701   -9.9495 H         1 ILE         0.0230
    104 H31        29.8218   17.6144   -8.2844 H         1 ILE         0.0230
    105 H32        28.2933   18.5011   -8.6071 H         1 ILE         0.0230
    106 H33        24.6726   16.5963   -6.5957 H         1 GLY         0.1881
    107 H34        22.6095   16.7877   -7.7882 H         1 GLY         0.0763
    108 H35        23.3117   15.7984   -9.1130 H         1 GLY         0.0763
    109 H36        22.8160   17.3246  -10.7182 H         1 VAL         0.1883
    110 H37        24.3477   19.9136  -10.5765 H         1 VAL         0.0802
    111 H38        23.6553   18.2009  -13.0264 H         1 VAL         0.0343
    112 H39        25.0934   19.8213  -14.2287 H         1 VAL         0.0234
    113 H40        25.3021   20.7591  -12.7110 H         1 VAL         0.0234
    114 H41        23.6796   20.6296  -13.4707 H         1 VAL         0.0234
    115 H42        25.4110   17.1803  -11.6105 H         1 VAL         0.0234
    116 H43        26.3303   18.7232  -11.6400 H         1 VAL         0.0234
    117 H44        26.0872   17.7934  -13.1576 H         1 VAL         0.0234
    118 H45        21.9352   18.6530  -12.9304 H         1 TRP         0.1884
    119 H46        20.2564   20.9920  -12.6872 H         1 TRP         0.0815
    120 H47        18.6602   19.7284  -14.0994 H         1 TRP         0.0397
    121 H48        19.5556   18.2035  -13.7837 H         1 TRP         0.0397
    122 H49        19.9691   21.6072  -15.6218 H         1 TRP         0.0795
    123 H50        22.0861   21.4023  -17.2389 H         1 TRP         0.2216
    124 H51        21.5515   16.8997  -14.3861 H         1 TRP         0.0540
    125 H52        24.0812   19.6257  -17.7331 H         1 TRP         0.0541
    126 H53        23.5868   16.0109  -15.5271 H         1 TRP         0.0510
    127 H54        24.8126   17.3219  -17.1271 H         1 TRP         0.0530
    128 H55        18.3821   21.3062  -11.4724 H         1 TYR         0.1885
    129 H56        18.1625   19.5792   -9.1066 H         1 TYR         0.0821
    130 H57        16.5972   21.2353   -8.2685 H         1 TYR         0.0453
    131 H58        16.4444   21.9798   -9.8961 H         1 TYR         0.0453
    132 H59        17.8270   23.7825  -10.4750 H         1 TYR         0.0530
    133 H60        18.9690   21.2529   -7.2028 H         1 TYR         0.0530
    134 H61        19.6907   25.3390   -9.9070 H         1 TYR         0.0525
    135 H62        20.8189   22.7698   -6.6539 H         1 TYR         0.0525
    136 H63        22.1975   24.5695   -7.9013 H         1 TYR         0.2458
    137 H64        15.9927   18.8744   -8.3201 H         1 LEU         0.1875
    138 H65        14.6125   17.3131  -10.3114 H         1 LEU         0.0726
    139 H66        12.8758   17.0300   -8.5614 H         1 LEU         0.0308
    140 H67        13.6919   18.2858   -7.5695 H         1 LEU         0.0308
    141 H68        15.6725   16.8121   -7.3624 H         1 LEU         0.0297
    142 H69        14.5584   15.1854   -5.8392 H         1 LEU         0.0232
    143 H70        12.9753   15.5671   -6.5972 H         1 LEU         0.0232
    144 H71        13.8577   16.8311   -5.6751 H         1 LEU         0.0232
    145 H72        15.4029   15.6219   -9.4825 H         1 LEU         0.0232
    146 H73        13.9063   14.8445   -8.8640 H         1 LEU         0.0232
    147 H74        15.4904   14.4781   -8.1003 H         1 LEU         0.0232
@<TRIPOS>BOND
     1    1    2 1  
     2    2    3 1  
     3    2    5 1  
     4    3    4 2  
     5    3    7 am 
     6    5    6 1  
     7    7    8 1  
     8    8    9 1  
     9    8   11 1  
    10    9   10 2  
    11    9   13 am 
    12   11   12 1  
    13   13   14 1  
    14   14   15 1  
    15   14   17 1  
    16   15   16 2  
    17   15   20 am 
    18   17   18 1  
    19   17   19 1  
    20   20   21 1  
    21   21   22 1  
    22   21   24 1  
    23   22   23 2  
    24   22   28 am 
    25   24   25 1  
    26   24   26 1  
    27   25   27 1  
    28   28   29 1  
    29   29   30 1  
    30   30   31 2  
    31   30   32 am 
    32   32   33 1  
    33   33   34 1  
    34   33   36 1  
    35   34   35 2  
    36   34   39 am 
    37   36   37 1  
    38   36   38 1  
    39   39   40 1  
    40   40   41 1  
    41   40   43 1  
    42   41   42 2  
    43   41   53 am 
    44   43   44 1  
    45   44   45 2  
    46   44   46 1  
    47   45   47 1  
    48   46   48 ar 
    49   46   49 ar 
    50   47   48 1  
    51   48   50 ar 
    52   49   51 ar 
    53   50   52 ar 
    54   51   52 ar 
    55   53   54 1  
    56   54   55 1  
    57   54   57 1  
    58   55   56 2  
    59   55   65 am 
    60   57   58 1  
    61   58   59 ar 
    62   58   60 ar 
    63   59   61 ar 
    64   60   62 ar 
    65   61   63 ar 
    66   62   63 ar 
    67   63   64 1  
    68   65   66 1  
    69   66   67 1  
    70   66   69 1  
    71   67   68 ar 
    72   67   73 ar 
    73   69   70 1  
    74   70   71 1  
    75   70   72 1  
    76    1   74 1  
    77    1   75 1  
    78    1   76 1  
    79    2   77 1  
    80    5   78 1  
    81    5   79 1  
    82    6   80 1  
    83    7   81 1  
    84    8   82 1  
    85   11   83 1  
    86   11   84 1  
    87   12   85 1  
    88   13   86 1  
    89   14   87 1  
    90   17   88 1  
    91   18   89 1  
    92   18   90 1  
    93   18   91 1  
    94   19   92 1  
    95   19   93 1  
    96   19   94 1  
    97   20   95 1  
    98   21   96 1  
    99   24   97 1  
   100   25   98 1  
   101   25   99 1  
   102   26  100 1  
   103   26  101 1  
   104   26  102 1  
   105   27  103 1  
   106   27  104 1  
   107   27  105 1  
   108   28  106 1  
   109   29  107 1  
   110   29  108 1  
   111   32  109 1  
   112   33  110 1  
   113   36  111 1  
   114   37  112 1  
   115   37  113 1  
   116   37  114 1  
   117   38  115 1  
   118   38  116 1  
   119   38  117 1  
   120   39  118 1  
   121   40  119 1  
   122   43  120 1  
   123   43  121 1  
   124   45  122 1  
   125   47  123 1  
   126   49  124 1  
   127   50  125 1  
   128   51  126 1  
   129   52  127 1  
   130   53  128 1  
   131   54  129 1  
   132   57  130 1  
   133   57  131 1  
   134   59  132 1  
   135   60  133 1  
   136   61  134 1  
   137   62  135 1  
   138   64  136 1  
   139   65  137 1  
   140   66  138 1  
   141   69  139 1  
   142   69  140 1  
   143   70  141 1  
   144   71  142 1  
   145   71  143 1  
   146   71  144 1  
   147   72  145 1  
   148   72  146 1  
   149   72  147 1  
@<TRIPOS>SUBSTRUCTURE
     1 SER         1

