4u5n_ligand
  -I-interpret- 

 93 95  0  0  0  0  0  0  0  0999 V2000
    2.7450   37.3560    9.1040 N   0  3  0  0  0
    2.4160   36.5020    7.9500 C   0  0  0  0  0
    3.2500   28.7560   10.5440 C   0  0  0  0  0
   -4.3020   24.8580    7.5590 C   0  0  0  0  0
   -3.5610   25.2300    6.4490 C   0  0  0  0  0
   -3.7180   24.8120    8.8130 C   0  0  0  0  0
   -0.0890   30.2440   12.9030 C   0  0  0  0  0
   -1.3170   29.8460   12.4050 C   0  0  0  0  0
   -2.2290   25.5580    6.6050 C   0  0  0  0  0
   -2.3780   25.1400    8.9650 C   0  0  0  0  0
    0.3940   31.4950   12.5460 C   0  0  0  0  0
    0.0410   35.5050    9.7990 C   0  0  0  0  0
    1.6340   35.5170   11.6120 C   0  0  0  0  0
   -0.4330   34.2610   10.1840 C   0  0  0  0  0
    1.1580   34.2730   12.0110 C   0  0  0  0  0
   -1.5970   31.8190   11.2560 C   0  0  0  0  0
    2.4720   32.5810    7.6780 C   0  0  0  0  0
    2.8920   35.0610    8.1830 C   0  0  0  0  0
    3.8100   34.8230    8.8970 O   0  0  0  0  0
    2.1810   25.9120    5.0830 N   0  0  0  0  0
    0.3170   24.6800    5.5970 O   0  0  0  0  0
    0.1700   32.1170    7.5620 O   0  0  0  0  0
    0.6010   28.3520    9.2680 O   0  0  0  0  0
    4.5980   30.3870    9.5500 O   0  0  0  0  0
    2.9080   37.0300    6.6050 C   0  0  0  0  0
    1.6150   37.4980   10.0490 C   0  0  0  0  0
   -0.1370   25.8630    8.0300 C   0  0  0  0  0
    0.9390   25.6690    5.8090 C   0  0  0  0  0
    1.2440   31.6620    7.7740 C   0  0  0  0  0
    1.7610   28.0740    8.5300 C   0  0  0  0  0
    1.0750   36.1330   10.5000 C   0  0  0  0  0
   -1.6240   25.5100    7.8600 C   0  0  0  0  0
    0.1300   33.6620   11.3000 C   0  0  0  0  0
   -0.3800   32.2940   11.7220 C   0  0  0  0  0
    3.1770   29.8530    9.7310 C   0  0  0  0  0
    0.4260   26.6700    6.8500 C   0  0  0  0  0
    2.4520   29.4320    8.4330 C   0  0  0  0  0
   -2.0320   30.6280   11.6160 N   0  0  0  0  0
    2.1460   33.9910    7.5280 N   0  0  0  0  0
    1.2920   30.2520    8.1330 N   0  0  0  0  0
    1.4910   27.6430    7.1520 N   0  3  0  0  0
    2.1380   38.2920    6.2260 C   0  0  0  0  0
    1.2830   38.0950    4.9860 C   0  0  0  0  0
    0.8350   39.4140    4.3540 C   0  0  0  0  0
   -0.3790   39.2030    3.5800 N   0  3  0  0  0
    2.9769   38.2844    8.7509 H   0  0  0  0  0
    3.5198   36.9211    9.6050 H   0  0  0  0  0
    1.3283   36.5183    7.8812 H   0  0  0  0  0
    3.8843   28.0018   10.0783 H   0  0  0  0  0
    3.6738   29.0456   11.5056 H   0  0  0  0  0
    2.2499   28.3493   10.6940 H   0  0  0  0  0
   -5.3545   24.5992    7.4437 H   0  0  0  0  0
   -4.0247   25.2634    5.4631 H   0  0  0  0  0
   -4.3097   24.5185    9.6801 H   0  0  0  0  0
    0.4852   29.5907   13.5599 H   0  0  0  0  0
   -1.7043   28.8623   12.6704 H   0  0  0  0  0
   -1.6432   25.8582    5.7362 H   0  0  0  0  0
   -1.9176   25.1070    9.9525 H   0  0  0  0  0
    1.3625   31.8413   12.9068 H   0  0  0  0  0
   -0.3998   36.0023    8.9350 H   0  0  0  0  0
    2.4370   36.0033   12.1659 H   0  0  0  0  0
   -1.2272   33.7669    9.6243 H   0  0  0  0  0
    1.5899   33.7769   12.8801 H   0  0  0  0  0
   -2.1980   32.4351   10.5872 H   0  0  0  0  0
    3.0307   32.2823    6.7910 H   0  0  0  0  0
    3.0285   32.4752    8.6093 H   0  0  0  0  0
    2.5116   25.2337    4.3967 H   0  0  0  0  0
    2.7187   26.7601    5.2618 H   0  0  0  0  0
    0.0942   27.5446    9.3816 H   0  0  0  0  0
    4.9625   30.6205   10.4069 H   0  0  0  0  0
    2.7478   36.2693    5.8410 H   0  0  0  0  0
    3.9695   37.2664    6.6793 H   0  0  0  0  0
    0.8116   38.0350    9.5447 H   0  0  0  0  0
    1.9694   38.0344   10.9292 H   0  0  0  0  0
    0.4216   24.9290    8.0906 H   0  0  0  0  0
   -0.0410   26.4747    8.9270 H   0  0  0  0  0
    2.3239   27.2732    9.0095 H   0  0  0  0  0
    2.5940   30.6763   10.1439 H   0  0  0  0  0
   -0.3996   27.2892    6.4991 H   0  0  0  0  0
    3.2649   29.4863    7.7089 H   0  0  0  0  0
    1.3559   34.2447    6.9349 H   0  0  0  0  0
    0.3906   29.7769    8.1800 H   0  0  0  0  0
    2.3472   27.1644    6.8723 H   0  0  0  0  0
    1.1844   28.4957    6.6838 H   0  0  0  0  0
    2.8618   39.0796    6.0161 H   0  0  0  0  0
    1.4778   38.5471    7.0550 H   0  0  0  0  0
    0.3882   37.5479    5.2828 H   0  0  0  0  0
    1.8835   37.5608    4.2497 H   0  0  0  0  0
    1.6217   39.7839    3.6964 H   0  0  0  0  0
    0.6384   40.1421    5.1410 H   0  0  0  0  0
   -0.6719   40.0860    3.1617 H   0  0  0  0  0
   -0.1973   38.5205    2.8441 H   0  0  0  0  0
   -1.1158   38.8551    4.1936 H   0  0  0  0  0
  2  1  1  0  0  0
  1 26  1  0  0  0
 18  2  1  0  0  0
  2 25  1  0  0  0
 35  3  1  0  0  0
  5  4  4  0  0  0
  6  4  4  0  0  0
  9  5  4  0  0  0
 10  6  4  0  0  0
  7  8  4  0  0  0
 11  7  4  0  0  0
 38  8  4  0  0  0
 32  9  4  0  0  0
 32 10  4  0  0  0
 34 11  4  0  0  0
 12 14  4  0  0  0
 31 12  4  0  0  0
 13 15  4  0  0  0
 31 13  4  0  0  0
 14 33  4  0  0  0
 15 33  4  0  0  0
 34 16  4  0  0  0
 16 38  4  0  0  0
 29 17  1  0  0  0
 17 39  1  0  0  0
 18 19  2  0  0  0
 39 18  1  0  0  0
 28 20  1  0  0  0
 28 21  2  0  0  0
 29 22  2  0  0  0
 30 23  1  0  0  0
 35 24  1  0  0  0
 25 42  1  0  0  0
 26 31  1  0  0  0
 27 32  1  0  0  0
 36 27  1  0  0  0
 36 28  1  0  0  0
 40 29  1  0  0  0
 37 30  1  0  0  0
 30 41  1  0  0  0
 33 34  1  0  0  0
 37 35  1  0  0  0
 41 36  1  0  0  0
 37 40  1  0  0  0
 42 43  1  0  0  0
 43 44  1  0  0  0
 44 45  1  0  0  0
  1 46  1  0  0  0
  1 47  1  0  0  0
  2 48  1  0  0  0
  3 49  1  0  0  0
  3 50  1  0  0  0
  3 51  1  0  0  0
  4 52  1  0  0  0
  5 53  1  0  0  0
  6 54  1  0  0  0
  7 55  1  0  0  0
  8 56  1  0  0  0
  9 57  1  0  0  0
 10 58  1  0  0  0
 11 59  1  0  0  0
 12 60  1  0  0  0
 13 61  1  0  0  0
 14 62  1  0  0  0
 15 63  1  0  0  0
 16 64  1  0  0  0
 17 65  1  0  0  0
 17 66  1  0  0  0
 20 67  1  0  0  0
 20 68  1  0  0  0
 23 69  1  0  0  0
 24 70  1  0  0  0
 25 71  1  0  0  0
 25 72  1  0  0  0
 26 73  1  0  0  0
 26 74  1  0  0  0
 27 75  1  0  0  0
 27 76  1  0  0  0
 30 77  1  0  0  0
 35 78  1  0  0  0
 36 79  1  0  0  0
 37 80  1  0  0  0
 39 81  1  0  0  0
 40 82  1  0  0  0
 41 83  1  0  0  0
 41 84  1  0  0  0
 42 85  1  0  0  0
 42 86  1  0  0  0
 43 87  1  0  0  0
 43 88  1  0  0  0
 44 89  1  0  0  0
 44 90  1  0  0  0
 45 91  1  0  0  0
 45 92  1  0  0  0
 45 93  1  0  0  0
M  END
$$$$
