3i28_ligand
  -I-interpret- 

 52 54  0  0  0  0  0  0  0  0999 V2000
   76.5500   -8.5710   72.6420 C   0  0  0  0  0
   76.6930   -7.8800   71.4490 C   0  0  0  0  0
   76.0050   -8.3230   70.3220 C   0  0  0  0  0
   75.1870   -9.4530   70.3820 C   0  0  0  0  0
   75.7320   -9.6900   72.7060 C   0  0  0  0  0
   73.9330   -9.7370   66.7590 C   0  0  0  0  0
   74.9540   -8.8750   64.7200 C   0  0  0  0  0
   75.0330   -7.8340   63.6640 C   0  0  0  0  0
   75.1940   -5.8980   61.6940 C   0  0  0  0  0
   76.1900   -6.8620   61.8210 C   0  0  0  0  0
   76.1140   -7.8180   62.7930 C   0  0  0  0  0
   75.7920  -12.0230   68.7710 C   0  0  0  0  0
   74.7470  -14.1770   68.7210 C   0  0  0  0  0
   74.8200  -15.5240   68.5920 F   0  0  0  0  0
   75.8900  -13.3950   68.6360 C   0  0  0  0  0
   73.5130  -13.5840   68.9290 C   0  0  0  0  0
   73.4130  -12.2210   69.0740 C   0  0  0  0  0
   74.5550  -11.4390   68.9890 C   0  0  0  0  0
   74.4000   -9.9500   69.1710 C   0  0  0  0  0
   75.0480  -10.1260   71.5820 C   0  0  0  0  0
   77.4080   -8.0520   74.0940 S   0  0  0  0  0
   76.5430   -8.3950   75.1650 O   0  0  0  0  0
   77.7600   -6.6840   73.8950 O   0  0  0  0  0
   78.8760   -9.1170   74.0300 C   0  0  0  0  0
   74.7890   -9.1980   67.9040 C   0  0  0  0  0
   74.0290   -8.7360   65.6970 N   0  0  0  0  0
   75.7140   -9.8260   64.7080 O   0  0  0  0  0
   75.3380   -4.9110   60.6680 C   0  0  0  0  0
   75.4190   -4.1130   59.8640 N   0  0  0  0  0
   74.0990   -5.8850   62.5700 C   0  0  0  0  0
   74.0230   -6.8640   63.5540 C   0  0  0  0  0
   77.3356   -7.0013   71.3936 H   0  0  0  0  0
   76.1063   -7.7810   69.3817 H   0  0  0  0  0
   75.6265  -10.2300   73.6469 H   0  0  0  0  0
   72.9000   -9.8920   67.0704 H   0  0  0  0  0
   74.2838  -10.7125   66.4222 H   0  0  0  0  0
   77.0392   -6.8537   61.1377 H   0  0  0  0  0
   76.9005   -8.5671   62.8849 H   0  0  0  0  0
   76.6856  -11.4022   68.7061 H   0  0  0  0  0
   76.8604  -13.8604   68.4636 H   0  0  0  0  0
   72.6162  -14.2016   68.9780 H   0  0  0  0  0
   72.4429  -11.7580   69.2545 H   0  0  0  0  0
   73.3465   -9.7468   69.3631 H   0  0  0  0  0
   74.3999  -11.0002   71.6441 H   0  0  0  0  0
   79.4343   -9.0203   74.9611 H   0  0  0  0  0
   78.5659  -10.1534   73.8968 H   0  0  0  0  0
   79.5064   -8.8147   73.1938 H   0  0  0  0  0
   74.6199   -8.1288   68.0318 H   0  0  0  0  0
   75.8470   -9.3448   67.6868 H   0  0  0  0  0
   73.3990   -7.9338   65.6931 H   0  0  0  0  0
   73.3241   -5.1236   62.4812 H   0  0  0  0  0
   73.1776   -6.8790   64.2419 H   0  0  0  0  0
  2  1  4  0  0  0
  5  1  4  0  0  0
  1 21  1  0  0  0
  3  2  4  0  0  0
  4  3  4  0  0  0
 19  4  1  0  0  0
  4 20  4  0  0  0
 20  5  4  0  0  0
 25  6  1  0  0  0
  6 26  1  0  0  0
  7  8  1  0  0  0
 26  7  1  0  0  0
  7 27  2  0  0  0
  8 11  4  0  0  0
  8 31  4  0  0  0
 10  9  4  0  0  0
  9 28  1  0  0  0
  9 30  4  0  0  0
 11 10  4  0  0  0
 12 15  4  0  0  0
 18 12  4  0  0  0
 13 14  1  0  0  0
 15 13  4  0  0  0
 16 13  4  0  0  0
 17 16  4  0  0  0
 18 17  4  0  0  0
 19 18  1  0  0  0
 19 25  1  0  0  0
 21 22  2  0  0  0
 21 23  2  0  0  0
 21 24  1  0  0  0
 28 29  3  0  0  0
 30 31  4  0  0  0
  2 32  1  0  0  0
  3 33  1  0  0  0
  5 34  1  0  0  0
  6 35  1  0  0  0
  6 36  1  0  0  0
 10 37  1  0  0  0
 11 38  1  0  0  0
 12 39  1  0  0  0
 15 40  1  0  0  0
 16 41  1  0  0  0
 17 42  1  0  0  0
 19 43  1  0  0  0
 20 44  1  0  0  0
 24 45  1  0  0  0
 24 46  1  0  0  0
 24 47  1  0  0  0
 25 48  1  0  0  0
 25 49  1  0  0  0
 26 50  1  0  0  0
 30 51  1  0  0  0
 31 52  1  0  0  0
M  END
$$$$
