4ra5_ligand
  -I-interpret- 

 58 62  0  0  0  0  0  0  0  0999 V2000
  -29.5390    5.5930  -25.8710 C   0  0  0  0  0
  -29.5360    4.3180  -26.6150 N   0  3  0  0  0
  -28.8880    3.2180  -25.8720 C   0  0  0  0  0
  -28.0950    2.8380  -27.1380 C   0  0  0  0  0
  -28.7400    1.7450  -28.0040 C   0  0  0  0  0
  -28.4380    4.2650  -27.6070 C   0  0  0  0  0
  -26.6890    2.5170  -26.8550 N   0  0  0  0  0
  -26.3710    1.5110  -25.8340 C   0  0  0  0  0
  -25.6530    3.0610  -27.6180 C   0  0  0  0  0
  -25.2670    2.2590  -28.6740 C   0  0  0  0  0
  -24.2610    2.6510  -29.5510 C   0  0  0  0  0
  -23.8190    1.8390  -30.6140 N   0  0  0  0  0
  -24.0020    0.3650  -30.5590 C   0  0  0  0  0
  -23.1860   -0.2460  -29.4050 C   0  0  0  0  0
  -23.6120   -0.3040  -31.8490 C   0  0  0  0  0
  -23.8650   -1.4810  -31.9960 O   0  0  0  0  0
  -22.9950    0.4050  -32.8180 N   0  0  0  0  0
  -22.7000    1.7690  -32.6760 N   0  0  0  0  0
  -23.1040    2.4410  -31.6530 C   0  0  0  0  0
  -22.7590    3.9060  -31.5500 C   0  0  0  0  0
  -22.6270    4.2720  -30.1800 O   0  0  0  0  0
  -23.6130    3.8770  -29.3380 C   0  0  0  0  0
  -23.9860    4.6900  -28.2770 C   0  0  0  0  0
  -25.0060    4.3030  -27.4030 C   0  0  0  0  0
  -25.3310    5.2390  -26.2940 C   0  0  0  0  0
  -25.6300    6.5830  -26.5560 C   0  0  0  0  0
  -25.9150    7.4450  -25.5070 C   0  0  0  0  0
  -25.8930    6.9860  -24.1930 C   0  0  0  0  0
  -25.5860    5.6610  -23.9270 C   0  0  0  0  0
  -25.3030    4.7880  -24.9670 C   0  0  0  0  0
  -28.5925    5.7059  -25.3423 H   0  0  0  0  0
  -29.6671    6.4197  -26.5698 H   0  0  0  0  0
  -30.3596    5.5916  -25.1535 H   0  0  0  0  0
  -30.5144    4.2489  -26.8949 H   0  0  0  0  0
  -29.4952    2.4703  -25.3618 H   0  0  0  0  0
  -28.3634    3.4227  -24.9387 H   0  0  0  0  0
  -28.2002    1.6651  -28.9476 H   0  0  0  0  0
  -28.6956    0.7921  -27.4767 H   0  0  0  0  0
  -29.7802    2.0051  -28.1999 H   0  0  0  0  0
  -27.6699    5.0384  -27.6163 H   0  0  0  0  0
  -28.6404    4.4621  -28.6597 H   0  0  0  0  0
  -25.8998    0.6501  -26.3083 H   0  0  0  0  0
  -25.6890    1.9421  -25.1010 H   0  0  0  0  0
  -27.2889    1.1966  -25.3373 H   0  0  0  0  0
  -25.7609    1.2989  -28.8233 H   0  0  0  0  0
  -25.0645    0.1900  -30.3902 H   0  0  0  0  0
  -22.1284   -0.0285  -29.5545 H   0  0  0  0  0
  -23.5168    0.1848  -28.4599 H   0  0  0  0  0
  -23.3372   -1.3253  -29.3865 H   0  0  0  0  0
  -22.7342   -0.0675  -33.6835 H   0  0  0  0  0
  -23.5522    4.4974  -32.0075 H   0  0  0  0  0
  -21.8176    4.0930  -32.0666 H   0  0  0  0  0
  -23.4775    5.6418  -28.1233 H   0  0  0  0  0
  -25.6386    6.9503  -27.5822 H   0  0  0  0  0
  -26.1575    8.4875  -25.7129 H   0  0  0  0  0
  -26.1172    7.6687  -23.3734 H   0  0  0  0  0
  -25.5669    5.3038  -22.8974 H   0  0  0  0  0
  -25.0580    3.7479  -24.7518 H   0  0  0  0  0
  1  2  1  0  0  0
  2  3  1  0  0  0
  2  6  1  0  0  0
  3  4  1  0  0  0
  4  5  1  0  0  0
  4  6  1  0  0  0
  4  7  1  0  0  0
  7  8  1  0  0  0
  7  9  1  0  0  0
  9 10  4  0  0  0
  9 24  4  0  0  0
 10 11  4  0  0  0
 11 12  1  0  0  0
 11 22  4  0  0  0
 12 13  1  0  0  0
 12 19  1  0  0  0
 13 14  1  0  0  0
 13 15  1  0  0  0
 15 16  2  0  0  0
 15 17  1  0  0  0
 17 18  1  0  0  0
 18 19  2  0  0  0
 19 20  1  0  0  0
 20 21  1  0  0  0
 21 22  1  0  0  0
 22 23  4  0  0  0
 23 24  4  0  0  0
 24 25  1  0  0  0
 25 26  4  0  0  0
 25 30  4  0  0  0
 26 27  4  0  0  0
 27 28  4  0  0  0
 28 29  4  0  0  0
 29 30  4  0  0  0
  1 31  1  0  0  0
  1 32  1  0  0  0
  1 33  1  0  0  0
  2 34  1  0  0  0
  3 35  1  0  0  0
  3 36  1  0  0  0
  5 37  1  0  0  0
  5 38  1  0  0  0
  5 39  1  0  0  0
  6 40  1  0  0  0
  6 41  1  0  0  0
  8 42  1  0  0  0
  8 43  1  0  0  0
  8 44  1  0  0  0
 10 45  1  0  0  0
 13 46  1  0  0  0
 14 47  1  0  0  0
 14 48  1  0  0  0
 14 49  1  0  0  0
 17 50  1  0  0  0
 20 51  1  0  0  0
 20 52  1  0  0  0
 23 53  1  0  0  0
 26 54  1  0  0  0
 27 55  1  0  0  0
 28 56  1  0  0  0
 29 57  1  0  0  0
 30 58  1  0  0  0
M  END
$$$$
