2fr3_ligand
  -I-interpret- 

 50 50  0  0  0  0  0  0  0  0999 V2000
   21.5640   29.4580   16.7490 C   0  0  0  0  0
   20.5180   30.1380   15.8720 C   0  0  0  0  0
   19.7450   29.1290   15.0400 C   0  0  0  0  0
   18.9460   28.2290   15.9450 C   0  0  0  0  0
   19.8690   27.5270   16.8880 C   0  0  0  0  0
   21.0480   28.1590   17.3370 C   0  0  0  0  0
   21.9240   27.7130   18.4160 C   0  0  0  0  0
   21.4360   26.8960   19.4500 C   0  0  0  0  0
   22.3530   26.3180   20.4330 C   0  0  0  0  0
   21.7540   25.4640   21.3930 C   0  0  0  0  0
   22.5990   24.7150   22.3030 C   0  0  0  0  0
   21.9250   23.7730   23.1530 C   0  0  0  0  0
   22.6630   23.1250   24.2050 C   0  0  0  0  0
   21.9360   22.1310   24.8380 C   0  0  0  0  0
   22.4130   21.5580   26.0880 C   0  0  0  0  0
   21.8820   30.4240   17.9050 C   0  0  0  0  0
   22.8690   29.2420   16.0140 C   0  0  0  0  0
   19.5130   26.1410   17.2460 C   0  0  0  0  0
   23.8160   26.5220   20.4220 C   0  0  0  0  0
   24.0380   23.5550   24.5640 C   0  0  0  0  0
   23.5170   20.9800   26.1320 O   0  0  0  0  0
   21.6950   21.5950   27.0800 O   0  0  0  0  0
   21.0285   30.8235   15.1955 H   0  0  0  0  0
   19.8145   30.6625   16.5186 H   0  0  0  0  0
   20.4450   28.5279   14.4597 H   0  0  0  0  0
   19.0687   29.6577   14.3682 H   0  0  0  0  0
   18.4097   27.4934   15.3455 H   0  0  0  0  0
   18.2308   28.8250   16.5119 H   0  0  0  0  0
   22.9705   28.0177   18.4198 H   0  0  0  0  0
   20.3677   26.6915   19.5202 H   0  0  0  0  0
   20.6693   25.3713   21.4466 H   0  0  0  0  0
   23.6790   24.8579   22.3398 H   0  0  0  0  0
   20.8682   23.5519   23.0030 H   0  0  0  0  0
   21.0035   21.7765   24.3988 H   0  0  0  0  0
   22.6315   29.9747   18.5565 H   0  0  0  0  0
   22.2655   31.3602   17.4994 H   0  0  0  0  0
   20.9733   30.6185   18.4746 H   0  0  0  0  0
   23.2360   30.1976   15.6394 H   0  0  0  0  0
   23.6021   28.8121   16.6965 H   0  0  0  0  0
   22.7056   28.5613   15.1785 H   0  0  0  0  0
   20.2903   25.4643   16.8911 H   0  0  0  0  0
   19.4243   26.0583   18.3292 H   0  0  0  0  0
   18.5622   25.8798   16.7813 H   0  0  0  0  0
   24.1299   26.9439   21.3767 H   0  0  0  0  0
   24.3138   25.5651   20.2649 H   0  0  0  0  0
   24.0800   27.2069   19.6162 H   0  0  0  0  0
   24.0476   23.9158   25.5925 H   0  0  0  0  0
   24.7186   22.7090   24.4681 H   0  0  0  0  0
   24.3538   24.3548   23.8941 H   0  0  0  0  0
   23.9457   21.0456   25.2755 H   0  0  0  0  0
  1  2  1  0  0  0
  1  6  1  0  0  0
  1 16  1  0  0  0
  1 17  1  0  0  0
  2  3  1  0  0  0
  3  4  1  0  0  0
  4  5  1  0  0  0
  5  6  2  0  0  0
  5 18  1  0  0  0
  6  7  1  0  0  0
  7  8  2  0  0  0
  8  9  1  0  0  0
  9 10  2  0  0  0
  9 19  1  0  0  0
 10 11  1  0  0  0
 11 12  2  0  0  0
 12 13  1  0  0  0
 13 14  2  0  0  0
 13 20  1  0  0  0
 14 15  1  0  0  0
 15 21  1  0  0  0
 15 22  2  0  0  0
  2 23  1  0  0  0
  2 24  1  0  0  0
  3 25  1  0  0  0
  3 26  1  0  0  0
  4 27  1  0  0  0
  4 28  1  0  0  0
  7 29  1  0  0  0
  8 30  1  0  0  0
 10 31  1  0  0  0
 11 32  1  0  0  0
 12 33  1  0  0  0
 14 34  1  0  0  0
 16 35  1  0  0  0
 16 36  1  0  0  0
 16 37  1  0  0  0
 17 38  1  0  0  0
 17 39  1  0  0  0
 17 40  1  0  0  0
 18 41  1  0  0  0
 18 42  1  0  0  0
 18 43  1  0  0  0
 19 44  1  0  0  0
 19 45  1  0  0  0
 19 46  1  0  0  0
 20 47  1  0  0  0
 20 48  1  0  0  0
 20 49  1  0  0  0
 21 50  1  0  0  0
M  END
$$$$
