1c5n_ligand
  -I-interpret- 

 20 21  0  0  0  0  0  0  0  0999 V2000
   10.8040  -12.0750   24.5260 C   0  0  0  0  0
   11.6090  -12.2200   23.4780 C   0  0  0  0  0
   10.1720  -13.1280   24.9620 N   0  0  0  0  0
   10.7500  -10.8640   25.0200 N   0  0  0  0  0
   12.4820  -10.7990   22.8680 S   0  0  0  0  0
   13.2420  -11.7990   21.6210 C   0  0  0  0  0
   12.8000  -13.1180   21.7330 C   0  0  0  0  0
   11.9090  -13.3260   22.7520 C   0  0  0  0  0
   14.1420  -11.3940   20.6610 C   0  0  0  0  0
   14.6270  -12.3380   19.7670 C   0  0  0  0  0
   14.2030  -13.6740   19.8480 C   0  0  0  0  0
   13.2780  -14.0870   20.8320 C   0  0  0  0  0
   12.5840  -16.0470   20.9790 I   0  0  0  0  0
   10.3027  -14.0285   24.5011 H   0  0  0  0  0
   10.1654  -10.6705   25.8332 H   0  0  0  0  0
   11.2925  -10.1139   24.5918 H   0  0  0  0  0
   11.4750  -14.3033   22.9631 H   0  0  0  0  0
   14.4664  -10.3549   20.6045 H   0  0  0  0  0
   15.3404  -12.0409   18.9983 H   0  0  0  0  0
   14.5942  -14.4044   19.1398 H   0  0  0  0  0
 12 13  1  0  0  0
  1  4  1  0  0  0
  1  3  2  0  0  0
  2  1  1  0  0  0
  2  8  4  0  0  0
  5  2  4  0  0  0
  6  5  4  0  0  0
  6  9  4  0  0  0
  7  6  4  0  0  0
 12  7  4  0  0  0
  7  8  4  0  0  0
 12 11  4  0  0  0
 11 10  4  0  0  0
 10  9  4  0  0  0
  3 14  1  0  0  0
  4 15  1  0  0  0
  4 16  1  0  0  0
  8 17  1  0  0  0
  9 18  1  0  0  0
 10 19  1  0  0  0
 11 20  1  0  0  0
M  END
$$$$
