5n24_ligand
  -I-interpret- 

 28 29  0  0  0  0  0  0  0  0999 V2000
   -3.6430    4.2240   14.5250 C   0  0  0  0  0
   -5.0350    4.3270   14.7590 C   0  0  0  0  0
   -5.7260    3.2730   15.4020 C   0  0  0  0  0
   -1.8690    5.0370   12.9230 C   0  0  0  0  0
   -1.1050    6.0760   12.3900 C   0  0  0  0  0
   -1.2650    7.3750   12.8730 C   0  0  0  0  0
   -2.1880    7.6480   13.8800 C   0  0  0  0  0
   -2.9580    6.6080   14.4020 C   0  0  0  0  0
   -5.0620    2.1040   15.8170 C   0  0  0  0  0
   -3.6800    2.0300   15.5800 C   0  0  0  0  0
   -2.9860    3.0670   14.9470 C   0  0  0  0  0
   -5.8300    0.8840   16.6020 S   0  0  0  0  0
   -7.2730    1.0100   16.4250 O   0  0  0  0  0
   -5.3670    1.0010   17.9600 O   0  0  0  0  0
   -5.3550   -0.5300   16.0220 N   0  0  0  0  0
   -2.8240    5.3080   13.8960 C   0  0  0  0  0
    0.0970    9.1690   11.9080 N   0  0  0  0  0
   -0.5490    8.3250   12.3740 C   0  0  0  0  0
   -5.5754    5.2195   14.4435 H   0  0  0  0  0
   -6.7971    3.3688   15.5799 H   0  0  0  0  0
   -1.7171    4.0146   12.5769 H   0  0  0  0  0
   -0.3845    5.8730   11.5977 H   0  0  0  0  0
   -2.3075    8.6639   14.2564 H   0  0  0  0  0
   -3.6662    6.8074   15.2062 H   0  0  0  0  0
   -3.1337    1.1418   15.8973 H   0  0  0  0  0
   -1.9132    2.9696   14.7804 H   0  0  0  0  0
   -6.0372   -1.1689   15.6135 H   0  0  0  0  0
   -4.3701   -0.7923   16.0608 H   0  0  0  0  0
  1  2  4  0  0  0
  1 11  4  0  0  0
 16  1  1  0  0  0
  2  3  4  0  0  0
  3  9  4  0  0  0
  4  5  4  0  0  0
  4 16  4  0  0  0
  5  6  4  0  0  0
  6  7  4  0  0  0
  6 18  1  0  0  0
  7  8  4  0  0  0
  8 16  4  0  0  0
  9 10  4  0  0  0
  9 12  1  0  0  0
 10 11  4  0  0  0
 12 13  2  0  0  0
 12 14  2  0  0  0
 12 15  1  0  0  0
 18 17  3  0  0  0
  2 19  1  0  0  0
  3 20  1  0  0  0
  4 21  1  0  0  0
  5 22  1  0  0  0
  7 23  1  0  0  0
  8 24  1  0  0  0
 10 25  1  0  0  0
 11 26  1  0  0  0
 15 27  1  0  0  0
 15 28  1  0  0  0
M  END
$$$$
