4er4_ligand
  -I-interpret- 

157162  0  0  0  0  0  0  0  0999 V2000
   31.0930   -4.0620  -12.7540 N   0  3  0  0  0
   31.1420   -3.6930  -11.3120 C   0  0  0  0  0
   32.4370   -4.2110  -10.6390 C   0  0  0  0  0
   33.0610   -5.1820  -11.1680 O   0  0  0  0  0
   29.9780   -4.4660  -10.7110 C   0  0  0  0  0
   29.3640   -5.3310  -11.8150 C   0  0  0  0  0
   30.1540   -5.1510  -13.0740 C   0  0  0  0  0
   32.8030   -3.5760   -9.4940 N   0  0  0  0  0
   33.9610   -4.0220   -8.6280 C   0  0  0  0  0
   33.4680   -4.3670   -7.2060 C   0  0  0  0  0
   33.6640   -3.5930   -6.2570 O   0  0  0  0  0
   35.0140   -2.8970   -8.4780 C   0  0  0  0  0
   36.4340   -3.4030   -8.0990 C   0  0  0  0  0
   36.6720   -4.2070   -6.9760 N   0  0  0  0  0
   37.6560   -3.2030   -8.6710 C   0  0  0  0  0
   37.9720   -4.4600   -6.9110 C   0  0  0  0  0
   38.5700   -3.8690   -7.9110 N   0  0  0  0  0
   32.8080   -5.5250   -6.9990 N   0  0  0  0  0
   32.3400   -5.9150   -5.6770 C   0  0  0  0  0
   33.5010   -6.0440   -4.7270 C   0  0  0  0  0
   34.6820   -5.9100   -5.1750 O   0  0  0  0  0
   31.6400   -7.2350   -5.9110 C   0  0  0  0  0
   31.7440   -7.5620   -7.3990 C   0  0  0  0  0
   32.5030   -6.4690   -8.0800 C   0  0  0  0  0
   33.1500   -6.3010   -3.4730 N   0  0  0  0  0
   34.1260   -6.4160   -2.3740 C   0  0  0  0  0
   33.9080   -7.6980   -1.6090 C   0  0  0  0  0
   32.8780   -8.3370   -1.4690 O   0  0  0  0  0
   34.0560   -5.1720   -1.4840 C   0  0  0  0  0
   34.9490   -4.0290   -1.9860 C   0  0  0  0  0
   36.3140   -4.0180   -1.6750 C   0  0  0  0  0
   34.4010   -2.9980   -2.7610 C   0  0  0  0  0
   37.1310   -2.9770   -2.1360 C   0  0  0  0  0
   35.2180   -1.9570   -3.2220 C   0  0  0  0  0
   36.5820   -1.9470   -2.9090 C   0  0  0  0  0
   34.9890   -8.3050   -1.1220 N   0  0  0  0  0
   34.7230   -9.5530   -0.3760 C   0  0  0  0  0
   35.3500   -9.4380    0.9920 C   0  0  0  0  0
   35.9020  -10.4290    1.4910 O   0  0  0  0  0
   35.2870  -10.7320   -1.1750 C   0  0  0  0  0
   34.9560  -10.6610   -2.6680 C   0  0  0  0  0
   35.8270  -10.2070   -3.6550 N   0  0  0  0  0
   33.7630  -11.0220   -3.3140 C   0  0  0  0  0
   35.2010  -10.2900   -4.8950 C   0  0  0  0  0
   33.9100  -10.7850   -4.6650 N   0  0  0  0  0
   35.3250   -8.2710    1.6410 N   0  0  0  0  0
   36.2070   -8.0630    2.8100 C   0  0  0  0  0
   35.5320   -8.4570    4.0830 C   0  0  0  0  0
   36.5800   -6.6220    3.0560 C   0  0  0  0  0
   37.2750   -5.9630    1.8650 C   0  0  0  0  0
   37.4100   -4.4470    2.0180 C   0  0  0  0  0
   38.6950   -6.4860    1.6380 C   0  0  0  0  0
   34.9970   -9.8470    4.0550 N   0  3  0  0  0
   35.2210  -10.7430    5.2510 C   0  0  0  0  0
   36.6780  -11.2120    5.2440 C   0  0  0  0  0
   37.3850  -11.0940    4.2320 O   0  0  0  0  0
   34.3450  -12.0090    5.1340 C   0  0  0  0  0
   34.8720  -13.0070    4.1010 C   0  0  0  0  0
   34.2460  -12.7960    6.4440 C   0  0  0  0  0
   37.1400  -11.7430    6.3540 N   0  0  0  0  0
   38.5300  -12.2280    6.4350 C   0  0  0  0  0
   38.6060  -13.6990    6.0560 C   0  0  0  0  0
   37.5970  -14.4190    6.0920 O   0  0  0  0  0
   39.1060  -12.0400    7.8300 C   0  0  0  0  0
   40.5150  -12.6260    7.9620 C   0  0  0  0  0
   38.2510  -12.6880    8.9210 C   0  0  0  0  0
   40.9850  -12.7340    9.4140 C   0  0  0  0  0
   39.8160  -14.0840    5.7110 N   0  0  0  0  0
   40.1360  -15.4480    5.2940 C   0  0  0  0  0
   40.6870  -16.2300    6.4640 C   0  0  0  0  0
   39.9730  -17.0120    7.1100 O   0  0  0  0  0
   41.1720  -15.4140    4.1490 C   0  0  0  0  0
   41.2100  -16.6960    3.2860 C   0  0  0  0  0
   42.4130  -17.2550    2.8470 N   0  0  0  0  0
   40.2260  -17.4900    2.7780 C   0  0  0  0  0
   42.1350  -18.3250    2.1210 C   0  0  0  0  0
   40.8370  -18.4790    2.0690 N   0  0  0  0  0
   41.9400  -16.0640    6.8470 N   0  0  0  0  0
   32.0253   -4.3864  -13.0111 H   0  0  0  0  0
   30.7774   -3.2363  -13.2630 H   0  0  0  0  0
   31.1043   -2.6123  -11.1747 H   0  0  0  0  0
   29.2327   -3.7764  -10.3146 H   0  0  0  0  0
   30.3263   -5.0937   -9.8907 H   0  0  0  0  0
   28.3301   -5.0302  -11.9845 H   0  0  0  0  0
   29.3856   -6.3787  -11.5149 H   0  0  0  0  0
   30.6678   -6.0646  -13.3731 H   0  0  0  0  0
   29.5205   -4.9122  -13.9283 H   0  0  0  0  0
   32.2695   -2.7566   -9.2037 H   0  0  0  0  0
   34.4021   -4.8923   -9.1139 H   0  0  0  0  0
   34.6776   -2.2461   -7.6710 H   0  0  0  0  0
   35.0959   -2.4010   -9.4452 H   0  0  0  0  0
   37.8627   -2.6196   -9.5682 H   0  0  0  0  0
   38.4623   -5.0633   -6.1470 H   0  0  0  0  0
   31.6733   -5.1839   -5.2197 H   0  0  0  0  0
   30.5943   -7.1669   -5.6110 H   0  0  0  0  0
   32.1069   -8.0211   -5.3176 H   0  0  0  0  0
   30.7462   -7.6431   -7.8302 H   0  0  0  0  0
   32.2626   -8.5113   -7.5334 H   0  0  0  0  0
   33.4020   -6.8357   -8.5753 H   0  0  0  0  0
   31.9308   -6.0066   -8.8843 H   0  0  0  0  0
   32.1602   -6.4245   -3.2600 H   0  0  0  0  0
   35.1362   -6.4643   -2.7804 H   0  0  0  0  0
   34.4024   -5.4536   -0.4896 H   0  0  0  0  0
   33.0256   -4.8165   -1.4883 H   0  0  0  0  0
   36.7417   -4.8201   -1.0736 H   0  0  0  0  0
   33.3388   -3.0058   -3.0053 H   0  0  0  0  0
   38.1935   -2.9692   -1.8928 H   0  0  0  0  0
   34.7911   -1.1551   -3.8243 H   0  0  0  0  0
   37.2172   -1.1369   -3.2672 H   0  0  0  0  0
   35.9307   -7.9359   -1.2541 H   0  0  0  0  0
   33.6542   -9.7203   -0.2430 H   0  0  0  0  0
   34.8388  -11.6437   -0.7800 H   0  0  0  0  0
   36.3722  -10.7098   -1.0755 H   0  0  0  0  0
   32.8718  -11.4217   -2.8302 H   0  0  0  0  0
   35.6318  -10.0217   -5.8596 H   0  0  0  0  0
   34.7003   -7.5263    1.3318 H   0  0  0  0  0
   37.0820   -8.6647    2.5643 H   0  0  0  0  0
   34.6903   -7.7812    4.2345 H   0  0  0  0  0
   36.2726   -8.4032    4.8809 H   0  0  0  0  0
   37.2756   -6.6013    3.8949 H   0  0  0  0  0
   35.6582   -6.0716    3.2442 H   0  0  0  0  0
   36.6288   -6.2140    1.0238 H   0  0  0  0  0
   36.4190   -4.0029    2.1120 H   0  0  0  0  0
   37.9956   -4.2238    2.9098 H   0  0  0  0  0
   37.9112   -4.0378    1.1408 H   0  0  0  0  0
   39.2987   -6.2909    2.5243 H   0  0  0  0  0
   38.6598   -7.5591    1.4498 H   0  0  0  0  0
   39.1344   -5.9793    0.7788 H   0  0  0  0  0
   35.4918  -10.3034    3.2887 H   0  0  0  0  0
   33.9847   -9.7375    3.9949 H   0  0  0  0  0
   34.9755  -10.1887    6.1569 H   0  0  0  0  0
   33.3733  -11.6119    4.8404 H   0  0  0  0  0
   34.9010  -12.5318    3.1205 H   0  0  0  0  0
   35.8763  -13.3233    4.3827 H   0  0  0  0  0
   34.2128  -13.8744    4.0664 H   0  0  0  0  0
   35.2425  -13.1113    6.7531 H   0  0  0  0  0
   33.8087  -12.1619    7.2152 H   0  0  0  0  0
   33.6166  -13.6730    6.2928 H   0  0  0  0  0
   36.5304  -11.8204    7.1681 H   0  0  0  0  0
   39.1190  -11.6384    5.7325 H   0  0  0  0  0
   39.1265  -10.9589    7.9672 H   0  0  0  0  0
   41.2016  -11.9597    7.4398 H   0  0  0  0  0
   40.4962  -13.6324    7.5437 H   0  0  0  0  0
   37.2548  -12.2458    8.9107 H   0  0  0  0  0
   38.1764  -13.7593    8.7341 H   0  0  0  0  0
   38.7149  -12.5189    9.8928 H   0  0  0  0  0
   40.9949  -11.7422    9.8661 H   0  0  0  0  0
   40.3041  -13.3803    9.9678 H   0  0  0  0  0
   41.9896  -13.1561    9.4389 H   0  0  0  0  0
   40.5686  -13.3960    5.7358 H   0  0  0  0  0
   39.2274  -15.9351    4.9400 H   0  0  0  0  0
   42.1545  -15.3081    4.6089 H   0  0  0  0  0
   40.8938  -14.5919    3.4895 H   0  0  0  0  0
   39.1525  -17.3583    2.9136 H   0  0  0  0  0
   42.8690  -18.9738    1.6431 H   0  0  0  0  0
   42.2978  -16.5727    7.6555 H   0  0  0  0  0
   42.5499  -15.4271    6.3343 H   0  0  0  0  0
  1  2  1  0  0  0
  1  7  1  0  0  0
  2  3  1  0  0  0
  2  5  1  0  0  0
  3  4  2  0  0  0
  3  8  1  0  0  0
  5  6  1  0  0  0
  6  7  1  0  0  0
  8  9  1  0  0  0
  9 10  1  0  0  0
  9 12  1  0  0  0
 10 11  2  0  0  0
 10 18  1  0  0  0
 12 13  1  0  0  0
 13 14  4  0  0  0
 13 15  4  0  0  0
 14 16  4  0  0  0
 15 17  4  0  0  0
 16 17  4  0  0  0
 18 19  1  0  0  0
 18 24  1  0  0  0
 19 20  1  0  0  0
 19 22  1  0  0  0
 20 21  2  0  0  0
 20 25  1  0  0  0
 22 23  1  0  0  0
 23 24  1  0  0  0
 25 26  1  0  0  0
 26 27  1  0  0  0
 26 29  1  0  0  0
 27 28  2  0  0  0
 27 36  1  0  0  0
 29 30  1  0  0  0
 30 31  4  0  0  0
 30 32  4  0  0  0
 31 33  4  0  0  0
 32 34  4  0  0  0
 33 35  4  0  0  0
 34 35  4  0  0  0
 36 37  1  0  0  0
 37 38  1  0  0  0
 37 40  1  0  0  0
 38 39  2  0  0  0
 38 46  1  0  0  0
 40 41  1  0  0  0
 41 42  4  0  0  0
 41 43  4  0  0  0
 42 44  4  0  0  0
 43 45  4  0  0  0
 44 45  4  0  0  0
 46 47  1  0  0  0
 47 48  1  0  0  0
 47 49  1  0  0  0
 48 53  1  0  0  0
 49 50  1  0  0  0
 50 51  1  0  0  0
 50 52  1  0  0  0
 53 54  1  0  0  0
 54 55  1  0  0  0
 54 57  1  0  0  0
 55 56  2  0  0  0
 55 60  1  0  0  0
 57 58  1  0  0  0
 57 59  1  0  0  0
 60 61  1  0  0  0
 61 62  1  0  0  0
 61 64  1  0  0  0
 62 63  2  0  0  0
 62 68  1  0  0  0
 64 65  1  0  0  0
 64 66  1  0  0  0
 65 67  1  0  0  0
 68 69  1  0  0  0
 69 70  1  0  0  0
 69 72  1  0  0  0
 70 71  2  0  0  0
 70 78  1  0  0  0
 72 73  1  0  0  0
 73 74  4  0  0  0
 73 75  4  0  0  0
 74 76  4  0  0  0
 75 77  4  0  0  0
 76 77  4  0  0  0
  1 79  1  0  0  0
  1 80  1  0  0  0
  2 81  1  0  0  0
  5 82  1  0  0  0
  5 83  1  0  0  0
  6 84  1  0  0  0
  6 85  1  0  0  0
  7 86  1  0  0  0
  7 87  1  0  0  0
  8 88  1  0  0  0
  9 89  1  0  0  0
 12 90  1  0  0  0
 12 91  1  0  0  0
 15 92  1  0  0  0
 16 93  1  0  0  0
 19 94  1  0  0  0
 22 95  1  0  0  0
 22 96  1  0  0  0
 23 97  1  0  0  0
 23 98  1  0  0  0
 24 99  1  0  0  0
 24100  1  0  0  0
 25101  1  0  0  0
 26102  1  0  0  0
 29103  1  0  0  0
 29104  1  0  0  0
 31105  1  0  0  0
 32106  1  0  0  0
 33107  1  0  0  0
 34108  1  0  0  0
 35109  1  0  0  0
 36110  1  0  0  0
 37111  1  0  0  0
 40112  1  0  0  0
 40113  1  0  0  0
 43114  1  0  0  0
 44115  1  0  0  0
 46116  1  0  0  0
 47117  1  0  0  0
 48118  1  0  0  0
 48119  1  0  0  0
 49120  1  0  0  0
 49121  1  0  0  0
 50122  1  0  0  0
 51123  1  0  0  0
 51124  1  0  0  0
 51125  1  0  0  0
 52126  1  0  0  0
 52127  1  0  0  0
 52128  1  0  0  0
 53129  1  0  0  0
 53130  1  0  0  0
 54131  1  0  0  0
 57132  1  0  0  0
 58133  1  0  0  0
 58134  1  0  0  0
 58135  1  0  0  0
 59136  1  0  0  0
 59137  1  0  0  0
 59138  1  0  0  0
 60139  1  0  0  0
 61140  1  0  0  0
 64141  1  0  0  0
 65142  1  0  0  0
 65143  1  0  0  0
 66144  1  0  0  0
 66145  1  0  0  0
 66146  1  0  0  0
 67147  1  0  0  0
 67148  1  0  0  0
 67149  1  0  0  0
 68150  1  0  0  0
 69151  1  0  0  0
 72152  1  0  0  0
 72153  1  0  0  0
 75154  1  0  0  0
 76155  1  0  0  0
 78156  1  0  0  0
 78157  1  0  0  0
M  END
$$$$
