### 
### Created by X-TOOL on Mon Sep 10 21:12:44 2018
### 

@<TRIPOS>MOLECULE
4er4_ligand
  160   165     1     0     0
SMALL
GAST_HUCK


@<TRIPOS>ATOM
      1 N          31.0930   -4.0620  -12.7540 N.4       1 PRO         0.2461
      2 CA         31.1420   -3.6930  -11.3120 C.3       1 PRO         0.0670
      3 C          32.4370   -4.2110  -10.6390 C.2       1 PRO         0.2269
      4 O          33.0610   -5.1820  -11.1680 O.2       1 PRO        -0.3907
      5 CB         29.9780   -4.4660  -10.7110 C.3       1 PRO         0.0127
      6 CG         29.3640   -5.3310  -11.8150 C.3       1 PRO        -0.0053
      7 CD         30.1540   -5.1510  -13.0740 C.3       1 PRO        -0.0313
      8 N          32.8030   -3.5760   -9.4940 N.am      1 HIS        -0.2592
      9 CA         33.9610   -4.0220   -8.6280 C.3       1 HIS         0.1424
     10 C          33.4680   -4.3670   -7.2060 C.2       1 HIS         0.2085
     11 O          33.6640   -3.5930   -6.2570 O.2       1 HIS        -0.3940
     12 CB         35.0140   -2.8970   -8.4780 C.3       1 HIS         0.0427
     13 CG         36.4340   -3.4030   -8.0990 C.2       1 HIS         0.0561
     14 ND1        36.6720   -4.2070   -6.9760 N.pl3     1 HIS        -0.2623
     15 CD2        37.6560   -3.2030   -8.6710 C.2       1 HIS        -0.0276
     16 CE1        37.9720   -4.4600   -6.9110 C.2       1 HIS         0.0875
     17 NE2        38.5700   -3.8690   -7.9110 N.2       1 HIS        -0.3437
     18 N          32.8080   -5.5250   -6.9990 N.am      1 PRO        -0.2497
     19 CA         32.3400   -5.9150   -5.6770 C.3       1 PRO         0.1338
     20 C          33.5010   -6.0440   -4.7270 C.2       1 PRO         0.2042
     21 O          34.6820   -5.9100   -5.1750 O.2       1 PRO        -0.3944
     22 CB         31.6400   -7.2350   -5.9110 C.3       1 PRO        -0.0104
     23 CG         31.7440   -7.5620   -7.3990 C.3       1 PRO        -0.0281
     24 CD         32.5030   -6.4690   -8.0800 C.3       1 PRO         0.0369
     25 N          33.1500   -6.3010   -3.4730 N.am      1 PHE        -0.2619
     26 CA         34.1260   -6.4160   -2.3740 C.3       1 PHE         0.1404
     27 C          33.9080   -7.6980   -1.6090 C.2       1 PHE         0.2061
     28 O          32.8780   -8.3370   -1.4690 O.2       1 PHE        -0.3942
     29 CB         34.0560   -5.1720   -1.4840 C.3       1 PHE         0.0214
     30 CG         34.9490   -4.0290   -1.9860 C.ar      1 PHE        -0.0386
     31 CD1        36.3140   -4.0180   -1.6750 C.ar      1 PHE        -0.0601
     32 CD2        34.4010   -2.9980   -2.7610 C.ar      1 PHE        -0.0601
     33 CE1        37.1310   -2.9770   -2.1360 C.ar      1 PHE        -0.0686
     34 CE2        35.2180   -1.9570   -3.2220 C.ar      1 PHE        -0.0686
     35 CZ         36.5820   -1.9470   -2.9090 C.ar      1 PHE        -0.0687
     36 N          34.9890   -8.3050   -1.1220 N.am      1 HIS        -0.2617
     37 CA         34.7230   -9.5530   -0.3760 C.3       1 HIS         0.1420
     38 C          35.3500   -9.4380    0.9920 C.2       1 HIS         0.2042
     39 O          35.9020  -10.4290    1.4910 O.2       1 HIS        -0.3943
     40 CB         35.2870  -10.7320   -1.1750 C.3       1 HIS         0.0427
     41 CG         34.9560  -10.6610   -2.6680 C.2       1 HIS         0.0561
     42 ND1        35.8270  -10.2070   -3.6550 N.pl3     1 HIS        -0.2623
     43 CD2        33.7630  -11.0220   -3.3140 C.2       1 HIS        -0.0276
     44 CE1        35.2010  -10.2900   -4.8950 C.2       1 HIS         0.0875
     45 NE2        33.9100  -10.7850   -4.6650 N.2       1 HIS        -0.3437
     46 N          35.3250   -8.2710    1.6410 N.am      1 LAV        -0.2767
     47 CA         36.2070   -8.0630    2.8100 C.3       1 LAV         0.0820
     48 C          35.5320   -8.4570    4.0830 C.3       1 LAV        -0.0081
     49 CB         36.5800   -6.6220    3.0560 C.3       1 LAV        -0.0226
     50 CG         37.2750   -5.9630    1.8650 C.3       1 LAV        -0.0445
     51 CD1        37.4100   -4.4470    2.0180 C.3       1 LAV        -0.0626
     52 CD2        38.6950   -6.4860    1.6380 C.3       1 LAV        -0.0626
     53 N          34.9970   -9.8470    4.0550 N.4       1 LAV         0.2479
     54 CA         35.2210  -10.7430    5.2510 C.3       1 LAV         0.0692
     55 C          36.6780  -11.2120    5.2440 C.2       1 LAV         0.2270
     56 O          37.3850  -11.0940    4.2320 O.2       1 LAV        -0.3907
     57 CB         34.3450  -12.0090    5.1340 C.3       1 LAV         0.0139
     58 CG1        34.8720  -13.0070    4.1010 C.3       1 LAV        -0.0553
     59 CG2        34.2460  -12.7960    6.4440 C.3       1 LAV        -0.0553
     60 N          37.1400  -11.7430    6.3540 N.am      1 ILE        -0.2607
     61 CA         38.5300  -12.2280    6.4350 C.3       1 ILE         0.1336
     62 C          38.6060  -13.6990    6.0560 C.2       1 ILE         0.2043
     63 O          37.5970  -14.4190    6.0920 O.2       1 ILE        -0.3944
     64 CB         39.1060  -12.0400    7.8300 C.3       1 ILE        -0.0037
     65 CG1        40.5150  -12.6260    7.9620 C.3       1 ILE        -0.0491
     66 CG2        38.2510  -12.6880    8.9210 C.3       1 ILE        -0.0582
     67 CD1        40.9850  -12.7340    9.4140 C.3       1 ILE        -0.0648
     68 N          39.8160  -14.0840    5.7110 N.am      1 HIS        -0.2619
     69 CA         40.1360  -15.4480    5.2940 C.3       1 HIS         0.1418
     70 C          40.6870  -16.2300    6.4640 C.2       1 HIS         0.2013
     71 O          39.9730  -17.0120    7.1100 O.2       1 HIS        -0.3946
     72 CB         41.1720  -15.4140    4.1490 C.3       1 HIS         0.0427
     73 CG         41.2100  -16.6960    3.2860 C.2       1 HIS         0.0561
     74 ND1        42.4130  -17.2550    2.8470 N.pl3     1 HIS        -0.2623
     75 CD2        40.2260  -17.4900    2.7780 C.2       1 HIS        -0.0276
     76 CE1        42.1350  -18.3250    2.1210 C.2       1 HIS         0.0875
     77 NE2        40.8370  -18.4790    2.0690 N.2       1 HIS        -0.3437
     78 N          41.9400  -16.0640    6.8470 N.am      1 LYS        -0.2988
     79 H1         32.0167   -4.3494  -13.0371 H         1 PRO         0.2035
     80 H2         30.8194   -3.2460  -13.2787 H         1 PRO         0.2035
     81 H3         31.0389   -2.6070  -11.1710 H         1 PRO         0.1099
     82 H4         29.2243   -3.7646  -10.3238 H         1 PRO         0.0347
     83 H5         30.3381   -5.1061   -9.8921 H         1 PRO         0.0347
     84 H6         28.3218   -5.0240  -11.9870 H         1 PRO         0.0320
     85 H7         29.3896   -6.3881  -11.5120 H         1 PRO         0.0320
     86 H8         30.6970   -6.0728  -13.3298 H         1 PRO         0.0814
     87 H9         29.4976   -4.8681  -13.9101 H         1 PRO         0.0814
     88 H10        32.2799   -2.7726   -9.2093 H         1 HIS         0.1886
     89 H11        34.4283   -4.9067   -9.0850 H         1 HIS         0.0824
     90 H12        34.6724   -2.2066   -7.6927 H         1 HIS         0.0491
     91 H13        35.0831   -2.3588   -9.4348 H         1 HIS         0.0491
     92 H14        35.9586   -4.5440   -6.3139 H         1 HIS         0.2386
     93 H15        37.8625   -2.6201   -9.5674 H         1 HIS         0.0324
     94 H16        38.4619   -5.0628   -6.1477 H         1 HIS         0.1149
     95 H17        31.6319   -5.1726   -5.2803 H         1 PRO         0.0802
     96 H18        30.5826   -7.1547   -5.6187 H         1 PRO         0.0313
     97 H19        32.1249   -8.0256   -5.3195 H         1 PRO         0.0313
     98 H20        30.7358   -7.6376   -7.8324 H         1 PRO         0.0287
     99 H21        32.2727   -8.5174   -7.5316 H         1 PRO         0.0287
    100 H22        33.4272   -6.8576   -8.5327 H         1 PRO         0.0524
    101 H23        31.8878   -5.9900   -8.8560 H         1 PRO         0.0524
    102 H24        32.1796   -6.4221   -3.2642 H         1 PHE         0.1885
    103 H25        35.1340   -6.4575   -2.8124 H         1 PHE         0.0823
    104 H26        34.3766   -5.4481   -0.4686 H         1 PHE         0.0474
    105 H27        33.0149   -4.8180   -1.4563 H         1 PHE         0.0474
    106 H28        36.7394   -4.8157   -1.0769 H         1 PHE         0.0557
    107 H29        33.3446   -3.0058   -3.0040 H         1 PHE         0.0557
    108 H30        38.1877   -2.9693   -1.8942 H         1 PHE         0.0599
    109 H31        34.7935   -1.1595   -3.8210 H         1 PHE         0.0599
    110 H32        37.2137   -1.1413   -3.2653 H         1 PHE         0.0559
    111 H33        35.9122   -7.9432   -1.2515 H         1 HIS         0.1885
    112 H34        33.6377   -9.6891   -0.2598 H         1 HIS         0.0824
    113 H35        34.8670  -11.6635   -0.7676 H         1 HIS         0.0491
    114 H36        36.3809  -10.7416   -1.0594 H         1 HIS         0.0491
    115 H37        36.7844   -9.8636   -3.4927 H         1 HIS         0.2386
    116 H38        32.8726  -11.4214   -2.8306 H         1 HIS         0.0324
    117 H39        35.6314  -10.0219   -5.8588 H         1 HIS         0.1149
    118 H40        34.7126   -7.5409    1.3379 H         1 LAV         0.1857
    119 H41        37.1178   -8.6614    2.6606 H         1 LAV         0.0609
    120 H42        34.6973   -7.7643    4.2656 H         1 LAV         0.0837
    121 H43        36.2599   -8.3786    4.9040 H         1 LAV         0.0837
    122 H44        37.2572   -6.5800    3.9218 H         1 LAV         0.0292
    123 H45        35.6627   -6.0578    3.2803 H         1 LAV         0.0292
    124 H46        36.6708   -6.1773    0.9711 H         1 LAV         0.0296
    125 H47        37.9157   -4.0328    1.1333 H         1 LAV         0.0232
    126 H48        38.0009   -4.2204    2.9177 H         1 LAV         0.0232
    127 H49        36.4105   -3.9976    2.1129 H         1 LAV         0.0232
    128 H50        38.6684   -7.5792    1.5193 H         1 LAV         0.0232
    129 H51        39.3240   -6.2263    2.5022 H         1 LAV         0.0232
    130 H52        39.1134   -6.0286    0.7293 H         1 LAV         0.0232
    131 H53        35.4116  -10.3070    3.2597 H         1 LAV         0.2036
    132 H54        34.0004   -9.7772    3.9210 H         1 LAV         0.2036
    133 H55        34.9905  -10.1998    6.1793 H         1 LAV         0.1101
    134 H56        33.3369  -11.6854    4.8357 H         1 LAV         0.0376
    135 H57        34.2075  -13.8829    4.0652 H         1 LAV         0.0236
    136 H58        35.8856  -13.3271    4.3842 H         1 LAV         0.0236
    137 H59        34.9017  -12.5287    3.1109 H         1 LAV         0.0236
    138 H60        33.8703  -12.1367    7.2403 H         1 LAV         0.0236
    139 H61        35.2411  -13.1745    6.7205 H         1 LAV         0.0236
    140 H62        33.5555  -13.6420    6.3122 H         1 LAV         0.0236
    141 H63        36.5423  -11.8189    7.1522 H         1 ILE         0.1885
    142 H64        39.1387  -11.6490    5.7249 H         1 ILE         0.0803
    143 H65        39.1562  -10.9582    8.0227 H         1 ILE         0.0345
    144 H66        41.2161  -11.9794    7.4140 H         1 ILE         0.0267
    145 H67        40.5193  -13.6318    7.5167 H         1 ILE         0.0267
    146 H68        37.2251  -12.2952    8.8645 H         1 ILE         0.0235
    147 H69        38.6784  -12.4564    9.9078 H         1 ILE         0.0235
    148 H70        38.2348  -13.7781    8.7751 H         1 ILE         0.0235
    149 H71        41.9989  -13.1599    9.4405 H         1 ILE         0.0230
    150 H72        40.2987  -13.3861    9.9741 H         1 ILE         0.0230
    151 H73        40.9955  -11.7337    9.8714 H         1 ILE         0.0230
    152 H74        40.5539  -13.4095    5.7353 H         1 HIS         0.1885
    153 H75        39.2192  -15.9383    4.9348 H         1 HIS         0.0824
    154 H76        42.1686  -15.2666    4.5906 H         1 HIS         0.0491
    155 H77        40.9323  -14.5643    3.4929 H         1 HIS         0.0491
    156 H78        43.3557  -16.8951    3.0536 H         1 HIS         0.2386
    157 H79        39.1535  -17.3584    2.9135 H         1 HIS         0.0324
    158 H80        42.8683  -18.9732    1.6436 H         1 HIS         0.1149
    159 H81        42.2991  -16.5842    7.6219 H         1 LYS         0.1815
    160 H82        42.5297  -15.4181    6.3621 H         1 LYS         0.1815
@<TRIPOS>BOND
     1    1    2 1  
     2    1    7 1  
     3    2    3 1  
     4    2    5 1  
     5    3    4 2  
     6    3    8 am 
     7    5    6 1  
     8    6    7 1  
     9    8    9 1  
    10    9   10 1  
    11    9   12 1  
    12   10   11 2  
    13   10   18 am 
    14   12   13 1  
    15   13   14 1  
    16   13   15 2  
    17   14   16 1  
    18   15   17 1  
    19   16   17 2  
    20   18   19 1  
    21   18   24 1  
    22   19   20 1  
    23   19   22 1  
    24   20   21 2  
    25   20   25 am 
    26   22   23 1  
    27   23   24 1  
    28   25   26 1  
    29   26   27 1  
    30   26   29 1  
    31   27   28 2  
    32   27   36 am 
    33   29   30 1  
    34   30   31 ar 
    35   30   32 ar 
    36   31   33 ar 
    37   32   34 ar 
    38   33   35 ar 
    39   34   35 ar 
    40   36   37 1  
    41   37   38 1  
    42   37   40 1  
    43   38   39 2  
    44   38   46 am 
    45   40   41 1  
    46   41   42 1  
    47   41   43 2  
    48   42   44 1  
    49   43   45 1  
    50   44   45 2  
    51   46   47 1  
    52   47   48 1  
    53   47   49 1  
    54   48   53 1  
    55   49   50 1  
    56   50   51 1  
    57   50   52 1  
    58   53   54 1  
    59   54   55 1  
    60   54   57 1  
    61   55   56 2  
    62   55   60 am 
    63   57   58 1  
    64   57   59 1  
    65   60   61 1  
    66   61   62 1  
    67   61   64 1  
    68   62   63 2  
    69   62   68 am 
    70   64   65 1  
    71   64   66 1  
    72   65   67 1  
    73   68   69 1  
    74   69   70 1  
    75   69   72 1  
    76   70   71 2  
    77   70   78 am 
    78   72   73 1  
    79   73   74 1  
    80   73   75 2  
    81   74   76 1  
    82   75   77 1  
    83   76   77 2  
    84    1   79 1  
    85    1   80 1  
    86    2   81 1  
    87    5   82 1  
    88    5   83 1  
    89    6   84 1  
    90    6   85 1  
    91    7   86 1  
    92    7   87 1  
    93    8   88 1  
    94    9   89 1  
    95   12   90 1  
    96   12   91 1  
    97   14   92 1  
    98   15   93 1  
    99   16   94 1  
   100   19   95 1  
   101   22   96 1  
   102   22   97 1  
   103   23   98 1  
   104   23   99 1  
   105   24  100 1  
   106   24  101 1  
   107   25  102 1  
   108   26  103 1  
   109   29  104 1  
   110   29  105 1  
   111   31  106 1  
   112   32  107 1  
   113   33  108 1  
   114   34  109 1  
   115   35  110 1  
   116   36  111 1  
   117   37  112 1  
   118   40  113 1  
   119   40  114 1  
   120   42  115 1  
   121   43  116 1  
   122   44  117 1  
   123   46  118 1  
   124   47  119 1  
   125   48  120 1  
   126   48  121 1  
   127   49  122 1  
   128   49  123 1  
   129   50  124 1  
   130   51  125 1  
   131   51  126 1  
   132   51  127 1  
   133   52  128 1  
   134   52  129 1  
   135   52  130 1  
   136   53  131 1  
   137   53  132 1  
   138   54  133 1  
   139   57  134 1  
   140   58  135 1  
   141   58  136 1  
   142   58  137 1  
   143   59  138 1  
   144   59  139 1  
   145   59  140 1  
   146   60  141 1  
   147   61  142 1  
   148   64  143 1  
   149   65  144 1  
   150   65  145 1  
   151   66  146 1  
   152   66  147 1  
   153   66  148 1  
   154   67  149 1  
   155   67  150 1  
   156   67  151 1  
   157   68  152 1  
   158   69  153 1  
   159   72  154 1  
   160   72  155 1  
   161   74  156 1  
   162   75  157 1  
   163   76  158 1  
   164   78  159 1  
   165   78  160 1  
@<TRIPOS>SUBSTRUCTURE
     1 PRO         1

