4anx_ligand
  -I-interpret- 

 66 70  0  0  0  0  0  0  0  0999 V2000
   48.4340   15.5520   32.9290 C   0  0  0  0  0
   48.3990   17.0730   32.9090 C   0  0  0  0  0
   49.0240   17.5860   31.6060 C   0  0  0  0  0
   46.9310   17.5450   33.0540 C   0  0  0  0  0
   46.4980   18.2080   34.2010 C   0  0  0  0  0
   45.1750   18.6380   34.3320 C   0  0  0  0  0
   45.9890   17.3160   32.0450 C   0  0  0  0  0
   44.6560   17.7360   32.1800 C   0  0  0  0  0
   44.2470   18.3990   33.3280 C   0  0  0  0  0
   42.9560   18.8530   33.4950 C   0  0  0  0  0
   42.7740   20.1700   33.3890 N   0  0  0  0  0
   41.5910   20.7320   33.5400 C   0  0  0  0  0
   40.4860   19.9460   33.7970 C   0  0  0  0  0
   40.6580   18.6370   33.9090 N   0  0  0  0  0
   41.8660   18.0390   33.7800 C   0  0  0  0  0
   41.9550   16.6200   33.8840 N   0  0  0  0  0
   43.0790   15.9580   34.6130 C   0  0  0  0  0
   42.7980   14.4990   34.9940 C   0  0  0  0  0
   40.8780   15.8350   33.1970 C   0  0  0  0  0
   40.6800   14.4770   33.8220 C   0  0  0  0  0
   42.0080   13.8620   33.9230 N   0  0  0  0  0
   41.9230   12.2070   34.0420 S   0  0  0  0  0
   42.8230   11.6730   35.1170 O   0  0  0  0  0
   40.5000   11.7570   34.2630 O   0  0  0  0  0
   42.5290   11.7630   32.4680 C   0  0  0  0  0
   43.9060   11.9050   32.1880 C   0  0  0  0  0
   41.6340   11.3280   31.4850 C   0  0  0  0  0
   42.1400   10.9980   30.2290 C   0  0  0  0  0
   43.5170   11.1200   29.9410 C   0  0  0  0  0
   44.4080   11.5800   30.9220 C   0  0  0  0  0
   45.7700   11.6980   30.6360 C   0  0  0  0  0
   46.4470   12.9010   30.8050 C   0  0  0  0  0
   47.7380   13.0000   30.5190 N   0  0  0  0  0
   48.4150   11.9280   30.0670 C   0  0  0  0  0
   49.7110   12.0330   29.7850 N   0  0  0  0  0
   47.7880   10.7500   29.8860 N   0  0  0  0  0
   46.5010   10.6150   30.1600 C   0  0  0  0  0
   48.0230   15.1928   33.8725 H   0  0  0  0  0
   47.8393   15.1653   32.1015 H   0  0  0  0  0
   49.4647   15.2122   32.8273 H   0  0  0  0  0
   48.9776   17.4761   33.7401 H   0  0  0  0  0
   48.4529   17.2091   30.7576 H   0  0  0  0  0
   49.0078   18.6759   31.6012 H   0  0  0  0  0
   50.0541   17.2364   31.5363 H   0  0  0  0  0
   47.2040   18.3944   35.0102 H   0  0  0  0  0
   44.8680   19.1677   35.2338 H   0  0  0  0  0
   46.2965   16.8007   31.1350 H   0  0  0  0  0
   43.9408   17.5407   31.3809 H   0  0  0  0  0
   41.4859   21.8141   33.4621 H   0  0  0  0  0
   39.4968   20.3909   33.9051 H   0  0  0  0  0
   43.2351   16.5109   35.5393 H   0  0  0  0  0
   43.9424   15.9590   33.9477 H   0  0  0  0  0
   42.2397   14.4661   35.9296 H   0  0  0  0  0
   43.7402   13.9657   35.1204 H   0  0  0  0  0
   41.1724   15.6913   32.1574 H   0  0  0  0  0
   39.9438   16.3896   33.2854 H   0  0  0  0  0
   40.0130   13.8639   33.2159 H   0  0  0  0  0
   40.2171   14.5655   34.8048 H   0  0  0  0  0
   44.5816   12.2696   32.9617 H   0  0  0  0  0
   40.5675   11.2491   31.6960 H   0  0  0  0  0
   41.4609   10.6395   29.4555 H   0  0  0  0  0
   43.8895   10.8554   28.9514 H   0  0  0  0  0
   45.9097   13.7733   31.1772 H   0  0  0  0  0
   50.1898   12.9247   29.9114 H   0  0  0  0  0
   50.2257   11.2218   29.4424 H   0  0  0  0  0
   46.0120    9.6521   30.0123 H   0  0  0  0  0
  1  2  1  0  0  0
  2  3  1  0  0  0
  2  4  1  0  0  0
  4  5  4  0  0  0
  4  7  4  0  0  0
  5  6  4  0  0  0
  6  9  4  0  0  0
  7  8  4  0  0  0
  8  9  4  0  0  0
  9 10  1  0  0  0
 10 11  4  0  0  0
 10 15  4  0  0  0
 11 12  4  0  0  0
 12 13  4  0  0  0
 13 14  4  0  0  0
 14 15  4  0  0  0
 15 16  1  0  0  0
 16 17  1  0  0  0
 16 19  1  0  0  0
 17 18  1  0  0  0
 18 21  1  0  0  0
 19 20  1  0  0  0
 20 21  1  0  0  0
 21 22  1  0  0  0
 22 23  2  0  0  0
 22 24  2  0  0  0
 22 25  1  0  0  0
 25 26  4  0  0  0
 25 27  4  0  0  0
 26 30  4  0  0  0
 27 28  4  0  0  0
 28 29  4  0  0  0
 29 30  4  0  0  0
 30 31  1  0  0  0
 31 32  4  0  0  0
 31 37  4  0  0  0
 32 33  4  0  0  0
 33 34  4  0  0  0
 34 35  1  0  0  0
 34 36  4  0  0  0
 36 37  4  0  0  0
  1 38  1  0  0  0
  1 39  1  0  0  0
  1 40  1  0  0  0
  2 41  1  0  0  0
  3 42  1  0  0  0
  3 43  1  0  0  0
  3 44  1  0  0  0
  5 45  1  0  0  0
  6 46  1  0  0  0
  7 47  1  0  0  0
  8 48  1  0  0  0
 12 49  1  0  0  0
 13 50  1  0  0  0
 17 51  1  0  0  0
 17 52  1  0  0  0
 18 53  1  0  0  0
 18 54  1  0  0  0
 19 55  1  0  0  0
 19 56  1  0  0  0
 20 57  1  0  0  0
 20 58  1  0  0  0
 26 59  1  0  0  0
 27 60  1  0  0  0
 28 61  1  0  0  0
 29 62  1  0  0  0
 32 63  1  0  0  0
 35 64  1  0  0  0
 35 65  1  0  0  0
 37 66  1  0  0  0
M  END
$$$$
