1o45_ligand
  -I-interpret- 

 79 82  0  0  0  0  0  0  0  0999 V2000
   16.6380   24.5230   15.9760 O   0  0  0  0  0
   19.2270   26.7550   19.0960 C   0  0  0  0  0
   18.4400   27.5190   18.2270 C   0  0  0  0  0
   17.2100   26.9930   17.7080 C   0  0  0  0  0
   16.8050   25.6910   18.0680 C   0  0  0  0  0
   17.5340   24.9840   19.0590 C   0  0  0  0  0
   18.7490   25.4950   19.5500 C   0  0  0  0  0
   15.6600   29.0190   17.5870 P   0  0  0  0  0
   14.4830   29.2940   16.6450 O   0  0  0  0  0
   16.5640   30.3360   17.6190 O   0  0  0  0  0
   15.2800   28.6700   18.9720 O   0  0  0  0  0
   19.6180   24.7050   20.5160 C   0  0  0  0  0
   19.5020   25.2160   21.9180 C   0  0  0  0  0
   20.3330   24.3850   22.8800 C   0  0  0  0  0
   19.6900   23.2940   23.3820 N   0  0  0  0  0
   19.9850   26.5800   21.9190 N   0  0  0  0  0
   19.3610   27.4500   22.6950 C   0  0  0  0  0
   19.8240   28.9110   22.4010 C   0  0  0  0  0
   18.5410   27.1520   23.5610 O   0  0  0  0  0
   21.5000   24.7160   23.1540 O   0  0  0  0  0
   20.3410   22.4050   24.2910 C   0  0  0  0  0
   19.2600   21.5380   24.9290 C   0  0  0  0  0
   19.7290   20.6880   26.1170 C   0  0  0  0  0
   20.8430   19.6530   26.0280 C   0  0  0  0  0
   22.0970   20.4110   25.6400 C   0  0  0  0  0
   22.2130   20.7250   24.2020 N   0  0  0  0  0
   21.3880   21.5640   23.4570 C   0  0  0  0  0
   23.1290   19.8700   23.3880 C   0  0  0  0  0
   22.4990   18.5080   23.2160 C   0  0  0  0  0
   21.4110   21.6140   22.2030 O   0  0  0  0  0
   16.4570   27.8160   16.8140 O   0  0  0  0  0
   23.0350   17.3680   23.8840 C   0  0  0  0  0
   22.4610   16.0930   23.6570 C   0  0  0  0  0
   21.3550   15.9910   22.7770 C   0  0  0  0  0
   20.7820   17.1360   22.1920 C   0  0  0  0  0
   21.3280   18.4270   22.3950 C   0  0  0  0  0
   20.7420   14.6790   22.5050 C   0  0  0  0  0
   19.3040   14.5800   22.3610 C   0  0  0  0  0
   18.6770   13.3160   22.1050 C   0  0  0  0  0
   19.4860   12.1450   22.0200 C   0  0  0  0  0
   20.8880   12.2410   22.1580 C   0  0  0  0  0
   21.5380   13.5010   22.4090 C   0  0  0  0  0
   16.0370   24.8780   17.1560 C   0  0  0  0  0
   16.0325   23.9874   15.4583 H   0  0  0  0  0
   20.1996   27.1231   19.4226 H   0  0  0  0  0
   18.7635   28.5203   17.9425 H   0  0  0  0  0
   17.1499   24.0387   19.4423 H   0  0  0  0  0
   14.8175   29.5115   15.7718 H   0  0  0  0  0
   16.8164   30.5714   16.7232 H   0  0  0  0  0
   20.6567   24.8049   20.2009 H   0  0  0  0  0
   19.2867   23.6667   20.5025 H   0  0  0  0  0
   18.4641   25.1574   22.2457 H   0  0  0  0  0
   18.7264   23.1086   23.1038 H   0  0  0  0  0
   20.7781   26.8602   21.3420 H   0  0  0  0  0
   18.9624   29.5125   22.1113 H   0  0  0  0  0
   20.2792   29.3337   23.2967 H   0  0  0  0  0
   20.5527   28.9037   21.5904 H   0  0  0  0  0
   20.8785   22.9167   25.0894 H   0  0  0  0  0
   18.9185   20.8443   24.1607 H   0  0  0  0  0
   18.4959   22.2161   25.3091 H   0  0  0  0  0
   18.8518   20.0816   26.3428 H   0  0  0  0  0
   20.1422   21.4312   26.7990 H   0  0  0  0  0
   20.6062   18.8840   25.2927 H   0  0  0  0  0
   20.9753   19.1363   26.9786 H   0  0  0  0  0
   22.9431   19.7721   25.8929 H   0  0  0  0  0
   22.0670   21.3632   26.1697 H   0  0  0  0  0
   24.0893   19.7715   23.8941 H   0  0  0  0  0
   23.2915   20.3277   22.4122 H   0  0  0  0  0
   23.8799   17.4768   24.5640 H   0  0  0  0  0
   22.8623   15.2074   24.1497 H   0  0  0  0  0
   19.8957   17.0263   21.5670 H   0  0  0  0  0
   20.8795   19.3146   21.9488 H   0  0  0  0  0
   18.6911   15.4771   22.4483 H   0  0  0  0  0
   17.5965   13.2513   21.9771 H   0  0  0  0  0
   19.0214   11.1740   21.8482 H   0  0  0  0  0
   21.4934   11.3386   22.0724 H   0  0  0  0  0
   22.6207   13.5529   22.5236 H   0  0  0  0  0
   15.8439   23.9436   17.6829 H   0  0  0  0  0
   15.1722   25.4806   16.8784 H   0  0  0  0  0
 43  1  1  0  0  0
  3  2  4  0  0  0
  2  7  4  0  0  0
  4  3  4  0  0  0
  4  5  4  0  0  0
 31  4  1  0  0  0
  5  6  4  0  0  0
  5 43  1  0  0  0
  6  7  4  0  0  0
  7 12  1  0  0  0
  8  9  1  0  0  0
  8 10  1  0  0  0
  8 11  2  0  0  0
  8 31  1  0  0  0
 12 13  1  0  0  0
 13 14  1  0  0  0
 13 16  1  0  0  0
 14 15  1  0  0  0
 14 20  2  0  0  0
 15 21  1  0  0  0
 16 17  1  0  0  0
 17 18  1  0  0  0
 17 19  2  0  0  0
 21 22  1  0  0  0
 21 27  1  0  0  0
 22 23  1  0  0  0
 23 24  1  0  0  0
 24 25  1  0  0  0
 25 26  1  0  0  0
 26 27  1  0  0  0
 26 28  1  0  0  0
 27 30  2  0  0  0
 28 29  1  0  0  0
 29 32  4  0  0  0
 29 36  4  0  0  0
 32 33  4  0  0  0
 33 34  4  0  0  0
 34 35  4  0  0  0
 34 37  1  0  0  0
 35 36  4  0  0  0
 37 38  4  0  0  0
 37 42  4  0  0  0
 38 39  4  0  0  0
 39 40  4  0  0  0
 40 41  4  0  0  0
 41 42  4  0  0  0
  1 44  1  0  0  0
  2 45  1  0  0  0
  3 46  1  0  0  0
  6 47  1  0  0  0
  9 48  1  0  0  0
 10 49  1  0  0  0
 12 50  1  0  0  0
 12 51  1  0  0  0
 13 52  1  0  0  0
 15 53  1  0  0  0
 16 54  1  0  0  0
 18 55  1  0  0  0
 18 56  1  0  0  0
 18 57  1  0  0  0
 21 58  1  0  0  0
 22 59  1  0  0  0
 22 60  1  0  0  0
 23 61  1  0  0  0
 23 62  1  0  0  0
 24 63  1  0  0  0
 24 64  1  0  0  0
 25 65  1  0  0  0
 25 66  1  0  0  0
 28 67  1  0  0  0
 28 68  1  0  0  0
 32 69  1  0  0  0
 33 70  1  0  0  0
 35 71  1  0  0  0
 36 72  1  0  0  0
 38 73  1  0  0  0
 39 74  1  0  0  0
 40 75  1  0  0  0
 41 76  1  0  0  0
 42 77  1  0  0  0
 43 78  1  0  0  0
 43 79  1  0  0  0
M  END
$$$$
