### 
### Created by X-TOOL on Mon Sep 10 21:12:51 2018
### 

@<TRIPOS>MOLECULE
1o45_ligand
   77    80     1     0     0
SMALL
GAST_HUCK


@<TRIPOS>ATOM
      1 O76        16.6380   24.5230   15.9760 O.3       1 687        -0.3782
      2 C1         19.2270   26.7550   19.0960 C.ar      1 687        -0.0324
      3 C2         18.4400   27.5190   18.2270 C.ar      1 687         0.0055
      4 C3         17.2100   26.9930   17.7080 C.ar      1 687         0.1795
      5 C4         16.8050   25.6910   18.0680 C.ar      1 687         0.0593
      6 C5         17.5340   24.9840   19.0590 C.ar      1 687        -0.0242
      7 C6         18.7490   25.4950   19.5500 C.ar      1 687        -0.0125
      8 P7         15.6600   29.0190   17.5870 P.3       1 687         0.1329
      9 O8         14.4830   29.2940   16.6450 O.co2     1 687        -0.6656
     10 O9         16.5640   30.3360   17.6190 O.co2     1 687        -0.6656
     11 O10        15.2800   28.6700   18.9720 O.co2     1 687        -0.6656
     12 C11        19.6180   24.7050   20.5160 C.3       1 687         0.0350
     13 C12        19.5020   25.2160   21.9180 C.3       1 687         0.1453
     14 C13        20.3330   24.3850   22.8800 C.2       1 687         0.2071
     15 N14        19.6900   23.2940   23.3820 N.am      1 687        -0.2635
     16 N15        19.9850   26.5800   21.9190 N.am      1 687        -0.2631
     17 C16        19.3610   27.4500   22.6950 C.2       1 687         0.1753
     18 C17        19.8240   28.9110   22.4010 C.3       1 687         0.0258
     19 O18        18.5410   27.1520   23.5610 O.2       1 687        -0.3972
     20 O19        21.5000   24.7160   23.1540 O.2       1 687        -0.3941
     21 C20        20.3410   22.4050   24.2910 C.3       1 687         0.1312
     22 C21        19.2600   21.5380   24.9290 C.3       1 687        -0.0123
     23 C22        19.7290   20.6880   26.1170 C.3       1 687        -0.0470
     24 C23        20.8430   19.6530   26.0280 C.3       1 687        -0.0321
     25 C24        22.0970   20.4110   25.6400 C.3       1 687         0.0362
     26 N25        22.2130   20.7250   24.2020 N.am      1 687        -0.2598
     27 C26        21.3880   21.5640   23.4570 C.2       1 687         0.2060
     28 C27        23.1290   19.8700   23.3880 C.3       1 687         0.0680
     29 C28        22.4990   18.5080   23.2160 C.ar      1 687        -0.0198
     30 O29        21.4110   21.6140   22.2030 O.2       1 687        -0.3942
     31 O30        16.4570   27.8160   16.8140 O.3       1 687        -0.2060
     32 C53        23.0350   17.3680   23.8840 C.ar      1 687        -0.0570
     33 C54        22.4610   16.0930   23.6570 C.ar      1 687        -0.0600
     34 C55        21.3550   15.9910   22.7770 C.ar      1 687        -0.0242
     35 C56        20.7820   17.1360   22.1920 C.ar      1 687        -0.0600
     36 C57        21.3280   18.4270   22.3950 C.ar      1 687        -0.0570
     37 C62        20.7420   14.6790   22.5050 C.ar      1 687        -0.0221
     38 C63        19.3040   14.5800   22.3610 C.ar      1 687        -0.0557
     39 C64        18.6770   13.3160   22.1050 C.ar      1 687        -0.0622
     40 C65        19.4860   12.1450   22.0200 C.ar      1 687        -0.0627
     41 C66        20.8880   12.2410   22.1580 C.ar      1 687        -0.0622
     42 C67        21.5380   13.5010   22.4090 C.ar      1 687        -0.0557
     43 C75        16.0370   24.8780   17.1560 C.3       1 687         0.0930
     44 H1         16.0388   23.9930   15.4637 H         1 687         0.2137
     45 H2         20.1942   27.1211   19.4208 H         1 687         0.0691
     46 H3         18.7617   28.5148   17.9441 H         1 687         0.0673
     47 H4         17.1520   24.0439   19.4402 H         1 687         0.0572
     48 H5         20.6673   24.7825   20.1951 H         1 687         0.0559
     49 H6         19.3050   23.6507   20.4949 H         1 687         0.0559
     50 H7         18.4489   25.1897   22.2345 H         1 687         0.0836
     51 H8         18.7452   23.1122   23.1092 H         1 687         0.1883
     52 H9         20.7625   26.8547   21.3533 H         1 687         0.1885
     53 H10        19.2862   29.6062   23.0625 H         1 687         0.0467
     54 H11        19.6063   29.1606   21.3521 H         1 687         0.0467
     55 H12        20.9058   28.9962   22.5813 H         1 687         0.0467
     56 H13        20.8667   22.9704   25.0746 H         1 687         0.0800
     57 H14        18.8673   20.8593   24.1576 H         1 687         0.0312
     58 H15        18.4544   22.1998   25.2797 H         1 687         0.0312
     59 H16        18.8396   20.1418   26.4643 H         1 687         0.0268
     60 H17        20.0455   21.4030   26.8906 H         1 687         0.0268
     61 H18        20.6022   18.8987   25.2644 H         1 687         0.0285
     62 H19        20.9823   19.1586   27.0007 H         1 687         0.0285
     63 H20        22.9670   19.8028   25.9283 H         1 687         0.0524
     64 H21        22.1105   21.3584   26.1988 H         1 687         0.0524
     65 H22        24.0952   19.7679   23.9038 H         1 687         0.0689
     66 H23        23.2867   20.3315   22.4020 H         1 687         0.0689
     67 H24        23.8752   17.4762   24.5603 H         1 687         0.0561
     68 H25        22.8601   15.2123   24.1470 H         1 687         0.0609
     69 H26        19.9006   17.0269   21.5705 H         1 687         0.0609
     70 H27        20.8820   19.3097   21.9512 H         1 687         0.0561
     71 H28        18.6945   15.4722   22.4478 H         1 687         0.0615
     72 H29        17.6024   13.2516   21.9778 H         1 687         0.0615
     73 H30        19.0240   11.1794   21.8491 H         1 687         0.0610
     74 H31        21.4900   11.3436   22.0728 H         1 687         0.0615
     75 H32        22.6148   13.5526   22.5230 H         1 687         0.0615
     76 H33        15.7701   23.9505   17.6838 H         1 687         0.0778
     77 H34        15.1215   25.4346   16.9069 H         1 687         0.0778
@<TRIPOS>BOND
     1   43    1 1  
     2    3    2 ar 
     3    2    7 ar 
     4    4    3 ar 
     5    4    5 ar 
     6   31    4 1  
     7    5    6 ar 
     8    5   43 1  
     9    6    7 ar 
    10    7   12 1  
    11    8    9 ar 
    12    8   10 ar 
    13    8   11 ar 
    14    8   31 1  
    15   12   13 1  
    16   13   14 1  
    17   13   16 1  
    18   14   15 am 
    19   14   20 2  
    20   15   21 1  
    21   16   17 am 
    22   17   18 1  
    23   17   19 2  
    24   21   22 1  
    25   21   27 1  
    26   22   23 1  
    27   23   24 1  
    28   24   25 1  
    29   25   26 1  
    30   26   27 am 
    31   26   28 1  
    32   27   30 2  
    33   28   29 1  
    34   29   32 ar 
    35   29   36 ar 
    36   32   33 ar 
    37   33   34 ar 
    38   34   35 ar 
    39   34   37 1  
    40   35   36 ar 
    41   37   38 ar 
    42   37   42 ar 
    43   38   39 ar 
    44   39   40 ar 
    45   40   41 ar 
    46   41   42 ar 
    47    1   44 1  
    48    2   45 1  
    49    3   46 1  
    50    6   47 1  
    51   12   48 1  
    52   12   49 1  
    53   13   50 1  
    54   15   51 1  
    55   16   52 1  
    56   18   53 1  
    57   18   54 1  
    58   18   55 1  
    59   21   56 1  
    60   22   57 1  
    61   22   58 1  
    62   23   59 1  
    63   23   60 1  
    64   24   61 1  
    65   24   62 1  
    66   25   63 1  
    67   25   64 1  
    68   28   65 1  
    69   28   66 1  
    70   32   67 1  
    71   33   68 1  
    72   35   69 1  
    73   36   70 1  
    74   38   71 1  
    75   39   72 1  
    76   40   73 1  
    77   41   74 1  
    78   42   75 1  
    79   43   76 1  
    80   43   77 1  
@<TRIPOS>SUBSTRUCTURE
     1 687         1

