4f7j_ligand
  -I-interpret- 

 47 48  0  0  0  0  0  0  0  0999 V2000
   -5.2160  -22.2110  150.6480 O   0  0  0  0  0
   -4.0980  -22.5990  150.8990 C   0  0  0  0  0
   -3.4460  -23.4450  150.0240 N   0  0  0  0  0
   -3.9650  -23.9470  148.7430 C   0  0  0  0  0
   -2.9340  -23.7590  147.6290 C   0  0  0  0  0
   -1.6930  -23.2380  148.1140 O   0  0  0  0  0
   -3.4160  -22.2680  152.0620 N   0  0  0  0  0
   -3.8570  -21.3780  153.0860 C   0  0  0  0  0
   -5.1320  -20.9000  153.3390 C   0  0  0  0  0
   -5.0040  -20.0280  154.3940 C   0  0  0  0  0
   -6.0880  -19.2050  155.0830 C   0  0  0  0  0
   -6.8110  -18.3300  154.0480 C   0  0  0  0  0
   -7.1150  -20.1170  155.7560 C   0  0  0  0  0
   -5.4260  -18.2980  156.1270 C   0  0  0  0  0
   -3.7080  -20.0080  154.7350 N   0  0  0  0  0
   -3.0540  -20.7910  153.9960 N   0  0  0  0  0
   -1.5930  -20.9110  154.1840 C   0  0  0  0  0
   -1.0880  -21.0480  155.4760 C   0  0  0  0  0
   -0.7010  -20.8160  153.1070 C   0  0  0  0  0
    0.6670  -20.8900  153.3170 C   0  0  0  0  0
    1.1630  -21.0460  154.6130 C   0  0  0  0  0
    2.6540  -21.1380  154.8630 C   0  0  0  0  0
    0.2790  -21.1190  155.6880 C   0  0  0  0  0
   -2.5113  -23.7523  150.2929 H   0  0  0  0  0
   -4.8660  -23.3900  148.4860 H   0  0  0  0  0
   -4.1834  -25.0101  148.8443 H   0  0  0  0  0
   -3.3404  -23.0466  146.9111 H   0  0  0  0  0
   -2.7383  -24.7344  147.1835 H   0  0  0  0  0
   -1.0810  -23.1380  147.3812 H   0  0  0  0  0
   -2.5053  -22.7066  152.1985 H   0  0  0  0  0
   -6.0486  -21.1615  152.8103 H   0  0  0  0  0
   -6.0929  -17.6595  153.5759 H   0  0  0  0  0
   -7.2673  -18.9673  153.2906 H   0  0  0  0  0
   -7.5840  -17.7445  154.5457 H   0  0  0  0  0
   -7.5806  -20.7545  155.0044 H   0  0  0  0  0
   -6.6158  -20.7366  156.5010 H   0  0  0  0  0
   -7.8779  -19.5076  156.2405 H   0  0  0  0  0
   -4.9033  -18.9118  156.8606 H   0  0  0  0  0
   -4.7151  -17.6359  155.6327 H   0  0  0  0  0
   -6.1906  -17.7037  156.6273 H   0  0  0  0  0
   -1.7719  -21.0995  156.3232 H   0  0  0  0  0
   -1.0863  -20.6828  152.0961 H   0  0  0  0  0
    1.3537  -20.8266  152.4729 H   0  0  0  0  0
    3.0587  -21.9965  154.3270 H   0  0  0  0  0
    3.1372  -20.2270  154.5100 H   0  0  0  0  0
    2.8354  -21.2565  155.9313 H   0  0  0  0  0
    0.6654  -21.2326  156.7009 H   0  0  0  0  0
  1  2  2  0  0  0
  2  3  1  0  0  0
  2  7  1  0  0  0
  3  4  1  0  0  0
  4  5  1  0  0  0
  5  6  1  0  0  0
  7  8  1  0  0  0
  8  9  4  0  0  0
  8 16  4  0  0  0
  9 10  4  0  0  0
 10 11  1  0  0  0
 10 15  4  0  0  0
 11 12  1  0  0  0
 11 13  1  0  0  0
 11 14  1  0  0  0
 15 16  4  0  0  0
 16 17  1  0  0  0
 17 18  4  0  0  0
 17 19  4  0  0  0
 18 23  4  0  0  0
 19 20  4  0  0  0
 20 21  4  0  0  0
 21 22  1  0  0  0
 21 23  4  0  0  0
  3 24  1  0  0  0
  4 25  1  0  0  0
  4 26  1  0  0  0
  5 27  1  0  0  0
  5 28  1  0  0  0
  6 29  1  0  0  0
  7 30  1  0  0  0
  9 31  1  0  0  0
 12 32  1  0  0  0
 12 33  1  0  0  0
 12 34  1  0  0  0
 13 35  1  0  0  0
 13 36  1  0  0  0
 13 37  1  0  0  0
 14 38  1  0  0  0
 14 39  1  0  0  0
 14 40  1  0  0  0
 18 41  1  0  0  0
 19 42  1  0  0  0
 20 43  1  0  0  0
 22 44  1  0  0  0
 22 45  1  0  0  0
 22 46  1  0  0  0
 23 47  1  0  0  0
M  END
$$$$
