4l9i_ligand
  -I-interpret- 

 45 48  0  0  0  0  0  0  0  0999 V2000
  -14.8360  -45.2580   21.2530 F   0  0  0  0  0
  -16.9900  -46.2430   21.2980 C   0  0  0  0  0
  -16.1180  -45.2200   23.2730 C   0  0  0  0  0
  -21.2160  -42.2720   25.9540 C   0  0  0  0  0
  -18.1630  -46.5760   21.9760 C   0  0  0  0  0
  -17.2970  -45.5520   23.9570 C   0  0  0  0  0
  -21.5960  -40.9790   26.2840 C   0  0  0  0  0
  -20.9070  -41.6510   23.6210 C   0  0  0  0  0
  -21.0480  -48.4380   24.9120 C   0  0  0  0  0
  -19.7400  -48.0860   24.2120 C   0  0  0  0  0
  -22.1240  -46.3600   23.9820 C   0  0  0  0  0
  -21.9470  -38.2180   23.9560 C   0  0  0  0  0
  -20.7500  -44.5080   23.0880 C   0  0  0  0  0
  -22.1780  -47.7730   24.2900 N   0  3  0  0  0
  -20.5170  -43.9000   24.3590 O   0  0  0  0  0
  -21.9540  -38.7220   25.3080 O   0  0  0  0  0
  -21.4150  -39.2750   23.1790 O   0  0  0  0  0
  -15.9610  -45.5660   21.9360 C   0  0  0  0  0
  -20.8760  -42.6090   24.6310 C   0  0  0  0  0
  -18.3340  -46.2400   23.3160 C   0  0  0  0  0
  -21.6100  -40.0400   25.2600 C   0  0  0  0  0
  -21.2830  -40.3680   23.9760 C   0  0  0  0  0
  -20.8110  -46.0170   23.2810 C   0  0  0  0  0
  -19.5960  -46.5780   24.0380 C   0  0  0  0  0
  -16.8803  -46.5195   20.2494 H   0  0  0  0  0
  -15.3211  -44.6880   23.7927 H   0  0  0  0  0
  -21.1804  -43.0367   26.7299 H   0  0  0  0  0
  -18.9563  -47.1065   21.4493 H   0  0  0  0  0
  -17.4073  -45.2698   25.0040 H   0  0  0  0  0
  -21.8720  -40.7111   27.3039 H   0  0  0  0  0
  -20.6457  -41.9017   22.5929 H   0  0  0  0  0
  -20.9834  -48.1119   25.9501 H   0  0  0  0  0
  -21.1990  -49.5152   24.8415 H   0  0  0  0  0
  -19.7365  -48.5518   23.2265 H   0  0  0  0  0
  -18.9113  -48.4466   24.8214 H   0  0  0  0  0
  -22.1898  -45.7919   24.9099 H   0  0  0  0  0
  -22.9546  -46.1087   23.3224 H   0  0  0  0  0
  -21.3531  -37.3086   23.8649 H   0  0  0  0  0
  -22.9453  -37.9328   23.6240 H   0  0  0  0  0
  -19.9449  -44.2524   22.3991 H   0  0  0  0  0
  -21.6892  -44.1474   22.6686 H   0  0  0  0  0
  -22.9247  -47.8501   24.9806 H   0  0  0  0  0
  -22.2636  -48.2244   23.3793 H   0  0  0  0  0
  -20.7762  -46.4941   22.3016 H   0  0  0  0  0
  -19.5510  -46.1218   25.0269 H   0  0  0  0  0
 18  1  1  0  0  0
  5  2  4  0  0  0
  2 18  4  0  0  0
  6  3  4  0  0  0
  3 18  4  0  0  0
  4  7  4  0  0  0
 19  4  4  0  0  0
 20  5  4  0  0  0
 20  6  4  0  0  0
  7 21  4  0  0  0
 19  8  4  0  0  0
  8 22  4  0  0  0
 10  9  1  0  0  0
  9 14  1  0  0  0
 24 10  1  0  0  0
 14 11  1  0  0  0
 11 23  1  0  0  0
 12 16  1  0  0  0
 17 12  1  0  0  0
 13 15  1  0  0  0
 23 13  1  0  0  0
 15 19  1  0  0  0
 21 16  1  0  0  0
 22 17  1  0  0  0
 20 24  1  0  0  0
 21 22  4  0  0  0
 23 24  1  0  0  0
  2 25  1  0  0  0
  3 26  1  0  0  0
  4 27  1  0  0  0
  5 28  1  0  0  0
  6 29  1  0  0  0
  7 30  1  0  0  0
  8 31  1  0  0  0
  9 32  1  0  0  0
  9 33  1  0  0  0
 10 34  1  0  0  0
 10 35  1  0  0  0
 11 36  1  0  0  0
 11 37  1  0  0  0
 12 38  1  0  0  0
 12 39  1  0  0  0
 13 40  1  0  0  0
 13 41  1  0  0  0
 14 42  1  0  0  0
 14 43  1  0  0  0
 23 44  1  0  0  0
 24 45  1  0  0  0
M  END
$$$$
