1ppw_ligand
  -I-interpret- 

 27 26  0  0  0  0  0  0  0  0999 V2000
   11.2270    2.6850   10.0370 O   0  0  0  0  0
    9.1480    1.9570   10.7360 O   0  0  0  0  0
   10.9260    1.9840   12.2930 O   0  0  0  0  0
   10.2220    2.6630   11.1510 P   0  0  0  0  0
    9.8740    4.1140   11.4970 O   0  0  0  0  0
   11.6990    5.7100   11.4100 O   0  0  0  0  0
   11.5510    4.1770   13.2020 O   0  0  0  0  0
   10.8420    5.0610   12.2130 P   0  0  0  0  0
    9.9930    5.9890   13.0710 O   0  0  0  0  0
    9.7570    7.2420   12.4170 C   0  0  0  0  0
   10.2520    8.4700   13.1950 C   0  0  0  0  0
    9.3250    8.8550   14.1840 C   0  0  0  0  0
    9.4570    9.9480   15.0940 C   0  0  0  0  0
    8.0500    8.0230   14.3050 C   0  0  0  0  0
    9.1930    9.1950   16.5120 O   0  0  0  0  0
   11.9992    3.1835   10.3140 H   0  0  0  0  0
   11.6816    2.5121   12.5610 H   0  0  0  0  0
   10.9034    3.7332   13.7545 H   0  0  0  0  0
    8.6775    7.3469   12.3089 H   0  0  0  0  0
   10.3057    7.2186   11.4755 H   0  0  0  0  0
   11.1978    8.9780   13.0066 H   0  0  0  0  0
    8.7742   10.7744   14.8967 H   0  0  0  0  0
   10.4174   10.4601   15.0358 H   0  0  0  0  0
    7.5037    8.0585   13.3625 H   0  0  0  0  0
    8.3120    6.9905   14.5359 H   0  0  0  0  0
    7.4275    8.4283   15.1027 H   0  0  0  0  0
    9.2543    9.8320   17.2276 H   0  0  0  0  0
  1  4  1  0  0  0
  4  2  2  0  0  0
  4  3  1  0  0  0
  4  5  1  0  0  0
  5  8  1  0  0  0
  8  6  2  0  0  0
  8  7  1  0  0  0
  8  9  1  0  0  0
  9 10  1  0  0  0
 10 11  1  0  0  0
 11 12  2  0  0  0
 12 13  1  0  0  0
 12 14  1  0  0  0
 13 15  1  0  0  0
  1 16  1  0  0  0
  3 17  1  0  0  0
  7 18  1  0  0  0
 10 19  1  0  0  0
 10 20  1  0  0  0
 11 21  1  0  0  0
 13 22  1  0  0  0
 13 23  1  0  0  0
 14 24  1  0  0  0
 14 25  1  0  0  0
 14 26  1  0  0  0
 15 27  1  0  0  0
M  END
$$$$
