### 
### Created by X-TOOL on Mon Sep 10 21:12:51 2018
### 

@<TRIPOS>MOLECULE
1ppw_ligand
   24    23     1     0     0
SMALL
GAST_HUCK


@<TRIPOS>ATOM
      1 O1         11.2270    2.6850   10.0370 O.co2     1 EIP        -0.5891
      2 O2          9.1480    1.9570   10.7360 O.co2     1 EIP        -0.5891
      3 O3         10.9260    1.9840   12.2930 O.co2     1 EIP        -0.5891
      4 P4         10.2220    2.6630   11.1510 P.3       1 EIP         0.2070
      5 O5          9.8740    4.1140   11.4970 O.3       1 EIP        -0.1547
      6 O6         11.6990    5.7100   11.4100 O.co2     1 EIP        -0.5555
      7 O7         11.5510    4.1770   13.2020 O.co2     1 EIP        -0.5555
      8 P8         10.8420    5.0610   12.2130 P.3       1 EIP         0.3288
      9 O9          9.9930    5.9890   13.0710 O.3       1 EIP        -0.2411
     10 C10         9.7570    7.2420   12.4170 C.3       1 EIP         0.0917
     11 C11        10.2520    8.4700   13.1950 C.2       1 EIP        -0.0762
     12 C12         9.3250    8.8550   14.1840 C.2       1 EIP        -0.0565
     13 C13         9.4570    9.9480   15.0940 C.3       1 EIP         0.0692
     14 C14         8.0500    8.0230   14.3050 C.3       1 EIP        -0.0381
     15 O15         9.1930    9.1950   16.5120 O.3       1 EIP        -0.3840
     16 H1          8.6735    7.3488   12.2599 H         1 EIP         0.0696
     17 H2         10.2686    7.2231   11.4434 H         1 EIP         0.0696
     18 H3         11.1970    8.9775   13.0068 H         1 EIP         0.0269
     19 H4          8.7046   10.7274   14.9030 H         1 EIP         0.0705
     20 H5         10.4629   10.3911   15.0518 H         1 EIP         0.0705
     21 H6          8.0655    7.2174   13.5562 H         1 EIP         0.0376
     22 H7          7.1746    8.6665   14.1332 H         1 EIP         0.0376
     23 H8          7.9917    7.5858   15.3127 H         1 EIP         0.0376
     24 H9          9.2536    9.8254   17.2202 H         1 EIP         0.2125
@<TRIPOS>BOND
     1    1    4 ar 
     2    4    2 ar 
     3    4    3 ar 
     4    4    5 1  
     5    5    8 1  
     6    8    6 ar 
     7    8    7 ar 
     8    8    9 1  
     9    9   10 1  
    10   10   11 1  
    11   11   12 2  
    12   12   13 1  
    13   12   14 1  
    14   13   15 1  
    15   10   16 1  
    16   10   17 1  
    17   11   18 1  
    18   13   19 1  
    19   13   20 1  
    20   14   21 1  
    21   14   22 1  
    22   14   23 1  
    23   15   24 1  
@<TRIPOS>SUBSTRUCTURE
     1 EIP         1

