6fap_ligand
  -I-interpret- 

 24 24  0  0  0  0  0  0  0  0999 V2000
   36.4020   19.4450   52.4550 C   0  0  0  0  0
   37.1020   20.6250   52.7140 C   0  0  0  0  0
   36.4690   21.6880   53.3560 C   0  0  0  0  0
   37.4490   18.5740   50.5940 C   0  0  0  0  0
   38.1090   17.3310   49.9820 C   0  0  0  0  0
   37.0000   18.4090   51.8540 N   0  0  0  0  0
   38.1660   17.4520   48.5140 N   0  3  0  0  0
   35.0760   19.3280   52.8670 C   0  0  0  0  0
   34.5380   22.5860   54.3750 N   0  0  0  0  0
   34.4440   20.3900   53.5110 C   0  0  0  0  0
   35.1400   21.5720   53.7580 C   0  0  0  0  0
   37.3790   19.6250   49.9590 O   0  0  0  0  0
   38.1459   20.7151   52.4135 H   0  0  0  0  0
   37.0151   22.6124   53.5440 H   0  0  0  0  0
   37.5216   16.4510   50.2439 H   0  0  0  0  0
   39.1230   17.2387   50.3710 H   0  0  0  0  0
   37.1129   17.5178   52.3372 H   0  0  0  0  0
   38.6065   16.6196   48.1223 H   0  0  0  0  0
   37.2196   17.5431   48.1446 H   0  0  0  0  0
   38.7111   18.2767   48.2629 H   0  0  0  0  0
   34.5308   18.4019   52.6848 H   0  0  0  0  0
   35.0496   23.4500   54.5543 H   0  0  0  0  0
   33.5650   22.4991   54.6685 H   0  0  0  0  0
   33.4036   20.2961   53.8221 H   0  0  0  0  0
  1  2  4  0  0  0
  6  1  1  0  0  0
  1  8  4  0  0  0
  2  3  4  0  0  0
  3 11  4  0  0  0
  4  5  1  0  0  0
  4  6  1  0  0  0
  4 12  2  0  0  0
  5  7  1  0  0  0
  8 10  4  0  0  0
 11  9  1  0  0  0
 10 11  4  0  0  0
  2 13  1  0  0  0
  3 14  1  0  0  0
  5 15  1  0  0  0
  5 16  1  0  0  0
  6 17  1  0  0  0
  7 18  1  0  0  0
  7 19  1  0  0  0
  7 20  1  0  0  0
  8 21  1  0  0  0
  9 22  1  0  0  0
  9 23  1  0  0  0
 10 24  1  0  0  0
M  END
$$$$
