4djp_ligand
  -I-interpret- 

 79 80  0  0  0  0  0  0  0  0999 V2000
   20.8290   29.5300   11.8510 O   0  0  0  0  0
   21.0400   28.5350   12.5210 C   0  0  0  0  0
   21.7910   27.4770   11.9620 O   0  0  0  0  0
   22.0280   27.5610   10.5510 C   0  0  0  0  0
   22.7890   26.3110   10.1390 C   0  0  0  0  0
   21.9370   25.0630   10.2850 C   0  0  0  0  0
   24.0200   26.2660   10.9700 C   0  0  0  0  0
   24.3350   25.3320   11.6870 O   0  0  0  0  0
   24.8710   27.3890   10.9130 O   0  0  0  0  0
   26.0620   27.4600   11.7110 C   0  0  0  0  0
   20.5700   28.2480   13.7160 N   0  0  0  0  0
   19.4860   29.0290   14.3020 C   0  0  0  0  0
   18.1920   28.1990   14.2110 C   0  0  0  0  0
   17.9070   27.8950   12.7510 C   0  0  0  0  0
   17.3260   28.8620   11.9470 C   0  0  0  0  0
   17.1310   28.6110   10.5950 C   0  0  0  0  0
   17.4910   27.3790   10.0540 C   0  0  0  0  0
   18.0610   26.4000   10.8520 C   0  0  0  0  0
   18.2660   26.6600   12.2000 C   0  0  0  0  0
   19.8820   29.4910   15.7060 C   0  0  0  0  0
   19.8470   28.3480   16.5930 O   0  0  0  0  0
   18.9640   30.5750   16.3000 C   0  0  0  0  0
   19.1430   31.8060   15.5050 N   0  0  0  0  0
   19.9520   32.8370   16.2060 C   0  0  0  0  0
   21.4550   32.5400   16.1410 C   0  0  0  0  0
   21.9510   32.4930   14.6970 C   0  0  0  0  0
   22.2050   33.5590   17.0110 C   0  0  0  0  0
   22.0170   34.9940   16.5720 C   0  0  0  0  0
   17.8340   32.3970   14.7510 S   0  0  0  0  0
   18.3480   33.2390   13.6900 O   0  0  0  0  0
   17.0480   31.2990   14.3430 O   0  0  0  0  0
   16.9430   33.3280   15.7780 C   0  0  0  0  0
   17.1450   34.7210   15.9140 C   0  0  0  0  0
   16.4470   35.5010   16.8360 C   0  0  0  0  0
   15.9830   32.7550   16.6240 C   0  0  0  0  0
   15.2980   33.5280   17.5740 C   0  0  0  0  0
   15.5220   34.8950   17.6760 C   0  0  0  0  0
   14.8160   35.6090   18.6190 O   0  0  0  0  0
   15.1220   36.9940   18.8160 C   0  0  0  0  0
   22.6064   28.4541   10.3146 H   0  0  0  0  0
   21.0843   27.6279   10.0097 H   0  0  0  0  0
   23.0551   26.3454    9.0825 H   0  0  0  0  0
   22.5157   24.1917    9.9784 H   0  0  0  0  0
   21.6337   24.9514   11.3260 H   0  0  0  0  0
   21.0520   25.1530    9.6551 H   0  0  0  0  0
   25.7951   27.3989   12.7660 H   0  0  0  0  0
   26.7207   26.6308   11.4529 H   0  0  0  0  0
   26.5714   28.4041   11.5179 H   0  0  0  0  0
   20.9689   27.4689   14.2397 H   0  0  0  0  0
   19.2929   29.9524   13.7559 H   0  0  0  0  0
   17.3622   28.7606   14.6401 H   0  0  0  0  0
   18.3106   27.2682   14.7657 H   0  0  0  0  0
   17.0226   29.8177   12.3745 H   0  0  0  0  0
   16.6955   29.3794    9.9562 H   0  0  0  0  0
   17.3231   27.1835    8.9949 H   0  0  0  0  0
   18.3449   25.4375   10.4264 H   0  0  0  0  0
   18.7111   25.8945   12.8356 H   0  0  0  0  0
   20.8758   29.9292   15.6143 H   0  0  0  0  0
   20.0938   28.6240   17.4787 H   0  0  0  0  0
   19.2219   30.7582   17.3431 H   0  0  0  0  0
   17.9241   30.2503   16.2644 H   0  0  0  0  0
   19.6539   32.8458   17.2544 H   0  0  0  0  0
   19.7751   33.7954   15.7179 H   0  0  0  0  0
   21.6555   31.5476   16.5448 H   0  0  0  0  0
   21.4190   31.7099   14.1568 H   0  0  0  0  0
   21.7666   33.4553   14.2193 H   0  0  0  0  0
   23.0200   32.2804   14.6881 H   0  0  0  0  0
   23.2683   33.3323   16.9327 H   0  0  0  0  0
   21.8096   33.4748   18.0233 H   0  0  0  0  0
   22.3801   35.1108   15.5509 H   0  0  0  0  0
   20.9582   35.2497   16.6139 H   0  0  0  0  0
   22.5776   35.6521   17.2359 H   0  0  0  0  0
   17.8783   35.2065   15.2701 H   0  0  0  0  0
   16.6257   36.5746   16.8965 H   0  0  0  0  0
   15.7648   31.6902   16.5424 H   0  0  0  0  0
   14.5807   33.0493   18.2407 H   0  0  0  0  0
   16.1638   37.0949   19.1203 H   0  0  0  0  0
   14.9600   37.5366   17.8846 H   0  0  0  0  0
   14.4743   37.4010   19.5925 H   0  0  0  0  0
  1  2  2  0  0  0
  2  3  1  0  0  0
  2 11  1  0  0  0
  3  4  1  0  0  0
  4  5  1  0  0  0
  5  6  1  0  0  0
  5  7  1  0  0  0
  7  8  2  0  0  0
  7  9  1  0  0  0
  9 10  1  0  0  0
 11 12  1  0  0  0
 12 13  1  0  0  0
 12 20  1  0  0  0
 13 14  1  0  0  0
 14 15  4  0  0  0
 14 19  4  0  0  0
 15 16  4  0  0  0
 16 17  4  0  0  0
 17 18  4  0  0  0
 18 19  4  0  0  0
 20 21  1  0  0  0
 20 22  1  0  0  0
 22 23  1  0  0  0
 23 24  1  0  0  0
 23 29  1  0  0  0
 24 25  1  0  0  0
 25 26  1  0  0  0
 25 27  1  0  0  0
 27 28  1  0  0  0
 29 30  2  0  0  0
 29 31  2  0  0  0
 29 32  1  0  0  0
 32 33  4  0  0  0
 32 35  4  0  0  0
 33 34  4  0  0  0
 34 37  4  0  0  0
 35 36  4  0  0  0
 36 37  4  0  0  0
 37 38  1  0  0  0
 38 39  1  0  0  0
  4 40  1  0  0  0
  4 41  1  0  0  0
  5 42  1  0  0  0
  6 43  1  0  0  0
  6 44  1  0  0  0
  6 45  1  0  0  0
 10 46  1  0  0  0
 10 47  1  0  0  0
 10 48  1  0  0  0
 11 49  1  0  0  0
 12 50  1  0  0  0
 13 51  1  0  0  0
 13 52  1  0  0  0
 15 53  1  0  0  0
 16 54  1  0  0  0
 17 55  1  0  0  0
 18 56  1  0  0  0
 19 57  1  0  0  0
 20 58  1  0  0  0
 21 59  1  0  0  0
 22 60  1  0  0  0
 22 61  1  0  0  0
 24 62  1  0  0  0
 24 63  1  0  0  0
 25 64  1  0  0  0
 26 65  1  0  0  0
 26 66  1  0  0  0
 26 67  1  0  0  0
 27 68  1  0  0  0
 27 69  1  0  0  0
 28 70  1  0  0  0
 28 71  1  0  0  0
 28 72  1  0  0  0
 33 73  1  0  0  0
 34 74  1  0  0  0
 35 75  1  0  0  0
 36 76  1  0  0  0
 39 77  1  0  0  0
 39 78  1  0  0  0
 39 79  1  0  0  0
M  END
$$$$
