6gn1_ligand
  -I-interpret- 

 41 43  0  0  0  0  0  0  0  0999 V2000
  -10.8550   -6.9720  -31.5580 O   0  0  0  0  0
  -12.0850   -3.9360  -31.3250 C   0  0  0  0  0
  -11.1060   -3.8760  -30.3390 C   0  0  0  0  0
  -10.5790   -2.6440  -29.9450 C   0  0  0  0  0
   -9.5880   -2.5550  -28.9590 C   0  0  0  0  0
   -9.1090   -3.7070  -28.3310 C   0  0  0  0  0
   -9.6390   -4.9290  -28.7380 C   0  0  0  0  0
  -10.6190   -5.0290  -29.7260 C   0  0  0  0  0
   -8.1570   -3.6590  -27.3720 N   0  0  0  0  0
   -7.6410   -2.4790  -26.9900 O   0  0  0  0  0
   -7.6720   -4.8990  -26.7530 O   0  0  0  0  0
  -11.1690   -6.6440  -30.0990 S   0  0  0  0  0
  -10.4160   -7.6380  -29.2160 O   0  0  0  0  0
  -12.8200   -6.8280  -29.8030 N   0  0  0  0  0
  -13.7130   -7.0680  -30.9730 C   0  0  0  0  0
  -13.1500   -6.2270  -28.7670 N   0  0  0  0  0
  -14.3760   -6.4020  -28.2260 C   0  0  0  0  0
  -14.6930   -5.7420  -27.1010 C   0  0  0  0  0
  -15.9700   -5.6550  -26.7810 C   0  0  0  0  0
  -16.1050   -4.8650  -25.7270 N   0  0  0  0  0
  -14.8950   -4.4010  -25.4210 C   0  0  0  0  0
  -14.0050   -4.8630  -26.3090 N   0  0  0  0  0
  -12.6360   -4.5980  -26.2290 C   0  0  0  0  0
  -12.2230   -3.7380  -25.2160 C   0  0  0  0  0
  -10.4230   -3.2380  -25.0120 Br  0  0  0  0  0
  -13.1610   -3.2300  -24.3270 C   0  0  0  0  0
  -14.4950   -3.5870  -24.4490 C   0  0  0  0  0
  -12.9583   -3.3686  -31.0031 H   0  0  0  0  0
  -11.6943   -3.5107  -32.2495 H   0  0  0  0  0
  -12.3670   -4.9755  -31.4925 H   0  0  0  0  0
  -10.9469   -1.7319  -30.4150 H   0  0  0  0  0
   -9.1880   -1.5802  -28.6800 H   0  0  0  0  0
   -9.2744   -5.8418  -28.2668 H   0  0  0  0  0
  -13.6379   -6.2284  -31.6640 H   0  0  0  0  0
  -13.4090   -7.9846  -31.4785 H   0  0  0  0  0
  -14.7425   -7.1659  -30.6286 H   0  0  0  0  0
  -15.0974   -7.0699  -28.6967 H   0  0  0  0  0
  -16.7861   -6.1551  -27.3026 H   0  0  0  0  0
  -11.9259   -5.0431  -26.9260 H   0  0  0  0  0
  -12.8486   -2.5509  -23.5337 H   0  0  0  0  0
  -15.2244   -3.1958  -23.7397 H   0  0  0  0  0
 12  1  2  0  0  0
  3  2  1  0  0  0
  3  4  4  0  0  0
  8  3  4  0  0  0
  4  5  4  0  0  0
  6  5  4  0  0  0
  7  6  4  0  0  0
  6  9  1  0  0  0
  8  7  4  0  0  0
  8 12  1  0  0  0
  9 10  2  0  0  0
  9 11  2  0  0  0
 12 13  2  0  0  0
 12 14  1  0  0  0
 14 15  1  0  0  0
 14 16  1  0  0  0
 16 17  2  0  0  0
 17 18  1  0  0  0
 18 19  4  0  0  0
 18 22  4  0  0  0
 19 20  4  0  0  0
 20 21  4  0  0  0
 21 22  4  0  0  0
 21 27  4  0  0  0
 22 23  4  0  0  0
 23 24  4  0  0  0
 24 25  1  0  0  0
 24 26  4  0  0  0
 26 27  4  0  0  0
  2 28  1  0  0  0
  2 29  1  0  0  0
  2 30  1  0  0  0
  4 31  1  0  0  0
  5 32  1  0  0  0
  7 33  1  0  0  0
 15 34  1  0  0  0
 15 35  1  0  0  0
 15 36  1  0  0  0
 17 37  1  0  0  0
 19 38  1  0  0  0
 23 39  1  0  0  0
 26 40  1  0  0  0
 27 41  1  0  0  0
M  END
$$$$
