3r4o_ligand
  -I-interpret- 

 53 56  0  0  0  0  0  0  0  0999 V2000
    2.6080  -32.4620   52.1280 C   0  0  0  0  0
    2.5760  -30.1940   51.1580 C   0  0  0  0  0
   -4.8090  -37.4940   46.1330 C   0  0  0  0  0
   -3.5660  -37.3770   47.0240 C   0  0  0  0  0
   -4.1400  -36.4260   45.2390 C   0  0  0  0  0
    0.4670  -33.5640   48.2470 C   0  0  0  0  0
    0.6760  -34.5380   46.0190 C   0  0  0  0  0
    2.7740  -36.6760   50.7540 C   0  0  0  0  0
    1.4940  -36.7130   49.9000 C   0  0  0  0  0
    2.8300  -35.3750   51.5370 C   0  0  0  0  0
    2.5080  -31.0630   52.2810 C   0  0  0  0  0
    2.7650  -33.0150   50.8320 C   0  0  0  0  0
    2.7380  -30.7290   49.8520 C   0  0  0  0  0
    1.8320  -33.3660   47.7180 C   0  0  0  0  0
    1.9760  -33.9070   46.4520 C   0  0  0  0  0
    2.8270  -32.1410   49.6560 C   0  0  0  0  0
    2.9450  -32.7390   48.2860 C   0  0  0  0  0
    4.1940  -33.2290   46.3570 C   0  0  0  0  0
   -3.5060  -35.9190   46.5330 C   0  0  0  0  0
   -1.5130  -34.7360   47.4220 C   0  0  0  0  0
    1.5050  -37.8160   48.8870 C   0  0  0  0  0
    5.4080  -33.1520   45.6790 N   0  0  0  0  0
    3.1270  -33.8650   45.7390 N   0  0  0  0  0
    4.1360  -32.6630   47.6160 N   0  0  0  0  0
   -2.1270  -35.4210   46.3760 N   0  0  0  0  0
   -0.2140  -34.2910   47.1910 N   0  0  0  0  0
   -2.0900  -34.5300   48.4990 O   0  0  0  0  0
    2.8660  -34.3600   50.5430 O   0  0  0  0  0
    1.6050  -39.0070   49.4920 F   0  0  0  0  0
    0.3670  -37.8090   48.1700 F   0  0  0  0  0
    2.5230  -37.6810   48.0180 F   0  0  0  0  0
    2.3010  -30.4160   53.8660 Cl  0  0  0  0  0
    2.8350  -29.6280   48.5130 Cl  0  0  0  0  0
    2.5648  -33.1136   53.0007 H   0  0  0  0  0
    2.5037  -29.1156   51.2992 H   0  0  0  0  0
   -5.8191  -37.3749   46.5250 H   0  0  0  0  0
   -5.1542  -38.4497   45.7385 H   0  0  0  0  0
   -2.7198  -38.0599   46.9478 H   0  0  0  0  0
   -3.5713  -37.6432   48.0810 H   0  0  0  0  0
   -4.7066  -35.7803   44.5681 H   0  0  0  0  0
   -3.5538  -36.6801   44.3559 H   0  0  0  0  0
    0.0648  -33.2397   49.2068 H   0  0  0  0  0
    0.4445  -35.0473   45.0835 H   0  0  0  0  0
    3.6451  -36.7432   50.1023 H   0  0  0  0  0
    2.7691  -37.5159   51.4488 H   0  0  0  0  0
    1.4230  -35.7670   49.3632 H   0  0  0  0  0
    0.6505  -36.8824   50.5693 H   0  0  0  0  0
    3.6980  -35.3322   52.1949 H   0  0  0  0  0
    1.9746  -35.2630   52.2032 H   0  0  0  0  0
   -3.9314  -35.0870   47.0941 H   0  0  0  0  0
    5.4988  -33.5584   44.7479 H   0  0  0  0  0
    6.2064  -32.6892   46.1135 H   0  0  0  0  0
   -1.6235  -35.5779   45.5029 H   0  0  0  0  0
  1 11  4  0  0  0
 12  1  4  0  0  0
  2 11  4  0  0  0
 13  2  4  0  0  0
  4  3  1  0  0  0
  5  3  1  0  0  0
 19  4  1  0  0  0
 19  5  1  0  0  0
  6 14  4  0  0  0
 26  6  4  0  0  0
  7 15  4  0  0  0
 26  7  4  0  0  0
  8  9  1  0  0  0
 10  8  1  0  0  0
  9 21  1  0  0  0
 28 10  1  0  0  0
 11 32  1  0  0  0
 16 12  4  0  0  0
 12 28  1  0  0  0
 16 13  4  0  0  0
 13 33  1  0  0  0
 15 14  4  0  0  0
 14 17  4  0  0  0
 15 23  4  0  0  0
 17 16  1  0  0  0
 17 24  4  0  0  0
 18 22  1  0  0  0
 23 18  4  0  0  0
 18 24  4  0  0  0
 25 19  1  0  0  0
 20 25  1  0  0  0
 20 26  1  0  0  0
 20 27  2  0  0  0
 21 29  1  0  0  0
 21 30  1  0  0  0
 21 31  1  0  0  0
  1 34  1  0  0  0
  2 35  1  0  0  0
  3 36  1  0  0  0
  3 37  1  0  0  0
  4 38  1  0  0  0
  4 39  1  0  0  0
  5 40  1  0  0  0
  5 41  1  0  0  0
  6 42  1  0  0  0
  7 43  1  0  0  0
  8 44  1  0  0  0
  8 45  1  0  0  0
  9 46  1  0  0  0
  9 47  1  0  0  0
 10 48  1  0  0  0
 10 49  1  0  0  0
 19 50  1  0  0  0
 22 51  1  0  0  0
 22 52  1  0  0  0
 25 53  1  0  0  0
M  END
$$$$
