3cs8_ligand
  -I-interpret- 

201202  0  0  0  0  0  0  0  0999 V2000
   28.3650  -20.7720   19.3230 N   0  3  0  0  0
   27.4710  -19.9700   18.4990 C   0  0  0  0  0
   26.0260  -19.7530   18.9980 C   0  0  0  0  0
   25.3780  -18.8000   18.5800 O   0  0  0  0  0
   27.5350  -20.7220   17.1760 C   0  0  0  0  0
   29.0380  -21.0420   17.0710 C   0  0  0  0  0
   29.5530  -21.1640   18.5270 C   0  0  0  0  0
   25.5680  -20.6040   19.9110 N   0  0  0  0  0
   24.2000  -20.6130   20.4470 C   0  0  0  0  0
   23.2580  -19.4400   20.1610 C   0  0  0  0  0
   22.3520  -19.5800   19.3490 O   0  0  0  0  0
   24.2240  -20.9510   21.9410 C   0  0  0  0  0
   24.5000  -22.3310   22.1100 O   0  0  0  0  0
   23.4570  -18.2940   20.8020 N   0  0  0  0  0
   22.4340  -17.2290   20.7860 C   0  0  0  0  0
   22.4750  -16.3620   19.5200 C   0  0  0  0  0
   21.4360  -16.0410   18.9400 O   0  0  0  0  0
   22.5600  -16.3710   22.0360 C   0  0  0  0  0
   21.3430  -16.1020   22.9150 C   0  0  0  0  0
   20.4560  -17.3390   23.1620 C   0  0  0  0  0
   21.8160  -15.5200   24.2400 C   0  0  0  0  0
   23.6870  -16.0000   19.1060 N   0  0  0  0  0
   23.9390  -15.3650   17.8210 C   0  0  0  0  0
   23.4460  -16.2330   16.6730 C   0  0  0  0  0
   22.8140  -15.7320   15.7680 O   0  0  0  0  0
   25.4350  -15.0510   17.6300 C   0  0  0  0  0
   26.0060  -13.7710   18.2550 C   0  0  0  0  0
   27.5030  -13.6370   17.9330 C   0  0  0  0  0
   25.2550  -12.5430   17.7910 C   0  0  0  0  0
   23.7380  -17.5290   16.7150 N   0  0  0  0  0
   23.1490  -18.4540   15.7580 C   0  0  0  0  0
   21.6460  -18.2990   15.6960 C   0  0  0  0  0
   21.0810  -18.1760   14.6190 O   0  0  0  0  0
   23.4690  -19.8920   16.1030 C   0  0  0  0  0
   24.5420  -20.4370   15.2340 C   0  0  0  0  0
   24.6670  -21.9220   15.3620 C   0  0  0  0  0
   25.6640  -22.4440   14.3630 C   0  0  0  0  0
   26.6850  -23.2540   15.0740 N   0  3  0  0  0
   21.0020  -18.3180   16.8560 N   0  0  0  0  0
   19.5460  -18.2600   16.9100 C   0  0  0  0  0
   19.0690  -16.9830   16.2220 C   0  0  0  0  0
   18.1710  -17.0210   15.3930 O   0  0  0  0  0
   19.0560  -18.3260   18.3460 C   0  0  0  0  0
   19.2450  -19.6700   19.0670 C   0  0  0  0  0
   18.8490  -19.5010   20.5400 C   0  0  0  0  0
   19.1670  -20.6950   21.4540 C   0  0  0  0  0
   18.8120  -20.3900   22.9200 N   0  3  0  0  0
   19.7010  -15.8530   16.5360 N   0  0  0  0  0
   19.3530  -14.6020   15.8640 C   0  0  0  0  0
   19.5880  -14.6480   14.3580 C   0  0  0  0  0
   18.7670  -14.1050   13.5940 O   0  0  0  0  0
   20.0740  -13.4050   16.4810 C   0  0  0  0  0
   19.6340  -12.9680   17.8780 C   0  0  0  0  0
   20.4820  -11.8000   18.2680 C   0  0  0  0  0
   18.1110  -12.6120   17.9800 C   0  0  0  0  0
   20.6930  -15.2850   13.9450 N   0  0  0  0  0
   21.0600  -15.4020   12.5370 C   0  0  0  0  0
   20.1110  -16.2850   11.7190 C   0  0  0  0  0
   19.9750  -16.1180   10.4910 O   0  0  0  0  0
   22.5090  -15.8920   12.3880 C   0  0  0  0  0
   23.5890  -14.8290   12.6630 C   0  0  0  0  0
   24.9580  -15.4530   12.8360 C   0  0  0  0  0
   23.5940  -13.7690   11.5430 C   0  0  0  0  0
   19.4670  -17.2340   12.3860 N   0  0  0  0  0
   18.5560  -18.1690   11.7030 C   0  0  0  0  0
   17.1190  -17.6390   11.6000 C   0  0  0  0  0
   16.4090  -17.9660   10.6630 O   0  0  0  0  0
   18.5350  -19.5220   12.4100 C   0  0  0  0  0
   19.8060  -20.3410   12.3560 C   0  0  0  0  0
   19.8890  -21.2410   13.5420 C   0  0  0  0  0
   19.8720  -21.0810   11.0330 C   0  0  0  0  0
   16.6860  -16.8600   12.5770 N   0  0  0  0  0
   15.3030  -16.4020   12.6170 C   0  0  0  0  0
   15.0230  -15.5750   11.3750 C   0  0  0  0  0
   15.6220  -14.5050   11.2020 O   0  0  0  0  0
   15.0390  -15.5780   13.9040 C   0  0  0  0  0
   14.1290  -16.0740   10.4810 N   0  0  0  0  0
   13.6670  -15.1370    9.4510 C   0  0  0  0  0
   13.0070  -14.0010   10.2400 C   0  0  0  0  0
   12.4510  -14.2500   11.3280 O   0  0  0  0  0
   12.6190  -15.9450    8.6650 C   0  0  0  0  0
   12.8930  -17.3500    8.9760 C   0  0  0  0  0
   13.4760  -17.3950   10.3530 C   0  0  0  0  0
   13.1040  -12.7710    9.7440 N   0  0  0  0  0
   12.7070  -11.6230   10.5590 C   0  0  0  0  0
   12.8130  -10.3110    9.7910 C   0  0  0  0  0
   12.9340   -9.2340   10.4150 O   0  0  0  0  0
   13.5610  -11.5660   11.8550 C   0  0  0  0  0
   27.8761  -21.6096   19.6389 H   0  0  0  0  0
   28.6627  -20.2264   20.1317 H   0  0  0  0  0
   27.7935  -18.9291   18.4756 H   0  0  0  0  0
   27.1528  -20.1487   16.3314 H   0  0  0  0  0
   26.8994  -21.6070   17.1481 H   0  0  0  0  0
   29.2068  -21.9640   16.5146 H   0  0  0  0  0
   29.5705  -20.2607   16.5287 H   0  0  0  0  0
   29.9175  -22.1625   18.7682 H   0  0  0  0  0
   30.4241  -20.5395   18.7250 H   0  0  0  0  0
   26.2171  -21.3055   20.2672 H   0  0  0  0  0
   23.7309  -21.3932   19.8476 H   0  0  0  0  0
   23.2545  -20.7182   22.3813 H   0  0  0  0  0
   24.9984  -20.3630   22.4337 H   0  0  0  0  0
   24.5146  -22.5409   23.0467 H   0  0  0  0  0
   24.3280  -18.1475   21.3122 H   0  0  0  0  0
   21.4623  -17.7228   20.7767 H   0  0  0  0  0
   22.8423  -15.3877   21.6597 H   0  0  0  0  0
   23.2377  -16.9318   22.6797 H   0  0  0  0  0
   20.7110  -15.3955   22.3770 H   0  0  0  0  0
   20.0857  -17.7153   22.2084 H   0  0  0  0  0
   21.0434  -18.1129   23.6560 H   0  0  0  0  0
   19.6141  -17.0601   23.7956 H   0  0  0  0  0
   22.4786  -16.2319   24.7322 H   0  0  0  0  0
   22.3529  -14.5895   24.0556 H   0  0  0  0  0
   20.9539  -15.3234   24.8774 H   0  0  0  0  0
   24.4808  -16.1769   19.7216 H   0  0  0  0  0
   23.3850  -14.4263   17.8159 H   0  0  0  0  0
   25.5621  -14.9221   16.5551 H   0  0  0  0  0
   25.9609  -15.8669   18.1258 H   0  0  0  0  0
   25.8829  -13.8471   19.3353 H   0  0  0  0  0
   28.0382  -14.4974   18.3347 H   0  0  0  0  0
   27.6386  -13.5953   16.8523 H   0  0  0  0  0
   27.8901  -12.7236   18.3845 H   0  0  0  0  0
   25.3303  -12.4608   16.7067 H   0  0  0  0  0
   24.2071  -12.6294   18.0782 H   0  0  0  0  0
   25.6883  -11.6569   18.2548 H   0  0  0  0  0
   24.3813  -17.8788   17.4250 H   0  0  0  0  0
   23.5827  -18.2101   14.7882 H   0  0  0  0  0
   22.5696  -20.4898   15.9554 H   0  0  0  0  0
   23.8111  -19.9300   17.1372 H   0  0  0  0  0
   25.4876  -19.9880   15.5380 H   0  0  0  0  0
   24.2932  -20.2040   14.1987 H   0  0  0  0  0
   23.6965  -22.3807   15.1726 H   0  0  0  0  0
   25.0064  -22.1674   16.3683 H   0  0  0  0  0
   26.1466  -21.6087   13.8557 H   0  0  0  0  0
   25.1539  -23.0627   13.6247 H   0  0  0  0  0
   27.3636  -23.6104   14.4010 H   0  0  0  0  0
   27.1610  -22.6708   15.7623 H   0  0  0  0  0
   26.2294  -24.0354   15.5455 H   0  0  0  0  0
   21.5343  -18.3741   17.7243 H   0  0  0  0  0
   19.1304  -19.1210   16.3865 H   0  0  0  0  0
   17.9811  -18.1492   18.3090 H   0  0  0  0  0
   19.6452  -17.5969   18.9022 H   0  0  0  0  0
   20.2869  -19.9828   18.9982 H   0  0  0  0  0
   18.6184  -20.4305   18.6010 H   0  0  0  0  0
   17.7661  -19.3776   20.5573 H   0  0  0  0  0
   19.4251  -18.6576   20.9207 H   0  0  0  0  0
   20.2352  -20.9031   21.3926 H   0  0  0  0  0
   18.5758  -21.5497   21.1253 H   0  0  0  0  0
   19.0346  -21.2003   23.4981 H   0  0  0  0  0
   19.3512  -19.5850   23.2387 H   0  0  0  0  0
   17.8157  -20.1833   22.9914 H   0  0  0  0  0
   20.4309  -15.8606   17.2484 H   0  0  0  0  0
   18.2814  -14.4753   16.0178 H   0  0  0  0  0
   19.8596  -12.5607   15.8258 H   0  0  0  0  0
   21.1167  -13.7068   16.5802 H   0  0  0  0  0
   19.7694  -13.8068   18.5608 H   0  0  0  0  0
   21.5301  -12.0992   18.2732 H   0  0  0  0  0
   20.3371  -10.9919   17.5510 H   0  0  0  0  0
   20.1949  -11.4604   19.2631 H   0  0  0  0  0
   17.8842  -11.7926   17.2979 H   0  0  0  0  0
   17.5163  -13.4851   17.7115 H   0  0  0  0  0
   17.8770  -12.3116   19.0013 H   0  0  0  0  0
   21.3038  -15.7062   14.6450 H   0  0  0  0  0
   20.9708  -14.3968   12.1250 H   0  0  0  0  0
   22.6305  -16.2020   11.3501 H   0  0  0  0  0
   22.6508  -16.6819   13.1256 H   0  0  0  0  0
   23.3440  -14.3355   13.6035 H   0  0  0  0  0
   24.9362  -16.1463   13.6768 H   0  0  0  0  0
   25.2284  -15.9905   11.9271 H   0  0  0  0  0
   25.6912  -14.6697   13.0282 H   0  0  0  0  0
   23.8039  -14.2518   10.5885 H   0  0  0  0  0
   22.6190  -13.2836   11.4995 H   0  0  0  0  0
   24.3627  -13.0250   11.7521 H   0  0  0  0  0
   19.6055  -17.3181   13.3930 H   0  0  0  0  0
   18.9462  -18.2793   10.6912 H   0  0  0  0  0
   17.7758  -20.1144   11.8992 H   0  0  0  0  0
   18.3635  -19.3056   13.4644 H   0  0  0  0  0
   20.6804  -19.6920   12.4042 H   0  0  0  0  0
   19.8884  -20.6414   14.4523 H   0  0  0  0  0
   19.0307  -21.9129   13.5474 H   0  0  0  0  0
   20.8083  -21.8243   13.4902 H   0  0  0  0  0
   19.0088  -21.7406   10.9436 H   0  0  0  0  0
   19.8669  -20.3609   10.2147 H   0  0  0  0  0
   20.7875  -21.6712   10.9936 H   0  0  0  0  0
   17.3304  -16.5751   13.3145 H   0  0  0  0  0
   14.6327  -17.2613   12.6346 H   0  0  0  0  0
   15.2314  -16.2002   14.7781 H   0  0  0  0  0
   15.6997  -14.7112   13.9208 H   0  0  0  0  0
   14.0010  -15.2455   13.9145 H   0  0  0  0  0
   14.4251  -14.7350    8.7789 H   0  0  0  0  0
   12.6875  -15.7525    7.5943 H   0  0  0  0  0
   11.6044  -15.6642    8.9476 H   0  0  0  0  0
   11.9768  -17.9386    8.9285 H   0  0  0  0  0
   13.5883  -17.7741    8.2516 H   0  0  0  0  0
   12.7259  -17.5719   11.1238 H   0  0  0  0  0
   14.1697  -18.2243   10.4912 H   0  0  0  0  0
   13.4546  -12.6283    8.7969 H   0  0  0  0  0
   11.6585  -11.7558   10.8258 H   0  0  0  0  0
   12.7835  -10.3113    8.7014 H   0  0  0  0  0
   13.4107  -12.4809   12.4282 H   0  0  0  0  0
   14.6141  -11.4702   11.5907 H   0  0  0  0  0
   13.2554  -10.7071   12.4525 H   0  0  0  0  0
  3  2  1  0  0  0
  2  5  1  0  0  0
  2  1  1  0  0  0
  1  7  1  0  0  0
  7  6  1  0  0  0
  5  6  1  0  0  0
  3  4  2  0  0  0
  9  8  1  0  0  0
  9 12  1  0  0  0
 10  9  1  0  0  0
 10 11  2  0  0  0
 12 13  1  0  0  0
  8  3  1  0  0  0
 15 14  1  0  0  0
 15 18  1  0  0  0
 16 15  1  0  0  0
 16 17  2  0  0  0
 18 19  1  0  0  0
 19 20  1  0  0  0
 19 21  1  0  0  0
 14 10  1  0  0  0
 23 22  1  0  0  0
 23 26  1  0  0  0
 24 23  1  0  0  0
 24 25  2  0  0  0
 26 27  1  0  0  0
 27 28  1  0  0  0
 27 29  1  0  0  0
 22 16  1  0  0  0
 31 30  1  0  0  0
 31 34  1  0  0  0
 32 31  1  0  0  0
 32 33  2  0  0  0
 34 35  1  0  0  0
 35 36  1  0  0  0
 36 37  1  0  0  0
 37 38  1  0  0  0
 30 24  1  0  0  0
 40 39  1  0  0  0
 40 43  1  0  0  0
 41 40  1  0  0  0
 41 42  2  0  0  0
 43 44  1  0  0  0
 44 45  1  0  0  0
 45 46  1  0  0  0
 46 47  1  0  0  0
 39 32  1  0  0  0
 49 48  1  0  0  0
 49 52  1  0  0  0
 50 49  1  0  0  0
 50 51  2  0  0  0
 52 53  1  0  0  0
 53 54  1  0  0  0
 53 55  1  0  0  0
 48 41  1  0  0  0
 57 56  1  0  0  0
 57 60  1  0  0  0
 58 57  1  0  0  0
 58 59  2  0  0  0
 60 61  1  0  0  0
 61 62  1  0  0  0
 61 63  1  0  0  0
 56 50  1  0  0  0
 65 64  1  0  0  0
 65 68  1  0  0  0
 66 65  1  0  0  0
 66 67  2  0  0  0
 68 69  1  0  0  0
 69 70  1  0  0  0
 69 71  1  0  0  0
 64 58  1  0  0  0
 73 72  1  0  0  0
 73 76  1  0  0  0
 74 73  1  0  0  0
 74 75  2  0  0  0
 72 66  1  0  0  0
 79 78  1  0  0  0
 78 81  1  0  0  0
 78 77  1  0  0  0
 77 83  1  0  0  0
 83 82  1  0  0  0
 81 82  1  0  0  0
 79 80  2  0  0  0
 77 74  1  0  0  0
 84 85  1  0  0  0
 85 88  1  0  0  0
 85 86  1  0  0  0
 86 87  2  0  0  0
 79 84  1  0  0  0
  1 89  1  0  0  0
  1 90  1  0  0  0
  2 91  1  0  0  0
  5 92  1  0  0  0
  5 93  1  0  0  0
  6 94  1  0  0  0
  6 95  1  0  0  0
  7 96  1  0  0  0
  7 97  1  0  0  0
  8 98  1  0  0  0
  9 99  1  0  0  0
 12100  1  0  0  0
 12101  1  0  0  0
 13102  1  0  0  0
 14103  1  0  0  0
 15104  1  0  0  0
 18105  1  0  0  0
 18106  1  0  0  0
 19107  1  0  0  0
 20108  1  0  0  0
 20109  1  0  0  0
 20110  1  0  0  0
 21111  1  0  0  0
 21112  1  0  0  0
 21113  1  0  0  0
 22114  1  0  0  0
 23115  1  0  0  0
 26116  1  0  0  0
 26117  1  0  0  0
 27118  1  0  0  0
 28119  1  0  0  0
 28120  1  0  0  0
 28121  1  0  0  0
 29122  1  0  0  0
 29123  1  0  0  0
 29124  1  0  0  0
 30125  1  0  0  0
 31126  1  0  0  0
 34127  1  0  0  0
 34128  1  0  0  0
 35129  1  0  0  0
 35130  1  0  0  0
 36131  1  0  0  0
 36132  1  0  0  0
 37133  1  0  0  0
 37134  1  0  0  0
 38135  1  0  0  0
 38136  1  0  0  0
 38137  1  0  0  0
 39138  1  0  0  0
 40139  1  0  0  0
 43140  1  0  0  0
 43141  1  0  0  0
 44142  1  0  0  0
 44143  1  0  0  0
 45144  1  0  0  0
 45145  1  0  0  0
 46146  1  0  0  0
 46147  1  0  0  0
 47148  1  0  0  0
 47149  1  0  0  0
 47150  1  0  0  0
 48151  1  0  0  0
 49152  1  0  0  0
 52153  1  0  0  0
 52154  1  0  0  0
 53155  1  0  0  0
 54156  1  0  0  0
 54157  1  0  0  0
 54158  1  0  0  0
 55159  1  0  0  0
 55160  1  0  0  0
 55161  1  0  0  0
 56162  1  0  0  0
 57163  1  0  0  0
 60164  1  0  0  0
 60165  1  0  0  0
 61166  1  0  0  0
 62167  1  0  0  0
 62168  1  0  0  0
 62169  1  0  0  0
 63170  1  0  0  0
 63171  1  0  0  0
 63172  1  0  0  0
 64173  1  0  0  0
 65174  1  0  0  0
 68175  1  0  0  0
 68176  1  0  0  0
 69177  1  0  0  0
 70178  1  0  0  0
 70179  1  0  0  0
 70180  1  0  0  0
 71181  1  0  0  0
 71182  1  0  0  0
 71183  1  0  0  0
 72184  1  0  0  0
 73185  1  0  0  0
 76186  1  0  0  0
 76187  1  0  0  0
 76188  1  0  0  0
 78189  1  0  0  0
 81190  1  0  0  0
 81191  1  0  0  0
 82192  1  0  0  0
 82193  1  0  0  0
 83194  1  0  0  0
 83195  1  0  0  0
 84196  1  0  0  0
 85197  1  0  0  0
 86198  1  0  0  0
 88199  1  0  0  0
 88200  1  0  0  0
 88201  1  0  0  0
M  END
$$$$
