### 
### Created by X-TOOL on Mon Sep 10 21:12:59 2018
### 

@<TRIPOS>MOLECULE
3cs8_ligand
  201   202     1     0     0
SMALL
GAST_HUCK


@<TRIPOS>ATOM
      1 N          28.3650  -20.7720   19.3230 N.4       1 PRO         0.2461
      2 CA         27.4710  -19.9700   18.4990 C.3       1 PRO         0.0670
      3 C          26.0260  -19.7530   18.9980 C.2       1 PRO         0.2268
      4 O          25.3780  -18.8000   18.5800 O.2       1 PRO        -0.3907
      5 CB         27.5350  -20.7220   17.1760 C.3       1 PRO         0.0127
      6 CG         29.0380  -21.0420   17.0710 C.3       1 PRO        -0.0053
      7 CD         29.5530  -21.1640   18.5270 C.3       1 PRO        -0.0313
      8 N          25.5680  -20.6040   19.9110 N.am      1 SER        -0.2589
      9 CA         24.2000  -20.6130   20.4470 C.3       1 SER         0.1540
     10 C          23.2580  -19.4400   20.1610 C.2       1 SER         0.2062
     11 O          22.3520  -19.5800   19.3490 O.2       1 SER        -0.3943
     12 CB         24.2240  -20.9510   21.9410 C.3       1 SER         0.0843
     13 OG         24.5000  -22.3310   22.1100 O.3       1 SER        -0.3903
     14 N          23.4570  -18.2940   20.8020 N.am      1 LEU        -0.2636
     15 CA         22.4340  -17.2290   20.7860 C.3       1 LEU         0.1312
     16 C          22.4750  -16.3620   19.5200 C.2       1 LEU         0.2039
     17 O          21.4360  -16.0410   18.9400 O.2       1 LEU        -0.3944
     18 CB         22.5600  -16.3710   22.0360 C.3       1 LEU        -0.0101
     19 CG         21.3430  -16.1020   22.9150 C.3       1 LEU        -0.0425
     20 CD1        20.4560  -17.3390   23.1620 C.3       1 LEU        -0.0625
     21 CD2        21.8160  -15.5200   24.2400 C.3       1 LEU        -0.0625
     22 N          23.6870  -16.0000   19.1060 N.am      1 LEU        -0.2637
     23 CA         23.9390  -15.3650   17.8210 C.3       1 LEU         0.1312
     24 C          23.4460  -16.2330   16.6730 C.2       1 LEU         0.2039
     25 O          22.8140  -15.7320   15.7680 O.2       1 LEU        -0.3944
     26 CB         25.4350  -15.0510   17.6300 C.3       1 LEU        -0.0101
     27 CG         26.0060  -13.7710   18.2550 C.3       1 LEU        -0.0425
     28 CD1        27.5030  -13.6370   17.9330 C.3       1 LEU        -0.0625
     29 CD2        25.2550  -12.5430   17.7910 C.3       1 LEU        -0.0625
     30 N          23.7380  -17.5290   16.7150 N.am      1 LYS        -0.2637
     31 CA         23.1490  -18.4540   15.7580 C.3       1 LYS         0.1310
     32 C          21.6460  -18.2990   15.6960 C.2       1 LYS         0.2039
     33 O          21.0810  -18.1760   14.6190 O.2       1 LYS        -0.3944
     34 CB         23.4690  -19.8920   16.1030 C.3       1 LYS        -0.0122
     35 CG         24.5420  -20.4370   15.2340 C.3       1 LYS        -0.0440
     36 CD         24.6670  -21.9220   15.3620 C.3       1 LYS        -0.0124
     37 CE         25.6640  -22.4440   14.3630 C.3       1 LYS        -0.0354
     38 NZ         26.6850  -23.2540   15.0740 N.4       1 LYS         0.2185
     39 N          21.0020  -18.3180   16.8560 N.am      1 LYS        -0.2637
     40 CA         19.5460  -18.2600   16.9100 C.3       1 LYS         0.1310
     41 C          19.0690  -16.9830   16.2220 C.2       1 LYS         0.2039
     42 O          18.1710  -17.0210   15.3930 O.2       1 LYS        -0.3944
     43 CB         19.0560  -18.3260   18.3460 C.3       1 LYS        -0.0122
     44 CG         19.2450  -19.6700   19.0670 C.3       1 LYS        -0.0440
     45 CD         18.8490  -19.5010   20.5400 C.3       1 LYS        -0.0124
     46 CE         19.1670  -20.6950   21.4540 C.3       1 LYS        -0.0354
     47 NZ         18.8120  -20.3900   22.9200 N.4       1 LYS         0.2185
     48 N          19.7010  -15.8530   16.5360 N.am      1 LEU        -0.2637
     49 CA         19.3530  -14.6020   15.8640 C.3       1 LEU         0.1312
     50 C          19.5880  -14.6480   14.3580 C.2       1 LEU         0.2039
     51 O          18.7670  -14.1050   13.5940 O.2       1 LEU        -0.3944
     52 CB         20.0740  -13.4050   16.4810 C.3       1 LEU        -0.0101
     53 CG         19.6340  -12.9680   17.8780 C.3       1 LEU        -0.0425
     54 CD1        20.4820  -11.8000   18.2680 C.3       1 LEU        -0.0625
     55 CD2        18.1110  -12.6120   17.9800 C.3       1 LEU        -0.0625
     56 N          20.6930  -15.2850   13.9450 N.am      1 LEU        -0.2637
     57 CA         21.0600  -15.4020   12.5370 C.3       1 LEU         0.1312
     58 C          20.1110  -16.2850   11.7190 C.2       1 LEU         0.2039
     59 O          19.9750  -16.1180   10.4910 O.2       1 LEU        -0.3944
     60 CB         22.5090  -15.8920   12.3880 C.3       1 LEU        -0.0101
     61 CG         23.5890  -14.8290   12.6630 C.3       1 LEU        -0.0425
     62 CD1        24.9580  -15.4530   12.8360 C.3       1 LEU        -0.0625
     63 CD2        23.5940  -13.7690   11.5430 C.3       1 LEU        -0.0625
     64 N          19.4670  -17.2340   12.3860 N.am      1 LEU        -0.2637
     65 CA         18.5560  -18.1690   11.7030 C.3       1 LEU         0.1312
     66 C          17.1190  -17.6390   11.6000 C.2       1 LEU         0.2039
     67 O          16.4090  -17.9660   10.6630 O.2       1 LEU        -0.3944
     68 CB         18.5350  -19.5220   12.4100 C.3       1 LEU        -0.0101
     69 CG         19.8060  -20.3410   12.3560 C.3       1 LEU        -0.0425
     70 CD1        19.8890  -21.2410   13.5420 C.3       1 LEU        -0.0625
     71 CD2        19.8720  -21.0810   11.0330 C.3       1 LEU        -0.0625
     72 N          16.6860  -16.8600   12.5770 N.am      1 ALA        -0.2640
     73 CA         15.3030  -16.4020   12.6170 C.3       1 ALA         0.1284
     74 C          15.0230  -15.5750   11.3750 C.2       1 ALA         0.2061
     75 O          15.6220  -14.5050   11.2020 O.2       1 ALA        -0.3942
     76 CB         15.0390  -15.5780   13.9040 C.3       1 ALA        -0.0244
     77 N          14.1290  -16.0740   10.4810 N.am      1 PRO        -0.2498
     78 CA         13.6670  -15.1370    9.4510 C.3       1 PRO         0.1338
     79 C          13.0070  -14.0010   10.2400 C.2       1 PRO         0.2042
     80 O          12.4510  -14.2500   11.3280 O.2       1 PRO        -0.3944
     81 CB         12.6190  -15.9450    8.6650 C.3       1 PRO        -0.0104
     82 CG         12.8930  -17.3500    8.9760 C.3       1 PRO        -0.0281
     83 CD         13.4760  -17.3950   10.3530 C.3       1 PRO         0.0369
     84 N          13.1040  -12.7710    9.7440 N.am      1 ALA        -0.2653
     85 CA         12.7070  -11.6230   10.5590 C.3       1 ALA         0.1100
     86 C          12.8130  -10.3110    9.7910 C.2       1 ALA         0.1242
     87 O          12.9340   -9.2340   10.4150 O.2       1 ALA        -0.3725
     88 CB         13.5610  -11.5660   11.8550 C.3       1 ALA        -0.0257
     89 H1         27.8819  -21.5997   19.6353 H         1 PRO         0.2035
     90 H2         28.6592  -20.2329   20.1223 H         1 PRO         0.2035
     91 H3         27.9105  -18.9690   18.3771 H         1 PRO         0.1099
     92 H4         27.2000  -20.0911   16.3395 H         1 PRO         0.0347
     93 H5         26.9307  -21.6406   17.2073 H         1 PRO         0.0347
     94 H6         29.1902  -21.9884   16.5315 H         1 PRO         0.0320
     95 H7         29.5652  -20.2318   16.5460 H         1 PRO         0.0320
     96 H8         29.8609  -22.1953   18.7543 H         1 PRO         0.0814
     97 H9         30.3960  -20.4811   18.7087 H         1 PRO         0.0814
     98 H10        26.2044  -21.2918   20.2603 H         1 SER         0.1885
     99 H11        23.7197  -21.4686   19.9498 H         1 SER         0.0823
    100 H12        23.2458  -20.7159   22.3857 H         1 SER         0.0606
    101 H13        25.0052  -20.3575   22.4385 H         1 SER         0.0606
    102 H14        24.5145  -22.5387   23.0369 H         1 SER         0.2097
    103 H15        24.3109  -18.1503   21.3022 H         1 LEU         0.1883
    104 H16        21.4497  -17.7194   20.8115 H         1 LEU         0.0800
    105 H17        22.9356  -15.3903   21.7088 H         1 LEU         0.0315
    106 H18        23.3109  -16.8560   22.6770 H         1 LEU         0.0315
    107 H19        20.7230  -15.3496   22.4056 H         1 LEU         0.0298
    108 H20        19.6059  -17.0588   23.8014 H         1 LEU         0.0232
    109 H21        21.0477  -18.1208   23.6606 H         1 LEU         0.0232
    110 H22        20.0816  -17.7197   22.2003 H         1 LEU         0.0232
    111 H23        22.4469  -14.6393   24.0492 H         1 LEU         0.0232
    112 H24        22.3983  -16.2769   24.7859 H         1 LEU         0.0232
    113 H25        20.9446  -15.2232   24.8421 H         1 LEU         0.0232
    114 H26        24.4653  -16.1734   19.7095 H         1 LEU         0.1883
    115 H27        23.3835  -14.4159   17.7983 H         1 LEU         0.0800
    116 H28        25.6174  -14.9914   16.5469 H         1 LEU         0.0315
    117 H29        25.9994  -15.8962   18.0509 H         1 LEU         0.0315
    118 H30        25.8939  -13.8462   19.3467 H         1 LEU         0.0298
    119 H31        27.8949  -12.7154   18.3882 H         1 LEU         0.0232
    120 H32        27.6412  -13.5948   16.8425 H         1 LEU         0.0232
    121 H33        28.0443  -14.5048   18.3379 H         1 LEU         0.0232
    122 H34        24.1868  -12.6549   18.0286 H         1 LEU         0.0232
    123 H35        25.3786  -12.4265   16.7042 H         1 LEU         0.0232
    124 H36        25.6533  -11.6545   18.3027 H         1 LEU         0.0232
    125 H37        24.3687  -17.8720   17.4111 H         1 LYS         0.1883
    126 H38        23.5672  -18.2297   14.7656 H         1 LYS         0.0800
    127 H39        22.5617  -20.5004   15.9739 H         1 LYS         0.0312
    128 H40        23.7985  -19.9427   17.1513 H         1 LYS         0.0312
    129 H41        25.4986  -19.9744   15.5184 H         1 LYS         0.0269
    130 H42        24.3116  -20.1890   14.1874 H         1 LYS         0.0269
    131 H43        23.6877  -22.3871   15.1760 H         1 LYS         0.0317
    132 H44        25.0049  -22.1726   16.3784 H         1 LYS         0.0317
    133 H45        26.1524  -21.5998   13.8543 H         1 LYS         0.0813
    134 H46        25.1481  -23.0707   13.6207 H         1 LYS         0.0813
    135 H47        27.3562  -23.6067   14.4098 H         1 LYS         0.1994
    136 H48        26.2359  -24.0266   15.5404 H         1 LYS         0.1994
    137 H49        27.1562  -22.6787   15.7545 H         1 LYS         0.1994
    138 H50        21.5238  -18.3730   17.7073 H         1 LYS         0.1883
    139 H51        19.1384  -19.1249   16.3662 H         1 LYS         0.0800
    140 H52        17.9807  -18.0944   18.3445 H         1 LYS         0.0312
    141 H53        19.5956  -17.5585   18.9202 H         1 LYS         0.0312
    142 H54        20.2982  -19.9803   19.0006 H         1 LYS         0.0269
    143 H55        18.6074  -20.4340   18.5981 H         1 LYS         0.0269
    144 H56        17.7642  -19.3231   20.5806 H         1 LYS         0.0317
    145 H57        19.3798  -18.6220   20.9345 H         1 LYS         0.0317
    146 H58        20.2412  -20.9219   21.3857 H         1 LYS         0.0813
    147 H59        18.5860  -21.5669   21.1190 H         1 LYS         0.0813
    148 H60        19.0316  -21.1902   23.4923 H         1 LYS         0.1994
    149 H61        17.8276  -20.1856   22.9918 H         1 LYS         0.1994
    150 H62        19.3443  -19.5946   23.2362 H         1 LYS         0.1994
    151 H63        20.4166  -15.8605   17.2345 H         1 LEU         0.1883
    152 H64        18.2746  -14.4485   16.0175 H         1 LEU         0.0800
    153 H65        19.9305  -12.5484   15.8060 H         1 LEU         0.0315
    154 H66        21.1439  -13.6547   16.5342 H         1 LEU         0.0315
    155 H67        19.8284  -13.7964   18.5750 H         1 LEU         0.0298
    156 H68        20.1932  -11.4563   19.2722 H         1 LEU         0.0232
    157 H69        20.3366  -10.9837   17.5452 H         1 LEU         0.0232
    158 H70        21.5401  -12.1007   18.2736 H         1 LEU         0.0232
    159 H71        17.5099  -13.4859   17.6885 H         1 LEU         0.0232
    160 H72        17.8852  -11.7710   17.3079 H         1 LEU         0.0232
    161 H73        17.8690  -12.3293   19.0151 H         1 LEU         0.0232
    162 H74        21.2918  -15.6979   14.6313 H         1 LEU         0.1883
    163 H75        21.0061  -14.3905   12.1082 H         1 LEU         0.0800
    164 H76        22.6421  -16.2546   11.3580 H         1 LEU         0.0315
    165 H77        22.6619  -16.7233   13.0920 H         1 LEU         0.0315
    166 H78        23.3318  -14.3237   13.6056 H         1 LEU         0.0298
    167 H79        25.6989  -14.6635   13.0300 H         1 LEU         0.0232
    168 H80        25.2321  -15.9957   11.9193 H         1 LEU         0.0232
    169 H81        24.9374  -16.1529   13.6843 H         1 LEU         0.0232
    170 H82        22.5876  -13.3363   11.4432 H         1 LEU         0.0232
    171 H83        23.8861  -14.2406   10.5931 H         1 LEU         0.0232
    172 H84        24.3117  -12.9740   11.7937 H         1 LEU         0.0232
    173 H85        19.6028  -17.3164   13.3733 H         1 LEU         0.1883
    174 H86        18.9367  -18.3172   10.6817 H         1 LEU         0.0800
    175 H87        17.7331  -20.1223   11.9555 H         1 LEU         0.0315
    176 H88        18.3014  -19.3401   13.4694 H         1 LEU         0.0315
    177 H89        20.6639  -19.6539   12.3992 H         1 LEU         0.0298
    178 H90        20.8164  -21.8303   13.4909 H         1 LEU         0.0232
    179 H91        19.0233  -21.9196   13.5486 H         1 LEU         0.0232
    180 H92        19.8886  -20.6371   14.4614 H         1 LEU         0.0232
    181 H93        19.8056  -20.3593   10.2055 H         1 LEU         0.0232
    182 H94        19.0347  -21.7914   10.9680 H         1 LEU         0.0232
    183 H95        20.8236  -21.6287   10.9663 H         1 LEU         0.0232
    184 H96        17.3178  -16.5807   13.3001 H         1 ALA         0.1883
    185 H97        14.6367  -17.2772   12.6192 H         1 ALA         0.0797
    186 H98        13.9917  -15.2418   13.9157 H         1 ALA         0.0277
    187 H99        15.7052  -14.7029   13.9222 H         1 ALA         0.0277
    188 H100       15.2328  -16.2048   14.7869 H         1 ALA         0.0277
    189 H101       14.4750  -14.7691    8.8016 H         1 PRO         0.0802
    190 H102       12.7240  -15.7629    7.5853 H         1 PRO         0.0313
    191 H103       11.6030  -15.6715    8.9859 H         1 PRO         0.0313
    192 H104       11.9600  -17.9317    8.9430 H         1 PRO         0.0287
    193 H105       13.6089  -17.7635    8.2504 H         1 PRO         0.0287
    194 H106       12.6895  -17.5224   11.1113 H         1 PRO         0.0524
    195 H107       14.2097  -18.2093   10.4453 H         1 PRO         0.0524
    196 H108       13.4478  -12.6311    8.8154 H         1 ALA         0.1884
    197 H109       11.6543  -11.7605   10.8468 H         1 ALA         0.0787
    198 H110       12.7835  -10.3113    8.7024 H         1 ALA         0.1373
    199 H111       13.2535  -10.6995   12.4589 H         1 ALA         0.0278
    200 H112       14.6241  -11.4692   11.5897 H         1 ALA         0.0278
    201 H113       13.4102  -12.4888   12.4344 H         1 ALA         0.0278
@<TRIPOS>BOND
     1    3    2 1  
     2    2    5 1  
     3    2    1 1  
     4    1    7 1  
     5    7    6 1  
     6    5    6 1  
     7    3    4 2  
     8    9    8 1  
     9    9   12 1  
    10   10    9 1  
    11   10   11 2  
    12   12   13 1  
    13    8    3 am 
    14   15   14 1  
    15   15   18 1  
    16   16   15 1  
    17   16   17 2  
    18   18   19 1  
    19   19   20 1  
    20   19   21 1  
    21   14   10 am 
    22   23   22 1  
    23   23   26 1  
    24   24   23 1  
    25   24   25 2  
    26   26   27 1  
    27   27   28 1  
    28   27   29 1  
    29   22   16 am 
    30   31   30 1  
    31   31   34 1  
    32   32   31 1  
    33   32   33 2  
    34   34   35 1  
    35   35   36 1  
    36   36   37 1  
    37   37   38 1  
    38   30   24 am 
    39   40   39 1  
    40   40   43 1  
    41   41   40 1  
    42   41   42 2  
    43   43   44 1  
    44   44   45 1  
    45   45   46 1  
    46   46   47 1  
    47   39   32 am 
    48   49   48 1  
    49   49   52 1  
    50   50   49 1  
    51   50   51 2  
    52   52   53 1  
    53   53   54 1  
    54   53   55 1  
    55   48   41 am 
    56   57   56 1  
    57   57   60 1  
    58   58   57 1  
    59   58   59 2  
    60   60   61 1  
    61   61   62 1  
    62   61   63 1  
    63   56   50 am 
    64   65   64 1  
    65   65   68 1  
    66   66   65 1  
    67   66   67 2  
    68   68   69 1  
    69   69   70 1  
    70   69   71 1  
    71   64   58 am 
    72   73   72 1  
    73   73   76 1  
    74   74   73 1  
    75   74   75 2  
    76   72   66 am 
    77   79   78 1  
    78   78   81 1  
    79   78   77 1  
    80   77   83 1  
    81   83   82 1  
    82   81   82 1  
    83   79   80 2  
    84   77   74 am 
    85   84   85 1  
    86   85   88 1  
    87   85   86 1  
    88   86   87 2  
    89   79   84 am 
    90    1   89 1  
    91    1   90 1  
    92    2   91 1  
    93    5   92 1  
    94    5   93 1  
    95    6   94 1  
    96    6   95 1  
    97    7   96 1  
    98    7   97 1  
    99    8   98 1  
   100    9   99 1  
   101   12  100 1  
   102   12  101 1  
   103   13  102 1  
   104   14  103 1  
   105   15  104 1  
   106   18  105 1  
   107   18  106 1  
   108   19  107 1  
   109   20  108 1  
   110   20  109 1  
   111   20  110 1  
   112   21  111 1  
   113   21  112 1  
   114   21  113 1  
   115   22  114 1  
   116   23  115 1  
   117   26  116 1  
   118   26  117 1  
   119   27  118 1  
   120   28  119 1  
   121   28  120 1  
   122   28  121 1  
   123   29  122 1  
   124   29  123 1  
   125   29  124 1  
   126   30  125 1  
   127   31  126 1  
   128   34  127 1  
   129   34  128 1  
   130   35  129 1  
   131   35  130 1  
   132   36  131 1  
   133   36  132 1  
   134   37  133 1  
   135   37  134 1  
   136   38  135 1  
   137   38  136 1  
   138   38  137 1  
   139   39  138 1  
   140   40  139 1  
   141   43  140 1  
   142   43  141 1  
   143   44  142 1  
   144   44  143 1  
   145   45  144 1  
   146   45  145 1  
   147   46  146 1  
   148   46  147 1  
   149   47  148 1  
   150   47  149 1  
   151   47  150 1  
   152   48  151 1  
   153   49  152 1  
   154   52  153 1  
   155   52  154 1  
   156   53  155 1  
   157   54  156 1  
   158   54  157 1  
   159   54  158 1  
   160   55  159 1  
   161   55  160 1  
   162   55  161 1  
   163   56  162 1  
   164   57  163 1  
   165   60  164 1  
   166   60  165 1  
   167   61  166 1  
   168   62  167 1  
   169   62  168 1  
   170   62  169 1  
   171   63  170 1  
   172   63  171 1  
   173   63  172 1  
   174   64  173 1  
   175   65  174 1  
   176   68  175 1  
   177   68  176 1  
   178   69  177 1  
   179   70  178 1  
   180   70  179 1  
   181   70  180 1  
   182   71  181 1  
   183   71  182 1  
   184   71  183 1  
   185   72  184 1  
   186   73  185 1  
   187   76  186 1  
   188   76  187 1  
   189   76  188 1  
   190   78  189 1  
   191   81  190 1  
   192   81  191 1  
   193   82  192 1  
   194   82  193 1  
   195   83  194 1  
   196   83  195 1  
   197   84  196 1  
   198   85  197 1  
   199   86  198 1  
   200   88  199 1  
   201   88  200 1  
   202   88  201 1  
@<TRIPOS>SUBSTRUCTURE
     1 PRO         1

