4oaz_ligand
  -I-interpret- 

 70 76  0  0  0  0  0  0  0  0999 V2000
   12.0570   51.4860    5.9550 P   0  0  0  0  0
   11.0790   50.3700    5.9320 O   0  0  0  0  0
   13.2720   51.1600    5.1630 O   0  0  0  0  0
   12.5710   51.8990    7.3920 O   0  0  0  0  0
   11.5620   52.1780    8.2980 C   0  0  0  0  0
   12.2510   53.0480    9.3070 C   0  0  0  0  0
   13.2030   52.4260   10.0740 O   0  0  0  0  0
   12.6270   54.4380    9.0140 C   0  0  0  0  0
   11.5500   55.3260    8.9660 O   0  0  0  0  0
   13.5000   54.7140   10.1130 C   0  0  0  0  0
   12.8140   55.1200   11.3350 O   0  0  0  0  0
   14.1120   53.4440   10.4130 C   0  0  0  0  0
   15.3760   53.1000    9.6850 N   0  0  0  0  0
   15.5840   52.3060    8.6220 C   0  0  0  0  0
   16.7890   52.2590    8.3280 N   0  0  0  0  0
   17.5340   53.0360    9.1050 C   0  0  0  0  0
   18.8590   53.3690    9.2620 C   0  0  0  0  0
   19.8350   52.8820    8.4550 O   0  0  0  0  0
   19.2370   54.2110   10.2530 N   0  0  0  0  0
   18.3030   54.7750   11.0940 C   0  0  0  0  0
   18.7620   55.6950   12.1350 N   0  0  0  0  0
   16.9860   54.4650   11.0300 N   0  0  0  0  0
   16.6000   53.6140   10.0630 C   0  0  0  0  0
   11.6490   56.6120    8.0910 P   0  0  0  0  0
   10.4060   57.4680    8.2920 O   0  0  0  0  0
   12.9190   57.2870    8.5010 O   0  0  0  0  0
   11.8050   56.1940    6.5710 O   0  0  0  0  0
   10.6330   55.7270    5.9570 C   0  0  0  0  0
   11.1660   54.9860    4.7760 C   0  0  0  0  0
   11.5450   55.8700    3.7050 O   0  0  0  0  0
   12.0060   53.7760    4.9030 C   0  0  0  0  0
   11.2460   52.6350    5.2790 O   0  0  0  0  0
   12.5740   53.7500    3.5260 C   0  0  0  0  0
   11.7770   53.0510    2.6650 O   0  0  0  0  0
   12.6140   55.2110    3.1180 C   0  0  0  0  0
   13.8430   55.8920    3.4640 N   0  0  0  0  0
   14.1330   56.6930    4.4540 C   0  0  0  0  0
   15.3090   57.0680    4.3730 N   0  0  0  0  0
   16.0070   56.5240    3.3890 C   0  0  0  0  0
   17.2990   56.5400    2.8320 C   0  0  0  0  0
   18.2900   57.2350    3.3290 O   0  0  0  0  0
   17.5400   55.8360    1.7280 N   0  0  0  0  0
   16.5960   55.0450    1.1480 C   0  0  0  0  0
   16.9250   54.2780   -0.0270 N   0  0  0  0  0
   15.3320   54.9670    1.6130 N   0  0  0  0  0
   15.0470   55.7030    2.7290 C   0  0  0  0  0
   13.8831   51.8996    5.1976 H   0  0  0  0  0
   11.1277   51.2805    8.7384 H   0  0  0  0  0
   10.7012   52.6629    7.8376 H   0  0  0  0  0
   11.3423   53.2102    9.8867 H   0  0  0  0  0
   13.0684   54.5622    8.0252 H   0  0  0  0  0
   14.1694   55.5263    9.8299 H   0  0  0  0  0
   13.4616   55.2870   12.0238 H   0  0  0  0  0
   14.3691   53.5257   11.4691 H   0  0  0  0  0
   14.7978   51.7728    8.0875 H   0  0  0  0  0
   20.2253   54.4303   10.3782 H   0  0  0  0  0
   18.0941   56.0909   12.7965 H   0  0  0  0  0
   19.7499   55.9405   12.1993 H   0  0  0  0  0
    9.6312   56.9763    8.0101 H   0  0  0  0  0
    9.9431   56.5262    5.6861 H   0  0  0  0  0
   10.0232   55.1061    6.6133 H   0  0  0  0  0
   10.2633   54.4301    4.5227 H   0  0  0  0  0
   12.7639   53.7777    5.6863 H   0  0  0  0  0
   13.5490   53.2633    3.5001 H   0  0  0  0  0
   12.1723   53.0549    1.7902 H   0  0  0  0  0
   12.5535   55.2306    2.0299 H   0  0  0  0  0
   13.4378   56.9889    5.2397 H   0  0  0  0  0
   18.4649   55.8913    1.3016 H   0  0  0  0  0
   16.2127   53.7026   -0.4764 H   0  0  0  0  0
   17.8701   54.3106   -0.4092 H   0  0  0  0  0
  1  2  2  0  0  0
  1  3  1  0  0  0
  1  4  1  0  0  0
  1 32  1  0  0  0
  4  5  1  0  0  0
  5  6  1  0  0  0
  6  7  1  0  0  0
  6  8  1  0  0  0
  7 12  1  0  0  0
  8  9  1  0  0  0
  8 10  1  0  0  0
  9 24  1  0  0  0
 10 11  1  0  0  0
 10 12  1  0  0  0
 12 13  1  0  0  0
 13 14  4  0  0  0
 13 23  4  0  0  0
 14 15  4  0  0  0
 15 16  4  0  0  0
 16 17  1  0  0  0
 16 23  4  0  0  0
 17 18  2  0  0  0
 17 19  1  0  0  0
 19 20  1  0  0  0
 20 21  1  0  0  0
 20 22  2  0  0  0
 22 23  1  0  0  0
 24 25  1  0  0  0
 24 26  2  0  0  0
 24 27  1  0  0  0
 27 28  1  0  0  0
 28 29  1  0  0  0
 29 30  1  0  0  0
 29 31  1  0  0  0
 30 35  1  0  0  0
 31 32  1  0  0  0
 31 33  1  0  0  0
 33 34  1  0  0  0
 33 35  1  0  0  0
 35 36  1  0  0  0
 36 37  4  0  0  0
 36 46  4  0  0  0
 37 38  4  0  0  0
 38 39  4  0  0  0
 39 40  1  0  0  0
 39 46  4  0  0  0
 40 41  2  0  0  0
 40 42  1  0  0  0
 42 43  1  0  0  0
 43 44  1  0  0  0
 43 45  2  0  0  0
 45 46  1  0  0  0
  3 47  1  0  0  0
  5 48  1  0  0  0
  5 49  1  0  0  0
  6 50  1  0  0  0
  8 51  1  0  0  0
 10 52  1  0  0  0
 11 53  1  0  0  0
 12 54  1  0  0  0
 14 55  1  0  0  0
 19 56  1  0  0  0
 21 57  1  0  0  0
 21 58  1  0  0  0
 25 59  1  0  0  0
 28 60  1  0  0  0
 28 61  1  0  0  0
 29 62  1  0  0  0
 31 63  1  0  0  0
 33 64  1  0  0  0
 34 65  1  0  0  0
 35 66  1  0  0  0
 37 67  1  0  0  0
 42 68  1  0  0  0
 44 69  1  0  0  0
 44 70  1  0  0  0
M  END
$$$$
