### 
### Created by X-TOOL on Mon Sep 10 21:13:20 2018
### 

@<TRIPOS>MOLECULE
4oaz_ligand
   68    74     1     0     0
SMALL
GAST_HUCK


@<TRIPOS>ATOM
      1 P1         12.0570   51.4860    5.9550 P.3       1 C2E         0.2557
      2 O2P        11.0790   50.3700    5.9320 O.co2     1 C2E        -0.6177
      3 O1P        13.2720   51.1600    5.1630 O.co2     1 C2E        -0.6177
      4 O5'        12.5710   51.8990    7.3920 O.3       1 C2E        -0.2514
      5 C5'        11.5620   52.1780    8.2980 C.3       1 C2E         0.1128
      6 C4'        12.2510   53.0480    9.3070 C.3       1 C2E         0.1242
      7 O4'        13.2030   52.4260   10.0740 O.3       1 C2E        -0.3359
      8 C3'        12.6270   54.4380    9.0140 C.3       1 C2E         0.1540
      9 O3'        11.5500   55.3260    8.9660 O.3       1 C2E        -0.2453
     10 C2'        13.5000   54.7140   10.1130 C.3       1 C2E         0.1440
     11 O2'        12.8140   55.1200   11.3350 O.3       1 C2E        -0.3832
     12 C1'        14.1120   53.4440   10.4130 C.3       1 C2E         0.1996
     13 N9         15.3760   53.1000    9.6850 N.pl3     1 C2E        -0.2101
     14 C8         15.5840   52.3060    8.6220 C.2       1 C2E         0.0957
     15 N7         16.7890   52.2590    8.3280 N.2       1 C2E        -0.3235
     16 C5         17.5340   53.0360    9.1050 C.2       1 C2E         0.0926
     17 C6         18.8590   53.3690    9.2620 C.2       1 C2E         0.2135
     18 O6         19.8350   52.8820    8.4550 O.2       1 C2E        -0.4091
     19 N1         19.2370   54.2110   10.2530 N.am      1 C2E        -0.1839
     20 C2         18.3030   54.7750   11.0940 C.2       1 C2E         0.2340
     21 N2         18.7620   55.6950   12.1350 N.pl3     1 C2E        -0.2807
     22 N3         16.9860   54.4650   11.0300 N.2       1 C2E        -0.2765
     23 C4         16.6000   53.6140   10.0630 C.2       1 C2E         0.1159
     24 P11        11.6490   56.6120    8.0910 P.3       1 C2E         0.2557
     25 O21        10.4060   57.4680    8.2920 O.co2     1 C2E        -0.6177
     26 O11        12.9190   57.2870    8.5010 O.co2     1 C2E        -0.6177
     27 O5A        11.8050   56.1940    6.5710 O.3       1 C2E        -0.2514
     28 C5A        10.6330   55.7270    5.9570 C.3       1 C2E         0.1128
     29 C4A        11.1660   54.9860    4.7760 C.3       1 C2E         0.1242
     30 O4A        11.5450   55.8700    3.7050 O.3       1 C2E        -0.3359
     31 C3A        12.0060   53.7760    4.9030 C.3       1 C2E         0.1540
     32 O3A        11.2460   52.6350    5.2790 O.3       1 C2E        -0.2453
     33 C2A        12.5740   53.7500    3.5260 C.3       1 C2E         0.1440
     34 O2A        11.7770   53.0510    2.6650 O.3       1 C2E        -0.3832
     35 C1A        12.6140   55.2110    3.1180 C.3       1 C2E         0.1996
     36 N91        13.8430   55.8920    3.4640 N.pl3     1 C2E        -0.2101
     37 C81        14.1330   56.6930    4.4540 C.2       1 C2E         0.0957
     38 N71        15.3090   57.0680    4.3730 N.2       1 C2E        -0.3235
     39 C51        16.0070   56.5240    3.3890 C.2       1 C2E         0.0926
     40 C61        17.2990   56.5400    2.8320 C.2       1 C2E         0.2135
     41 O61        18.2900   57.2350    3.3290 O.2       1 C2E        -0.4091
     42 N11        17.5400   55.8360    1.7280 N.am      1 C2E        -0.1839
     43 C21        16.5960   55.0450    1.1480 C.2       1 C2E         0.2340
     44 N21        16.9250   54.2780   -0.0270 N.pl3     1 C2E        -0.2807
     45 N31        15.3320   54.9670    1.6130 N.2       1 C2E        -0.2765
     46 C41        15.0470   55.7030    2.7290 C.2       1 C2E         0.1159
     47 H1         11.1817   51.2567    8.7634 H         1 C2E         0.0647
     48 H2         10.7322   52.7138    7.8140 H         1 C2E         0.0647
     49 H3         11.4323   53.1989   10.0260 H         1 C2E         0.0655
     50 H4         13.1670   54.4975    8.0575 H         1 C2E         0.0712
     51 H5         14.2431   55.4733    9.8281 H         1 C2E         0.0681
     52 H6         12.3154   55.9114   11.1689 H         1 C2E         0.2102
     53 H7         14.3199   53.4209   11.4929 H         1 C2E         0.0998
     54 H8         14.7985   51.7733    8.0880 H         1 C2E         0.1179
     55 H9         20.2059   54.4260   10.3758 H         1 C2E         0.2515
     56 H10        18.0818   56.1287   12.7754 H         1 C2E         0.1897
     57 H11        19.7653   55.9089   12.2274 H         1 C2E         0.1897
     58 H12         9.9870   56.5610    5.6455 H         1 C2E         0.0647
     59 H13        10.0717   55.0586    6.6264 H         1 C2E         0.0647
     60 H14        10.2403   54.5366    4.3871 H         1 C2E         0.0655
     61 H15        12.8028   53.9164    5.6483 H         1 C2E         0.0712
     62 H16        13.5834   53.3128    3.5302 H         1 C2E         0.0681
     63 H17        11.6910   52.1557    2.9709 H         1 C2E         0.2102
     64 H18        12.5020   55.2577    2.0247 H         1 C2E         0.0998
     65 H19        13.4385   56.9886    5.2389 H         1 C2E         0.1179
     66 H20        18.4468   55.8902    1.3099 H         1 C2E         0.2515
     67 H21        16.2121   53.6789   -0.4673 H         1 C2E         0.1897
     68 H22        17.8730   54.3289   -0.4265 H         1 C2E         0.1897
@<TRIPOS>BOND
     1    1    2 ar 
     2    1    3 ar 
     3    1    4 1  
     4    1   32 1  
     5    4    5 1  
     6    5    6 1  
     7    6    7 1  
     8    6    8 1  
     9    7   12 1  
    10    8    9 1  
    11    8   10 1  
    12    9   24 1  
    13   10   11 1  
    14   10   12 1  
    15   12   13 1  
    16   13   14 1  
    17   13   23 1  
    18   14   15 2  
    19   15   16 1  
    20   16   17 1  
    21   16   23 2  
    22   17   18 2  
    23   17   19 am 
    24   19   20 am 
    25   20   21 1  
    26   20   22 2  
    27   22   23 1  
    28   24   25 ar 
    29   24   26 ar 
    30   24   27 1  
    31   27   28 1  
    32   28   29 1  
    33   29   30 1  
    34   29   31 1  
    35   30   35 1  
    36   31   32 1  
    37   31   33 1  
    38   33   34 1  
    39   33   35 1  
    40   35   36 1  
    41   36   37 1  
    42   36   46 1  
    43   37   38 2  
    44   38   39 1  
    45   39   40 1  
    46   39   46 2  
    47   40   41 2  
    48   40   42 am 
    49   42   43 am 
    50   43   44 1  
    51   43   45 2  
    52   45   46 1  
    53    5   47 1  
    54    5   48 1  
    55    6   49 1  
    56    8   50 1  
    57   10   51 1  
    58   11   52 1  
    59   12   53 1  
    60   14   54 1  
    61   19   55 1  
    62   21   56 1  
    63   21   57 1  
    64   28   58 1  
    65   28   59 1  
    66   29   60 1  
    67   31   61 1  
    68   33   62 1  
    69   34   63 1  
    70   35   64 1  
    71   37   65 1  
    72   42   66 1  
    73   44   67 1  
    74   44   68 1  
@<TRIPOS>SUBSTRUCTURE
     1 C2E         1

