2jbv_ligand
  -I-interpret- 

 90 95  0  0  0  0  0  0  0  0999 V2000
   88.2160   33.5680   70.9570 P   0  0  0  0  0
   87.1810   33.5340   69.9020 O   0  0  0  0  0
   88.4920   34.8690   71.6330 O   0  0  0  0  0
   89.6270   33.1430   70.3120 O   0  0  0  0  0
   89.6870   32.1330   69.2500 C   0  0  0  0  0
   90.6740   32.6520   68.1900 C   0  0  0  0  0
   90.9280   31.5750   67.3060 O   0  0  0  0  0
   90.0860   33.7850   67.3450 C   0  0  0  0  0
   91.0820   34.8000   67.3460 O   0  0  0  0  0
   89.8740   33.1030   65.9760 C   0  0  0  0  0
   90.0430   33.9880   64.8900 O   0  0  0  0  0
   90.9820   32.0820   65.9920 C   0  0  0  0  0
   90.7120   30.9100   65.1160 N   0  0  0  0  0
   89.5330   30.2590   64.9740 C   0  0  0  0  0
   89.6950   29.2890   64.0860 N   0  0  0  0  0
   90.9720   29.2950   63.6720 C   0  0  0  0  0
   91.7030   28.5130   62.7600 C   0  0  0  0  0
   91.1320   27.4930   62.1200 N   0  0  0  0  0
   93.0130   28.7740   62.5590 N   0  0  0  0  0
   93.6070   29.8080   63.2090 C   0  0  0  0  0
   92.9430   30.5800   64.0980 N   0  0  0  0  0
   91.6200   30.3540   64.3140 C   0  0  0  0  0
   81.7280   38.1820   77.5380 N   0  0  0  0  0
   82.4690   38.9940   78.3530 C   0  0  0  0  0
   82.8390   38.5760   79.4590 O   0  0  0  0  0
   82.7170   40.2720   77.8530 N   0  0  0  0  0
   82.1300   40.5600   76.5660 C   0  0  0  0  0
   82.3960   41.6410   76.0750 O   0  0  0  0  0
   80.6790   39.9730   76.2900 C   0  0  0  0  0
   79.9490   40.1960   75.0220 N   0  0  0  0  0
   80.4570   39.7070   73.8290 C   0  0  0  0  0
   79.9750   40.2100   72.6080 C   0  0  0  0  0
   80.4550   39.6930   71.3970 C   0  0  0  0  0
   79.8960   40.2810   70.0990 C   0  0  0  0  0
   81.4320   38.6560   71.4170 C   0  0  0  0  0
   82.0250   38.0320   70.1190 C   0  0  0  0  0
   81.9000   38.1580   72.6500 C   0  0  0  0  0
   81.4080   38.6580   73.8690 C   0  0  0  0  0
   81.9260   38.1900   75.0430 N   0  0  0  0  0
   81.3310   38.6630   76.3050 C   0  0  0  0  0
   82.2550   36.7720   75.1210 C   0  0  0  0  0
   83.8190   36.6580   75.2640 C   0  0  0  0  0
   84.4770   37.6590   74.4560 O   0  0  0  0  0
   84.2530   35.2660   74.8010 C   0  0  0  0  0
   83.5890   34.3250   75.6060 O   0  0  0  0  0
   85.7920   35.0270   74.8410 C   0  0  0  0  0
   86.4300   36.0140   73.9970 O   0  0  0  0  0
   86.0940   33.6430   74.2790 C   0  0  0  0  0
   87.5530   33.4780   74.2340 O   0  0  0  0  0
   88.2430   32.1800   73.5590 P   0  0  0  0  0
   89.7200   32.3000   73.7820 O   0  0  0  0  0
   87.5420   30.9710   73.9650 O   0  0  0  0  0
   87.8740   32.3420   71.9650 O   0  0  0  0  0
   89.1806   34.7469   72.2907 H   0  0  0  0  0
   88.7010   31.9737   68.8134 H   0  0  0  0  0
   90.0183   31.1740   69.6484 H   0  0  0  0  0
   91.5610   33.0269   68.7006 H   0  0  0  0  0
   89.1542   34.2454   67.6735 H   0  0  0  0  0
   91.1550   35.1743   68.2270 H   0  0  0  0  0
   88.8671   32.7061   65.8465 H   0  0  0  0  0
   89.9005   33.5142   64.0673 H   0  0  0  0  0
   91.9155   32.5412   65.6666 H   0  0  0  0  0
   88.6079   30.4932   65.5007 H   0  0  0  0  0
   90.1511   27.2700   62.2887 H   0  0  0  0  0
   91.6759   26.9354   61.4615 H   0  0  0  0  0
   94.6563   30.0230   63.0067 H   0  0  0  0  0
   81.4737   37.2399   77.8350 H   0  0  0  0  0
   83.2754   40.9570   78.3623 H   0  0  0  0  0
   79.8649   40.3260   76.9231 H   0  0  0  0  0
   79.0688   40.7115   75.0262 H   0  0  0  0  0
   79.2271   41.0030   72.6031 H   0  0  0  0  0
   78.8172   40.1286   70.0676 H   0  0  0  0  0
   80.1147   41.3482   70.0613 H   0  0  0  0  0
   80.3594   39.7835   69.2471 H   0  0  0  0  0
   81.2216   37.5887   69.5306 H   0  0  0  0  0
   82.5177   38.8099   69.5357 H   0  0  0  0  0
   82.7492   37.2622   70.3855 H   0  0  0  0  0
   82.6556   37.3725   72.6588 H   0  0  0  0  0
   80.5312   37.9271   76.2221 H   0  0  0  0  0
   81.9145   36.2513   74.2260 H   0  0  0  0  0
   81.7589   36.3114   75.9753 H   0  0  0  0  0
   84.0970   36.8163   76.3060 H   0  0  0  0  0
   85.4281   37.5745   74.5555 H   0  0  0  0  0
   83.9829   35.1647   73.7499 H   0  0  0  0  0
   83.8433   33.4393   75.3369 H   0  0  0  0  0
   86.1573   35.1030   75.8652 H   0  0  0  0  0
   87.3804   35.8794   74.0114 H   0  0  0  0  0
   85.6733   33.5435   73.2784 H   0  0  0  0  0
   85.6481   32.8750   74.9110 H   0  0  0  0  0
   90.0229   33.1522   73.4601 H   0  0  0  0  0
  1  2  2  0  0  0
  1  3  1  0  0  0
  1  4  1  0  0  0
 53  1  1  0  0  0
  4  5  1  0  0  0
  5  6  1  0  0  0
  6  7  1  0  0  0
  6  8  1  0  0  0
  7 12  1  0  0  0
  8  9  1  0  0  0
  8 10  1  0  0  0
 10 11  1  0  0  0
 10 12  1  0  0  0
 12 13  1  0  0  0
 13 14  4  0  0  0
 13 22  4  0  0  0
 14 15  4  0  0  0
 16 15  4  0  0  0
 16 17  4  0  0  0
 22 16  4  0  0  0
 17 18  1  0  0  0
 17 19  4  0  0  0
 20 19  4  0  0  0
 21 20  4  0  0  0
 22 21  4  0  0  0
 23 24  1  0  0  0
 40 23  1  0  0  0
 24 25  2  0  0  0
 24 26  1  0  0  0
 27 26  1  0  0  0
 27 28  2  0  0  0
 29 27  1  0  0  0
 29 30  1  0  0  0
 40 29  1  0  0  0
 31 30  1  0  0  0
 31 32  4  0  0  0
 38 31  4  0  0  0
 32 33  4  0  0  0
 33 34  1  0  0  0
 35 33  4  0  0  0
 35 36  1  0  0  0
 37 35  4  0  0  0
 38 37  4  0  0  0
 39 38  1  0  0  0
 39 40  1  0  0  0
 41 39  1  0  0  0
 42 41  1  0  0  0
 42 43  1  0  0  0
 44 42  1  0  0  0
 44 45  1  0  0  0
 46 44  1  0  0  0
 46 47  1  0  0  0
 48 46  1  0  0  0
 49 48  1  0  0  0
 50 49  1  0  0  0
 50 51  1  0  0  0
 50 52  2  0  0  0
 50 53  1  0  0  0
  3 54  1  0  0  0
  5 55  1  0  0  0
  5 56  1  0  0  0
  6 57  1  0  0  0
  8 58  1  0  0  0
  9 59  1  0  0  0
 10 60  1  0  0  0
 11 61  1  0  0  0
 12 62  1  0  0  0
 14 63  1  0  0  0
 18 64  1  0  0  0
 18 65  1  0  0  0
 20 66  1  0  0  0
 23 67  1  0  0  0
 26 68  1  0  0  0
 29 69  1  0  0  0
 30 70  1  0  0  0
 32 71  1  0  0  0
 34 72  1  0  0  0
 34 73  1  0  0  0
 34 74  1  0  0  0
 36 75  1  0  0  0
 36 76  1  0  0  0
 36 77  1  0  0  0
 37 78  1  0  0  0
 40 79  1  0  0  0
 41 80  1  0  0  0
 41 81  1  0  0  0
 42 82  1  0  0  0
 43 83  1  0  0  0
 44 84  1  0  0  0
 45 85  1  0  0  0
 46 86  1  0  0  0
 47 87  1  0  0  0
 48 88  1  0  0  0
 48 89  1  0  0  0
 51 90  1  0  0  0
M  END
$$$$
