### 
### Created by X-TOOL on Mon Sep 10 21:12:55 2018
### 

@<TRIPOS>MOLECULE
2jbv_ligand
   88    93     1     0     0
SMALL
GAST_HUCK


@<TRIPOS>ATOM
      1 PA         88.2160   33.5680   70.9570 P.3       1 FAO         0.2972
      2 O1A        87.1810   33.5340   69.9020 O.co2     1 FAO        -0.6127
      3 O2A        88.4920   34.8690   71.6330 O.co2     1 FAO        -0.6127
      4 O5A'       89.6270   33.1430   70.3120 O.3       1 FAO        -0.2476
      5 C5A'       89.6870   32.1330   69.2500 C.3       1 FAO         0.1128
      6 C4A'       90.6740   32.6520   68.1900 C.3       1 FAO         0.1189
      7 O4A'       90.9280   31.5750   67.3060 O.3       1 FAO        -0.3364
      8 C3A'       90.0860   33.7850   67.3450 C.3       1 FAO         0.1149
      9 O3A'       91.0820   34.8000   67.3460 O.3       1 FAO        -0.3864
     10 C2A'       89.8740   33.1030   65.9760 C.3       1 FAO         0.1385
     11 O2A'       90.0430   33.9880   64.8900 O.3       1 FAO        -0.3836
     12 C1A'       90.9820   32.0820   65.9920 C.3       1 FAO         0.2010
     13 N9A        90.7120   30.9100   65.1160 N.pl3     1 FAO        -0.1919
     14 C8A        89.5330   30.2590   64.9740 C.2       1 FAO         0.1123
     15 N7A        89.6950   29.2890   64.0860 N.2       1 FAO        -0.2958
     16 C5A        90.9720   29.2950   63.6720 C.ar      1 FAO         0.1045
     17 C6A        91.7030   28.5130   62.7600 C.ar      1 FAO         0.1298
     18 N6A        91.1320   27.4930   62.1200 N.pl3     1 FAO        -0.3152
     19 N1A        93.0130   28.7740   62.5590 N.ar      1 FAO        -0.2698
     20 C2A        93.6070   29.8080   63.2090 C.ar      1 FAO         0.0533
     21 N3A        92.9430   30.5800   64.0980 N.ar      1 FAO        -0.2714
     22 C4A        91.6200   30.3540   64.3140 C.ar      1 FAO         0.1613
     23 N1         81.7280   38.1820   77.5380 N.am      1 FAO        -0.2419
     24 C2         82.4690   38.9940   78.3530 C.2       1 FAO         0.2895
     25 O2         82.8390   38.5760   79.4590 O.2       1 FAO        -0.3915
     26 N3         82.7170   40.2720   77.8530 N.am      1 FAO        -0.1833
     27 C4         82.1300   40.5600   76.5660 C.2       1 FAO         0.2330
     28 O4         82.3960   41.6410   76.0750 O.2       1 FAO        -0.3842
     29 C4N        80.6790   39.9730   76.2900 C.3       1 FAO         0.1699
     30 N5         79.9490   40.1960   75.0220 N.pl3     1 FAO        -0.3087
     31 C5N        80.4570   39.7070   73.8290 C.ar      1 FAO         0.0463
     32 C6         79.9750   40.2100   72.6080 C.ar      1 FAO        -0.0600
     33 C7         80.4550   39.6930   71.3970 C.ar      1 FAO        -0.0686
     34 C7M        79.8960   40.2810   70.0990 C.3       1 FAO        -0.0426
     35 C8         81.4320   38.6560   71.4170 C.ar      1 FAO        -0.0686
     36 C8M        82.0250   38.0320   70.1190 C.3       1 FAO        -0.0426
     37 C9         81.9000   38.1580   72.6500 C.ar      1 FAO        -0.0599
     38 C9N        81.4080   38.6580   73.8690 C.ar      1 FAO         0.0483
     39 N10        81.9260   38.1900   75.0430 N.pl3     1 FAO        -0.2899
     40 C10        81.3310   38.6630   76.3050 C.3       1 FAO         0.1603
     41 C1'        82.2550   36.7720   75.1210 C.3       1 FAO         0.0538
     42 C2'        83.8190   36.6580   75.2640 C.3       1 FAO         0.1024
     43 O2'        84.4770   37.6590   74.4560 O.3       1 FAO        -0.3872
     44 C3'        84.2530   35.2660   74.8010 C.3       1 FAO         0.1111
     45 O3'        83.5890   34.3250   75.6060 O.3       1 FAO        -0.3865
     46 C4'        85.7920   35.0270   74.8410 C.3       1 FAO         0.1118
     47 O4'        86.4300   36.0140   73.9970 O.3       1 FAO        -0.3865
     48 C5'        86.0940   33.6430   74.2790 C.3       1 FAO         0.1124
     49 O5'        87.5530   33.4780   74.2340 O.3       1 FAO        -0.2477
     50 P          88.2430   32.1800   73.5590 P.3       1 FAO         0.2972
     51 O1P        89.7200   32.3000   73.7820 O.co2     1 FAO        -0.6127
     52 O2P        87.5420   30.9710   73.9650 O.co2     1 FAO        -0.6127
     53 O3P        87.8740   32.3420   71.9650 O.3       1 FAO        -0.1319
     54 H1         88.6913   31.9950   68.8034 H         1 FAO         0.0648
     55 H2         90.0413   31.1754   69.6591 H         1 FAO         0.0648
     56 H3         91.6006   32.9907   68.6765 H         1 FAO         0.0651
     57 H4         89.1376   34.1732   67.7448 H         1 FAO         0.0648
     58 H5         91.8822   34.4573   66.9656 H         1 FAO         0.2100
     59 H6         88.8824   32.6309   65.9140 H         1 FAO         0.0676
     60 H7         90.9249   34.3409   64.9048 H         1 FAO         0.2101
     61 H8         91.9514   32.5404   65.7470 H         1 FAO         0.0996
     62 H9         88.6088   30.4930   65.5003 H         1 FAO         0.1349
     63 H10        91.6812   26.9299   61.4550 H         1 FAO         0.1820
     64 H11        90.1415   27.2678   62.2903 H         1 FAO         0.1820
     65 H12        94.6505   30.0218   63.0078 H         1 FAO         0.0996
     66 H13        81.4786   37.2584   77.8291 H         1 FAO         0.1877
     67 H14        83.2645   40.9436   78.3523 H         1 FAO         0.2255
     68 H15        79.9826   40.1619   77.1203 H         1 FAO         0.0835
     69 H16        79.0602   40.7165   75.0263 H         1 FAO         0.1728
     70 H17        79.2313   40.9986   72.6031 H         1 FAO         0.0400
     71 H18        79.1602   41.0630   70.3378 H         1 FAO         0.0350
     72 H19        79.4093   39.4854   69.5158 H         1 FAO         0.0350
     73 H20        80.7167   40.7172   69.5107 H         1 FAO         0.0350
     74 H21        82.7561   37.2549   70.3866 H         1 FAO         0.0350
     75 H22        82.5226   38.8161   69.5294 H         1 FAO         0.0350
     76 H23        81.2152   37.5842   69.5243 H         1 FAO         0.0350
     77 H24        82.6515   37.3768   72.6587 H         1 FAO         0.0400
     78 H25        80.4163   38.0563   76.2333 H         1 FAO         0.0862
     79 H26        81.9227   36.2582   74.2069 H         1 FAO         0.0533
     80 H27        81.7637   36.3197   75.9951 H         1 FAO         0.0533
     81 H28        84.1003   36.8008   76.3178 H         1 FAO         0.0639
     82 H29        85.4182   37.5753   74.5545 H         1 FAO         0.2100
     83 H30        83.9253   35.1360   73.7590 H         1 FAO         0.0647
     84 H31        83.8406   33.4485   75.3398 H         1 FAO         0.2100
     85 H32        86.1635   35.1082   75.8732 H         1 FAO         0.0647
     86 H33        87.3705   35.8808   74.0112 H         1 FAO         0.2100
     87 H34        85.6771   33.5530   73.2651 H         1 FAO         0.0647
     88 H35        85.6514   32.8724   74.9273 H         1 FAO         0.0647
@<TRIPOS>BOND
     1    1    2 ar 
     2    1    3 ar 
     3    1    4 1  
     4   53    1 1  
     5    4    5 1  
     6    5    6 1  
     7    6    7 1  
     8    6    8 1  
     9    7   12 1  
    10    8    9 1  
    11    8   10 1  
    12   10   11 1  
    13   10   12 1  
    14   12   13 1  
    15   13   14 1  
    16   13   22 1  
    17   14   15 2  
    18   16   15 1  
    19   16   17 ar 
    20   22   16 ar 
    21   17   18 1  
    22   17   19 ar 
    23   20   19 ar 
    24   21   20 ar 
    25   22   21 ar 
    26   23   24 am 
    27   40   23 1  
    28   24   25 2  
    29   24   26 am 
    30   27   26 am 
    31   27   28 2  
    32   29   27 1  
    33   29   30 1  
    34   40   29 1  
    35   31   30 1  
    36   31   32 ar 
    37   38   31 ar 
    38   32   33 ar 
    39   33   34 1  
    40   35   33 ar 
    41   35   36 1  
    42   37   35 ar 
    43   38   37 ar 
    44   39   38 1  
    45   39   40 1  
    46   41   39 1  
    47   42   41 1  
    48   42   43 1  
    49   44   42 1  
    50   44   45 1  
    51   46   44 1  
    52   46   47 1  
    53   48   46 1  
    54   49   48 1  
    55   50   49 1  
    56   50   51 ar 
    57   50   52 ar 
    58   50   53 1  
    59    5   54 1  
    60    5   55 1  
    61    6   56 1  
    62    8   57 1  
    63    9   58 1  
    64   10   59 1  
    65   11   60 1  
    66   12   61 1  
    67   14   62 1  
    68   18   63 1  
    69   18   64 1  
    70   20   65 1  
    71   23   66 1  
    72   26   67 1  
    73   29   68 1  
    74   30   69 1  
    75   32   70 1  
    76   34   71 1  
    77   34   72 1  
    78   34   73 1  
    79   36   74 1  
    80   36   75 1  
    81   36   76 1  
    82   37   77 1  
    83   40   78 1  
    84   41   79 1  
    85   41   80 1  
    86   42   81 1  
    87   43   82 1  
    88   44   83 1  
    89   45   84 1  
    90   46   85 1  
    91   47   86 1  
    92   48   87 1  
    93   48   88 1  
@<TRIPOS>SUBSTRUCTURE
     1 FAO         1

