4i10_ligand
  -I-interpret- 

 57 61  0  0  0  0  0  0  0  0999 V2000
    9.8280  -11.9200    4.1360 Cl  0  0  0  0  0
   10.1030  -13.3540    5.1540 C   0  0  0  0  0
   11.0370  -13.1690    6.2190 C   0  0  0  0  0
   11.2540  -14.2180    7.0790 C   0  0  0  0  0
   10.6130  -15.4220    6.8500 C   0  0  0  0  0
    9.6690  -15.5970    5.8120 C   0  0  0  0  0
    9.4220  -14.5680    4.8960 C   0  0  0  0  0
   12.2670  -14.1140    8.2210 C   0  0  0  0  0
   11.7460  -14.9490    9.4060 C   0  0  0  0  0
   11.5780  -16.3210    8.9200 N   0  0  0  0  0
   10.9890  -16.5600    7.7840 C   0  0  0  0  0
   10.7720  -17.8000    7.2990 N   0  0  0  0  0
   10.9670  -19.0650    8.0430 C   0  0  0  0  0
    9.6080  -19.5730    8.6530 C   0  0  0  0  0
   12.6950  -14.9120   10.6240 C   0  0  0  0  0
   10.3650  -14.3340    9.8270 C   0  0  0  0  0
   11.3870  -20.0710    7.0820 C   0  0  0  0  0
   11.3450  -19.7620    5.7320 N   0  0  0  0  0
   11.9630  -22.3430    6.6760 C   0  0  0  0  0
   11.7140  -21.3070    7.5340 N   0  0  0  0  0
   12.2530  -23.4860    7.0960 O   0  0  0  0  0
    9.1110  -18.6070    9.7370 C   0  0  0  0  0
    9.7460  -18.6310   11.0030 C   0  0  0  0  0
    9.3960  -17.7750   12.0660 C   0  0  0  0  0
    8.3500  -16.8600   11.8330 C   0  0  0  0  0
    7.7340  -16.8750   10.5760 C   0  0  0  0  0
    8.0610  -17.6980    9.4830 C   0  0  0  0  0
   11.9050  -22.0510    5.2140 C   0  0  0  0  0
   11.6150  -20.7290    4.8050 C   0  0  0  0  0
   11.6280  -20.4240    3.4110 C   0  0  0  0  0
   11.9320  -21.4430    2.4730 C   0  0  0  0  0
   12.2420  -22.7030    2.9040 N   0  0  0  0  0
   12.2420  -23.0340    4.2490 C   0  0  0  0  0
   11.5625  -12.2225    6.3456 H   0  0  0  0  0
    9.1297  -16.5402    5.7245 H   0  0  0  0  0
    8.7529  -14.6925    4.0446 H   0  0  0  0  0
   12.3872  -13.0730    8.5209 H   0  0  0  0  0
   13.2371  -14.4901    7.8961 H   0  0  0  0  0
   10.4450  -17.8723    6.3355 H   0  0  0  0  0
   11.6921  -18.9002    8.8400 H   0  0  0  0  0
    9.7652  -20.5551    9.0989 H   0  0  0  0  0
    8.8626  -19.6288    7.8596 H   0  0  0  0  0
   13.6684  -15.3097   10.3368 H   0  0  0  0  0
   12.8077  -13.8825   10.9640 H   0  0  0  0  0
   12.2763  -15.5177   11.4277 H   0  0  0  0  0
   10.5062  -13.2937   10.1202 H   0  0  0  0  0
    9.6743  -14.3851    8.9854 H   0  0  0  0  0
    9.9587  -14.8975   10.6669 H   0  0  0  0  0
   11.1132  -18.8154    5.4310 H   0  0  0  0  0
   10.5488  -19.3506   11.1635 H   0  0  0  0  0
    9.9112  -17.8186   13.0255 H   0  0  0  0  0
    8.0305  -16.1624   12.6072 H   0  0  0  0  0
    6.9128  -16.1736   10.4283 H   0  0  0  0  0
    7.5481  -17.6390    8.5230 H   0  0  0  0  0
   11.4055  -19.4132    3.0691 H   0  0  0  0  0
   11.9185  -21.2213    1.4059 H   0  0  0  0  0
   12.4998  -24.0451    4.5642 H   0  0  0  0  0
  1  2  1  0  0  0
  2  3  4  0  0  0
  2  7  4  0  0  0
  3  4  4  0  0  0
  4  5  4  0  0  0
  4  8  1  0  0  0
  5  6  4  0  0  0
  5 11  1  0  0  0
  6  7  4  0  0  0
  8  9  1  0  0  0
  9 10  1  0  0  0
  9 15  1  0  0  0
  9 16  1  0  0  0
 10 11  2  0  0  0
 11 12  1  0  0  0
 12 13  1  0  0  0
 13 14  1  0  0  0
 13 17  1  0  0  0
 14 22  1  0  0  0
 17 18  1  0  0  0
 17 20  2  0  0  0
 18 29  1  0  0  0
 20 19  1  0  0  0
 19 21  2  0  0  0
 19 28  1  0  0  0
 22 23  4  0  0  0
 22 27  4  0  0  0
 23 24  4  0  0  0
 24 25  4  0  0  0
 25 26  4  0  0  0
 26 27  4  0  0  0
 28 29  4  0  0  0
 28 33  4  0  0  0
 29 30  4  0  0  0
 30 31  4  0  0  0
 31 32  4  0  0  0
 32 33  4  0  0  0
  3 34  1  0  0  0
  6 35  1  0  0  0
  7 36  1  0  0  0
  8 37  1  0  0  0
  8 38  1  0  0  0
 12 39  1  0  0  0
 13 40  1  0  0  0
 14 41  1  0  0  0
 14 42  1  0  0  0
 15 43  1  0  0  0
 15 44  1  0  0  0
 15 45  1  0  0  0
 16 46  1  0  0  0
 16 47  1  0  0  0
 16 48  1  0  0  0
 18 49  1  0  0  0
 23 50  1  0  0  0
 24 51  1  0  0  0
 25 52  1  0  0  0
 26 53  1  0  0  0
 27 54  1  0  0  0
 30 55  1  0  0  0
 31 56  1  0  0  0
 33 57  1  0  0  0
M  END
$$$$
