5cp9_ligand
  -I-interpret- 

 18 18  0  0  0  0  0  0  0  0999 V2000
   -2.6950   28.4760  -11.0070 C   0  0  0  0  0
   -2.2590   27.2280  -10.8570 C   0  0  0  0  0
   -3.3060   26.4200  -10.7070 C   0  0  0  0  0
   -4.4440   27.1790  -10.7590 O   0  0  0  0  0
   -4.0200   28.4580  -10.9500 C   0  0  0  0  0
   -4.9750   29.6330  -11.0720 C   0  0  0  0  0
   -5.6970   29.5940  -12.4110 C   0  0  0  0  0
   -5.6580   30.9710  -13.0690 C   0  0  0  0  0
   -6.6120   31.7370  -12.8170 O   0  0  0  0  0
   -4.6730   31.2220  -13.8010 O   0  0  0  0  0
   -2.0722   29.3588  -11.1515 H   0  0  0  0  0
   -1.2141   26.9177  -10.8570 H   0  0  0  0  0
   -3.2644   25.3398  -10.5669 H   0  0  0  0  0
   -4.4069   30.5606  -11.0022 H   0  0  0  0  0
   -5.7112   29.5765  -10.2702 H   0  0  0  0  0
   -6.7353   29.3044  -12.2490 H   0  0  0  0  0
   -5.2037   28.8725  -13.0623 H   0  0  0  0  0
   -4.0893   30.4602  -13.8224 H   0  0  0  0  0
  1  2  4  0  0  0
  1  5  4  0  0  0
  2  3  4  0  0  0
  3  4  4  0  0  0
  4  5  4  0  0  0
  5  6  1  0  0  0
  6  7  1  0  0  0
  7  8  1  0  0  0
  8  9  2  0  0  0
  8 10  1  0  0  0
  1 11  1  0  0  0
  2 12  1  0  0  0
  3 13  1  0  0  0
  6 14  1  0  0  0
  6 15  1  0  0  0
  7 16  1  0  0  0
  7 17  1  0  0  0
 10 18  1  0  0  0
M  END
$$$$
