5ehe_ligand
  -I-interpret- 

 42 43  0  0  0  0  0  0  0  0999 V2000
   14.3130    5.1380   15.0600 F   0  0  0  0  0
   15.6280    5.3300   15.0940 C   0  0  0  0  0
   16.3490    4.3490   15.8390 C   0  0  0  0  0
   15.4740    2.9910   16.6990 S   0  0  0  0  0
   13.9060    2.9740   16.6090 O   0  0  0  0  0
   15.7010    1.5080   15.9430 N   0  0  0  0  0
   15.7600    2.7130   18.1560 O   0  0  0  0  0
   17.7560    4.4580   15.8790 C   0  0  0  0  0
   18.4850    3.5140   16.5480 F   0  0  0  0  0
   18.4070    5.5300   15.2340 C   0  0  0  0  0
   19.7910    5.6530   15.2810 F   0  0  0  0  0
   16.2570    6.4360   14.4390 C   0  0  0  0  0
   17.6870    6.5010   14.5090 C   0  0  0  0  0
   18.6940    7.8390   13.8060 S   0  0  0  0  0
   17.7490    8.7110   12.9390 O   0  0  0  0  0
   19.5310    7.1980   12.6480 O   0  0  0  0  0
   19.6460    9.0690   14.7560 C   0  0  0  0  0
   20.4130   10.0890   13.9180 C   0  0  0  0  0
   20.2630   11.3710   14.4510 O   0  0  0  0  0
   15.5550    7.4230   13.6920 N   0  0  0  0  0
   14.8900    7.2510   12.4040 C   0  0  0  0  0
   15.0890    8.2720   11.3120 C   0  0  0  0  0
   16.1830    8.1580   10.4080 C   0  0  0  0  0
   16.3960    9.0900    9.3680 C   0  0  0  0  0
   15.4870   10.1550    9.2110 C   0  0  0  0  0
   14.3880   10.2620   10.0880 C   0  0  0  0  0
   14.1840    9.3370   11.1410 C   0  0  0  0  0
   14.8956    0.9702   15.6229 H   0  0  0  0  0
   16.6442    1.1454   15.8041 H   0  0  0  0  0
   20.3888    8.5141   15.3291 H   0  0  0  0  0
   18.9250    9.6313   15.3493 H   0  0  0  0  0
   20.0199   10.0797   12.9014 H   0  0  0  0  0
   21.4708    9.8258   13.9203 H   0  0  0  0  0
   20.7507   11.9990   13.9131 H   0  0  0  0  0
   15.5116    8.3556   14.1028 H   0  0  0  0  0
   13.8264    7.3038   12.6366 H   0  0  0  0  0
   15.3132    6.3318   11.9988 H   0  0  0  0  0
   16.8777    7.3258   10.5219 H   0  0  0  0  0
   17.2496    8.9869    8.6980 H   0  0  0  0  0
   15.6320   10.8895    8.4188 H   0  0  0  0  0
   13.6774   11.0773    9.9521 H   0  0  0  0  0
   13.3334    9.4487   11.8134 H   0  0  0  0  0
  1  2  1  0  0  0
  2  3  4  0  0  0
  2 12  4  0  0  0
  3  4  1  0  0  0
  3  8  4  0  0  0
  4  5  2  0  0  0
  4  6  1  0  0  0
  4  7  2  0  0  0
  8  9  1  0  0  0
  8 10  4  0  0  0
 10 11  1  0  0  0
 10 13  4  0  0  0
 12 13  4  0  0  0
 12 20  1  0  0  0
 13 14  1  0  0  0
 14 15  2  0  0  0
 14 16  2  0  0  0
 14 17  1  0  0  0
 17 18  1  0  0  0
 18 19  1  0  0  0
 20 21  1  0  0  0
 21 22  1  0  0  0
 22 23  4  0  0  0
 22 27  4  0  0  0
 23 24  4  0  0  0
 24 25  4  0  0  0
 25 26  4  0  0  0
 26 27  4  0  0  0
  6 28  1  0  0  0
  6 29  1  0  0  0
 17 30  1  0  0  0
 17 31  1  0  0  0
 18 32  1  0  0  0
 18 33  1  0  0  0
 19 34  1  0  0  0
 20 35  1  0  0  0
 21 36  1  0  0  0
 21 37  1  0  0  0
 23 38  1  0  0  0
 24 39  1  0  0  0
 25 40  1  0  0  0
 26 41  1  0  0  0
 27 42  1  0  0  0
M  END
$$$$
