6o5a_ligand
  -I-interpret- 

122121  0  0  0  0  0  0  0  0999 V2000
   17.8390   -4.0140   -5.3340 C   0  0  0  0  0
   16.7930   -3.5360   -4.9180 O   0  0  0  0  0
   18.2610   -4.1830   -6.7300 C   0  0  0  0  0
   18.7780   -4.5140   -4.5230 N   0  0  0  0  0
   18.6220   -4.3280   -3.2000 C   0  0  0  0  0
   19.4960   -3.2480   -2.6190 C   0  0  0  0  0
   20.7660   -3.2340   -2.6960 O   0  0  0  0  0
   19.0430   -5.7120   -2.6580 C   0  0  0  0  0
   18.2980   -6.8830   -2.9830 O   0  0  0  0  0
   18.8900   -5.7300   -1.1730 C   0  0  0  0  0
   18.8190   -2.4690   -1.9240 N   0  0  0  0  0
   19.4460   -1.4060   -1.3000 C   0  0  0  0  0
   19.2540   -1.3520    0.1890 C   0  0  0  0  0
   18.3740   -0.9500    0.9680 O   0  0  0  0  0
   19.1610   -0.1150   -2.0570 C   0  0  0  0  0
   18.9500   -0.2450   -3.5580 C   0  0  0  0  0
   20.1800    0.9980   -1.9910 C   0  0  0  0  0
   20.3100   -0.5460   -4.2500 C   0  0  0  0  0
   20.2280   -1.7180    0.8040 N   0  0  0  0  0
   20.0260   -1.7090    2.2400 C   0  0  0  0  0
   20.6240   -0.6940    3.2130 C   0  0  0  0  0
   20.5740   -2.9470    2.8850 C   0  0  0  0  0
   20.3180   -4.1950    2.1050 C   0  0  0  0  0
   18.8800   -4.5100    2.1950 C   0  0  0  0  0
   18.8990   -5.9280    2.6020 C   0  0  0  0  0
   20.4890    0.6750    2.7670 N   0  3  0  0  0
   20.4020    1.7380    3.7520 C   0  0  0  0  0
   19.5750    1.4720    4.9310 C   0  0  0  0  0
   18.4100    0.9170    5.0680 O   0  0  0  0  0
   20.2440    3.0280    3.0030 C   0  0  0  0  0
   20.1740    4.1880    3.9280 C   0  0  0  0  0
   19.5970    5.4010    3.3130 C   0  0  0  0  0
   18.1280    5.2990    3.5290 C   0  0  0  0  0
   20.0730    1.7780    6.0330 N   0  0  0  0  0
   19.3160    1.6300    7.3260 C   0  0  0  0  0
   19.5700    2.8280    8.3330 C   0  0  0  0  0
   20.7110    3.2360    8.7720 O   0  0  0  0  0
   19.3570    0.2080    7.9130 C   0  0  0  0  0
   18.6980    0.0470    9.1760 C   0  0  0  0  0
   19.3890    0.4900   10.3080 C   0  0  0  0  0
   20.5640    0.5280   10.2140 O   0  0  0  0  0
   18.7320    0.7950   11.4600 N   0  0  0  0  0
   18.6080    3.4850    8.9000 N   0  0  0  0  0
   18.7370    4.4640   10.0410 C   0  0  0  0  0
   17.9530    4.0700   11.2190 C   0  0  0  0  0
   16.8840    3.5360   11.0170 O   0  0  0  0  0
   18.3260    5.7890    9.5410 C   0  0  0  0  0
   19.0620    6.1800    8.3340 C   0  0  0  0  0
   18.3480    7.5520    8.2510 C   0  0  0  0  0
   18.7330    8.1770    6.9670 N   0  0  0  0  0
   18.2690    9.3680    6.6370 C   0  0  0  0  0
   17.3220    9.9450    7.3880 N   0  0  0  0  0
   18.7960    9.9890    5.6020 N   0  0  0  0  0
   18.3580    4.2240   12.5030 N   0  0  0  0  0
   17.5477   -4.8234   -7.2488 H   0  0  0  0  0
   18.2981   -3.2088   -7.2175 H   0  0  0  0  0
   19.2494   -4.6418   -6.7564 H   0  0  0  0  0
   19.5832   -5.0181   -4.8944 H   0  0  0  0  0
   17.6152   -3.9986   -2.9434 H   0  0  0  0  0
   20.0301   -5.7806   -3.1152 H   0  0  0  0  0
   18.3037   -7.0108   -3.9344 H   0  0  0  0  0
   17.8319   -5.6732   -0.9173 H   0  0  0  0  0
   19.3118   -6.6537   -0.7767 H   0  0  0  0  0
   19.4150   -4.8762   -0.7446 H   0  0  0  0  0
   17.8149   -2.6125   -1.8159 H   0  0  0  0  0
   20.5224   -1.5667   -1.3603 H   0  0  0  0  0
   18.2571    0.1300   -1.4993 H   0  0  0  0  0
   18.5423    0.6871   -3.9492 H   0  0  0  0  0
   18.2534   -1.0593   -3.7573 H   0  0  0  0  0
   20.3133    1.3058   -0.9539 H   0  0  0  0  0
   21.1299    0.6434   -2.3910 H   0  0  0  0  0
   19.8296    1.8452   -2.5806 H   0  0  0  0  0
   21.0061    0.2686   -4.0500 H   0  0  0  0  0
   20.7172   -1.4781   -3.8581 H   0  0  0  0  0
   20.1565   -0.6387   -5.3251 H   0  0  0  0  0
   21.1006   -2.0033    0.3595 H   0  0  0  0  0
   18.9583   -1.5095    2.1486 H   0  0  0  0  0
   21.6892   -0.9086    3.2992 H   0  0  0  0  0
   20.0872   -0.7871    4.1571 H   0  0  0  0  0
   20.0785   -3.0583    3.8494 H   0  0  0  0  0
   21.6546   -2.8248    2.9585 H   0  0  0  0  0
   20.9072   -5.0173    2.5110 H   0  0  0  0  0
   20.6048   -4.0505    1.0634 H   0  0  0  0  0
   18.3418   -4.3365    1.2631 H   0  0  0  0  0
   18.3414   -3.8687    2.8927 H   0  0  0  0  0
   19.4179   -6.5152    1.8444 H   0  0  0  0  0
   19.4174   -6.0239    3.5560 H   0  0  0  0  0
   17.8756   -6.2888    2.7053 H   0  0  0  0  0
   19.5957    0.7018    2.2754 H   0  0  0  0  0
   21.3482    0.8670    2.2520 H   0  0  0  0  0
   21.3295    1.8198    4.3186 H   0  0  0  0  0
   19.3166    2.9848    2.4318 H   0  0  0  0  0
   21.1079    3.1573    2.3511 H   0  0  0  0  0
   21.1937    4.4278    4.2292 H   0  0  0  0  0
   19.5286    3.9045    4.7594 H   0  0  0  0  0
   19.8404    5.4644    2.2524 H   0  0  0  0  0
   20.0038    6.3073    3.7616 H   0  0  0  0  0
   17.7537    4.3939    3.0506 H   0  0  0  0  0
   17.9213    5.2584    4.5984 H   0  0  0  0  0
   17.6370    6.1703    3.0956 H   0  0  0  0  0
   21.0259    2.1410    6.0590 H   0  0  0  0  0
   18.2586    1.7375    7.0841 H   0  0  0  0  0
   20.4076   -0.0319    8.0765 H   0  0  0  0  0
   18.8364   -0.4369    7.2050 H   0  0  0  0  0
   18.5629   -1.0264    9.3086 H   0  0  0  0  0
   17.7934    0.6527    9.1212 H   0  0  0  0  0
   19.2579    1.0706   12.2894 H   0  0  0  0  0
   17.7137    0.7480   11.4941 H   0  0  0  0  0
   17.6679    3.3241    8.5384 H   0  0  0  0  0
   19.7730    4.4853   10.3793 H   0  0  0  0  0
   18.5352    6.5240   10.3182 H   0  0  0  0  0
   17.2660    5.7428    9.2912 H   0  0  0  0  0
   19.0219    5.5215    7.4663 H   0  0  0  0  0
   20.1515    6.1636    8.3631 H   0  0  0  0  0
   18.6429    8.1862    9.0870 H   0  0  0  0  0
   17.2669    7.4227    8.3028 H   0  0  0  0  0
   19.3613    7.6844    6.3322 H   0  0  0  0  0
   16.9946   10.8845    7.1629 H   0  0  0  0  0
   16.9281    9.4450    8.1850 H   0  0  0  0  0
   19.5483    9.5490    5.0721 H   0  0  0  0  0
   17.7680    3.8942   13.2669 H   0  0  0  0  0
   19.2528    4.6697   12.7055 H   0  0  0  0  0
  1  2  2  0  0  0
  1  3  1  0  0  0
  1  4  1  0  0  0
  4  5  1  0  0  0
  5  6  1  0  0  0
  5  8  1  0  0  0
  6  7  2  0  0  0
  6 11  1  0  0  0
  8  9  1  0  0  0
  8 10  1  0  0  0
 11 12  1  0  0  0
 12 13  1  0  0  0
 12 15  1  0  0  0
 13 14  2  0  0  0
 13 19  1  0  0  0
 15 16  1  0  0  0
 15 17  1  0  0  0
 16 18  1  0  0  0
 19 20  1  0  0  0
 20 21  1  0  0  0
 20 22  1  0  0  0
 21 26  1  0  0  0
 22 23  1  0  0  0
 23 24  1  0  0  0
 24 25  1  0  0  0
 26 27  1  0  0  0
 27 28  1  0  0  0
 27 30  1  0  0  0
 28 29  2  0  0  0
 28 34  1  0  0  0
 30 31  1  0  0  0
 31 32  1  0  0  0
 32 33  1  0  0  0
 34 35  1  0  0  0
 35 36  1  0  0  0
 35 38  1  0  0  0
 36 37  2  0  0  0
 36 43  1  0  0  0
 38 39  1  0  0  0
 39 40  1  0  0  0
 40 41  2  0  0  0
 40 42  1  0  0  0
 43 44  1  0  0  0
 44 45  1  0  0  0
 44 47  1  0  0  0
 45 46  2  0  0  0
 45 54  1  0  0  0
 47 48  1  0  0  0
 48 49  1  0  0  0
 49 50  1  0  0  0
 50 51  1  0  0  0
 51 52  1  0  0  0
 51 53  2  0  0  0
  3 55  1  0  0  0
  3 56  1  0  0  0
  3 57  1  0  0  0
  4 58  1  0  0  0
  5 59  1  0  0  0
  8 60  1  0  0  0
  9 61  1  0  0  0
 10 62  1  0  0  0
 10 63  1  0  0  0
 10 64  1  0  0  0
 11 65  1  0  0  0
 12 66  1  0  0  0
 15 67  1  0  0  0
 16 68  1  0  0  0
 16 69  1  0  0  0
 17 70  1  0  0  0
 17 71  1  0  0  0
 17 72  1  0  0  0
 18 73  1  0  0  0
 18 74  1  0  0  0
 18 75  1  0  0  0
 19 76  1  0  0  0
 20 77  1  0  0  0
 21 78  1  0  0  0
 21 79  1  0  0  0
 22 80  1  0  0  0
 22 81  1  0  0  0
 23 82  1  0  0  0
 23 83  1  0  0  0
 24 84  1  0  0  0
 24 85  1  0  0  0
 25 86  1  0  0  0
 25 87  1  0  0  0
 25 88  1  0  0  0
 26 89  1  0  0  0
 26 90  1  0  0  0
 27 91  1  0  0  0
 30 92  1  0  0  0
 30 93  1  0  0  0
 31 94  1  0  0  0
 31 95  1  0  0  0
 32 96  1  0  0  0
 32 97  1  0  0  0
 33 98  1  0  0  0
 33 99  1  0  0  0
 33100  1  0  0  0
 34101  1  0  0  0
 35102  1  0  0  0
 38103  1  0  0  0
 38104  1  0  0  0
 39105  1  0  0  0
 39106  1  0  0  0
 42107  1  0  0  0
 42108  1  0  0  0
 43109  1  0  0  0
 44110  1  0  0  0
 47111  1  0  0  0
 47112  1  0  0  0
 48113  1  0  0  0
 48114  1  0  0  0
 49115  1  0  0  0
 49116  1  0  0  0
 50117  1  0  0  0
 52118  1  0  0  0
 52119  1  0  0  0
 53120  1  0  0  0
 54121  1  0  0  0
 54122  1  0  0  0
M  END
$$$$
