5d75_ligand
  -I-interpret- 

126129  0  0  0  0  0  0  0  0999 V2000
    6.8830  -23.6740   -2.0820 C   0  0  0  0  0
    5.7520  -23.0530   -1.3280 C   0  0  0  0  0
    4.6210  -24.0750   -1.2010 C   0  0  0  0  0
    3.8460  -24.2270   -2.5050 C   0  0  0  0  0
    3.2890  -22.8570   -2.9200 C   0  0  0  0  0
    4.4060  -21.8250   -3.1210 C   0  0  0  0  0
    5.5590  -20.6490   -1.1810 C   0  0  0  0  0
    4.9810  -19.3530   -1.5810 C   0  0  0  0  0
    5.8500  -18.3310   -2.3160 C   0  0  0  0  0
    7.1690  -17.9750   -1.5910 C   0  0  0  0  0
    8.0200  -16.9910   -2.3960 C   0  0  0  0  0
    8.2810  -17.4790   -3.8200 C   0  0  0  0  0
    6.9970  -18.0040   -4.4700 C   0  0  0  0  0
    7.2440  -18.6560   -5.8300 C   0  0  0  0  0
    5.8830  -19.1950   -6.2970 C   0  0  0  0  0
    5.9180  -20.1300   -7.4950 C   0  0  0  0  0
    6.5070  -19.4810   -8.7750 C   0  0  0  0  0
    7.2860  -20.5770   -9.4650 C   0  0  0  0  0
    8.5880  -20.7650   -9.1450 C   0  0  0  0  0
    9.4260  -21.8910   -9.7250 C   0  0  0  0  0
    9.7320  -22.8530   -8.5890 C   0  0  0  0  0
    8.6400  -23.7660   -8.0660 C   0  0  0  0  0
    8.8470  -24.1830   -6.6060 C   0  0  0  0  0
    7.8260  -23.5280   -5.6770 C   0  0  0  0  0
    8.1510  -23.7870   -4.1910 C   0  0  0  0  0
    9.4910  -23.2680   -3.7200 C   0  0  0  0  0
   10.3960  -24.1660   -3.2680 C   0  0  0  0  0
   11.7850  -23.8380   -2.7540 C   0  0  0  0  0
   11.8510  -24.0640   -1.2310 C   0  0  0  0  0
   13.2770  -23.8540   -0.6720 C   0  0  0  0  0
   14.2720  -24.7520   -1.4120 C   0  0  0  0  0
   14.2430  -24.5920   -2.9430 C   0  0  0  0  0
   12.8100  -24.7000   -3.5160 C   0  0  0  0  0
    6.9690  -17.4290   -0.1910 C   0  0  0  0  0
    4.5210  -20.7480   -7.6670 C   0  0  0  0  0
    6.5690  -21.4660  -10.4560 C   0  0  0  0  0
   10.6870  -21.3990  -10.4530 C   0  0  0  0  0
   10.3530  -20.8240  -11.8140 C   0  0  0  0  0
   10.1760  -21.6390  -12.8380 C   0  0  0  0  0
    6.3860  -23.9390   -6.0170 C   0  0  0  0  0
    9.7330  -21.7740   -3.7300 C   0  0  0  0  0
   10.1890  -16.1330   -4.4590 C   0  0  0  0  0
    9.5840  -19.2110   -6.3000 C   0  0  0  0  0
   13.4060  -23.0200    1.6130 C   0  0  0  0  0
    5.2480  -21.7590   -1.8760 N   0  0  0  0  0
    7.1200  -23.1880   -3.4170 O   0  0  0  0  0
    7.5880  -24.5460   -1.5620 O   0  0  0  0  0
    6.3080  -20.6730   -0.1920 O   0  0  0  0  0
    3.8080  -19.0920   -1.2990 O   0  0  0  0  0
    6.2020  -18.8680   -3.6050 O   0  0  0  0  0
    5.0560  -17.1460   -2.4550 O   0  0  0  0  0
    8.7950  -16.4220   -4.6670 O   0  0  0  0  0
    8.2870  -19.6540   -5.8390 O   0  0  0  0  0
   10.8330  -22.9230   -8.0690 O   0  0  0  0  0
    8.7700  -25.6170   -6.5350 O   0  0  0  0  0
   13.3480  -24.1520    0.7380 O   0  0  0  0  0
   15.5850  -24.4470   -0.9450 O   0  0  0  0  0
    6.1493  -22.7838   -0.3494 H   0  0  0  0  0
    3.9314  -23.7289   -0.4310 H   0  0  0  0  0
    5.0587  -25.0407   -0.9481 H   0  0  0  0  0
    3.0248  -24.9297   -2.3641 H   0  0  0  0  0
    4.5084  -24.6051   -3.2837 H   0  0  0  0  0
    2.6314  -22.5001   -2.1273 H   0  0  0  0  0
    2.7576  -22.9750   -3.8643 H   0  0  0  0  0
    3.9687  -20.8464   -3.3193 H   0  0  0  0  0
    5.0269  -22.1181   -3.9676 H   0  0  0  0  0
    7.6956  -18.9253   -1.5032 H   0  0  0  0  0
    8.9814  -16.8859   -1.8933 H   0  0  0  0  0
    7.4787  -16.0468   -2.4563 H   0  0  0  0  0
    9.0193  -18.2761   -3.7333 H   0  0  0  0  0
    6.3962  -17.1103   -4.6386 H   0  0  0  0  0
    7.6349  -17.9153   -6.5276 H   0  0  0  0  0
    5.2959  -18.3280   -6.6000 H   0  0  0  0  0
    5.4795  -19.7739   -5.4662 H   0  0  0  0  0
    6.6244  -20.9379   -7.3045 H   0  0  0  0  0
    7.1446  -18.6306   -8.5333 H   0  0  0  0  0
    5.7214  -19.0849   -9.4185 H   0  0  0  0  0
    9.0555  -20.0778   -8.4399 H   0  0  0  0  0
    8.8652  -22.4023  -10.5074 H   0  0  0  0  0
    8.6494  -24.6719   -8.6721 H   0  0  0  0  0
    7.6985  -23.2197   -8.1225 H   0  0  0  0  0
    9.8264  -23.8441   -6.2684 H   0  0  0  0  0
    7.8992  -22.4532   -5.8432 H   0  0  0  0  0
    8.2087  -24.8684   -4.0668 H   0  0  0  0  0
   10.1019  -25.2156   -3.2736 H   0  0  0  0  0
   12.0212  -22.7886   -2.9302 H   0  0  0  0  0
   11.5545  -25.0929   -1.0272 H   0  0  0  0  0
   11.1888  -23.3430   -0.7517 H   0  0  0  0  0
   13.5294  -22.8042   -0.8215 H   0  0  0  0  0
   13.9852  -25.7825   -1.2026 H   0  0  0  0  0
   14.8430  -25.3910   -3.3785 H   0  0  0  0  0
   14.6320  -23.6036   -3.1877 H   0  0  0  0  0
   12.8387  -24.3455   -4.5463 H   0  0  0  0  0
   12.4968  -25.7403   -3.4284 H   0  0  0  0  0
    6.3697  -16.5198   -0.2392 H   0  0  0  0  0
    6.4548  -18.1728    0.4177 H   0  0  0  0  0
    7.9392  -17.2032    0.2516 H   0  0  0  0  0
    4.2573  -21.3031   -6.7668 H   0  0  0  0  0
    3.7921  -19.9547   -7.8328 H   0  0  0  0  0
    4.5265  -21.4228   -8.5230 H   0  0  0  0  0
    7.0693  -21.4077  -11.4227 H   0  0  0  0  0
    6.5866  -22.4953  -10.0978 H   0  0  0  0  0
    5.5361  -21.1335  -10.5594 H   0  0  0  0  0
   11.3587  -22.2462  -10.5913 H   0  0  0  0  0
   11.1499  -20.6166   -9.8516 H   0  0  0  0  0
   10.2595  -19.7462  -11.9471 H   0  0  0  0  0
   10.2705  -22.7161  -12.7000 H   0  0  0  0  0
    9.9354  -21.2346  -13.8212 H   0  0  0  0  0
    6.1558  -23.6395   -7.0395 H   0  0  0  0  0
    6.2862  -25.0203   -5.9226 H   0  0  0  0  0
    5.6974  -23.4479   -5.3294 H   0  0  0  0  0
    9.9100  -21.4291   -2.7113 H   0  0  0  0  0
   10.6042  -21.5525   -4.3465 H   0  0  0  0  0
    8.8585  -21.2683   -4.1394 H   0  0  0  0  0
   10.3442  -15.8230   -3.4256 H   0  0  0  0  0
   10.7785  -17.0266   -4.6641 H   0  0  0  0  0
   10.4966  -15.3312   -5.1303 H   0  0  0  0  0
    9.5001  -18.8506   -7.3253 H   0  0  0  0  0
    9.9406  -18.4053   -5.6583 H   0  0  0  0  0
   10.2855  -20.0444   -6.2628 H   0  0  0  0  0
   14.2917  -22.4284    1.3815 H   0  0  0  0  0
   12.5136  -22.4096    1.4750 H   0  0  0  0  0
   13.4567  -23.3633    2.6463 H   0  0  0  0  0
    4.8341  -16.8070   -1.5847 H   0  0  0  0  0
    8.8975  -25.8986   -5.6261 H   0  0  0  0  0
   16.2223  -25.0025   -1.3999 H   0  0  0  0  0
  2  1  1  0  0  0
  1 46  1  0  0  0
  1 47  2  0  0  0
  2  3  1  0  0  0
 45  2  1  0  0  0
  3  4  1  0  0  0
  5  4  1  0  0  0
  6  5  1  0  0  0
 45  6  1  0  0  0
  7  8  1  0  0  0
  7 45  1  0  0  0
  7 48  2  0  0  0
  8  9  1  0  0  0
  8 49  2  0  0  0
  9 10  1  0  0  0
  9 50  1  0  0  0
  9 51  1  0  0  0
 10 11  1  0  0  0
 10 34  1  0  0  0
 11 12  1  0  0  0
 12 13  1  0  0  0
 12 52  1  0  0  0
 13 14  1  0  0  0
 13 50  1  0  0  0
 14 15  1  0  0  0
 14 53  1  0  0  0
 15 16  1  0  0  0
 16 17  1  0  0  0
 16 35  1  0  0  0
 17 18  1  0  0  0
 18 19  2  0  0  0
 18 36  1  0  0  0
 19 20  1  0  0  0
 20 21  1  0  0  0
 20 37  1  0  0  0
 21 22  1  0  0  0
 21 54  2  0  0  0
 22 23  1  0  0  0
 23 24  1  0  0  0
 23 55  1  0  0  0
 24 25  1  0  0  0
 24 40  1  0  0  0
 25 26  1  0  0  0
 25 46  1  0  0  0
 26 27  2  0  0  0
 26 41  1  0  0  0
 27 28  1  0  0  0
 28 29  1  0  0  0
 28 33  1  0  0  0
 29 30  1  0  0  0
 30 31  1  0  0  0
 30 56  1  0  0  0
 31 32  1  0  0  0
 31 57  1  0  0  0
 32 33  1  0  0  0
 37 38  1  0  0  0
 38 39  2  0  0  0
 52 42  1  0  0  0
 53 43  1  0  0  0
 56 44  1  0  0  0
  2 58  1  0  0  0
  3 59  1  0  0  0
  3 60  1  0  0  0
  4 61  1  0  0  0
  4 62  1  0  0  0
  5 63  1  0  0  0
  5 64  1  0  0  0
  6 65  1  0  0  0
  6 66  1  0  0  0
 10 67  1  0  0  0
 11 68  1  0  0  0
 11 69  1  0  0  0
 12 70  1  0  0  0
 13 71  1  0  0  0
 14 72  1  0  0  0
 15 73  1  0  0  0
 15 74  1  0  0  0
 16 75  1  0  0  0
 17 76  1  0  0  0
 17 77  1  0  0  0
 19 78  1  0  0  0
 20 79  1  0  0  0
 22 80  1  0  0  0
 22 81  1  0  0  0
 23 82  1  0  0  0
 24 83  1  0  0  0
 25 84  1  0  0  0
 27 85  1  0  0  0
 28 86  1  0  0  0
 29 87  1  0  0  0
 29 88  1  0  0  0
 30 89  1  0  0  0
 31 90  1  0  0  0
 32 91  1  0  0  0
 32 92  1  0  0  0
 33 93  1  0  0  0
 33 94  1  0  0  0
 34 95  1  0  0  0
 34 96  1  0  0  0
 34 97  1  0  0  0
 35 98  1  0  0  0
 35 99  1  0  0  0
 35100  1  0  0  0
 36101  1  0  0  0
 36102  1  0  0  0
 36103  1  0  0  0
 37104  1  0  0  0
 37105  1  0  0  0
 38106  1  0  0  0
 39107  1  0  0  0
 39108  1  0  0  0
 40109  1  0  0  0
 40110  1  0  0  0
 40111  1  0  0  0
 41112  1  0  0  0
 41113  1  0  0  0
 41114  1  0  0  0
 42115  1  0  0  0
 42116  1  0  0  0
 42117  1  0  0  0
 43118  1  0  0  0
 43119  1  0  0  0
 43120  1  0  0  0
 44121  1  0  0  0
 44122  1  0  0  0
 44123  1  0  0  0
 51124  1  0  0  0
 55125  1  0  0  0
 57126  1  0  0  0
M  END
$$$$
