5f25_ligand
  -I-interpret- 

 32 33  0  0  0  0  0  0  0  0999 V2000
    3.8370   -4.3500    3.3360 N   0  0  0  0  0
   12.3400   -5.3610    4.8840 C   0  0  0  0  0
   13.0470   -6.6850    4.9750 C   0  0  0  0  0
   13.0870   -4.0730    4.8930 C   0  0  0  0  0
    8.7700   -4.1210    4.6220 C   0  0  0  0  0
    8.0180   -3.1000    5.2270 C   0  0  0  0  0
    5.9600   -4.1940    4.5510 C   0  0  0  0  0
    4.4570   -4.2390    4.5130 C   0  0  0  0  0
    3.8300   -4.1840    5.5610 O   0  0  0  0  0
    6.6180   -3.1320    5.1850 C   0  0  0  0  0
    6.7030   -5.2240    3.9600 C   0  0  0  0  0
    8.1000   -5.1850    3.9970 C   0  0  0  0  0
   10.2680   -4.1110    4.6890 C   0  0  0  0  0
   10.9920   -2.9070    4.7060 C   0  0  0  0  0
   10.9510   -5.3290    4.7960 C   0  0  0  0  0
   14.3370   -4.0750    4.9880 O   0  0  0  0  0
   12.3380   -2.8660    4.8060 N   0  0  0  0  0
   13.0070   -1.5600    4.8080 C   0  0  0  0  0
    2.8185   -4.3907    3.2979 H   0  0  0  0  0
    4.3817   -4.3941    2.4748 H   0  0  0  0  0
   12.7091   -7.2154    5.8653 H   0  0  0  0  0
   12.8202   -7.2782    4.0891 H   0  0  0  0  0
   14.1223   -6.5178    5.0363 H   0  0  0  0  0
    8.5265   -2.2786    5.7318 H   0  0  0  0  0
    6.0406   -2.3305    5.6457 H   0  0  0  0  0
    6.1928   -6.0545    3.4721 H   0  0  0  0  0
    8.6747   -5.9884    3.5362 H   0  0  0  0  0
   10.4445   -1.9671    4.6355 H   0  0  0  0  0
   10.3886   -6.2626    4.8105 H   0  0  0  0  0
   12.7831   -1.0371    3.8782 H   0  0  0  0  0
   12.6493   -0.9712    5.6527 H   0  0  0  0  0
   14.0838   -1.7050    4.8946 H   0  0  0  0  0
  8  1  1  0  0  0
  2  3  1  0  0  0
  2  4  1  0  0  0
 15  2  2  0  0  0
  4 16  2  0  0  0
  4 17  1  0  0  0
  5  6  4  0  0  0
  5 12  4  0  0  0
 13  5  1  0  0  0
  6 10  4  0  0  0
  7  8  1  0  0  0
 10  7  4  0  0  0
 11  7  4  0  0  0
  8  9  2  0  0  0
 12 11  4  0  0  0
 13 14  2  0  0  0
 13 15  1  0  0  0
 14 17  1  0  0  0
 17 18  1  0  0  0
  1 19  1  0  0  0
  1 20  1  0  0  0
  3 21  1  0  0  0
  3 22  1  0  0  0
  3 23  1  0  0  0
  6 24  1  0  0  0
 10 25  1  0  0  0
 11 26  1  0  0  0
 12 27  1  0  0  0
 14 28  1  0  0  0
 15 29  1  0  0  0
 18 30  1  0  0  0
 18 31  1  0  0  0
 18 32  1  0  0  0
M  END
$$$$
