4x63_ligand
  -I-interpret- 

 54 57  0  0  0  0  0  0  0  0999 V2000
   22.8130  -51.8770   -9.3690 C   0  0  0  0  0
   22.0970  -50.3200  -11.0200 C   0  0  0  0  0
   23.3890  -50.3220  -11.5490 C   0  0  0  0  0
   24.3940  -51.1070  -10.9830 C   0  0  0  0  0
   22.5370  -44.2960  -10.6800 C   0  0  0  0  0
   22.9630  -42.9500  -10.1370 C   0  0  0  0  0
   22.9580  -42.9630   -8.7430 C   0  0  0  0  0
   23.7220  -42.0050   -8.0760 C   0  0  0  0  0
   23.7580  -41.9710   -6.6840 C   0  0  0  0  0
   23.0210  -42.8960   -5.9500 C   0  0  0  0  0
   22.2520  -43.8540   -6.6080 C   0  0  0  0  0
   22.2100  -43.8970   -8.0030 C   0  0  0  0  0
   21.4220  -44.8920   -8.6050 C   0  0  0  0  0
   21.2790  -44.7510  -10.0700 N   0  3  0  0  0
   21.0060  -46.0680  -10.6610 C   0  0  0  0  0
   19.5410  -46.4960  -10.5130 C   0  0  0  0  0
   18.7080  -45.5080  -11.1180 O   0  0  0  0  0
   19.3140  -47.8650  -11.1770 C   0  0  0  0  0
   20.3710  -48.8040  -10.7490 N   0  0  0  0  0
   21.1230  -49.5150  -11.6110 C   0  0  0  0  0
   21.0080  -49.4640  -12.8360 O   0  0  0  0  0
   21.8080  -51.0820   -9.9490 N   0  0  0  0  0
   24.1130  -51.8730   -9.9120 N   0  0  0  0  0
   25.6170  -51.0720  -11.5260 N   0  0  0  0  0
   26.7570  -51.8850  -11.0620 C   0  0  0  0  0
   27.5570  -51.1290  -10.0280 C   0  0  0  0  0
   28.7000  -51.1220  -10.9210 O   0  0  0  0  0
   27.9240  -51.6810  -12.0050 C   0  0  0  0  0
   22.5863  -52.4954   -8.5005 H   0  0  0  0  0
   23.6157  -49.7017  -12.4162 H   0  0  0  0  0
   23.3152  -45.0232  -10.4484 H   0  0  0  0  0
   22.3844  -44.2014  -11.7551 H   0  0  0  0  0
   22.2648  -42.1896  -10.4869 H   0  0  0  0  0
   23.9721  -42.7303  -10.4858 H   0  0  0  0  0
   24.2958  -41.2768   -8.6492 H   0  0  0  0  0
   24.3615  -41.2222   -6.1710 H   0  0  0  0  0
   23.0454  -42.8710   -4.8606 H   0  0  0  0  0
   21.6778  -44.5766   -6.0281 H   0  0  0  0  0
   20.4230  -44.8134   -8.1761 H   0  0  0  0  0
   21.9149  -45.8466   -8.4211 H   0  0  0  0  0
   20.5278  -44.0823  -10.2401 H   0  0  0  0  0
   21.6214  -46.8011  -10.1395 H   0  0  0  0  0
   21.2294  -46.0078  -11.7262 H   0  0  0  0  0
   19.2922  -46.5866   -9.4557 H   0  0  0  0  0
   17.7883  -45.7687  -11.0296 H   0  0  0  0  0
   19.3466  -47.7521  -12.2606 H   0  0  0  0  0
   18.3406  -48.2551  -10.8796 H   0  0  0  0  0
   20.5400  -48.9198   -9.7498 H   0  0  0  0  0
   25.7708  -50.4413  -12.3128 H   0  0  0  0  0
   26.3223  -52.8626  -10.8538 H   0  0  0  0  0
   27.6561  -51.5255   -9.0175 H   0  0  0  0  0
   27.1764  -50.1922   -9.6211 H   0  0  0  0  0
   27.7882  -51.1156  -12.9270 H   0  0  0  0  0
   28.3148  -52.5210  -12.5792 H   0  0  0  0  0
 22  1  4  0  0  0
  1 23  4  0  0  0
  2  3  4  0  0  0
 20  2  1  0  0  0
  2 22  4  0  0  0
  3  4  4  0  0  0
  4 23  4  0  0  0
  4 24  1  0  0  0
  5  6  1  0  0  0
 14  5  1  0  0  0
  6  7  1  0  0  0
  7  8  4  0  0  0
 12  7  4  0  0  0
  8  9  4  0  0  0
 10  9  4  0  0  0
 11 10  4  0  0  0
 12 11  4  0  0  0
 13 12  1  0  0  0
 14 13  1  0  0  0
 15 14  1  0  0  0
 16 15  1  0  0  0
 16 17  1  0  0  0
 18 16  1  0  0  0
 19 18  1  0  0  0
 19 20  1  0  0  0
 20 21  2  0  0  0
 24 25  1  0  0  0
 25 26  1  0  0  0
 25 28  1  0  0  0
 26 27  1  0  0  0
 27 28  1  0  0  0
  1 29  1  0  0  0
  3 30  1  0  0  0
  5 31  1  0  0  0
  5 32  1  0  0  0
  6 33  1  0  0  0
  6 34  1  0  0  0
  8 35  1  0  0  0
  9 36  1  0  0  0
 10 37  1  0  0  0
 11 38  1  0  0  0
 13 39  1  0  0  0
 13 40  1  0  0  0
 14 41  1  0  0  0
 15 42  1  0  0  0
 15 43  1  0  0  0
 16 44  1  0  0  0
 17 45  1  0  0  0
 18 46  1  0  0  0
 18 47  1  0  0  0
 19 48  1  0  0  0
 24 49  1  0  0  0
 25 50  1  0  0  0
 26 51  1  0  0  0
 26 52  1  0  0  0
 28 53  1  0  0  0
 28 54  1  0  0  0
M  END
$$$$
