6dik_ligand
  -I-interpret- 

 52 53  0  0  0  0  0  0  0  0999 V2000
    2.5570  -12.7680    4.1020 C   0  0  0  0  0
    4.2330  -19.0840    3.6540 C   0  0  0  0  0
    4.1180  -19.7710    4.9860 C   0  0  0  0  0
    3.6840  -19.9630    2.5390 C   0  0  0  0  0
    1.7580  -21.2850    2.0600 C   0  0  0  0  0
    0.3000  -21.5020    2.0360 C   0  0  0  0  0
   -0.2250  -22.3860    1.1960 C   0  0  0  0  0
   -1.6890  -22.5970    1.1630 C   0  0  0  0  0
   -2.2060  -23.6790    0.4570 C   0  0  0  0  0
   -3.5770  -23.8830    0.4100 C   0  0  0  0  0
   -4.4710  -22.9340    1.1180 C   0  0  0  0  0
    2.0520  -11.4740    4.0140 C   0  0  0  0  0
   -3.9120  -21.8660    1.8090 C   0  0  0  0  0
   -2.5290  -21.7010    1.8230 C   0  0  0  0  0
    3.8810  -19.2410    1.2410 C   0  0  0  0  0
    2.8990  -10.3880    4.1990 C   0  0  0  0  0
    4.3310  -10.6370    4.4870 C   0  0  0  0  0
    4.7860  -11.9420    4.5650 C   0  0  0  0  0
    3.9050  -12.9990    4.3750 C   0  0  0  0  0
    4.4320  -14.3800    4.4620 C   0  0  0  0  0
    3.6530  -15.4210    4.2020 C   0  0  0  0  0
    4.2060  -16.7850    4.2850 C   0  0  0  0  0
    5.2650  -17.0140    4.8490 O   0  0  0  0  0
    4.9890  -19.4270    0.5280 O   0  0  0  0  0
    5.1850   -9.5980    4.6740 O   0  0  0  0  0
    2.4340   -9.1100    4.1200 O   0  0  0  0  0
    3.4780  -17.8750    3.6690 O   0  0  0  0  0
    3.0370  -19.9160    5.5360 O   0  0  0  0  0
    5.2130  -20.2270    5.5890 O   0  0  0  0  0
    2.2860  -20.1190    2.7440 O   0  0  0  0  0
    2.5240  -22.0620    1.5090 O   0  0  0  0  0
   -5.8200  -23.1090    1.0890 O   0  0  0  0  0
   -4.0940  -24.9420   -0.2730 O   0  0  0  0  0
    3.0280  -18.4720    0.8280 O   0  0  0  0  0
    1.8874  -13.6154    3.9550 H   0  0  0  0  0
    5.2887  -18.8805    3.4747 H   0  0  0  0  0
    4.1849  -20.9310    2.5284 H   0  0  0  0  0
   -0.3466  -20.9370    2.7075 H   0  0  0  0  0
    0.4228  -22.9565    0.5304 H   0  0  0  0  0
   -1.5342  -24.3654   -0.0585 H   0  0  0  0  0
    0.9953  -11.3129    3.8006 H   0  0  0  0  0
   -4.5529  -21.1605    2.3378 H   0  0  0  0  0
   -2.0959  -20.8567    2.3593 H   0  0  0  0  0
    5.8369  -12.1404    4.7758 H   0  0  0  0  0
    5.4725  -14.5428    4.7431 H   0  0  0  0  0
    2.6089  -15.2690    3.9283 H   0  0  0  0  0
    5.5575  -20.0546    0.9801 H   0  0  0  0  0
    6.0660   -9.9369    4.8488 H   0  0  0  0  0
    3.1570   -8.4975    4.2741 H   0  0  0  0  0
    5.9793  -20.0421    5.0410 H   0  0  0  0  0
   -6.2431  -22.4108    1.5941 H   0  0  0  0  0
   -5.0513  -24.9308   -0.2017 H   0  0  0  0  0
  1 12  4  0  0  0
 19  1  4  0  0  0
  2  3  1  0  0  0
  2  4  1  0  0  0
 27  2  1  0  0  0
  3 28  2  0  0  0
  3 29  1  0  0  0
  4 15  1  0  0  0
  4 30  1  0  0  0
  5  6  1  0  0  0
 30  5  1  0  0  0
  5 31  2  0  0  0
  6  7  2  0  0  0
  7  8  1  0  0  0
  8  9  4  0  0  0
  8 14  4  0  0  0
  9 10  4  0  0  0
 10 11  4  0  0  0
 10 33  1  0  0  0
 13 11  4  0  0  0
 11 32  1  0  0  0
 12 16  4  0  0  0
 14 13  4  0  0  0
 15 24  1  0  0  0
 15 34  2  0  0  0
 17 16  4  0  0  0
 16 26  1  0  0  0
 18 17  4  0  0  0
 17 25  1  0  0  0
 19 18  4  0  0  0
 20 19  1  0  0  0
 21 20  2  0  0  0
 22 21  1  0  0  0
 22 23  2  0  0  0
 22 27  1  0  0  0
  1 35  1  0  0  0
  2 36  1  0  0  0
  4 37  1  0  0  0
  6 38  1  0  0  0
  7 39  1  0  0  0
  9 40  1  0  0  0
 12 41  1  0  0  0
 13 42  1  0  0  0
 14 43  1  0  0  0
 18 44  1  0  0  0
 20 45  1  0  0  0
 21 46  1  0  0  0
 24 47  1  0  0  0
 25 48  1  0  0  0
 26 49  1  0  0  0
 29 50  1  0  0  0
 32 51  1  0  0  0
 33 52  1  0  0  0
M  END
$$$$
