5nu5_ligand
  -I-interpret- 

 48 50  0  0  0  0  0  0  0  0999 V2000
   40.6840    1.8440   10.1250 O   0  0  0  0  0
   41.4140    4.0150    8.2530 C   0  0  0  0  0
   44.6210    2.2370    8.8500 C   0  0  0  0  0
   37.0510    4.3240   11.9520 C   0  0  0  0  0
   37.6150    3.2590   12.8740 C   0  0  0  0  0
   35.6010    5.9050   14.4810 C   0  0  0  0  0
   39.2880    5.7120    9.9920 C   0  0  0  0  0
   38.8280    6.2470   11.2830 C   0  0  0  0  0
   39.2810    7.3950   11.7880 N   0  0  0  0  0
   38.7200    7.6860   12.9590 C   0  0  0  0  0
   37.7590    6.5990   13.2680 C   0  0  0  0  0
   37.8070    5.6190   12.1530 C   0  0  0  0  0
   36.9190    6.6090   14.4960 C   0  0  0  0  0
   39.0580    8.9270   13.7430 C   0  0  0  0  0
   39.5150    4.4320    9.8300 N   0  0  0  0  0
   39.4760    6.5140    9.0900 O   0  0  0  0  0
   37.2860    7.2350   15.4690 O   0  0  0  0  0
   39.9220    3.9880    8.5370 C   0  0  0  0  0
   41.8800    4.9970    7.3740 C   0  0  0  0  0
   43.2150    5.0570    7.0010 C   0  0  0  0  0
   44.1130    4.1250    7.4990 C   0  0  0  0  0
   43.6720    3.1390    8.3740 C   0  0  0  0  0
   42.3170    3.0520    8.7620 C   0  0  0  0  0
   41.9530    2.0210    9.6600 C   0  0  0  0  0
   42.9130    1.1170   10.1230 C   0  0  0  0  0
   44.2400    1.2250    9.7210 C   0  0  0  0  0
   41.0300    5.9370    6.8670 O   0  0  0  0  0
   40.6642    1.0897   10.7185 H   0  0  0  0  0
   45.6619    2.3256    8.5389 H   0  0  0  0  0
   35.9967    4.4802   12.1803 H   0  0  0  0  0
   37.1555    3.9998   10.9166 H   0  0  0  0  0
   38.6694    3.1036   12.6454 H   0  0  0  0  0
   37.5105    3.5840   13.9092 H   0  0  0  0  0
   37.0689    2.3271   12.7275 H   0  0  0  0  0
   35.5766    5.1651   15.2810 H   0  0  0  0  0
   34.8013    6.6304   14.6307 H   0  0  0  0  0
   35.4670    5.4078   13.5203 H   0  0  0  0  0
   40.1205    8.9234   13.9863 H   0  0  0  0  0
   38.8238    9.8079   13.1452 H   0  0  0  0  0
   38.4734    8.9446   14.6628 H   0  0  0  0  0
   39.4044    3.7751   10.6024 H   0  0  0  0  0
   39.6190    2.9434    8.4662 H   0  0  0  0  0
   39.4654    4.6740    7.8235 H   0  0  0  0  0
   43.5571    5.8348    6.3182 H   0  0  0  0  0
   45.1619    4.1655    7.2051 H   0  0  0  0  0
   42.6189    0.3197   10.8056 H   0  0  0  0  0
   44.9807    0.5154   10.0896 H   0  0  0  0  0
   41.5164    6.5265    6.2860 H   0  0  0  0  0
 24  1  1  0  0  0
  2 18  1  0  0  0
  2 19  4  0  0  0
 23  2  4  0  0  0
 22  3  4  0  0  0
  3 26  4  0  0  0
  4  5  1  0  0  0
 12  4  1  0  0  0
 13  6  1  0  0  0
  7  8  1  0  0  0
 15  7  1  0  0  0
  7 16  2  0  0  0
  8  9  4  0  0  0
  8 12  4  0  0  0
  9 10  4  0  0  0
 11 10  4  0  0  0
 10 14  1  0  0  0
 12 11  4  0  0  0
 11 13  1  0  0  0
 13 17  2  0  0  0
 18 15  1  0  0  0
 19 20  4  0  0  0
 19 27  1  0  0  0
 21 20  4  0  0  0
 22 21  4  0  0  0
 23 22  4  0  0  0
 23 24  4  0  0  0
 24 25  4  0  0  0
 25 26  4  0  0  0
  1 28  1  0  0  0
  3 29  1  0  0  0
  4 30  1  0  0  0
  4 31  1  0  0  0
  5 32  1  0  0  0
  5 33  1  0  0  0
  5 34  1  0  0  0
  6 35  1  0  0  0
  6 36  1  0  0  0
  6 37  1  0  0  0
 14 38  1  0  0  0
 14 39  1  0  0  0
 14 40  1  0  0  0
 15 41  1  0  0  0
 18 42  1  0  0  0
 18 43  1  0  0  0
 20 44  1  0  0  0
 21 45  1  0  0  0
 25 46  1  0  0  0
 26 47  1  0  0  0
 27 48  1  0  0  0
M  END
$$$$
