6ffe_ligand
  -I-interpret- 

 46 49  0  0  0  0  0  0  0  0999 V2000
   41.8770   17.0480    9.3840 C   0  0  0  0  0
   40.1100   18.1850   12.0730 C   0  0  0  0  0
   38.3340   16.7950   12.9350 C   0  0  0  0  0
   38.6290   17.1960   14.2190 C   0  0  0  0  0
   39.6590   18.0900   14.4490 C   0  0  0  0  0
   40.4080   18.5910   13.3830 C   0  0  0  0  0
   39.1830   15.3610    5.8160 C   0  0  0  0  0
   40.5050   15.4640    6.5140 C   0  0  0  0  0
   41.3100   14.5470    6.4610 O   0  0  0  0  0
   40.7920   16.6100    7.2290 N   0  0  0  0  0
   42.1000   16.6770    7.9250 C   0  0  0  0  0
   40.7040   17.8760    9.6900 N   0  0  0  0  0
   40.8950   18.6950   10.8880 C   0  0  0  0  0
   39.0670   17.2850   11.8700 C   0  0  0  0  0
   41.5090   19.5510   13.6820 C   0  0  0  0  0
   42.4330   19.0890   14.4710 O   0  0  0  0  0
   41.5320   20.6800   13.2080 O   0  0  0  0  0
   39.9250   18.4020    8.5970 C   0  0  0  0  0
   39.1170   19.5240    8.7770 C   0  0  0  0  0
   38.3700   20.0060    7.7170 C   0  0  0  0  0
   38.4110   19.3790    6.4900 C   0  0  0  0  0
   39.2040   18.2610    6.2970 C   0  0  0  0  0
   39.9480   17.7500    7.3560 C   0  0  0  0  0
   43.1020   17.5610    7.1920 C   0  0  0  0  0
   43.9980   16.9330    6.1710 C   0  0  0  0  0
   44.5580   17.3550    7.4820 C   0  0  0  0  0
   42.7438   17.6409    9.6759 H   0  0  0  0  0
   41.7214   16.1060    9.9099 H   0  0  0  0  0
   37.5215   16.0903   12.7581 H   0  0  0  0  0
   38.0492   16.8078   15.0564 H   0  0  0  0  0
   39.8869   18.4048   15.4674 H   0  0  0  0  0
   39.3476   15.2239    4.7473 H   0  0  0  0  0
   38.6299   14.5093    6.2119 H   0  0  0  0  0
   38.6133   16.2751    5.9829 H   0  0  0  0  0
   42.5688   15.6930    7.9143 H   0  0  0  0  0
   41.9529   18.6650   11.1490 H   0  0  0  0  0
   40.5460   19.7030   10.6638 H   0  0  0  0  0
   38.8251   16.9623   10.8574 H   0  0  0  0  0
   42.2163   18.1883   14.7227 H   0  0  0  0  0
   39.0741   20.0186    9.7474 H   0  0  0  0  0
   37.7443   20.8881    7.8530 H   0  0  0  0  0
   37.8139   19.7669    5.6647 H   0  0  0  0  0
   39.2455   17.7824    5.3186 H   0  0  0  0  0
   42.4197   18.4110    7.1978 H   0  0  0  0  0
   44.1380   16.4896    5.1852 H   0  0  0  0  0
   45.4071   17.4472    8.1592 H   0  0  0  0  0
  1 11  1  0  0  0
 12  1  1  0  0  0
  2  6  4  0  0  0
 13  2  1  0  0  0
  2 14  4  0  0  0
  3  4  4  0  0  0
 14  3  4  0  0  0
  5  4  4  0  0  0
  6  5  4  0  0  0
  6 15  1  0  0  0
  8  7  1  0  0  0
  8  9  2  0  0  0
 10  8  1  0  0  0
 11 10  1  0  0  0
 10 23  1  0  0  0
 11 24  1  0  0  0
 12 13  1  0  0  0
 12 18  1  0  0  0
 15 16  1  0  0  0
 15 17  2  0  0  0
 18 19  4  0  0  0
 18 23  4  0  0  0
 19 20  4  0  0  0
 20 21  4  0  0  0
 21 22  4  0  0  0
 22 23  4  0  0  0
 24 25  1  0  0  0
 24 26  1  0  0  0
 25 26  2  0  0  0
  1 27  1  0  0  0
  1 28  1  0  0  0
  3 29  1  0  0  0
  4 30  1  0  0  0
  5 31  1  0  0  0
  7 32  1  0  0  0
  7 33  1  0  0  0
  7 34  1  0  0  0
 11 35  1  0  0  0
 13 36  1  0  0  0
 13 37  1  0  0  0
 14 38  1  0  0  0
 16 39  1  0  0  0
 19 40  1  0  0  0
 20 41  1  0  0  0
 21 42  1  0  0  0
 22 43  1  0  0  0
 24 44  1  0  0  0
 25 45  1  0  0  0
 26 46  1  0  0  0
M  END
$$$$
