5qby_ligand
  -I-interpret- 

 80 85  0  0  0  0  0  0  0  0999 V2000
   13.8510  -19.5270  -39.3170 C   0  0  0  0  0
   13.0810  -18.7680  -40.1650 C   0  0  0  0  0
   11.7790  -18.5140  -39.7870 C   0  0  0  0  0
   11.2520  -18.9930  -38.6100 C   0  0  0  0  0
   12.0270  -19.7620  -37.7430 C   0  0  0  0  0
   13.3500  -20.0350  -38.1100 C   0  0  0  0  0
    9.9240  -18.5470  -38.5470 N   0  0  0  0  0
    9.6240  -17.8150  -39.6480 C   0  0  0  0  0
   10.7920  -17.8030  -40.4180 N   0  0  0  0  0
   10.8830  -17.0960  -41.6900 C   0  0  0  0  0
    8.9920  -18.8060  -37.4910 C   0  0  0  0  0
   15.4970  -19.8690  -39.7810 Cl  0  0  0  0  0
   10.0330  -17.6930  -42.7400 C   0  0  0  0  0
    9.6260  -16.6590  -43.7490 C   0  0  0  0  0
   10.6740  -15.6650  -43.9500 N   0  3  0  0  0
   10.8620  -14.8480  -42.7360 C   0  0  0  0  0
   10.6230  -15.6270  -41.4840 C   0  0  0  0  0
   10.4210  -14.8850  -45.1740 C   0  0  0  0  0
   10.2030  -13.3930  -45.0270 C   0  0  0  0  0
   10.6680  -12.7590  -46.2770 C   0  0  0  0  0
   12.1570  -12.5140  -46.2720 N   0  0  0  0  0
   12.6280  -11.4740  -45.4930 C   0  0  0  0  0
   14.0950  -11.2850  -45.5480 C   0  0  0  0  0
   14.8480  -12.1350  -46.3290 C   0  0  0  0  0
   14.2690  -13.1570  -47.0760 N   0  0  0  0  0
   12.9880  -13.2930  -47.0120 C   0  0  0  0  0
   11.8350  -10.7990  -44.8350 O   0  0  0  0  0
    8.5550  -17.2890  -39.8960 O   0  0  0  0  0
   14.7260  -10.2340  -44.7810 C   0  0  0  0  0
   14.0580   -9.0520  -44.5240 C   0  0  0  0  0
   14.6540   -8.0580  -43.7930 C   0  0  0  0  0
   15.9250   -8.2400  -43.3070 C   0  0  0  0  0
   16.6410   -9.4040  -43.5370 C   0  0  0  0  0
   16.0190  -10.4020  -44.2790 C   0  0  0  0  0
   16.6360   -6.9550  -42.3870 Cl  0  0  0  0  0
   18.0260   -9.5930  -43.0060 C   0  0  0  0  0
   18.0600  -10.5250  -41.9140 N   0  0  0  0  0
   19.0320  -11.4190  -41.7580 C   0  0  0  0  0
   19.9730  -11.5170  -42.5330 O   0  0  0  0  0
   18.9310  -12.3070  -40.5980 C   0  0  0  0  0
   20.0560  -12.5860  -39.8370 C   0  0  0  0  0
   19.9690  -13.4220  -38.7430 C   0  0  0  0  0
   18.7460  -13.9630  -38.4360 C   0  0  0  0  0
   17.6160  -13.7170  -39.1580 C   0  0  0  0  0
   17.7140  -12.8840  -40.2430 C   0  0  0  0  0
   18.6590  -14.7840  -37.3650 F   0  0  0  0  0
   13.4839  -18.3812  -41.1011 H   0  0  0  0  0
   11.6150  -20.1395  -36.8071 H   0  0  0  0  0
   13.9861  -20.6381  -37.4621 H   0  0  0  0  0
   11.9009  -17.2044  -42.0645 H   0  0  0  0  0
    8.6666  -17.8613  -37.0555 H   0  0  0  0  0
    8.1298  -19.3390  -37.8917 H   0  0  0  0  0
    9.4728  -19.4142  -36.7248 H   0  0  0  0  0
    9.1361  -18.1024  -42.2752 H   0  0  0  0  0
   10.5982  -18.4751  -43.2469 H   0  0  0  0  0
    8.7346  -16.1507  -43.3814 H   0  0  0  0  0
    9.4386  -17.1594  -44.6991 H   0  0  0  0  0
   11.5665  -16.1348  -44.1020 H   0  0  0  0  0
   10.1440  -14.0285  -42.7660 H   0  0  0  0  0
   11.8933  -14.4955  -42.7226 H   0  0  0  0  0
   11.3024  -15.2607  -40.7144 H   0  0  0  0  0
    9.5810  -15.4985  -41.1910 H   0  0  0  0  0
    9.4891  -15.2768  -45.5817 H   0  0  0  0  0
   11.3225  -14.9896  -45.7776 H   0  0  0  0  0
   10.7566  -13.0065  -44.1713 H   0  0  0  0  0
    9.1493  -13.1740  -44.8543 H   0  0  0  0  0
   10.1662  -11.7965  -46.3762 H   0  0  0  0  0
   10.4375  -13.4305  -47.1041 H   0  0  0  0  0
   15.9295  -12.0030  -46.3628 H   0  0  0  0  0
   12.5375  -14.0949  -47.5969 H   0  0  0  0  0
   13.0474   -8.9089  -44.9064 H   0  0  0  0  0
   14.1214   -7.1271  -43.5983 H   0  0  0  0  0
   16.5506  -11.3337  -44.4728 H   0  0  0  0  0
   18.3870   -8.6303  -42.6442 H   0  0  0  0  0
   18.6488   -9.9861  -43.8096 H   0  0  0  0  0
   17.3056  -10.5002  -41.2280 H   0  0  0  0  0
   21.0149  -12.1422  -40.1047 H   0  0  0  0  0
   20.8480  -13.6467  -38.1389 H   0  0  0  0  0
   16.6634  -14.1688  -38.8812 H   0  0  0  0  0
   16.8254  -12.6701  -40.8370 H   0  0  0  0  0
  1  2  4  0  0  0
  1  6  4  0  0  0
  1 12  1  0  0  0
  2  3  4  0  0  0
  3  4  4  0  0  0
  3  9  1  0  0  0
  4  5  4  0  0  0
  4  7  1  0  0  0
  5  6  4  0  0  0
  7  8  1  0  0  0
  7 11  1  0  0  0
  8  9  1  0  0  0
  8 28  2  0  0  0
  9 10  1  0  0  0
 10 13  1  0  0  0
 10 17  1  0  0  0
 13 14  1  0  0  0
 14 15  1  0  0  0
 15 16  1  0  0  0
 15 18  1  0  0  0
 16 17  1  0  0  0
 18 19  1  0  0  0
 19 20  1  0  0  0
 20 21  1  0  0  0
 21 22  1  0  0  0
 21 26  1  0  0  0
 22 23  1  0  0  0
 22 27  2  0  0  0
 23 24  2  0  0  0
 23 29  1  0  0  0
 24 25  1  0  0  0
 25 26  2  0  0  0
 29 30  4  0  0  0
 29 34  4  0  0  0
 30 31  4  0  0  0
 31 32  4  0  0  0
 32 33  4  0  0  0
 32 35  1  0  0  0
 33 34  4  0  0  0
 33 36  1  0  0  0
 36 37  1  0  0  0
 37 38  1  0  0  0
 38 39  2  0  0  0
 38 40  1  0  0  0
 40 41  4  0  0  0
 40 45  4  0  0  0
 41 42  4  0  0  0
 42 43  4  0  0  0
 43 44  4  0  0  0
 43 46  1  0  0  0
 44 45  4  0  0  0
  2 47  1  0  0  0
  5 48  1  0  0  0
  6 49  1  0  0  0
 10 50  1  0  0  0
 11 51  1  0  0  0
 11 52  1  0  0  0
 11 53  1  0  0  0
 13 54  1  0  0  0
 13 55  1  0  0  0
 14 56  1  0  0  0
 14 57  1  0  0  0
 15 58  1  0  0  0
 16 59  1  0  0  0
 16 60  1  0  0  0
 17 61  1  0  0  0
 17 62  1  0  0  0
 18 63  1  0  0  0
 18 64  1  0  0  0
 19 65  1  0  0  0
 19 66  1  0  0  0
 20 67  1  0  0  0
 20 68  1  0  0  0
 24 69  1  0  0  0
 26 70  1  0  0  0
 30 71  1  0  0  0
 31 72  1  0  0  0
 34 73  1  0  0  0
 36 74  1  0  0  0
 36 75  1  0  0  0
 37 76  1  0  0  0
 41 77  1  0  0  0
 42 78  1  0  0  0
 44 79  1  0  0  0
 45 80  1  0  0  0
M  END
$$$$
