2wm0_ligand
  -I-interpret- 

 81 84  0  0  0  0  0  0  0  0999 V2000
   31.1540   71.3070   -8.2240 C   0  0  0  0  0
   31.7290   69.9540   -8.6280 C   0  0  0  0  0
   32.7490   70.1670   -9.7440 C   0  0  0  0  0
   32.1770   70.9380  -10.9320 C   0  0  0  0  0
   31.4960   72.1930  -10.4630 C   0  0  0  0  0
   30.7140   72.7220  -11.6570 C   0  0  0  0  0
   31.9810   68.1480   -6.9630 C   0  0  0  0  0
   32.8550   67.5040   -5.8940 C   0  0  0  0  0
   32.4460   69.2810   -7.5460 N   0  0  0  0  0
   33.1930   68.9270  -10.2000 O   0  0  0  0  0
   33.1470   71.2380  -11.9300 O   0  0  0  0  0
   30.6040   71.9210   -9.3900 O   0  0  0  0  0
   29.8620   73.7690  -11.2290 O   0  0  0  0  0
   30.8710   67.6550   -7.2440 O   0  0  0  0  0
   28.7040   73.2640   -4.0500 C   0  0  0  0  0
   29.2040   74.1810   -5.1900 C   0  0  0  0  0
   29.3420   73.3310   -6.4570 C   0  0  0  0  0
   30.0760   71.9930   -6.1790 C   0  0  0  0  0
   29.4860   71.2600   -4.9710 C   0  0  0  0  0
   30.2630   70.0140   -4.5610 C   0  0  0  0  0
   28.6130   76.6030   -5.2760 C   0  0  0  0  0
   27.4970   77.6030   -5.4940 C   0  0  0  0  0
   28.2780   75.2900   -5.3750 N   0  0  0  0  0
   30.1200   74.0900   -7.3290 O   0  0  0  0  0
   30.1190   71.0970   -7.2570 O   0  0  0  0  0
   29.6200   72.1750   -3.9050 O   0  0  0  0  0
   29.6330   69.5210   -3.4030 O   0  0  0  0  0
   29.7380   77.0180   -5.0270 O   0  0  0  0  0
   28.2810   74.3900    1.1040 C   0  0  0  0  0
   28.4020   72.8820    0.7470 C   0  0  0  0  0
   28.9590   72.8340   -0.7150 C   0  0  0  0  0
   28.3160   73.8900   -1.6860 C   0  0  0  0  0
   28.3430   75.3050   -1.0850 C   0  0  0  0  0
   27.6030   76.3800   -1.8970 C   0  0  0  0  0
   30.2180   73.2590    2.1760 C   0  0  0  0  0
   31.4180   72.8250    2.9670 C   0  0  0  0  0
   29.5250   72.3990    1.5540 N   0  0  0  0  0
   29.7320   74.8780    2.0140 S   0  0  0  0  0
   29.0800   71.5080   -1.3210 O   0  0  0  0  0
   29.0290   74.1080   -2.9200 O   0  0  0  0  0
   27.7370   75.3140    0.1810 O   0  0  0  0  0
   26.2010   76.1340   -1.7800 O   0  0  0  0  0
   31.9262   71.9453   -7.7948 H   0  0  0  0  0
   30.8802   69.3384   -8.9258 H   0  0  0  0  0
   33.5634   70.7568   -9.3233 H   0  0  0  0  0
   31.4458   70.2816  -11.4038 H   0  0  0  0  0
   32.2276   72.9148  -10.0997 H   0  0  0  0  0
   30.1174   71.9183  -12.0886 H   0  0  0  0  0
   31.4064   73.0986  -12.4099 H   0  0  0  0  0
   32.3209   67.4999   -4.9438 H   0  0  0  0  0
   33.0883   66.4800   -6.1856 H   0  0  0  0  0
   33.7789   68.0731   -5.7905 H   0  0  0  0  0
   33.3268   69.6774   -7.2181 H   0  0  0  0  0
   33.5564   68.4282   -9.4646 H   0  0  0  0  0
   33.5709   70.4259  -12.2170 H   0  0  0  0  0
   29.3673   74.1048  -11.9801 H   0  0  0  0  0
   27.6817   72.9071   -4.1746 H   0  0  0  0  0
   30.1750   74.6129   -4.9478 H   0  0  0  0  0
   28.3579   73.0833   -6.8548 H   0  0  0  0  0
   31.1006   72.3087   -5.9822 H   0  0  0  0  0
   28.4715   70.9425   -5.2122 H   0  0  0  0  0
   31.3097   70.2495   -4.3686 H   0  0  0  0  0
   30.2597   69.2695   -5.3571 H   0  0  0  0  0
   27.3745   78.2101   -4.5970 H   0  0  0  0  0
   27.7467   78.2459   -6.3381 H   0  0  0  0  0
   26.5693   77.0703   -5.7032 H   0  0  0  0  0
   27.3078   75.0646   -5.5948 H   0  0  0  0  0
   30.2433   73.6067   -8.1492 H   0  0  0  0  0
   30.0888   68.7309   -3.1038 H   0  0  0  0  0
   27.4028   74.4644    1.7454 H   0  0  0  0  0
   27.4681   72.3369    0.8842 H   0  0  0  0  0
   29.9936   73.1434   -0.5666 H   0  0  0  0  0
   27.3275   73.4610   -1.8498 H   0  0  0  0  0
   29.4050   75.5497   -1.0654 H   0  0  0  0  0
   27.9069   76.3377   -2.9429 H   0  0  0  0  0
   27.8444   77.3724   -1.5162 H   0  0  0  0  0
   31.1067   72.1251    3.7424 H   0  0  0  0  0
   32.1330   72.3392    2.3030 H   0  0  0  0  0
   31.8825   73.6968    3.4278 H   0  0  0  0  0
   29.4289   71.5948   -2.2111 H   0  0  0  0  0
   25.7183   76.7956   -2.2809 H   0  0  0  0  0
  1  2  1  0  0  0
  1 12  1  0  0  0
 25  1  1  0  0  0
  2  3  1  0  0  0
  2  9  1  0  0  0
  3  4  1  0  0  0
  3 10  1  0  0  0
  5  4  1  0  0  0
  4 11  1  0  0  0
  5  6  1  0  0  0
 12  5  1  0  0  0
  6 13  1  0  0  0
  7  8  1  0  0  0
  9  7  1  0  0  0
  7 14  2  0  0  0
 15 16  1  0  0  0
 15 26  1  0  0  0
 40 15  1  0  0  0
 16 17  1  0  0  0
 16 23  1  0  0  0
 17 18  1  0  0  0
 17 24  1  0  0  0
 19 18  1  0  0  0
 18 25  1  0  0  0
 19 20  1  0  0  0
 26 19  1  0  0  0
 20 27  1  0  0  0
 21 22  1  0  0  0
 23 21  1  0  0  0
 21 28  2  0  0  0
 30 29  1  0  0  0
 29 38  1  0  0  0
 29 41  1  0  0  0
 30 31  1  0  0  0
 37 30  1  0  0  0
 31 32  1  0  0  0
 31 39  1  0  0  0
 32 33  1  0  0  0
 32 40  1  0  0  0
 33 34  1  0  0  0
 41 33  1  0  0  0
 34 42  1  0  0  0
 35 36  1  0  0  0
 35 37  2  0  0  0
 35 38  1  0  0  0
  1 43  1  0  0  0
  2 44  1  0  0  0
  3 45  1  0  0  0
  4 46  1  0  0  0
  5 47  1  0  0  0
  6 48  1  0  0  0
  6 49  1  0  0  0
  8 50  1  0  0  0
  8 51  1  0  0  0
  8 52  1  0  0  0
  9 53  1  0  0  0
 10 54  1  0  0  0
 11 55  1  0  0  0
 13 56  1  0  0  0
 15 57  1  0  0  0
 16 58  1  0  0  0
 17 59  1  0  0  0
 18 60  1  0  0  0
 19 61  1  0  0  0
 20 62  1  0  0  0
 20 63  1  0  0  0
 22 64  1  0  0  0
 22 65  1  0  0  0
 22 66  1  0  0  0
 23 67  1  0  0  0
 24 68  1  0  0  0
 27 69  1  0  0  0
 29 70  1  0  0  0
 30 71  1  0  0  0
 31 72  1  0  0  0
 32 73  1  0  0  0
 33 74  1  0  0  0
 34 75  1  0  0  0
 34 76  1  0  0  0
 36 77  1  0  0  0
 36 78  1  0  0  0
 36 79  1  0  0  0
 39 80  1  0  0  0
 42 81  1  0  0  0
M  END
$$$$
