5i3w_ligand
  -I-interpret- 

 53 58  0  0  0  0  0  0  0  0999 V2000
   64.3920   52.7440   12.6740 C   0  0  0  0  0
   63.1140   52.8630   13.3620 O   0  0  0  0  0
   61.9980   52.6290   12.4880 C   0  0  0  0  0
   62.1440   51.3350   11.6790 C   0  0  0  0  0
   63.4610   51.0790   11.2680 C   0  0  0  0  0
   64.6000   51.7230   11.7310 C   0  0  0  0  0
   65.9050   51.4180   11.2850 C   0  0  0  0  0
   66.1720   50.4270   10.3330 C   0  0  0  0  0
   66.9440   52.1300   11.7760 N   0  0  0  0  0
   68.2020   51.9150   11.4080 C   0  0  0  0  0
   68.5250   50.9420   10.4700 C   0  0  0  0  0
   69.8300   50.7840   10.1540 O   0  0  0  0  0
   67.4860   50.1760    9.9260 C   0  0  0  0  0
   67.7700   49.1160    8.8780 C   0  0  0  0  0
   67.3840   47.6970    9.3140 C   0  0  0  0  0
   66.6610   47.1400    8.1850 O   0  0  0  0  0
   66.3470   48.1760    7.3370 C   0  0  0  0  0
   66.9030   49.3250    7.6870 N   0  0  0  0  0
   65.5330   48.0390    6.2900 N   0  0  0  0  0
   69.2220   49.1900    8.4460 C   0  0  0  0  0
   69.6140   48.4220    7.3670 C   0  0  0  0  0
   70.1590   49.9940    9.1050 C   0  0  0  0  0
   71.4720   50.0020    8.6540 C   0  0  0  0  0
   71.8610   49.2170    7.5640 C   0  0  0  0  0
   70.9170   48.4020    6.9190 C   0  0  0  0  0
   71.1650   47.6380    5.8370 N   0  0  0  0  0
   72.3510   47.2560    5.3440 C   0  0  0  0  0
   73.4390   47.4540    5.8630 O   0  0  0  0  0
   72.2320   46.4750    4.0460 C   0  0  0  0  0
   73.1170   45.4610    3.6860 C   0  0  0  0  0
   72.9270   44.7890    2.4760 C   0  0  0  0  0
   71.8490   45.1520    1.6680 C   0  0  0  0  0
   71.5190   44.3880    0.1430 Cl  0  0  0  0  0
   71.0060   46.1650    2.0890 C   0  0  0  0  0
   71.2010   46.7880    3.2380 N   0  0  0  0  0
   65.1923   53.4513   12.8918 H   0  0  0  0  0
   61.9428   53.4599   11.7847 H   0  0  0  0  0
   61.1027   52.5406   13.1034 H   0  0  0  0  0
   61.3063   50.6778   11.4458 H   0  0  0  0  0
   63.6026   50.3029   10.5159 H   0  0  0  0  0
   65.3521   49.8486    9.9072 H   0  0  0  0  0
   68.9975   52.5142   11.8510 H   0  0  0  0  0
   66.7763   47.7039   10.2189 H   0  0  0  0  0
   68.2602   47.0999    9.5666 H   0  0  0  0  0
   66.7592   50.2167    7.2131 H   0  0  0  0  0
   65.1107   47.1329    6.0874 H   0  0  0  0  0
   68.8697   47.8129    6.8540 H   0  0  0  0  0
   72.2093   50.6284    9.1561 H   0  0  0  0  0
   72.8938   49.2378    7.2162 H   0  0  0  0  0
   70.3448   47.3082    5.3281 H   0  0  0  0  0
   73.9473   45.1953    4.3403 H   0  0  0  0  0
   73.6084   43.9957    2.1688 H   0  0  0  0  0
   70.1641   46.4551    1.4604 H   0  0  0  0  0
  1  2  1  0  0  0
  1  6  2  0  0  0
  2  3  1  0  0  0
  3  4  1  0  0  0
  4  5  2  0  0  0
  5  6  1  0  0  0
  6  7  1  0  0  0
  7  8  4  0  0  0
  7  9  4  0  0  0
  8 13  4  0  0  0
  9 10  4  0  0  0
 10 11  4  0  0  0
 11 12  1  0  0  0
 11 13  4  0  0  0
 12 22  1  0  0  0
 13 14  1  0  0  0
 14 15  1  0  0  0
 14 18  1  0  0  0
 14 20  1  0  0  0
 15 16  1  0  0  0
 16 17  1  0  0  0
 17 18  1  0  0  0
 17 19  2  0  0  0
 20 21  4  0  0  0
 20 22  4  0  0  0
 21 25  4  0  0  0
 22 23  4  0  0  0
 23 24  4  0  0  0
 24 25  4  0  0  0
 25 26  1  0  0  0
 26 27  1  0  0  0
 27 28  2  0  0  0
 27 29  1  0  0  0
 29 30  4  0  0  0
 29 35  4  0  0  0
 30 31  4  0  0  0
 31 32  4  0  0  0
 32 33  1  0  0  0
 32 34  4  0  0  0
 34 35  4  0  0  0
  1 36  1  0  0  0
  3 37  1  0  0  0
  3 38  1  0  0  0
  4 39  1  0  0  0
  5 40  1  0  0  0
  8 41  1  0  0  0
 10 42  1  0  0  0
 15 43  1  0  0  0
 15 44  1  0  0  0
 18 45  1  0  0  0
 19 46  1  0  0  0
 21 47  1  0  0  0
 23 48  1  0  0  0
 24 49  1  0  0  0
 26 50  1  0  0  0
 30 51  1  0  0  0
 31 52  1  0  0  0
 34 53  1  0  0  0
M  END
$$$$
