2vvo_ligand
  -I-interpret- 

 29 29  0  0  0  0  0  0  0  0999 V2000
   34.3060    8.8460  -11.5080 C   0  0  0  0  0
   34.5980    7.7670  -10.4350 C   0  0  0  0  0
   34.2450    8.2370   -9.0250 C   0  0  0  0  0
   34.6870    9.6760   -8.7300 C   0  0  0  0  0
   34.3040   10.6310   -9.8570 C   0  0  0  0  0
   34.8870   12.0200   -9.6230 C   0  0  0  0  0
   32.9150    8.9630  -11.7790 O   0  0  0  0  0
   33.9020    6.5220  -10.6710 O   0  0  0  0  0
   32.8200    8.0640   -8.7710 O   0  0  0  0  0
   34.0630   10.1200   -7.5230 O   0  0  0  0  0
   34.7980   10.1330  -11.1040 O   0  0  0  0  0
   34.4890   12.8740  -10.7090 O   0  0  0  0  0
   34.8060   14.4640  -10.7060 P   0  0  0  0  0
   34.1440   15.0030   -9.4560 O   0  0  0  0  0
   36.2760   14.5590  -10.6470 O   0  0  0  0  0
   34.1940   15.0100  -11.9740 O   0  0  0  0  0
   34.8217    8.5205  -12.4114 H   0  0  0  0  0
   35.6716    7.5967  -10.5152 H   0  0  0  0  0
   34.8101    7.6061   -8.3389 H   0  0  0  0  0
   35.7727    9.6779   -8.6338 H   0  0  0  0  0
   33.2165   10.7007   -9.8797 H   0  0  0  0  0
   35.9745   11.9627   -9.5755 H   0  0  0  0  0
   34.5181   12.4230   -8.6798 H   0  0  0  0  0
   32.5702    8.1093  -12.0509 H   0  0  0  0  0
   34.1074    6.2041  -11.5532 H   0  0  0  0  0
   32.5697    7.1573   -8.9628 H   0  0  0  0  0
   34.2970    9.5261   -6.8059 H   0  0  0  0  0
   33.1911   14.9210   -9.5391 H   0  0  0  0  0
   33.2398   14.9121  -11.9354 H   0  0  0  0  0
  1  2  1  0  0  0
  1  7  1  0  0  0
  1 11  1  0  0  0
  2  3  1  0  0  0
  2  8  1  0  0  0
  3  4  1  0  0  0
  3  9  1  0  0  0
  4  5  1  0  0  0
  4 10  1  0  0  0
  5  6  1  0  0  0
  5 11  1  0  0  0
  6 12  1  0  0  0
 12 13  1  0  0  0
 13 14  1  0  0  0
 13 15  2  0  0  0
 13 16  1  0  0  0
  1 17  1  0  0  0
  2 18  1  0  0  0
  3 19  1  0  0  0
  4 20  1  0  0  0
  5 21  1  0  0  0
  6 22  1  0  0  0
  6 23  1  0  0  0
  7 24  1  0  0  0
  8 25  1  0  0  0
  9 26  1  0  0  0
 10 27  1  0  0  0
 14 28  1  0  0  0
 16 29  1  0  0  0
M  END
$$$$
