### 
### Created by X-TOOL on Mon Sep 10 21:12:57 2018
### 

@<TRIPOS>MOLECULE
2vvo_ligand
   27    27     1     0     0
SMALL
GAST_HUCK


@<TRIPOS>ATOM
      1 C1         34.3060    8.8460  -11.5080 C.3       1 A6P         0.1854
      2 C2         34.5980    7.7670  -10.4350 C.3       1 A6P         0.1339
      3 C3         34.2450    8.2370   -9.0250 C.3       1 A6P         0.1141
      4 C4         34.6870    9.6760   -8.7300 C.3       1 A6P         0.1122
      5 C5         34.3040   10.6310   -9.8570 C.3       1 A6P         0.1176
      6 C6         34.8870   12.0200   -9.6230 C.3       1 A6P         0.1071
      7 O1         32.9150    8.9630  -11.7790 O.3       1 A6P        -0.3649
      8 O2         33.9020    6.5220  -10.6710 O.3       1 A6P        -0.3841
      9 O3         32.8200    8.0640   -8.7710 O.3       1 A6P        -0.3864
     10 O4         34.0630   10.1200   -7.5230 O.3       1 A6P        -0.3865
     11 O5         34.7980   10.1330  -11.1040 O.3       1 A6P        -0.3404
     12 O6         34.4890   12.8740  -10.7090 O.3       1 A6P        -0.2734
     13 P          34.8060   14.4640  -10.7060 P.3       1 A6P         0.2008
     14 O1P        34.1440   15.0030   -9.4560 O.co2     1 A6P        -0.5537
     15 O2P        36.2760   14.5590  -10.6470 O.co2     1 A6P        -0.5537
     16 O3P        34.1940   15.0100  -11.9740 O.co2     1 A6P        -0.5537
     17 H1         34.8187    8.5491  -12.4348 H         1 A6P         0.0935
     18 H2         35.6785    7.5633  -10.4679 H         1 A6P         0.0671
     19 H3         34.7873    7.5859   -8.3236 H         1 A6P         0.0648
     20 H4         35.7797    9.6926   -8.6049 H         1 A6P         0.0647
     21 H5         33.2074   10.7045   -9.9029 H         1 A6P         0.0650
     22 H6         35.9846   11.9592   -9.5827 H         1 A6P         0.0639
     23 H7         34.5071   12.4262   -8.6740 H         1 A6P         0.0639
     24 H8         32.7812    9.5960  -12.4746 H         1 A6P         0.2126
     25 H9         32.9658    6.6644  -10.5945 H         1 A6P         0.2101
     26 H10        32.5723    7.1668   -8.9608 H         1 A6P         0.2100
     27 H11        34.3612   10.9984   -7.3182 H         1 A6P         0.2100
@<TRIPOS>BOND
     1    1    2 1  
     2    1    7 1  
     3    1   11 1  
     4    2    3 1  
     5    2    8 1  
     6    3    4 1  
     7    3    9 1  
     8    4    5 1  
     9    4   10 1  
    10    5    6 1  
    11    5   11 1  
    12    6   12 1  
    13   12   13 1  
    14   13   14 ar 
    15   13   15 ar 
    16   13   16 ar 
    17    1   17 1  
    18    2   18 1  
    19    3   19 1  
    20    4   20 1  
    21    5   21 1  
    22    6   22 1  
    23    6   23 1  
    24    7   24 1  
    25    8   25 1  
    26    9   26 1  
    27   10   27 1  
@<TRIPOS>SUBSTRUCTURE
     1 A6P         1

