### 
### Created by X-TOOL on Mon Aug  2 16:11:40 2021
### 

@<TRIPOS>MOLECULE
6r0x_ligand
  202   209     1     0     0
SMALL
GAST_HUCK


@<TRIPOS>ATOM
      1 C1         50.1330  -38.9440   30.7360 C.3       1 SGN         0.1788
      2 C2         51.5570  -39.5010   30.6690 C.3       1 SGN         0.1136
      3 C3         52.5610  -38.3510   30.5810 C.3       1 SGN         0.1080
      4 C4         52.2130  -37.4070   29.4330 C.3       1 SGN         0.1179
      5 C5         50.7730  -36.9080   29.5630 C.3       1 SGN         0.1157
      6 C6         50.3190  -36.1000   28.3710 C.3       1 SGN         0.1025
      7 N          51.8930  -40.3940   31.7910 N.am      1 SGN        -0.2705
      8 O1         49.8430  -38.3860   31.9950 O.3       1 SGN        -0.3654
      9 O3         53.8800  -38.8580   30.4020 O.3       1 SGN        -0.3871
     10 O5         49.8640  -38.0220   29.6700 O.3       1 SGN        -0.3413
     11 O6         49.5640  -34.9470   28.8710 O.3       1 SGN        -0.2631
     12 S1         51.4700  -41.9280   31.9360 S.o2      1 SGN        -0.1197
     13 O1S        50.1290  -41.9930   32.4140 O.co2     1 SGN        -0.4676
     14 O2S        51.9330  -42.6170   30.7860 O.co2     1 SGN        -0.4676
     15 O3S        52.3740  -42.5200   33.0840 O.co2     1 SGN        -0.4676
     16 S2         49.9060  -33.4140   28.7810 S.o2      1 SGN        -0.0736
     17 O4S        50.9340  -33.2300   27.7380 O.co2     1 SGN        -0.4611
     18 O5S        48.6440  -32.6900   28.8430 O.co2     1 SGN        -0.4611
     19 O6S        50.4980  -33.1780   30.1510 O.co2     1 SGN        -0.4611
     20 C1         53.9180  -36.1540   27.6440 C.3       1 SGN         0.1927
     21 C2         55.2900  -35.5380   27.9020 C.3       1 SGN         0.1635
     22 C3         56.1110  -35.4890   26.6230 C.3       1 SGN         0.1184
     23 C4         56.3180  -36.8920   26.0590 C.3       1 SGN         0.1280
     24 C5         55.0940  -37.7900   26.3400 C.3       1 SGN         0.1424
     25 C6         54.8180  -38.7530   25.1870 C.2       1 SGN         0.0664
     26 O1         53.3810  -36.7650   28.7860 O.3       1 SGN        -0.3400
     27 O2         55.0680  -34.1660   28.3220 O.3       1 SGN        -0.2546
     28 O3         57.3660  -34.8690   26.8860 O.3       1 SGN        -0.3862
     29 O5         53.8900  -37.0240   26.5060 O.3       1 SGN        -0.3284
     30 O61        54.3040  -38.4040   24.1410 O.co2     1 SGN        -0.5662
     31 O62        55.2000  -39.9730   25.4470 O.co2     1 SGN        -0.5662
     32 S          54.5510  -33.6930   29.7360 S.o2      1 SGN        -0.0732
     33 O1S        53.1290  -33.4900   29.6640 O.co2     1 SGN        -0.4611
     34 O2S        55.1720  -32.3220   29.7100 O.co2     1 SGN        -0.4611
     35 O3S        55.2560  -34.4940   30.7520 O.co2     1 SGN        -0.4611
     36 C1         58.7300  -37.7890   25.0730 C.3       1 SGN         0.1821
     37 C2         59.3090  -36.7020   24.1640 C.3       1 SGN         0.1138
     38 C3         58.6500  -36.6140   22.7880 C.3       1 SGN         0.1080
     39 C4         58.4080  -38.0020   22.2020 C.3       1 SGN         0.1179
     40 C5         57.6150  -38.8380   23.2040 C.3       1 SGN         0.1157
     41 C6         57.2380  -40.2060   22.6980 C.3       1 SGN         0.1025
     42 N          59.2740  -35.3900   24.8280 N.am      1 SGN        -0.2705
     43 O1         57.6270  -37.2920   25.7570 O.3       1 SGN        -0.3391
     44 O3         59.4780  -35.8370   21.9300 O.3       1 SGN        -0.3871
     45 O5         58.3900  -39.0130   24.4040 O.3       1 SGN        -0.3411
     46 O6         58.4610  -40.9430   22.4380 O.3       1 SGN        -0.2631
     47 S1         60.5050  -34.6520   25.5270 S.o2      1 SGN        -0.1197
     48 O1S        61.5300  -34.4650   24.5650 O.co2     1 SGN        -0.4676
     49 O2S        59.9930  -33.5970   26.3260 O.co2     1 SGN        -0.4676
     50 O3S        61.0580  -35.6880   26.5780 O.co2     1 SGN        -0.4676
     51 S2         58.7370  -42.4110   22.8250 S.o2      1 SGN        -0.0736
     52 O4S        57.4510  -43.1040   22.7530 O.co2     1 SGN        -0.4611
     53 O5S        59.9680  -42.8360   22.1320 O.co2     1 SGN        -0.4611
     54 O6S        59.1700  -42.2320   24.2730 O.co2     1 SGN        -0.4611
     55 C1         58.7380  -38.1200   19.5390 C.3       1 SGN         0.1927
     56 C2         57.4470  -38.0270   18.7320 C.3       1 SGN         0.1635
     57 C3         57.6550  -37.5090   17.3120 C.3       1 SGN         0.1184
     58 C4         58.8620  -36.5800   17.2350 C.3       1 SGN         0.1280
     59 C5         59.1010  -35.9490   18.6150 C.3       1 SGN         0.1424
     60 C6         60.0770  -34.7690   18.5890 C.2       1 SGN         0.0664
     61 O1         58.4520  -38.4210   20.8490 O.3       1 SGN        -0.3400
     62 O2         56.8840  -39.3730   18.6680 O.3       1 SGN        -0.2546
     63 O3         56.4940  -36.8020   16.8890 O.3       1 SGN        -0.3862
     64 O5         59.5810  -36.9610   19.5070 O.3       1 SGN        -0.3284
     65 O61        59.8550  -33.7620   17.9310 O.co2     1 SGN        -0.5662
     66 O62        61.1260  -34.9180   19.3600 O.co2     1 SGN        -0.5662
     67 S          55.4890  -39.8270   19.2600 S.o2      1 SGN        -0.0732
     68 O1S        55.3520  -41.2760   19.0700 O.co2     1 SGN        -0.4611
     69 O2S        54.5890  -39.1810   18.2340 O.co2     1 SGN        -0.4611
     70 O3S        55.2600  -39.0680   20.4930 O.co2     1 SGN        -0.4611
     71 C1         60.4420  -37.6800   15.3710 C.3       1 SGN         0.1821
     72 C2         61.9230  -38.0540   15.4110 C.3       1 SGN         0.1138
     73 C3         62.8300  -36.8460   15.6480 C.3       1 SGN         0.1080
     74 C4         62.4640  -35.7010   14.7060 C.3       1 SGN         0.1179
     75 C5         60.9770  -35.3810   14.8400 C.3       1 SGN         0.1157
     76 C6         60.4930  -34.3030   13.9060 C.3       1 SGN         0.1025
     77 N          62.1930  -39.1090   16.3960 N.am      1 SGN        -0.2705
     78 O1         59.8920  -37.4900   16.6360 O.3       1 SGN        -0.3391
     79 O3         64.1830  -37.2400   15.4510 O.3       1 SGN        -0.3871
     80 O5         60.1990  -36.5510   14.5330 O.3       1 SGN        -0.3411
     81 O6         59.0480  -34.5020   13.7240 O.3       1 SGN        -0.2631
     82 S1         61.7580  -40.6320   16.1890 S.o2      1 SGN        -0.1197
     83 O1S        60.4420  -40.8050   16.6860 O.co2     1 SGN        -0.4676
     84 O2S        62.1690  -41.0460   14.8960 O.co2     1 SGN        -0.4676
     85 O3S        62.6840  -41.4990   17.1030 O.co2     1 SGN        -0.4676
     86 S2         57.7980  -33.6680   14.1740 S.o2      1 SGN        -0.0736
     87 O4S        57.6030  -32.6110   13.1340 O.co2     1 SGN        -0.4611
     88 O5S        56.8040  -34.6280   14.5920 O.co2     1 SGN        -0.4611
     89 O6S        58.2380  -33.0760   15.5110 O.co2     1 SGN        -0.4611
     90 C1         64.3010  -34.3190   13.4790 C.3       1 SGN         0.1927
     91 C2         64.5200  -32.8620   13.8460 C.3       1 SGN         0.1635
     92 C3         65.2960  -32.1640   12.7390 C.3       1 SGN         0.1184
     93 C4         66.6530  -32.8360   12.5570 C.3       1 SGN         0.1280
     94 C5         66.6950  -34.2020   13.2680 C.3       1 SGN         0.1424
     95 C6         67.8440  -35.0450   12.7230 C.2       1 SGN         0.0664
     96 O1         63.6510  -35.0150   14.4700 O.3       1 SGN        -0.3400
     97 O2         63.2040  -32.2440   13.9970 O.3       1 SGN        -0.2546
     98 O3         65.4650  -30.7860   13.0480 O.3       1 SGN        -0.3862
     99 O5         65.5050  -34.9760   13.0510 O.3       1 SGN        -0.3284
    100 O61        67.7500  -35.6840   11.6930 O.co2     1 SGN        -0.5662
    101 O62        68.9310  -34.9670   13.4480 O.co2     1 SGN        -0.5662
    102 S          62.6160  -31.5630   15.2950 S.o2      1 SGN        -0.0732
    103 O1S        61.2350  -31.1870   14.9690 O.co2     1 SGN        -0.4611
    104 O2S        63.4360  -30.2780   15.2870 O.co2     1 SGN        -0.4611
    105 O3S        63.0400  -32.3670   16.4950 O.co2     1 SGN        -0.4611
    106 C1         69.0820  -31.7080   11.9560 C.3       1 SGN         0.1821
    107 C2         68.9020  -30.8290   10.7170 C.3       1 SGN         0.1138
    108 C3         69.7120  -31.4060    9.5590 C.3       1 SGN         0.1080
    109 C4         71.1360  -31.7130   10.0150 C.3       1 SGN         0.1179
    110 C5         71.1380  -32.8040   11.0880 C.3       1 SGN         0.1157
    111 C6         72.2510  -32.6510   12.0990 C.3       1 SGN         0.1025
    112 N          67.5010  -30.6120   10.3140 N.am      1 SGN        -0.2705
    113 O1         67.8410  -32.0590   12.4760 O.3       1 SGN        -0.3391
    114 O3         69.7330  -30.4790    8.4760 O.3       1 SGN        -0.3871
    115 O5         69.8710  -32.9020   11.7790 O.3       1 SGN        -0.3411
    116 O6         73.1320  -33.8260   11.9860 O.3       1 SGN        -0.2631
    117 S1         66.7780  -29.1880   10.2410 S.o2      1 SGN        -0.1197
    118 O1S        65.3290  -29.3570   10.8070 O.co2     1 SGN        -0.4676
    119 O2S        66.5380  -28.8690    8.8810 O.co2     1 SGN        -0.4676
    120 O3S        67.4360  -28.2950   11.1220 O.co2     1 SGN        -0.4676
    121 S2         74.5310  -34.0300   11.2410 S.o2      1 SGN        -0.0736
    122 O4S        74.3330  -35.0020   10.1460 O.co2     1 SGN        -0.4611
    123 O5S        75.1680  -32.7070   11.0980 O.co2     1 SGN        -0.4611
    124 O6S        75.3360  -34.6920   12.3400 O.co2     1 SGN        -0.4611
    125 C1         72.5480  -33.0300    7.9670 C.3       1 SGN         0.1925
    126 C2         71.4500  -33.9700    7.4820 C.3       1 SGN         0.1611
    127 C3         71.3710  -33.9830    5.9590 C.3       1 SGN         0.0922
    128 C4         71.3670  -32.5560    5.4130 C.3       1 SGN         0.0142
    129 C5         72.6190  -31.7690    5.9000 C.3       1 SGN         0.1162
    130 C6         73.6060  -31.5540    4.7490 C.2       1 SGN         0.0638
    131 O1         72.0010  -32.0820    8.8620 O.3       1 SGN        -0.3400
    132 O2         71.8020  -35.3130    7.9450 O.3       1 SGN        -0.2547
    133 O3         70.1880  -34.6630    5.5480 O.3       1 SGN        -0.3888
    134 O5         73.3580  -32.4520    6.9370 O.3       1 SGN        -0.3310
    135 O61        73.5440  -30.5650    4.0520 O.co2     1 SGN        -0.5663
    136 O62        74.5010  -32.5030    4.6020 O.co2     1 SGN        -0.5663
    137 S          70.8230  -36.4420    8.4670 S.o2      1 SGN        -0.0732
    138 O1S        69.6430  -36.5410    7.5870 O.co2     1 SGN        -0.4611
    139 O2S        71.7020  -37.5520    8.8630 O.co2     1 SGN        -0.4611
    140 O3S        70.3500  -35.7460    9.7280 O.co2     1 SGN        -0.4611
    141 H1         49.4512  -39.7964   30.6000 H         1 SGN         0.0928
    142 H2         51.6358  -40.0930   29.7452 H         1 SGN         0.0587
    143 H3         52.5254  -37.7848   31.5234 H         1 SGN         0.0641
    144 H4         52.0260  -38.1412   28.6355 H         1 SGN         0.0650
    145 H5         50.7029  -36.2857   30.4673 H         1 SGN         0.0648
    146 H6         49.6765  -36.7158   27.7245 H         1 SGN         0.0610
    147 H7         51.1925  -35.7551   27.7983 H         1 SGN         0.0610
    148 H8         52.4378  -40.0030   32.5328 H         1 SGN         0.1646
    149 H9         48.9239  -38.1479   32.0305 H         1 SGN         0.2125
    150 H10        54.4968  -38.1355   30.3894 H         1 SGN         0.2100
    151 H11        53.2501  -35.3143   27.4015 H         1 SGN         0.0940
    152 H12        55.8246  -36.1071   28.6768 H         1 SGN         0.0697
    153 H13        55.5685  -34.8887   25.8778 H         1 SGN         0.0650
    154 H14        56.0537  -36.6711   25.0143 H         1 SGN         0.0669
    155 H15        55.2917  -38.3639   27.2574 H         1 SGN         0.0794
    156 H16        57.8632  -34.8081   26.0788 H         1 SGN         0.2100
    157 H17        59.5047  -38.0344   25.8143 H         1 SGN         0.0930
    158 H18        60.3650  -36.9600   23.9957 H         1 SGN         0.0587
    159 H19        57.6782  -36.1095   22.8938 H         1 SGN         0.0641
    160 H20        59.4080  -38.3959   22.4361 H         1 SGN         0.0650
    161 H21        56.6912  -38.2920   23.4458 H         1 SGN         0.0648
    162 H22        56.6545  -40.1127   21.7702 H         1 SGN         0.0610
    163 H23        56.6396  -40.7322   23.4562 H         1 SGN         0.0610
    164 H24        58.3944  -34.9145   24.8430 H         1 SGN         0.1646
    165 H25        59.0554  -35.7424   21.0844 H         1 SGN         0.2100
    166 H26        59.3187  -38.9521   19.1142 H         1 SGN         0.0940
    167 H27        56.7488  -37.3543   19.2516 H         1 SGN         0.0697
    168 H28        57.8215  -38.3657   16.6425 H         1 SGN         0.0650
    169 H29        58.6752  -35.7548   16.5321 H         1 SGN         0.0669
    170 H30        58.1360  -35.5774   18.9900 H         1 SGN         0.0794
    171 H31        56.6133  -36.5062   15.9942 H         1 SGN         0.2100
    172 H32        59.9147  -38.5339   14.9207 H         1 SGN         0.0930
    173 H33        62.1770  -38.4595   14.4205 H         1 SGN         0.0587
    174 H34        62.7041  -36.5022   16.6853 H         1 SGN         0.0641
    175 H35        62.3963  -36.1989   13.7275 H         1 SGN         0.0650
    176 H36        60.7851  -35.0672   15.8767 H         1 SGN         0.0648
    177 H37        61.0093  -34.3833   12.9380 H         1 SGN         0.0610
    178 H38        60.6848  -33.3118   14.3428 H         1 SGN         0.0610
    179 H39        62.6728  -38.8619   17.2378 H         1 SGN         0.1646
    180 H40        64.7551  -36.5018   15.6247 H         1 SGN         0.2100
    181 H41        63.6270  -34.3179   12.6097 H         1 SGN         0.0940
    182 H42        65.0800  -32.7908   14.7901 H         1 SGN         0.0697
    183 H43        64.7291  -32.2485   11.8002 H         1 SGN         0.0650
    184 H44        66.5818  -33.1522   11.5058 H         1 SGN         0.0669
    185 H45        66.8311  -34.0328   14.3463 H         1 SGN         0.0794
    186 H46        65.9308  -30.3584   12.3390 H         1 SGN         0.2100
    187 H47        69.6021  -31.0921   12.7045 H         1 SGN         0.0930
    188 H48        69.3194  -29.8408   10.9602 H         1 SGN         0.0587
    189 H49        69.2375  -32.3391    9.2213 H         1 SGN         0.0641
    190 H50        71.5504  -30.7987   10.4648 H         1 SGN         0.0650
    191 H51        71.3021  -33.7581   10.5657 H         1 SGN         0.0648
    192 H52        71.8292  -32.5967   13.1135 H         1 SGN         0.0610
    193 H53        72.8222  -31.7345   11.8898 H         1 SGN         0.0610
    194 H54        66.9614  -31.4170   10.0674 H         1 SGN         0.1646
    195 H55        70.2195  -30.8524    7.7505 H         1 SGN         0.2100
    196 H56        73.2366  -33.6504    8.5594 H         1 SGN         0.0940
    197 H57        70.4802  -33.6615    7.8995 H         1 SGN         0.0696
    198 H58        72.2477  -34.5144    5.5602 H         1 SGN         0.0623
    199 H59        70.4600  -32.0401    5.7611 H         1 SGN         0.0334
    200 H60        71.3696  -32.5914    4.3136 H         1 SGN         0.0334
    201 H61        72.2822  -30.7944    6.2829 H         1 SGN         0.0768
    202 H62        70.1979  -35.5488    5.8911 H         1 SGN         0.2099
@<TRIPOS>BOND
     1    2    1 1  
     2    1    8 1  
     3   10    1 1  
     4    3    2 1  
     5    2    7 1  
     6    4    3 1  
     7    3    9 1  
     8    4    5 1  
     9   26    4 1  
    10    5    6 1  
    11    5   10 1  
    12    6   11 1  
    13    7   12 am 
    14   11   16 1  
    15   12   13 ar 
    16   12   14 ar 
    17   12   15 ar 
    18   16   17 ar 
    19   16   18 ar 
    20   16   19 ar 
    21   21   20 1  
    22   20   26 1  
    23   29   20 1  
    24   22   21 1  
    25   21   27 1  
    26   23   22 1  
    27   22   28 1  
    28   23   24 1  
    29   43   23 1  
    30   24   25 1  
    31   24   29 1  
    32   25   30 ar 
    33   25   31 ar 
    34   27   32 1  
    35   32   33 ar 
    36   32   34 ar 
    37   32   35 ar 
    38   37   36 1  
    39   36   43 1  
    40   45   36 1  
    41   38   37 1  
    42   37   42 1  
    43   39   38 1  
    44   38   44 1  
    45   39   40 1  
    46   61   39 1  
    47   40   41 1  
    48   40   45 1  
    49   41   46 1  
    50   42   47 am 
    51   46   51 1  
    52   47   48 ar 
    53   47   49 ar 
    54   47   50 ar 
    55   51   52 ar 
    56   51   53 ar 
    57   51   54 ar 
    58   56   55 1  
    59   55   61 1  
    60   64   55 1  
    61   57   56 1  
    62   56   62 1  
    63   58   57 1  
    64   57   63 1  
    65   58   59 1  
    66   78   58 1  
    67   59   60 1  
    68   59   64 1  
    69   60   65 ar 
    70   60   66 ar 
    71   62   67 1  
    72   67   68 ar 
    73   67   69 ar 
    74   67   70 ar 
    75   72   71 1  
    76   71   78 1  
    77   80   71 1  
    78   73   72 1  
    79   72   77 1  
    80   74   73 1  
    81   73   79 1  
    82   74   75 1  
    83   96   74 1  
    84   75   76 1  
    85   75   80 1  
    86   76   81 1  
    87   77   82 am 
    88   81   86 1  
    89   82   83 ar 
    90   82   84 ar 
    91   82   85 ar 
    92   86   87 ar 
    93   86   88 ar 
    94   86   89 ar 
    95   91   90 1  
    96   90   96 1  
    97   99   90 1  
    98   92   91 1  
    99   91   97 1  
   100   93   92 1  
   101   92   98 1  
   102   93   94 1  
   103  113   93 1  
   104   94   95 1  
   105   94   99 1  
   106   95  100 ar 
   107   95  101 ar 
   108   97  102 1  
   109  102  103 ar 
   110  102  104 ar 
   111  102  105 ar 
   112  107  106 1  
   113  106  113 1  
   114  115  106 1  
   115  108  107 1  
   116  107  112 1  
   117  109  108 1  
   118  108  114 1  
   119  109  110 1  
   120  131  109 1  
   121  110  111 1  
   122  110  115 1  
   123  111  116 1  
   124  112  117 am 
   125  116  121 1  
   126  117  118 ar 
   127  117  119 ar 
   128  117  120 ar 
   129  121  122 ar 
   130  121  123 ar 
   131  121  124 ar 
   132  125  126 1  
   133  125  131 1  
   134  125  134 1  
   135  126  127 1  
   136  126  132 1  
   137  127  128 1  
   138  127  133 1  
   139  128  129 1  
   140  129  130 1  
   141  129  134 1  
   142  130  135 ar 
   143  130  136 ar 
   144  132  137 1  
   145  137  138 ar 
   146  137  139 ar 
   147  137  140 ar 
   148    1  141 1  
   149    2  142 1  
   150    3  143 1  
   151    4  144 1  
   152    5  145 1  
   153    6  146 1  
   154    6  147 1  
   155    7  148 1  
   156    8  149 1  
   157    9  150 1  
   158   20  151 1  
   159   21  152 1  
   160   22  153 1  
   161   23  154 1  
   162   24  155 1  
   163   28  156 1  
   164   36  157 1  
   165   37  158 1  
   166   38  159 1  
   167   39  160 1  
   168   40  161 1  
   169   41  162 1  
   170   41  163 1  
   171   42  164 1  
   172   44  165 1  
   173   55  166 1  
   174   56  167 1  
   175   57  168 1  
   176   58  169 1  
   177   59  170 1  
   178   63  171 1  
   179   71  172 1  
   180   72  173 1  
   181   73  174 1  
   182   74  175 1  
   183   75  176 1  
   184   76  177 1  
   185   76  178 1  
   186   77  179 1  
   187   79  180 1  
   188   90  181 1  
   189   91  182 1  
   190   92  183 1  
   191   93  184 1  
   192   94  185 1  
   193   98  186 1  
   194  106  187 1  
   195  107  188 1  
   196  108  189 1  
   197  109  190 1  
   198  110  191 1  
   199  111  192 1  
   200  111  193 1  
   201  112  194 1  
   202  114  195 1  
   203  125  196 1  
   204  126  197 1  
   205  127  198 1  
   206  128  199 1  
   207  128  200 1  
   208  129  201 1  
   209  133  202 1  
@<TRIPOS>SUBSTRUCTURE
     1 SGN         1

