6r0x_ligand
  -I-interpret- 

218225  0  0  0  0  0  0  0  0999 V2000
   50.1330  -38.9440   30.7360 C   0  0  0  0  0
   51.5570  -39.5010   30.6690 C   0  0  0  0  0
   52.5610  -38.3510   30.5810 C   0  0  0  0  0
   52.2130  -37.4070   29.4330 C   0  0  0  0  0
   50.7730  -36.9080   29.5630 C   0  0  0  0  0
   50.3190  -36.1000   28.3710 C   0  0  0  0  0
   51.8930  -40.3940   31.7910 N   0  0  0  0  0
   49.8430  -38.3860   31.9950 O   0  0  0  0  0
   53.8800  -38.8580   30.4020 O   0  0  0  0  0
   49.8640  -38.0220   29.6700 O   0  0  0  0  0
   49.5640  -34.9470   28.8710 O   0  0  0  0  0
   51.4700  -41.9280   31.9360 S   0  0  0  0  0
   50.1290  -41.9930   32.4140 O   0  0  0  0  0
   51.9330  -42.6170   30.7860 O   0  0  0  0  0
   52.3740  -42.5200   33.0840 O   0  0  0  0  0
   49.9060  -33.4140   28.7810 S   0  0  0  0  0
   50.9340  -33.2300   27.7380 O   0  0  0  0  0
   48.6440  -32.6900   28.8430 O   0  0  0  0  0
   50.4980  -33.1780   30.1510 O   0  0  0  0  0
   53.9180  -36.1540   27.6440 C   0  0  0  0  0
   55.2900  -35.5380   27.9020 C   0  0  0  0  0
   56.1110  -35.4890   26.6230 C   0  0  0  0  0
   56.3180  -36.8920   26.0590 C   0  0  0  0  0
   55.0940  -37.7900   26.3400 C   0  0  0  0  0
   54.8180  -38.7530   25.1870 C   0  0  0  0  0
   53.3810  -36.7650   28.7860 O   0  0  0  0  0
   55.0680  -34.1660   28.3220 O   0  0  0  0  0
   57.3660  -34.8690   26.8860 O   0  0  0  0  0
   53.8900  -37.0240   26.5060 O   0  0  0  0  0
   54.3040  -38.4040   24.1410 O   0  0  0  0  0
   55.2000  -39.9730   25.4470 O   0  0  0  0  0
   54.5510  -33.6930   29.7360 S   0  0  0  0  0
   53.1290  -33.4900   29.6640 O   0  0  0  0  0
   55.1720  -32.3220   29.7100 O   0  0  0  0  0
   55.2560  -34.4940   30.7520 O   0  0  0  0  0
   58.7300  -37.7890   25.0730 C   0  0  0  0  0
   59.3090  -36.7020   24.1640 C   0  0  0  0  0
   58.6500  -36.6140   22.7880 C   0  0  0  0  0
   58.4080  -38.0020   22.2020 C   0  0  0  0  0
   57.6150  -38.8380   23.2040 C   0  0  0  0  0
   57.2380  -40.2060   22.6980 C   0  0  0  0  0
   59.2740  -35.3900   24.8280 N   0  0  0  0  0
   57.6270  -37.2920   25.7570 O   0  0  0  0  0
   59.4780  -35.8370   21.9300 O   0  0  0  0  0
   58.3900  -39.0130   24.4040 O   0  0  0  0  0
   58.4610  -40.9430   22.4380 O   0  0  0  0  0
   60.5050  -34.6520   25.5270 S   0  0  0  0  0
   61.5300  -34.4650   24.5650 O   0  0  0  0  0
   59.9930  -33.5970   26.3260 O   0  0  0  0  0
   61.0580  -35.6880   26.5780 O   0  0  0  0  0
   58.7370  -42.4110   22.8250 S   0  0  0  0  0
   57.4510  -43.1040   22.7530 O   0  0  0  0  0
   59.9680  -42.8360   22.1320 O   0  0  0  0  0
   59.1700  -42.2320   24.2730 O   0  0  0  0  0
   58.7380  -38.1200   19.5390 C   0  0  0  0  0
   57.4470  -38.0270   18.7320 C   0  0  0  0  0
   57.6550  -37.5090   17.3120 C   0  0  0  0  0
   58.8620  -36.5800   17.2350 C   0  0  0  0  0
   59.1010  -35.9490   18.6150 C   0  0  0  0  0
   60.0770  -34.7690   18.5890 C   0  0  0  0  0
   58.4520  -38.4210   20.8490 O   0  0  0  0  0
   56.8840  -39.3730   18.6680 O   0  0  0  0  0
   56.4940  -36.8020   16.8890 O   0  0  0  0  0
   59.5810  -36.9610   19.5070 O   0  0  0  0  0
   59.8550  -33.7620   17.9310 O   0  0  0  0  0
   61.1260  -34.9180   19.3600 O   0  0  0  0  0
   55.4890  -39.8270   19.2600 S   0  0  0  0  0
   55.3520  -41.2760   19.0700 O   0  0  0  0  0
   54.5890  -39.1810   18.2340 O   0  0  0  0  0
   55.2600  -39.0680   20.4930 O   0  0  0  0  0
   60.4420  -37.6800   15.3710 C   0  0  0  0  0
   61.9230  -38.0540   15.4110 C   0  0  0  0  0
   62.8300  -36.8460   15.6480 C   0  0  0  0  0
   62.4640  -35.7010   14.7060 C   0  0  0  0  0
   60.9770  -35.3810   14.8400 C   0  0  0  0  0
   60.4930  -34.3030   13.9060 C   0  0  0  0  0
   62.1930  -39.1090   16.3960 N   0  0  0  0  0
   59.8920  -37.4900   16.6360 O   0  0  0  0  0
   64.1830  -37.2400   15.4510 O   0  0  0  0  0
   60.1990  -36.5510   14.5330 O   0  0  0  0  0
   59.0480  -34.5020   13.7240 O   0  0  0  0  0
   61.7580  -40.6320   16.1890 S   0  0  0  0  0
   60.4420  -40.8050   16.6860 O   0  0  0  0  0
   62.1690  -41.0460   14.8960 O   0  0  0  0  0
   62.6840  -41.4990   17.1030 O   0  0  0  0  0
   57.7980  -33.6680   14.1740 S   0  0  0  0  0
   57.6030  -32.6110   13.1340 O   0  0  0  0  0
   56.8040  -34.6280   14.5920 O   0  0  0  0  0
   58.2380  -33.0760   15.5110 O   0  0  0  0  0
   64.3010  -34.3190   13.4790 C   0  0  0  0  0
   64.5200  -32.8620   13.8460 C   0  0  0  0  0
   65.2960  -32.1640   12.7390 C   0  0  0  0  0
   66.6530  -32.8360   12.5570 C   0  0  0  0  0
   66.6950  -34.2020   13.2680 C   0  0  0  0  0
   67.8440  -35.0450   12.7230 C   0  0  0  0  0
   63.6510  -35.0150   14.4700 O   0  0  0  0  0
   63.2040  -32.2440   13.9970 O   0  0  0  0  0
   65.4650  -30.7860   13.0480 O   0  0  0  0  0
   65.5050  -34.9760   13.0510 O   0  0  0  0  0
   67.7500  -35.6840   11.6930 O   0  0  0  0  0
   68.9310  -34.9670   13.4480 O   0  0  0  0  0
   62.6160  -31.5630   15.2950 S   0  0  0  0  0
   61.2350  -31.1870   14.9690 O   0  0  0  0  0
   63.4360  -30.2780   15.2870 O   0  0  0  0  0
   63.0400  -32.3670   16.4950 O   0  0  0  0  0
   69.0820  -31.7080   11.9560 C   0  0  0  0  0
   68.9020  -30.8290   10.7170 C   0  0  0  0  0
   69.7120  -31.4060    9.5590 C   0  0  0  0  0
   71.1360  -31.7130   10.0150 C   0  0  0  0  0
   71.1380  -32.8040   11.0880 C   0  0  0  0  0
   72.2510  -32.6510   12.0990 C   0  0  0  0  0
   67.5010  -30.6120   10.3140 N   0  0  0  0  0
   67.8410  -32.0590   12.4760 O   0  0  0  0  0
   69.7330  -30.4790    8.4760 O   0  0  0  0  0
   69.8710  -32.9020   11.7790 O   0  0  0  0  0
   73.1320  -33.8260   11.9860 O   0  0  0  0  0
   66.7780  -29.1880   10.2410 S   0  0  0  0  0
   65.3290  -29.3570   10.8070 O   0  0  0  0  0
   66.5380  -28.8690    8.8810 O   0  0  0  0  0
   67.4360  -28.2950   11.1220 O   0  0  0  0  0
   74.5310  -34.0300   11.2410 S   0  0  0  0  0
   74.3330  -35.0020   10.1460 O   0  0  0  0  0
   75.1680  -32.7070   11.0980 O   0  0  0  0  0
   75.3360  -34.6920   12.3400 O   0  0  0  0  0
   72.5480  -33.0300    7.9670 C   0  0  0  0  0
   71.4500  -33.9700    7.4820 C   0  0  0  0  0
   71.3710  -33.9830    5.9590 C   0  0  0  0  0
   71.3670  -32.5560    5.4130 C   0  0  0  0  0
   72.6190  -31.7690    5.9000 C   0  0  0  0  0
   73.6060  -31.5540    4.7490 C   0  0  0  0  0
   72.0010  -32.0820    8.8620 O   0  0  0  0  0
   71.8020  -35.3130    7.9450 O   0  0  0  0  0
   70.1880  -34.6630    5.5480 O   0  0  0  0  0
   73.3580  -32.4520    6.9370 O   0  0  0  0  0
   73.5440  -30.5650    4.0520 O   0  0  0  0  0
   74.5010  -32.5030    4.6020 O   0  0  0  0  0
   70.8230  -36.4420    8.4670 S   0  0  0  0  0
   69.6430  -36.5410    7.5870 O   0  0  0  0  0
   71.7020  -37.5520    8.8630 O   0  0  0  0  0
   70.3500  -35.7460    9.7280 O   0  0  0  0  0
   49.4598  -39.7906   30.6007 H   0  0  0  0  0
   51.6119  -40.1140   29.7694 H   0  0  0  0  0
   52.5137  -37.7928   31.5161 H   0  0  0  0  0
   52.0237  -37.7639   28.4207 H   0  0  0  0  0
   50.7615  -36.2803   30.4540 H   0  0  0  0  0
   49.6923  -36.7081   27.7187 H   0  0  0  0  0
   51.1793  -35.7658   27.7911 H   0  0  0  0  0
   52.4487  -39.9952   32.5476 H   0  0  0  0  0
   50.0347  -39.0297   32.6809 H   0  0  0  0  0
   54.0947  -39.4509   31.1258 H   0  0  0  0  0
   53.2935  -42.4983   32.8090 H   0  0  0  0  0
   49.8183  -33.3012   30.8176 H   0  0  0  0  0
   53.2669  -35.3158   27.3958 H   0  0  0  0  0
   55.8196  -36.1311   28.6475 H   0  0  0  0  0
   55.5704  -34.9038   25.8791 H   0  0  0  0  0
   56.3006  -37.0594   24.9821 H   0  0  0  0  0
   55.3453  -38.3288   27.2536 H   0  0  0  0  0
   57.8826  -34.8391   26.0774 H   0  0  0  0  0
   55.5756  -40.0082   26.3298 H   0  0  0  0  0
   56.1274  -32.4038   29.7562 H   0  0  0  0  0
   59.5279  -38.0523   25.7674 H   0  0  0  0  0
   60.3423  -36.9989   23.9844 H   0  0  0  0  0
   57.6764  -36.1340   22.8866 H   0  0  0  0  0
   59.4436  -38.2107   21.9336 H   0  0  0  0  0
   56.6921  -38.2870   23.3849 H   0  0  0  0  0
   56.6497  -40.1198   21.7845 H   0  0  0  0  0
   56.6351  -40.7284   23.4407 H   0  0  0  0  0
   58.3768  -34.9050   24.8433 H   0  0  0  0  0
   59.0708  -35.7768   21.0627 H   0  0  0  0  0
   60.3924  -35.8449   27.2517 H   0  0  0  0  0
   60.0145  -41.7761   24.2993 H   0  0  0  0  0
   59.3057  -38.9116   19.0499 H   0  0  0  0  0
   56.7856  -37.3147   19.2253 H   0  0  0  0  0
   57.8341  -38.3647   16.6609 H   0  0  0  0  0
   58.8049  -35.6808   16.6216 H   0  0  0  0  0
   58.1482  -35.5442   18.9560 H   0  0  0  0  0
   56.6265  -36.4768   15.9955 H   0  0  0  0  0
   61.0947  -35.7819   19.7775 H   0  0  0  0  0
   54.6436  -38.2262   18.3180 H   0  0  0  0  0
   59.9337  -38.5394   14.9339 H   0  0  0  0  0
   62.1607  -38.4453   14.4218 H   0  0  0  0  0
   62.6975  -36.4900   16.6697 H   0  0  0  0  0
   62.2280  -35.6078   13.6459 H   0  0  0  0  0
   60.8526  -35.0383   15.8672 H   0  0  0  0  0
   61.0121  -34.3625   12.9494 H   0  0  0  0  0
   60.6951  -33.3158   14.3217 H   0  0  0  0  0
   62.6824  -38.8569   17.2547 H   0  0  0  0  0
   64.7592  -36.4864   15.5981 H   0  0  0  0  0
   63.5932  -41.4159   16.8062 H   0  0  0  0  0
   58.3524  -33.7828   16.1505 H   0  0  0  0  0
   63.6382  -34.3137   12.6137 H   0  0  0  0  0
   65.0908  -32.7787   14.7708 H   0  0  0  0  0
   64.7340  -32.2423   11.8083 H   0  0  0  0  0
   66.7080  -33.0408   11.4878 H   0  0  0  0  0
   66.8075  -33.9780   14.3288 H   0  0  0  0  0
   65.9555  -30.3587   12.3420 H   0  0  0  0  0
   68.7660  -34.4082   14.2110 H   0  0  0  0  0
   64.3503  -30.4819   15.4968 H   0  0  0  0  0
   69.6525  -31.0847   12.6445 H   0  0  0  0  0
   69.2728  -29.8409   10.9895 H   0  0  0  0  0
   69.2448  -32.3326    9.2254 H   0  0  0  0  0
   71.5528  -30.8087   10.4583 H   0  0  0  0  0
   71.3123  -33.7280   10.5366 H   0  0  0  0  0
   71.8390  -32.5842   13.1059 H   0  0  0  0  0
   72.8137  -31.7379   11.9048 H   0  0  0  0  0
   66.9507  -31.4331   10.0625 H   0  0  0  0  0
   70.2435  -30.8471    7.7511 H   0  0  0  0  0
   65.3749  -29.5786   11.7399 H   0  0  0  0  0
   75.4703  -34.0679   13.0570 H   0  0  0  0  0
   73.2712  -33.6411    8.5070 H   0  0  0  0  0
   70.4853  -33.6414    7.8685 H   0  0  0  0  0
   72.2439  -34.5031    5.5646 H   0  0  0  0  0
   70.4725  -32.0468    5.7716 H   0  0  0  0  0
   71.3822  -32.5982    4.3239 H   0  0  0  0  0
   72.2247  -30.8301    6.2886 H   0  0  0  0  0
   70.1408  -34.6697    4.5892 H   0  0  0  0  0
   74.3564  -33.1830    5.2640 H   0  0  0  0  0
   71.0859  -35.6564   10.3379 H   0  0  0  0  0
  2  1  1  0  0  0
  1  8  1  0  0  0
 10  1  1  0  0  0
  3  2  1  0  0  0
  2  7  1  0  0  0
  4  3  1  0  0  0
  3  9  1  0  0  0
  4  5  1  0  0  0
 26  4  1  0  0  0
  5  6  1  0  0  0
  5 10  1  0  0  0
  6 11  1  0  0  0
  7 12  1  0  0  0
 11 16  1  0  0  0
 12 13  2  0  0  0
 12 14  2  0  0  0
 12 15  1  0  0  0
 16 17  2  0  0  0
 16 18  2  0  0  0
 16 19  1  0  0  0
 21 20  1  0  0  0
 20 26  1  0  0  0
 29 20  1  0  0  0
 22 21  1  0  0  0
 21 27  1  0  0  0
 23 22  1  0  0  0
 22 28  1  0  0  0
 23 24  1  0  0  0
 43 23  1  0  0  0
 24 25  1  0  0  0
 24 29  1  0  0  0
 25 30  2  0  0  0
 25 31  1  0  0  0
 27 32  1  0  0  0
 32 33  2  0  0  0
 32 34  1  0  0  0
 32 35  2  0  0  0
 37 36  1  0  0  0
 36 43  1  0  0  0
 45 36  1  0  0  0
 38 37  1  0  0  0
 37 42  1  0  0  0
 39 38  1  0  0  0
 38 44  1  0  0  0
 39 40  1  0  0  0
 61 39  1  0  0  0
 40 41  1  0  0  0
 40 45  1  0  0  0
 41 46  1  0  0  0
 42 47  1  0  0  0
 46 51  1  0  0  0
 47 48  2  0  0  0
 47 49  2  0  0  0
 47 50  1  0  0  0
 51 52  2  0  0  0
 51 53  2  0  0  0
 51 54  1  0  0  0
 56 55  1  0  0  0
 55 61  1  0  0  0
 64 55  1  0  0  0
 57 56  1  0  0  0
 56 62  1  0  0  0
 58 57  1  0  0  0
 57 63  1  0  0  0
 58 59  1  0  0  0
 78 58  1  0  0  0
 59 60  1  0  0  0
 59 64  1  0  0  0
 60 65  2  0  0  0
 60 66  1  0  0  0
 62 67  1  0  0  0
 67 68  2  0  0  0
 67 69  1  0  0  0
 67 70  2  0  0  0
 72 71  1  0  0  0
 71 78  1  0  0  0
 80 71  1  0  0  0
 73 72  1  0  0  0
 72 77  1  0  0  0
 74 73  1  0  0  0
 73 79  1  0  0  0
 74 75  1  0  0  0
 96 74  1  0  0  0
 75 76  1  0  0  0
 75 80  1  0  0  0
 76 81  1  0  0  0
 77 82  1  0  0  0
 81 86  1  0  0  0
 82 83  2  0  0  0
 82 84  2  0  0  0
 82 85  1  0  0  0
 86 87  2  0  0  0
 86 88  2  0  0  0
 86 89  1  0  0  0
 91 90  1  0  0  0
 90 96  1  0  0  0
 99 90  1  0  0  0
 92 91  1  0  0  0
 91 97  1  0  0  0
 93 92  1  0  0  0
 92 98  1  0  0  0
 93 94  1  0  0  0
113 93  1  0  0  0
 94 95  1  0  0  0
 94 99  1  0  0  0
 95100  2  0  0  0
 95101  1  0  0  0
 97102  1  0  0  0
102103  2  0  0  0
102104  1  0  0  0
102105  2  0  0  0
107106  1  0  0  0
106113  1  0  0  0
115106  1  0  0  0
108107  1  0  0  0
107112  1  0  0  0
109108  1  0  0  0
108114  1  0  0  0
109110  1  0  0  0
131109  1  0  0  0
110111  1  0  0  0
110115  1  0  0  0
111116  1  0  0  0
112117  1  0  0  0
116121  1  0  0  0
117118  1  0  0  0
117119  2  0  0  0
117120  2  0  0  0
121122  2  0  0  0
121123  2  0  0  0
121124  1  0  0  0
125126  1  0  0  0
125131  1  0  0  0
125134  1  0  0  0
126127  1  0  0  0
126132  1  0  0  0
127128  1  0  0  0
127133  1  0  0  0
128129  1  0  0  0
129130  1  0  0  0
129134  1  0  0  0
130135  2  0  0  0
130136  1  0  0  0
132137  1  0  0  0
137138  2  0  0  0
137139  2  0  0  0
137140  1  0  0  0
  1141  1  0  0  0
  2142  1  0  0  0
  3143  1  0  0  0
  4144  1  0  0  0
  5145  1  0  0  0
  6146  1  0  0  0
  6147  1  0  0  0
  7148  1  0  0  0
  8149  1  0  0  0
  9150  1  0  0  0
 15151  1  0  0  0
 19152  1  0  0  0
 20153  1  0  0  0
 21154  1  0  0  0
 22155  1  0  0  0
 23156  1  0  0  0
 24157  1  0  0  0
 28158  1  0  0  0
 31159  1  0  0  0
 34160  1  0  0  0
 36161  1  0  0  0
 37162  1  0  0  0
 38163  1  0  0  0
 39164  1  0  0  0
 40165  1  0  0  0
 41166  1  0  0  0
 41167  1  0  0  0
 42168  1  0  0  0
 44169  1  0  0  0
 50170  1  0  0  0
 54171  1  0  0  0
 55172  1  0  0  0
 56173  1  0  0  0
 57174  1  0  0  0
 58175  1  0  0  0
 59176  1  0  0  0
 63177  1  0  0  0
 66178  1  0  0  0
 69179  1  0  0  0
 71180  1  0  0  0
 72181  1  0  0  0
 73182  1  0  0  0
 74183  1  0  0  0
 75184  1  0  0  0
 76185  1  0  0  0
 76186  1  0  0  0
 77187  1  0  0  0
 79188  1  0  0  0
 85189  1  0  0  0
 89190  1  0  0  0
 90191  1  0  0  0
 91192  1  0  0  0
 92193  1  0  0  0
 93194  1  0  0  0
 94195  1  0  0  0
 98196  1  0  0  0
101197  1  0  0  0
104198  1  0  0  0
106199  1  0  0  0
107200  1  0  0  0
108201  1  0  0  0
109202  1  0  0  0
110203  1  0  0  0
111204  1  0  0  0
111205  1  0  0  0
112206  1  0  0  0
114207  1  0  0  0
118208  1  0  0  0
124209  1  0  0  0
125210  1  0  0  0
126211  1  0  0  0
127212  1  0  0  0
128213  1  0  0  0
128214  1  0  0  0
129215  1  0  0  0
133216  1  0  0  0
136217  1  0  0  0
140218  1  0  0  0
M  END
$$$$
