1h0w_ligand
  -I-interpret- 

 33 35  0  0  0  0  0  0  0  0999 V2000
    2.3310   29.3130    7.8490 N   0  0  0  0  0
    2.8180   30.3540    7.1210 C   0  0  0  0  0
    2.2360   31.6110    7.1280 C   0  0  0  0  0
    1.1310   31.8740    7.8700 C   0  0  0  0  0
    0.5890   30.7980    8.6390 C   0  0  0  0  0
    1.2370   29.4720    8.6320 C   0  0  0  0  0
    0.7080   28.4560    9.4080 O   0  0  0  0  0
    1.4630   27.2530    9.5560 C   0  0  0  0  0
   -0.4760   31.2370    9.2900 N   0  0  0  0  0
   -0.6330   32.5150    8.9650 C   0  0  0  0  0
    0.3310   32.9020    8.1040 N   0  0  0  0  0
    3.9270   30.2130    6.3400 N   0  0  0  0  0
    0.9110   26.4560   10.7230 C   0  0  0  0  0
   -0.3420   25.7350   10.2480 C   0  0  0  0  0
   -0.0120   24.2850    9.9480 C   0  0  0  0  0
    0.3330   23.5630   11.2370 C   0  0  0  0  0
    1.5360   24.2230   11.9030 C   0  0  0  0  0
    2.0040   25.5280   11.2430 C   0  0  0  0  0
    2.6750   32.4056    6.5247 H   0  0  0  0  0
    2.5083   27.4986    9.7434 H   0  0  0  0  0
    1.3906   26.6617    8.6432 H   0  0  0  0  0
   -1.4277   33.1597    9.3405 H   0  0  0  0  0
    4.4075   29.3144    6.2940 H   0  0  0  0  0
    4.2760   31.0061    5.8019 H   0  0  0  0  0
    0.6196   27.0874   11.5624 H   0  0  0  0  0
   -0.7158   26.2159    9.3440 H   0  0  0  0  0
   -1.1028   25.7795   11.0273 H   0  0  0  0  0
    0.8399   24.2408    9.2695 H   0  0  0  0  0
   -0.8747   23.8060    9.4849 H   0  0  0  0  0
   -0.2013   22.6981   11.6301 H   0  0  0  0  0
    2.0260   23.8006   12.7803 H   0  0  0  0  0
    2.5315   26.0859   12.0167 H   0  0  0  0  0
    2.5899   25.2333   10.3724 H   0  0  0  0  0
  1  2  4  0  0  0
  1  6  4  0  0  0
  2  3  4  0  0  0
  2 12  1  0  0  0
  3  4  4  0  0  0
  4  5  4  0  0  0
  4 11  4  0  0  0
  5  6  4  0  0  0
  5  9  4  0  0  0
  6  7  1  0  0  0
  7  8  1  0  0  0
  8 13  1  0  0  0
  9 10  4  0  0  0
 10 11  4  0  0  0
 13 14  1  0  0  0
 13 18  1  0  0  0
 14 15  1  0  0  0
 15 16  1  0  0  0
 16 17  2  0  0  0
 17 18  1  0  0  0
  3 19  1  0  0  0
  8 20  1  0  0  0
  8 21  1  0  0  0
 10 22  1  0  0  0
 12 23  1  0  0  0
 12 24  1  0  0  0
 13 25  1  0  0  0
 14 26  1  0  0  0
 14 27  1  0  0  0
 15 28  1  0  0  0
 15 29  1  0  0  0
 16 30  1  0  0  0
 17 31  1  0  0  0
 18 32  1  0  0  0
 18 33  1  0  0  0
M  END
$$$$
