1qku_ligand
  -I-interpret- 

 44 47  0  0  0  0  0  0  0  0999 V2000
  104.1060   17.2030   24.7750 C   0  0  0  0  0
  102.9950   17.8340   25.3700 C   0  0  0  0  0
  101.6950   17.3550   25.1200 C   0  0  0  0  0
  100.5980   17.9900   25.7040 O   0  0  0  0  0
  101.5060   16.2400   24.2740 C   0  0  0  0  0
  102.6210   15.5880   23.6600 C   0  0  0  0  0
  102.3710   14.3790   22.7350 C   0  0  0  0  0
  103.6440   13.7530   22.0860 C   0  0  0  0  0
  104.8980   13.8730   22.9530 C   0  0  0  0  0
  105.1780   15.3880   23.2610 C   0  0  0  0  0
  103.9570   16.0780   23.9180 C   0  0  0  0  0
  106.4620   15.4590   24.1250 C   0  0  0  0  0
  107.7110   14.8030   23.5080 C   0  0  0  0  0
  107.4630   13.3430   23.1240 C   0  0  0  0  0
  106.1700   13.2700   22.2420 C   0  0  0  0  0
  106.2280   11.8210   21.7920 C   0  0  0  0  0
  107.7010   11.7130   21.2630 C   0  0  0  0  0
  108.4940   12.7190   22.1350 C   0  0  0  0  0
  109.6100   12.0270   22.7460 O   0  0  0  0  0
  107.3790   12.4490   24.4190 C   0  0  0  0  0
  105.1057   17.5874   24.9771 H   0  0  0  0  0
  103.1424   18.6934   26.0241 H   0  0  0  0  0
   99.7913   17.5443   25.4353 H   0  0  0  0  0
  100.4974   15.8717   24.0866 H   0  0  0  0  0
  101.7506   14.7398   21.9146 H   0  0  0  0  0
  101.9253   13.6014   23.3553 H   0  0  0  0  0
  103.8360   14.2925   21.1586 H   0  0  0  0  0
  103.4476   12.6905   21.9420 H   0  0  0  0  0
  104.7143   13.3117   23.8691 H   0  0  0  0  0
  105.3400   15.9438   22.3374 H   0  0  0  0  0
  106.2480   14.9158   25.0455 H   0  0  0  0  0
  106.6953   16.5165   24.2492 H   0  0  0  0  0
  108.5101   14.8290   24.2488 H   0  0  0  0  0
  107.9727   15.3529   22.6040 H   0  0  0  0  0
  106.1005   13.9127   21.3644 H   0  0  0  0  0
  105.4772   11.5673   21.0437 H   0  0  0  0  0
  105.9971   11.1095   22.5848 H   0  0  0  0  0
  107.7739   11.9438   20.2002 H   0  0  0  0  0
  108.0937   10.6995   21.3449 H   0  0  0  0  0
  108.9481   13.5388   21.5783 H   0  0  0  0  0
  110.1848   11.6805   22.0596 H   0  0  0  0  0
  108.3170   12.5203   24.9696 H   0  0  0  0  0
  106.5598   12.7982   25.0475 H   0  0  0  0  0
  107.2023   11.4123   24.1324 H   0  0  0  0  0
  1  2  4  0  0  0
  1 11  4  0  0  0
  2  3  4  0  0  0
  3  4  1  0  0  0
  3  5  4  0  0  0
  5  6  4  0  0  0
  6  7  1  0  0  0
  6 11  4  0  0  0
  7  8  1  0  0  0
  8  9  1  0  0  0
  9 10  1  0  0  0
  9 15  1  0  0  0
 10 11  1  0  0  0
 10 12  1  0  0  0
 12 13  1  0  0  0
 13 14  1  0  0  0
 14 15  1  0  0  0
 14 18  1  0  0  0
 14 20  1  0  0  0
 15 16  1  0  0  0
 16 17  1  0  0  0
 17 18  1  0  0  0
 18 19  1  0  0  0
  1 21  1  0  0  0
  2 22  1  0  0  0
  4 23  1  0  0  0
  5 24  1  0  0  0
  7 25  1  0  0  0
  7 26  1  0  0  0
  8 27  1  0  0  0
  8 28  1  0  0  0
  9 29  1  0  0  0
 10 30  1  0  0  0
 12 31  1  0  0  0
 12 32  1  0  0  0
 13 33  1  0  0  0
 13 34  1  0  0  0
 15 35  1  0  0  0
 16 36  1  0  0  0
 16 37  1  0  0  0
 17 38  1  0  0  0
 17 39  1  0  0  0
 18 40  1  0  0  0
 19 41  1  0  0  0
 20 42  1  0  0  0
 20 43  1  0  0  0
 20 44  1  0  0  0
M  END
$$$$
