6qre_ligand
  -I-interpret- 

 28 29  0  0  0  0  0  0  0  0999 V2000
  -19.9330   16.6170  -12.9230 C   0  0  0  0  0
  -17.7340   16.7540  -12.8750 N   0  0  0  0  0
  -18.2100   18.0310  -12.9000 C   0  0  0  0  0
  -22.1540   21.5570  -10.7580 C   0  0  0  0  0
  -23.1940   21.2590   -8.5830 C   0  0  0  0  0
  -25.7320   18.6890   -8.8990 C   0  0  0  0  0
  -24.8770   19.5630   -8.2410 O   0  0  0  0  0
  -23.9540   20.2470   -9.0870 C   0  0  0  0  0
  -23.8220   19.8630  -10.4380 C   0  0  0  0  0
  -22.9170   20.5250  -11.2660 C   0  0  0  0  0
  -22.7660   20.1060  -12.6940 C   0  0  0  0  0
  -21.9560   18.9000  -12.7600 O   0  0  0  0  0
  -20.5710   19.1380  -12.9260 C   0  0  0  0  0
  -19.5920   17.9550  -12.9180 C   0  0  0  0  0
  -18.8080   15.9160  -12.9020 N   0  0  0  0  0
  -20.1500   20.2920  -13.0540 O   0  0  0  0  0
  -22.2840   21.9370   -9.4200 C   0  0  0  0  0
  -20.9443   16.2106  -12.9410 H   0  0  0  0  0
  -17.6130   18.9430  -12.9049 H   0  0  0  0  0
  -21.4469   22.0778  -11.4037 H   0  0  0  0  0
  -23.2891   21.5440   -7.5352 H   0  0  0  0  0
  -26.3236   19.2419   -9.6286 H   0  0  0  0  0
  -25.1459   17.9244   -9.4089 H   0  0  0  0  0
  -26.3953   18.2170   -8.1742 H   0  0  0  0  0
  -24.4279   19.0483  -10.8345 H   0  0  0  0  0
  -22.2800   20.9023  -13.2577 H   0  0  0  0  0
  -23.7490   19.9083  -13.1214 H   0  0  0  0  0
  -21.6833   22.7558   -9.0239 H   0  0  0  0  0
 14  1  4  0  0  0
  1 15  4  0  0  0
  3  2  4  0  0  0
  2 15  4  0  0  0
 14  3  4  0  0  0
 10  4  4  0  0  0
  4 17  4  0  0  0
  8  5  4  0  0  0
 17  5  4  0  0  0
  7  6  1  0  0  0
  8  7  1  0  0  0
  9  8  4  0  0  0
 10  9  4  0  0  0
 11 10  1  0  0  0
 12 11  1  0  0  0
 13 12  1  0  0  0
 13 14  1  0  0  0
 13 16  2  0  0  0
  1 18  1  0  0  0
  3 19  1  0  0  0
  4 20  1  0  0  0
  5 21  1  0  0  0
  6 22  1  0  0  0
  6 23  1  0  0  0
  6 24  1  0  0  0
  9 25  1  0  0  0
 11 26  1  0  0  0
 11 27  1  0  0  0
 17 28  1  0  0  0
M  END
$$$$
