2c9t_ligand
  -I-interpret- 

169173  0  0  0  0  0  0  0  0999 V2000
   62.8050   -2.2650   21.7330 N   0  3  0  0  0
   62.1050   -3.2900   22.5500 C   0  0  0  0  0
   60.7080   -2.8890   22.9880 C   0  0  0  0  0
   60.1100   -1.9360   22.4590 O   0  0  0  0  0
   60.2160   -3.6470   23.9690 N   0  0  0  0  0
   58.8960   -3.4850   24.5570 C   0  0  0  0  0
   58.5290   -2.0480   24.9140 C   0  0  0  0  0
   57.4580   -1.5770   24.5900 O   0  0  0  0  0
   58.8250   -4.3060   25.8360 C   0  0  0  0  0
   57.1870   -4.2350   26.6130 S   0  0  0  0  0
   59.4430   -1.3570   25.5770 N   0  0  0  0  0
   59.1370   -0.0720   26.1610 C   0  0  0  0  0
   59.1340    1.0840   25.2000 C   0  0  0  0  0
   58.7690    2.1740   25.5890 O   0  0  0  0  0
   60.0890    0.2070   27.3190 C   0  0  0  0  0
   60.0350   -1.1630   28.4860 S   0  0  0  0  0
   59.5360    0.8380   23.9610 N   0  0  0  0  0
   59.3280    1.7830   22.8580 C   0  0  0  0  0
   58.1780    1.3580   21.9070 C   0  0  0  0  0
   57.8500    2.0880   20.9780 O   0  0  0  0  0
   60.6170    1.8880   22.0500 C   0  0  0  0  0
   61.7150    1.8600   22.9310 O   0  0  0  0  0
   57.6250    0.1660   22.1210 N   0  0  0  0  0
   56.5520   -0.3340   21.3070 C   0  0  0  0  0
   55.2640    0.0930   22.0350 C   0  0  0  0  0
   55.0280   -0.3510   23.1470 O   0  0  0  0  0
   56.6350   -1.8760   21.1930 C   0  0  0  0  0
   55.7020   -2.4620   20.1390 C   0  0  0  0  0
   54.5630   -2.0260   19.9370 O   0  0  0  0  0
   56.1200   -3.4080   19.4830 O   0  0  0  0  0
   54.4380    0.9430   21.3950 N   0  0  0  0  0
   53.1600    1.3530   21.9390 C   0  0  0  0  0
   52.1950    0.2160   22.3050 C   0  0  0  0  0
   51.3600    0.3930   23.2020 O   0  0  0  0  0
   52.5850    2.2080   20.8050 C   0  0  0  0  0
   53.2700    1.7380   19.5930 C   0  0  0  0  0
   54.6530    1.5600   20.0690 C   0  0  0  0  0
   52.3160   -0.9350   21.6300 N   0  0  0  0  0
   51.5430   -2.1410   21.9520 C   0  0  0  0  0
   51.9990   -2.8690   23.2220 C   0  0  0  0  0
   51.2400   -3.6400   23.8010 O   0  0  0  0  0
   51.6170   -3.1210   20.7970 C   0  0  0  0  0
   51.0370   -2.6350   19.5150 C   0  0  0  0  0
   51.4420   -3.4800   18.3660 C   0  0  0  0  0
   52.8810   -3.3940   18.1100 N   0  0  0  0  0
   53.5090   -3.9770   17.0750 C   0  0  0  0  0
   52.8410   -4.6050   16.1320 N   0  0  0  0  0
   54.8130   -3.8710   16.9430 N   0  0  0  0  0
   53.2510   -2.6330   23.6300 N   0  0  0  0  0
   53.8790   -3.3150   24.7510 C   0  0  0  0  0
   54.2040   -2.3920   25.9290 C   0  0  0  0  0
   54.3130   -2.8430   27.0450 O   0  0  0  0  0
   55.1700   -3.9870   24.2360 C   0  0  0  0  0
   55.9970   -5.2420   25.3180 S   0  0  0  0  0
   54.3780   -1.1060   25.6820 N   0  0  0  0  0
   54.8630   -0.1670   26.7190 C   0  0  0  0  0
   54.0840   -0.1600   28.0570 C   0  0  0  0  0
   54.6710    0.1000   29.0940 O   0  0  0  0  0
   54.9080    1.2790   26.1640 C   0  0  0  0  0
   52.7800   -0.3790   28.0170 N   0  0  0  0  0
   51.9480   -0.3730   29.2200 C   0  0  0  0  0
   52.4560   -1.2990   30.3240 C   0  0  0  0  0
   52.2160   -1.0330   31.4960 O   0  0  0  0  0
   50.4980   -0.7320   28.8680 C   0  0  0  0  0
   50.3730   -2.0710   28.2820 C   0  0  0  0  0
   50.6770   -2.4380   27.0040 C   0  0  0  0  0
   49.9460   -3.2410   28.9450 C   0  0  0  0  0
   50.4650   -3.7680   26.8380 N   0  0  0  0  0
   50.0180   -4.2920   28.0160 C   0  0  0  0  0
   49.4970   -3.5100   30.2370 C   0  0  0  0  0
   49.6580   -5.5800   28.3300 C   0  0  0  0  0
   49.1450   -4.7800   30.5510 C   0  0  0  0  0
   49.2380   -5.8090   29.6070 C   0  0  0  0  0
   53.1490   -2.3760   29.9550 N   0  0  0  0  0
   53.7130   -3.2790   30.9680 C   0  0  0  0  0
   55.1040   -2.9110   31.4900 C   0  0  0  0  0
   55.5980   -3.5620   32.3790 O   0  0  0  0  0
   53.6570   -4.7600   30.5540 C   0  0  0  0  0
   54.2630   -5.0890   29.2400 C   0  0  0  0  0
   53.2170   -5.5510   28.2430 C   0  0  0  0  0
   53.3640   -6.9730   28.0300 N   0  0  0  0  0
   52.8590   -7.9090   28.8170 C   0  0  0  0  0
   52.1290   -7.5940   29.8730 N   0  0  0  0  0
   53.0850   -9.1940   28.5490 N   0  0  0  0  0
   55.6910   -1.8480   30.9700 N   0  0  0  0  0
   56.8330   -1.1950   31.5850 C   0  0  0  0  0
   56.3470   -0.1800   32.6320 C   0  0  0  0  0
   57.1530    0.4820   33.2500 O   0  0  0  0  0
   57.6800   -0.4460   30.5150 C   0  0  0  0  0
   58.0210   -1.4180   29.0080 S   0  0  0  0  0
   55.0380   -0.0210   32.7900 N   0  0  0  0  0
   63.7316   -2.6082   21.4801 H   0  0  0  0  0
   62.2666   -2.0809   20.8865 H   0  0  0  0  0
   62.8956   -1.4048   22.2736 H   0  0  0  0  0
   62.6953   -3.4386   23.4542 H   0  0  0  0  0
   62.0044   -4.1812   21.9306 H   0  0  0  0  0
   60.8080   -4.3937   24.3328 H   0  0  0  0  0
   58.1904   -3.8159   23.7949 H   0  0  0  0  0
   59.5502   -3.8975   26.5398 H   0  0  0  0  0
   59.0330   -5.3453   25.5817 H   0  0  0  0  0
   60.3830   -1.7401   25.6775 H   0  0  0  0  0
   58.1078   -0.1488   26.5116 H   0  0  0  0  0
   59.7877    1.1252   27.8232 H   0  0  0  0  0
   61.1035    0.3176   26.9361 H   0  0  0  0  0
   60.0093   -0.0443   23.7664 H   0  0  0  0  0
   59.0507    2.7405   23.2989 H   0  0  0  0  0
   60.6221    2.8210   21.4864 H   0  0  0  0  0
   60.6832    1.0517   21.3540 H   0  0  0  0  0
   62.5297    1.9258   22.4274 H   0  0  0  0  0
   57.9741   -0.4103   22.8868 H   0  0  0  0  0
   56.5898    0.0562   20.2899 H   0  0  0  0  0
   56.3404   -2.2910   22.1569 H   0  0  0  0  0
   57.6550   -2.1275   20.9023 H   0  0  0  0  0
   54.3934   -1.2903   20.5300 H   0  0  0  0  0
   53.2921    1.8601   22.8948 H   0  0  0  0  0
   52.7497    3.2718   20.9765 H   0  0  0  0  0
   51.5031    2.1011   20.7259 H   0  0  0  0  0
   53.1885    2.4314   18.7559 H   0  0  0  0  0
   52.8365    0.8277   19.1789 H   0  0  0  0  0
   55.2667    0.9538   19.4026 H   0  0  0  0  0
   55.2210    2.4894   20.1098 H   0  0  0  0  0
   52.9774   -0.9754   20.8546 H   0  0  0  0  0
   50.5259   -1.7918   22.1299 H   0  0  0  0  0
   51.0369   -3.9957   21.0912 H   0  0  0  0  0
   52.6749   -3.3065   20.6114 H   0  0  0  0  0
   51.4009   -1.6228   19.3385 H   0  0  0  0  0
   49.9507   -2.6701   19.5975 H   0  0  0  0  0
   50.9142   -3.1291   17.4792 H   0  0  0  0  0
   51.1962   -4.5161   18.5987 H   0  0  0  0  0
   53.4470   -2.8531   18.7638 H   0  0  0  0  0
   53.3355   -4.9925   15.3285 H   0  0  0  0  0
   51.8284   -4.7045   16.2042 H   0  0  0  0  0
   55.3538   -3.3438   17.6286 H   0  0  0  0  0
   53.7969   -1.9343   23.1258 H   0  0  0  0  0
   53.1694   -4.0471   25.1364 H   0  0  0  0  0
   55.8926   -3.1777   24.1312 H   0  0  0  0  0
   54.8721   -4.5321   23.3403 H   0  0  0  0  0
   54.1721   -0.7492   24.7489 H   0  0  0  0  0
   55.8571   -0.5434   26.9600 H   0  0  0  0  0
   55.5816    1.3174   25.3079 H   0  0  0  0  0
   53.9070    1.5792   25.8541 H   0  0  0  0  0
   55.2669    1.9540   26.9409 H   0  0  0  0  0
   52.3390   -0.5585   27.1150 H   0  0  0  0  0
   52.0003    0.6413   29.6156 H   0  0  0  0  0
   50.1435   -0.0101   28.1323 H   0  0  0  0  0
   49.9155   -0.7139   29.7891 H   0  0  0  0  0
   51.0376   -1.7616   26.2291 H   0  0  0  0  0
   49.4305   -2.7148   30.9795 H   0  0  0  0  0
   49.7058   -6.3815   27.5928 H   0  0  0  0  0
   48.7837   -5.0039   31.5547 H   0  0  0  0  0
   48.9668   -6.8230   29.9011 H   0  0  0  0  0
   53.2886   -2.5745   28.9643 H   0  0  0  0  0
   53.0427   -3.1315   31.8148 H   0  0  0  0  0
   52.6006   -5.0178   30.4780 H   0  0  0  0  0
   54.2286   -5.3096   31.3019 H   0  0  0  0  0
   54.9815   -5.8959   29.3843 H   0  0  0  0  0
   54.7412   -4.1919   28.8468 H   0  0  0  0  0
   53.3508   -5.0226   27.2991 H   0  0  0  0  0
   52.2208   -5.3390   28.6312 H   0  0  0  0  0
   53.8954   -7.2768   27.2141 H   0  0  0  0  0
   51.9464   -6.6149   30.0931 H   0  0  0  0  0
   52.6969   -9.9172   29.1546 H   0  0  0  0  0
   53.6462   -9.4548   27.7382 H   0  0  0  0  0
   55.3254   -1.4685   30.0966 H   0  0  0  0  0
   57.4495   -1.9586   32.0593 H   0  0  0  0  0
   58.6424   -0.2163   30.9722 H   0  0  0  0  0
   57.1070    0.4291   30.2085 H   0  0  0  0  0
   54.6844    0.6745   33.4469 H   0  0  0  0  0
   54.3863   -0.5944   32.2544 H   0  0  0  0  0
  1  2  1  0  0  0
  2  3  1  0  0  0
  3  4  2  0  0  0
  3  5  1  0  0  0
  5  6  1  0  0  0
  6  7  1  0  0  0
  6  9  1  0  0  0
  7  8  2  0  0  0
  7 11  1  0  0  0
  9 10  1  0  0  0
 10 54  1  0  0  0
 11 12  1  0  0  0
 12 13  1  0  0  0
 12 15  1  0  0  0
 13 14  2  0  0  0
 13 17  1  0  0  0
 15 16  1  0  0  0
 16 90  1  0  0  0
 17 18  1  0  0  0
 18 19  1  0  0  0
 18 21  1  0  0  0
 19 20  2  0  0  0
 19 23  1  0  0  0
 21 22  1  0  0  0
 23 24  1  0  0  0
 24 25  1  0  0  0
 24 27  1  0  0  0
 25 26  2  0  0  0
 25 31  1  0  0  0
 27 28  1  0  0  0
 28 29  1  0  0  0
 28 30  2  0  0  0
 31 32  1  0  0  0
 31 37  1  0  0  0
 32 33  1  0  0  0
 32 35  1  0  0  0
 33 34  2  0  0  0
 33 38  1  0  0  0
 35 36  1  0  0  0
 36 37  1  0  0  0
 38 39  1  0  0  0
 39 40  1  0  0  0
 39 42  1  0  0  0
 40 41  2  0  0  0
 40 49  1  0  0  0
 42 43  1  0  0  0
 43 44  1  0  0  0
 44 45  1  0  0  0
 45 46  1  0  0  0
 46 47  1  0  0  0
 46 48  2  0  0  0
 49 50  1  0  0  0
 50 51  1  0  0  0
 50 53  1  0  0  0
 51 52  2  0  0  0
 51 55  1  0  0  0
 53 54  1  0  0  0
 55 56  1  0  0  0
 56 57  1  0  0  0
 56 59  1  0  0  0
 57 58  2  0  0  0
 57 60  1  0  0  0
 60 61  1  0  0  0
 61 62  1  0  0  0
 61 64  1  0  0  0
 62 63  2  0  0  0
 62 74  1  0  0  0
 64 65  1  0  0  0
 65 66  4  0  0  0
 65 67  4  0  0  0
 66 68  4  0  0  0
 67 69  4  0  0  0
 67 70  4  0  0  0
 68 69  4  0  0  0
 69 71  4  0  0  0
 70 72  4  0  0  0
 71 73  4  0  0  0
 72 73  4  0  0  0
 74 75  1  0  0  0
 75 76  1  0  0  0
 75 78  1  0  0  0
 76 77  2  0  0  0
 76 85  1  0  0  0
 78 79  1  0  0  0
 79 80  1  0  0  0
 80 81  1  0  0  0
 81 82  1  0  0  0
 82 83  2  0  0  0
 82 84  1  0  0  0
 85 86  1  0  0  0
 86 87  1  0  0  0
 86 89  1  0  0  0
 87 88  2  0  0  0
 87 91  1  0  0  0
 89 90  1  0  0  0
  1 92  1  0  0  0
  1 93  1  0  0  0
  1 94  1  0  0  0
  2 95  1  0  0  0
  2 96  1  0  0  0
  5 97  1  0  0  0
  6 98  1  0  0  0
  9 99  1  0  0  0
  9100  1  0  0  0
 11101  1  0  0  0
 12102  1  0  0  0
 15103  1  0  0  0
 15104  1  0  0  0
 17105  1  0  0  0
 18106  1  0  0  0
 21107  1  0  0  0
 21108  1  0  0  0
 22109  1  0  0  0
 23110  1  0  0  0
 24111  1  0  0  0
 27112  1  0  0  0
 27113  1  0  0  0
 29114  1  0  0  0
 32115  1  0  0  0
 35116  1  0  0  0
 35117  1  0  0  0
 36118  1  0  0  0
 36119  1  0  0  0
 37120  1  0  0  0
 37121  1  0  0  0
 38122  1  0  0  0
 39123  1  0  0  0
 42124  1  0  0  0
 42125  1  0  0  0
 43126  1  0  0  0
 43127  1  0  0  0
 44128  1  0  0  0
 44129  1  0  0  0
 45130  1  0  0  0
 47131  1  0  0  0
 47132  1  0  0  0
 48133  1  0  0  0
 49134  1  0  0  0
 50135  1  0  0  0
 53136  1  0  0  0
 53137  1  0  0  0
 55138  1  0  0  0
 56139  1  0  0  0
 59140  1  0  0  0
 59141  1  0  0  0
 59142  1  0  0  0
 60143  1  0  0  0
 61144  1  0  0  0
 64145  1  0  0  0
 64146  1  0  0  0
 66147  1  0  0  0
 70148  1  0  0  0
 71149  1  0  0  0
 72150  1  0  0  0
 73151  1  0  0  0
 74152  1  0  0  0
 75153  1  0  0  0
 78154  1  0  0  0
 78155  1  0  0  0
 79156  1  0  0  0
 79157  1  0  0  0
 80158  1  0  0  0
 80159  1  0  0  0
 81160  1  0  0  0
 83161  1  0  0  0
 84162  1  0  0  0
 84163  1  0  0  0
 85164  1  0  0  0
 86165  1  0  0  0
 89166  1  0  0  0
 89167  1  0  0  0
 91168  1  0  0  0
 91169  1  0  0  0
M  END
$$$$
