### 
### Created by X-TOOL on Mon Sep 10 21:12:53 2018
### 

@<TRIPOS>MOLECULE
2c9t_ligand
  171   175     1     0     0
SMALL
GAST_HUCK


@<TRIPOS>ATOM
      1 N          62.8050   -2.2650   21.7330 N.4       1 GLY         0.2357
      2 CA         62.1050   -3.2900   22.5500 C.3       1 GLY         0.0545
      3 C          60.7080   -2.8890   22.9880 C.2       1 GLY         0.2237
      4 O          60.1100   -1.9360   22.4590 O.2       1 GLY        -0.3910
      5 N          60.2160   -3.6470   23.9690 N.am      1 CYS        -0.2604
      6 CA         58.8960   -3.4850   24.5570 C.3       1 CYS         0.1407
      7 C          58.5290   -2.0480   24.9140 C.2       1 CYS         0.2048
      8 O          57.4580   -1.5770   24.5900 O.2       1 CYS        -0.3944
      9 CB         58.8250   -4.3060   25.8360 C.3       1 CYS         0.0443
     10 SG         57.1870   -4.2350   26.6130 S.3       1 CYS        -0.0882
     11 N          59.4430   -1.3570   25.5770 N.am      1 CYS        -0.2629
     12 CA         59.1370   -0.0720   26.1610 C.3       1 CYS         0.1406
     13 C          59.1340    1.0840   25.2000 C.2       1 CYS         0.2048
     14 O          58.7690    2.1740   25.5890 O.2       1 CYS        -0.3944
     15 CB         60.0890    0.2070   27.3190 C.3       1 CYS         0.0443
     16 SG         60.0350   -1.1630   28.4860 S.3       1 CYS        -0.0882
     17 N          59.5360    0.8380   23.9610 N.am      1 SER        -0.2615
     18 CA         59.3280    1.7830   22.8580 C.3       1 SER         0.1539
     19 C          58.1780    1.3580   21.9070 C.2       1 SER         0.2063
     20 O          57.8500    2.0880   20.9780 O.2       1 SER        -0.3943
     21 CB         60.6170    1.8880   22.0500 C.3       1 SER         0.0843
     22 OG         61.7150    1.8600   22.9310 O.3       1 SER        -0.3903
     23 N          57.6250    0.1660   22.1210 N.am      1 ASP        -0.2621
     24 CA         56.5520   -0.3340   21.3070 C.3       1 ASP         0.1425
     25 C          55.2640    0.0930   22.0350 C.2       1 ASP         0.2081
     26 O          55.0280   -0.3510   23.1470 O.2       1 ASP        -0.3941
     27 CB         56.6350   -1.8760   21.1930 C.3       1 ASP         0.0406
     28 CG         55.7020   -2.4620   20.1390 C.2       1 ASP         0.0393
     29 OD1        54.5630   -2.0260   19.9370 O.co2     1 ASP        -0.5688
     30 OD2        56.1200   -3.4080   19.4830 O.co2     1 ASP        -0.5688
     31 N          54.4380    0.9430   21.3950 N.am      1 PRO        -0.2497
     32 CA         53.1600    1.3530   21.9390 C.3       1 PRO         0.1338
     33 C          52.1950    0.2160   22.3050 C.2       1 PRO         0.2041
     34 O          51.3600    0.3930   23.2020 O.2       1 PRO        -0.3944
     35 CB         52.5850    2.2080   20.8050 C.3       1 PRO        -0.0104
     36 CG         53.2700    1.7380   19.5930 C.3       1 PRO        -0.0281
     37 CD         54.6530    1.5600   20.0690 C.3       1 PRO         0.0369
     38 N          52.3160   -0.9350   21.6300 N.am      1 ARG        -0.2637
     39 CA         51.5430   -2.1410   21.9520 C.3       1 ARG         0.1311
     40 C          51.9990   -2.8690   23.2220 C.2       1 ARG         0.2039
     41 O          51.2400   -3.6400   23.8010 O.2       1 ARG        -0.3944
     42 CB         51.6170   -3.1210   20.7970 C.3       1 ARG        -0.0092
     43 CG         51.0370   -2.6350   19.5150 C.3       1 ARG        -0.0156
     44 CD         51.4420   -3.4800   18.3660 C.3       1 ARG         0.0627
     45 NE         52.8810   -3.3940   18.1100 N.pl3     1 ARG        -0.2723
     46 CZ         53.5090   -3.9770   17.0750 C.cat     1 ARG         0.2882
     47 NH1        52.8410   -4.6050   16.1320 N.pl3     1 ARG        -0.2849
     48 NH2        54.8130   -3.8710   16.9430 N.pl3     1 ARG        -0.2849
     49 N          53.2510   -2.6330   23.6300 N.am      1 CYS        -0.2629
     50 CA         53.8790   -3.3150   24.7510 C.3       1 CYS         0.1406
     51 C          54.2040   -2.3920   25.9290 C.2       1 CYS         0.2047
     52 O          54.3130   -2.8430   27.0450 O.2       1 CYS        -0.3944
     53 CB         55.1700   -3.9870   24.2360 C.3       1 CYS         0.0443
     54 SG         55.9970   -5.2420   25.3180 S.3       1 CYS        -0.0882
     55 N          54.3780   -1.1060   25.6820 N.am      1 ALA        -0.2640
     56 CA         54.8630   -0.1670   26.7190 C.3       1 ALA         0.1282
     57 C          54.0840   -0.1600   28.0570 C.2       1 ALA         0.2037
     58 O          54.6710    0.1000   29.0940 O.2       1 ALA        -0.3944
     59 CB         54.9080    1.2790   26.1640 C.3       1 ALA        -0.0244
     60 N          52.7800   -0.3790   28.0170 N.am      1 TRP        -0.2627
     61 CA         51.9480   -0.3730   29.2200 C.3       1 TRP         0.1352
     62 C          52.4560   -1.2990   30.3240 C.2       1 TRP         0.2052
     63 O          52.2160   -1.0330   31.4960 O.2       1 TRP        -0.3942
     64 CB         50.4980   -0.7320   28.8680 C.3       1 TRP         0.0042
     65 CG         50.3730   -2.0710   28.2820 C.2       1 TRP        -0.0418
     66 CD1        50.6770   -2.4380   27.0040 C.2       1 TRP         0.0167
     67 CD2        49.9460   -3.2410   28.9450 C.ar      1 TRP        -0.0214
     68 NE1        50.4650   -3.7680   26.8380 N.pl3     1 TRP        -0.2890
     69 CE2        50.0180   -4.2920   28.0160 C.ar      1 TRP         0.0603
     70 CE3        49.4970   -3.5100   30.2370 C.ar      1 TRP        -0.0747
     71 CZ2        49.6580   -5.5800   28.3300 C.ar      1 TRP        -0.0443
     72 CZ3        49.1450   -4.7800   30.5510 C.ar      1 TRP        -0.0792
     73 CH2        49.2380   -5.8090   29.6070 C.ar      1 TRP        -0.0768
     74 N          53.1490   -2.3760   29.9550 N.am      1 ARG        -0.2636
     75 CA         53.7130   -3.2790   30.9680 C.3       1 ARG         0.1311
     76 C          55.1040   -2.9110   31.4900 C.2       1 ARG         0.2039
     77 O          55.5980   -3.5620   32.3790 O.2       1 ARG        -0.3944
     78 CB         53.6570   -4.7600   30.5540 C.3       1 ARG        -0.0092
     79 CG         54.2630   -5.0890   29.2400 C.3       1 ARG        -0.0156
     80 CD         53.2170   -5.5510   28.2430 C.3       1 ARG         0.0627
     81 NE         53.3640   -6.9730   28.0300 N.pl3     1 ARG        -0.2723
     82 CZ         52.8590   -7.9090   28.8170 C.cat     1 ARG         0.2882
     83 NH1        52.1290   -7.5940   29.8730 N.pl3     1 ARG        -0.2849
     84 NH2        53.0850   -9.1940   28.5490 N.pl3     1 ARG        -0.2849
     85 N          55.6910   -1.8480   30.9700 N.am      1 CYS        -0.2629
     86 CA         56.8330   -1.1950   31.5850 C.3       1 CYS         0.1403
     87 C          56.3470   -0.1800   32.6320 C.2       1 CYS         0.2000
     88 O          57.1530    0.4820   33.2500 O.2       1 CYS        -0.3947
     89 CB         57.6800   -0.4460   30.5150 C.3       1 CYS         0.0443
     90 SG         58.0210   -1.4180   29.0080 S.3       1 CYS        -0.0882
     91 N          55.0380   -0.0210   32.7900 N.am      1 NH2        -0.2989
     92 H1         63.7210   -2.6031   21.4825 H         1 GLY         0.2012
     93 H2         62.8951   -1.4144   22.2662 H         1 GLY         0.2012
     94 H3         62.2738   -2.0822   20.8960 H         1 GLY         0.2012
     95 H4         62.7066   -3.4833   23.4504 H         1 GLY         0.1061
     96 H5         62.0286   -4.2121   21.9551 H         1 GLY         0.1061
     97 H6         60.7964   -4.3791   24.3256 H         1 CYS         0.1885
     98 H7         58.1542   -3.8620   23.8375 H         1 CYS         0.0808
     99 H8         59.5701   -3.9185   26.5464 H         1 CYS         0.0432
    100 H9         59.0572   -5.3542   25.5964 H         1 CYS         0.0432
    101 H10        60.3645   -1.7326   25.6755 H         1 CYS         0.1884
    102 H11        58.1193   -0.1439   26.5723 H         1 CYS         0.0808
    103 H12        59.7854    1.1338   27.8278 H         1 CYS         0.0432
    104 H13        61.1128    0.3191   26.9328 H         1 CYS         0.0432
    105 H14        60.0000   -0.0271   23.7703 H         1 SER         0.1884
    106 H15        59.0837    2.7675   23.2835 H         1 SER         0.0823
    107 H16        60.6219    2.8317   21.4848 H         1 SER         0.0606
    108 H17        60.6838    1.0414   21.3508 H         1 SER         0.0606
    109 H18        61.7077    1.0446   23.4185 H         1 SER         0.2097
    110 H19        57.9672   -0.3990   22.8718 H         1 ASP         0.1884
    111 H20        56.5907    0.1098   20.3012 H         1 ASP         0.0819
    112 H21        56.3739   -2.3113   22.1689 H         1 ASP         0.0478
    113 H22        57.6682   -2.1503   20.9337 H         1 ASP         0.0478
    114 H23        53.3219    1.9629   22.8400 H         1 PRO         0.0802
    115 H24        52.7944    3.2737   20.9793 H         1 PRO         0.0313
    116 H25        51.4988    2.0570   20.7189 H         1 PRO         0.0313
    117 H26        53.2178    2.4870   18.7891 H         1 PRO         0.0287
    118 H27        52.8449    0.7879   19.2372 H         1 PRO         0.0287
    119 H28        55.2228    0.8937   19.4046 H         1 PRO         0.0524
    120 H29        55.1742    2.5248   20.1557 H         1 PRO         0.0524
    121 H30        52.9645   -0.9746   20.8698 H         1 ARG         0.1883
    122 H31        50.4956   -1.8365   22.0939 H         1 ARG         0.0800
    123 H32        51.0776   -4.0337   21.0901 H         1 ARG         0.0313
    124 H33        52.6761   -3.3612   20.6219 H         1 ARG         0.0313
    125 H34        51.3812   -1.6055   19.3373 H         1 ARG         0.0301
    126 H35        49.9400   -2.6463   19.5947 H         1 ARG         0.0301
    127 H36        50.9000   -3.1455   17.4692 H         1 ARG         0.0689
    128 H37        51.1807   -4.5261   18.5835 H         1 ARG         0.0689
    129 H38        53.4526   -2.8478   18.7702 H         1 ARG         0.2642
    130 H39        53.3455   -5.0440   15.3486 H         1 ARG         0.2615
    131 H40        51.8133   -4.6578   16.1769 H         1 ARG         0.2615
    132 H41        55.3658   -3.3852   17.6637 H         1 ARG         0.2615
    133 H42        55.2816   -4.2738   16.1190 H         1 ARG         0.2615
    134 H43        53.7862   -1.9480   23.1357 H         1 CYS         0.1884
    135 H44        53.1895   -4.0926   25.1116 H         1 CYS         0.0808
    136 H45        55.9010   -3.1869   24.0476 H         1 CYS         0.0432
    137 H46        54.9214   -4.4871   23.2883 H         1 CYS         0.0432
    138 H47        54.1761   -0.7562   24.7672 H         1 ALA         0.1883
    139 H48        55.8937   -0.4706   26.9545 H         1 ALA         0.0797
    140 H49        55.2701    1.9612   26.9472 H         1 ALA         0.0277
    141 H50        53.8983    1.5832   25.8509 H         1 ALA         0.0277
    142 H51        55.5875    1.3192   25.3000 H         1 ALA         0.0277
    143 H52        52.3476   -0.5550   27.1326 H         1 TRP         0.1884
    144 H53        51.9585    0.6518   29.6195 H         1 TRP         0.0815
    145 H54        50.1183    0.0053   28.1453 H         1 TRP         0.0397
    146 H55        49.8927   -0.6915   29.7855 H         1 TRP         0.0397
    147 H56        51.0373   -1.7622   26.2298 H         1 TRP         0.0795
    148 H57        50.6166   -4.2953   25.9663 H         1 TRP         0.2216
    149 H58        49.4308   -2.7191   30.9754 H         1 TRP         0.0540
    150 H59        49.7056   -6.3771   27.5969 H         1 TRP         0.0541
    151 H60        48.7856   -5.0027   31.5492 H         1 TRP         0.0510
    152 H61        48.9683   -6.8174   29.8994 H         1 TRP         0.0530
    153 H62        53.2859   -2.5706   28.9837 H         1 ARG         0.1883
    154 H63        53.0431   -3.1841   31.8353 H         1 ARG         0.0800
    155 H64        52.5996   -5.0614   30.5223 H         1 ARG         0.0313
    156 H65        54.1822   -5.3451   31.3233 H         1 ARG         0.0313
    157 H66        55.0028   -5.8911   29.3788 H         1 ARG         0.0301
    158 H67        54.7633   -4.1933   28.8432 H         1 ARG         0.0301
    159 H68        53.3558   -5.0193   27.2901 H         1 ARG         0.0689
    160 H69        52.2124   -5.3394   28.6380 H         1 ARG         0.0689
    161 H70        53.9006   -7.2798   27.2061 H         1 ARG         0.2642
    162 H71        51.7446   -8.3372   30.4736 H         1 ARG         0.2615
    163 H72        51.9446   -6.6053   30.0953 H         1 ARG         0.2615
    164 H73        53.6517   -9.4574   27.7302 H         1 ARG         0.2615
    165 H74        52.6931   -9.9243   29.1605 H         1 ARG         0.2615
    166 H75        55.3326   -1.4760   30.1138 H         1 CYS         0.1884
    167 H76        57.4594   -1.9546   32.0755 H         1 CYS         0.0808
    168 H77        58.6421   -0.1683   30.9703 H         1 CYS         0.0432
    169 H78        57.1368    0.4644   30.2216 H         1 CYS         0.0432
    170 H79        54.6913    0.6320   33.4634 H         1 NH2         0.1815
    171 H80        54.3990   -0.5542   32.2356 H         1 NH2         0.1815
@<TRIPOS>BOND
     1    1    2 1  
     2    2    3 1  
     3    3    4 2  
     4    3    5 am 
     5    5    6 1  
     6    6    7 1  
     7    6    9 1  
     8    7    8 2  
     9    7   11 am 
    10    9   10 1  
    11   10   54 1  
    12   11   12 1  
    13   12   13 1  
    14   12   15 1  
    15   13   14 2  
    16   13   17 am 
    17   15   16 1  
    18   16   90 1  
    19   17   18 1  
    20   18   19 1  
    21   18   21 1  
    22   19   20 2  
    23   19   23 am 
    24   21   22 1  
    25   23   24 1  
    26   24   25 1  
    27   24   27 1  
    28   25   26 2  
    29   25   31 am 
    30   27   28 1  
    31   28   29 ar 
    32   28   30 ar 
    33   31   32 1  
    34   31   37 1  
    35   32   33 1  
    36   32   35 1  
    37   33   34 2  
    38   33   38 am 
    39   35   36 1  
    40   36   37 1  
    41   38   39 1  
    42   39   40 1  
    43   39   42 1  
    44   40   41 2  
    45   40   49 am 
    46   42   43 1  
    47   43   44 1  
    48   44   45 1  
    49   45   46 ar 
    50   46   47 ar 
    51   46   48 ar 
    52   49   50 1  
    53   50   51 1  
    54   50   53 1  
    55   51   52 2  
    56   51   55 am 
    57   53   54 1  
    58   55   56 1  
    59   56   57 1  
    60   56   59 1  
    61   57   58 2  
    62   57   60 am 
    63   60   61 1  
    64   61   62 1  
    65   61   64 1  
    66   62   63 2  
    67   62   74 am 
    68   64   65 1  
    69   65   66 2  
    70   65   67 1  
    71   66   68 1  
    72   67   69 ar 
    73   67   70 ar 
    74   68   69 1  
    75   69   71 ar 
    76   70   72 ar 
    77   71   73 ar 
    78   72   73 ar 
    79   74   75 1  
    80   75   76 1  
    81   75   78 1  
    82   76   77 2  
    83   76   85 am 
    84   78   79 1  
    85   79   80 1  
    86   80   81 1  
    87   81   82 ar 
    88   82   83 ar 
    89   82   84 ar 
    90   85   86 1  
    91   86   87 1  
    92   86   89 1  
    93   87   88 2  
    94   87   91 am 
    95   89   90 1  
    96    1   92 1  
    97    1   93 1  
    98    1   94 1  
    99    2   95 1  
   100    2   96 1  
   101    5   97 1  
   102    6   98 1  
   103    9   99 1  
   104    9  100 1  
   105   11  101 1  
   106   12  102 1  
   107   15  103 1  
   108   15  104 1  
   109   17  105 1  
   110   18  106 1  
   111   21  107 1  
   112   21  108 1  
   113   22  109 1  
   114   23  110 1  
   115   24  111 1  
   116   27  112 1  
   117   27  113 1  
   118   32  114 1  
   119   35  115 1  
   120   35  116 1  
   121   36  117 1  
   122   36  118 1  
   123   37  119 1  
   124   37  120 1  
   125   38  121 1  
   126   39  122 1  
   127   42  123 1  
   128   42  124 1  
   129   43  125 1  
   130   43  126 1  
   131   44  127 1  
   132   44  128 1  
   133   45  129 1  
   134   47  130 1  
   135   47  131 1  
   136   48  132 1  
   137   48  133 1  
   138   49  134 1  
   139   50  135 1  
   140   53  136 1  
   141   53  137 1  
   142   55  138 1  
   143   56  139 1  
   144   59  140 1  
   145   59  141 1  
   146   59  142 1  
   147   60  143 1  
   148   61  144 1  
   149   64  145 1  
   150   64  146 1  
   151   66  147 1  
   152   68  148 1  
   153   70  149 1  
   154   71  150 1  
   155   72  151 1  
   156   73  152 1  
   157   74  153 1  
   158   75  154 1  
   159   78  155 1  
   160   78  156 1  
   161   79  157 1  
   162   79  158 1  
   163   80  159 1  
   164   80  160 1  
   165   81  161 1  
   166   83  162 1  
   167   83  163 1  
   168   84  164 1  
   169   84  165 1  
   170   85  166 1  
   171   86  167 1  
   172   89  168 1  
   173   89  169 1  
   174   91  170 1  
   175   91  171 1  
@<TRIPOS>SUBSTRUCTURE
     1 GLY         1

