4bio_ligand
  -I-interpret- 

 21 22  0  0  0  0  0  0  0  0999 V2000
  -24.2940   17.5090   -9.0240 O   0  0  0  0  0
  -25.3220   17.3430   -7.1250 O   0  0  0  0  0
  -26.3440   23.3650   -8.3210 O   0  0  0  0  0
  -25.6700   20.1870   -4.6120 C   0  0  0  0  0
  -26.0160   21.5300   -4.7030 C   0  0  0  0  0
  -25.7690   21.3420   -9.4910 C   0  0  0  0  0
  -25.4220   19.9980   -9.4160 C   0  0  0  0  0
  -25.4340   19.4630   -5.7740 C   0  0  0  0  0
  -26.1230   22.1400   -5.9590 N   0  0  0  0  0
  -24.9640   18.0310   -8.1060 C   0  0  0  0  0
  -26.0010   22.0480   -8.3190 C   0  0  0  0  0
  -25.3110   19.3750   -8.1770 C   0  0  0  0  0
  -25.5460   20.0920   -7.0080 C   0  0  0  0  0
  -25.8930   21.4360   -7.0770 C   0  0  0  0  0
  -24.1037   18.1689   -9.6947 H   0  0  0  0  0
  -26.4595   23.6658   -7.4167 H   0  0  0  0  0
  -25.5846   19.7060   -3.6376 H   0  0  0  0  0
  -26.2038   22.1077   -3.7980 H   0  0  0  0  0
  -25.8578   21.8355  -10.4588 H   0  0  0  0  0
  -25.2367   19.4317  -10.3287 H   0  0  0  0  0
  -25.1628   18.4088   -5.7181 H   0  0  0  0  0
 10  1  1  0  0  0
 10  2  2  0  0  0
 11  3  1  0  0  0
  5  4  4  0  0  0
  4  8  4  0  0  0
  9  5  4  0  0  0
  6  7  4  0  0  0
 11  6  4  0  0  0
  7 12  4  0  0  0
  8 13  4  0  0  0
 14  9  4  0  0  0
 12 10  1  0  0  0
 11 14  4  0  0  0
 12 13  4  0  0  0
 13 14  4  0  0  0
  1 15  1  0  0  0
  3 16  1  0  0  0
  4 17  1  0  0  0
  5 18  1  0  0  0
  6 19  1  0  0  0
  7 20  1  0  0  0
  8 21  1  0  0  0
M  END
$$$$
