### 
### Created by X-TOOL on Mon Sep 10 21:12:50 2018
### 

@<TRIPOS>MOLECULE
1iwq_ligand
  292   296     1     0     0
SMALL
GAST_HUCK


@<TRIPOS>ATOM
      1 N          15.8280   28.8120  101.1530 N.4       1 LYS         0.2377
      2 CA         16.7090   28.1470  100.1570 C.3       1 LYS         0.0621
      3 C          16.3120   28.6640   98.7920 C.2       1 LYS         0.2264
      4 O          15.1420   28.6030   98.4230 O.2       1 LYS        -0.3907
      5 CB         16.5600   26.6110  100.2170 C.3       1 LYS        -0.0040
      6 N          17.2590   29.3010   98.1220 N.am      1 LYS        -0.2613
      7 CA         17.1010   29.7280   96.7440 C.3       1 LYS         0.1283
      8 C          16.7500   28.6190   95.7310 C.2       1 LYS         0.2036
      9 O          17.4580   27.6120   95.6090 O.2       1 LYS        -0.3944
     10 CB         18.3830   30.4450   96.2880 C.3       1 LYS        -0.0244
     11 N          15.6670   28.8430   94.9840 N.am      1 ARG        -0.2640
     12 CA         15.2320   27.9390   93.9130 C.3       1 ARG         0.1282
     13 C          15.0630   28.7620   92.6140 C.2       1 ARG         0.2037
     14 O          14.3620   29.7840   92.5740 O.2       1 ARG        -0.3944
     15 CB         13.9540   27.2210   94.3030 C.3       1 ARG        -0.0244
     16 N          15.7540   28.3380   91.5590 N.am      1 PHE        -0.2619
     17 CA         15.6600   29.0230   90.2720 C.3       1 PHE         0.1404
     18 C          14.2240   29.0040   89.7240 C.2       1 PHE         0.2060
     19 O          13.6100   27.9530   89.6670 O.2       1 PHE        -0.3942
     20 CB         16.5780   28.3630   89.2330 C.3       1 PHE         0.0214
     21 CG         16.5710   29.0740   87.9110 C.ar      1 PHE        -0.0386
     22 CD1        17.1500   30.3330   87.7980 C.ar      1 PHE        -0.0601
     23 CD2        15.9520   28.5160   86.7980 C.ar      1 PHE        -0.0601
     24 CE1        17.1230   31.0260   86.5860 C.ar      1 PHE        -0.0686
     25 CE2        15.9240   29.1930   85.5910 C.ar      1 PHE        -0.0686
     26 CZ         16.5070   30.4630   85.4840 C.ar      1 PHE        -0.0687
     27 N          13.7220   30.1630   89.2940 N.am      1 SER        -0.2614
     28 CA         12.3560   30.3150   88.7470 C.3       1 SER         0.1539
     29 C          11.3270   30.5250   89.8840 C.2       1 SER         0.2063
     30 O          10.1520   30.6940   89.6070 O.2       1 SER        -0.3943
     31 CB         11.9500   29.1250   87.8560 C.3       1 SER         0.0843
     32 OG         11.2910   28.0900   88.5650 O.3       1 SER        -0.3903
     33 N          11.8050   30.4920   91.1400 N.am      1 PHE        -0.2619
     34 CA         10.9890   30.6910   92.3390 C.3       1 PHE         0.1404
     35 C          11.4580   31.9160   93.1170 C.2       1 PHE         0.2060
     36 O          12.6410   32.1960   93.1890 O.2       1 PHE        -0.3942
     37 CB         11.0910   29.4860   93.2850 C.3       1 PHE         0.0214
     38 CG         10.4730   28.2260   92.7410 C.ar      1 PHE        -0.0386
     39 CD1        11.1300   27.4900   91.7720 C.ar      1 PHE        -0.0601
     40 CD2         9.2530   27.7710   93.2140 C.ar      1 PHE        -0.0601
     41 CE1        10.5710   26.3410   91.2650 C.ar      1 PHE        -0.0686
     42 CE2         8.6970   26.6190   92.7210 C.ar      1 PHE        -0.0686
     43 CZ          9.3660   25.8920   91.7370 C.ar      1 PHE        -0.0687
     44 N          10.5190   32.6040   93.7490 N.am      1 LYS        -0.2636
     45 CA         10.8310   33.7930   94.5150 C.3       1 LYS         0.1310
     46 C           9.8250   33.9990   95.6450 C.2       1 LYS         0.2039
     47 O           8.6020   34.0650   95.4090 O.2       1 LYS        -0.3944
     48 CB         10.8160   35.0000   93.5900 C.3       1 LYS        -0.0122
     49 CG         11.4690   36.2450   94.1740 C.3       1 LYS        -0.0440
     50 CD         10.4600   37.1590   94.8130 C.3       1 LYS        -0.0124
     51 CE         10.9510   38.5710   95.0300 C.3       1 LYS        -0.0354
     52 NZ          9.7780   39.3420   95.5690 N.4       1 LYS         0.2185
     53 N          10.3200   34.1250   96.8660 N.am      1 LYS        -0.2637
     54 CA          9.4190   34.3260   98.0000 C.3       1 LYS         0.1310
     55 C           8.9470   35.7670   98.1460 C.2       1 LYS         0.2040
     56 O           9.7310   36.6560   98.3940 O.2       1 LYS        -0.3944
     57 CB         10.0590   33.8210   99.2840 C.3       1 LYS        -0.0122
     58 CG         10.5500   32.4200   99.1190 C.3       1 LYS        -0.0440
     59 CD         10.8500   31.7500  100.3960 C.3       1 LYS        -0.0124
     60 CE         11.3340   30.3380  100.1280 C.3       1 LYS        -0.0354
     61 NZ         12.6260   30.3460   99.3540 N.4       1 LYS         0.2185
     62 N           7.6570   35.9880   98.0010 N.am      1 SER        -0.2616
     63 CA          7.0980   37.3150   98.1300 C.3       1 SER         0.1539
     64 C           6.3260   37.4430   99.4280 C.2       1 SER         0.2063
     65 O           5.5520   36.5690   99.7830 O.2       1 SER        -0.3943
     66 CB          6.1660   37.6380   96.9750 C.3       1 SER         0.0843
     67 OG          5.2480   38.6830   97.3090 O.3       1 SER        -0.3903
     68 N           6.5460   38.5530  100.1170 N.am      1 PHE        -0.2619
     69 CA          5.8260   38.8560  101.3400 C.3       1 PHE         0.1404
     70 C           4.3530   39.0930  100.9770 C.2       1 PHE         0.2060
     71 O           3.4600   38.5220  101.5950 O.2       1 PHE        -0.3942
     72 CB          6.3920   40.1200  101.9860 C.3       1 PHE         0.0214
     73 CG          6.1380   40.2280  103.4800 C.ar      1 PHE        -0.0386
     74 CD1         5.2940   39.3490  104.1430 C.ar      1 PHE        -0.0601
     75 CD2         6.7550   41.1950  104.1980 C.ar      1 PHE        -0.0601
     76 CE1         5.0510   39.4470  105.4880 C.ar      1 PHE        -0.0686
     77 CE2         6.5370   41.3050  105.5580 C.ar      1 PHE        -0.0686
     78 CZ          5.6810   40.4090  106.2070 C.ar      1 PHE        -0.0687
     79 N           4.1420   39.9040   99.9370 N.am      1 LYS        -0.2636
     80 CA          2.8120   40.2860   99.4680 C.3       1 LYS         0.1310
     81 C           1.9310   39.1130   99.2090 C.2       1 LYS         0.2039
     82 O           0.8810   38.9810   99.8330 O.2       1 LYS        -0.3944
     83 CB          2.8960   41.1110   98.1850 C.3       1 LYS        -0.0122
     84 CG          1.5270   41.4530   97.6260 C.3       1 LYS        -0.0440
     85 CD          1.6620   42.3500   96.3940 C.3       1 LYS        -0.0124
     86 CE          0.3030   42.6000   95.7250 C.3       1 LYS        -0.0354
     87 NZ          0.4720   43.4420   94.4990 N.4       1 LYS         0.2185
     88 N           2.3390   38.2780   98.2600 N.am      1 LEU        -0.2637
     89 CA          1.5880   37.0810   97.9270 C.3       1 LEU         0.1312
     90 C           1.4490   36.1810   99.1550 C.2       1 LEU         0.2040
     91 O           0.4310   35.5220   99.3320 O.2       1 LEU        -0.3944
     92 CB          2.2760   36.3070   96.7900 C.3       1 LEU        -0.0101
     93 CG          2.2720   37.0030   95.4510 C.3       1 LEU        -0.0425
     94 CD1         2.7510   36.0240   94.4200 C.3       1 LEU        -0.0625
     95 CD2         0.8630   37.4780   95.1130 C.3       1 LEU        -0.0625
     96 N           2.4560   36.1540  100.0190 N.am      1 SER        -0.2616
     97 CA          2.3670   35.3430  101.2300 C.3       1 SER         0.1539
     98 C           1.2940   35.9480  102.1830 C.2       1 SER         0.2060
     99 O           0.6490   35.2530  102.9560 O.2       1 SER        -0.3943
    100 CB          3.7330   35.3210  101.9500 C.3       1 SER         0.0843
    101 OG          4.7460   34.5660  101.2560 O.3       1 SER        -0.3903
    102 N           1.1700   37.2650  102.1660 N.am      1 GLY        -0.2663
    103 CA          0.1960   37.9210  103.0140 C.3       1 GLY         0.1201
    104 C          -1.1950   37.4580  102.5770 C.2       1 GLY         0.2009
    105 O          -1.9520   36.8760  103.3490 O.2       1 GLY        -0.3947
    106 N          -1.5060   37.6750  101.3060 N.am      1 PHE        -0.2622
    107 CA         -2.8200   37.2710  100.7740 C.3       1 PHE         0.1404
    108 C          -3.0710   35.7930  101.0310 C.2       1 PHE         0.2060
    109 O          -4.1930   35.3890  101.3220 O.2       1 PHE        -0.3942
    110 CB         -2.9210   37.5840   99.2880 C.3       1 PHE         0.0214
    111 CG         -3.1160   39.0350   99.0000 C.ar      1 PHE        -0.0386
    112 CD1        -2.0440   39.8270   98.6640 C.ar      1 PHE        -0.0601
    113 CD2        -4.3770   39.6080   99.0900 C.ar      1 PHE        -0.0601
    114 CE1        -2.2100   41.1660   98.4100 C.ar      1 PHE        -0.0686
    115 CE2        -4.5610   40.9440   98.8360 C.ar      1 PHE        -0.0686
    116 CZ         -3.4740   41.7280   98.4940 C.ar      1 PHE        -0.0687
    117 N          -2.0080   34.9900  100.9800 N.am      1 SER        -0.2614
    118 CA         -2.1310   33.5480  101.1830 C.3       1 SER         0.1539
    119 C          -2.5300   33.2720  102.6120 C.2       1 SER         0.2063
    120 O          -2.9620   32.1600  102.9520 O.2       1 SER        -0.3943
    121 CB         -0.7920   32.8300  100.8710 C.3       1 SER         0.0843
    122 OG         -0.3800   33.0180   99.5360 O.3       1 SER        -0.3903
    123 N          -2.3610   34.2750  103.4680 N.am      1 PHE        -0.2619
    124 CA         -2.6740   34.1280  104.8810 C.3       1 PHE         0.1404
    125 C          -3.8080   35.0490  105.3340 C.2       1 PHE         0.2060
    126 O          -4.0320   36.1200  104.7630 O.2       1 PHE        -0.3942
    127 CB         -1.4330   34.4180  105.7240 C.3       1 PHE         0.0214
    128 CG         -0.1830   33.7660  105.2150 C.ar      1 PHE        -0.0386
    129 CD1         1.0520   34.1370  105.7280 C.ar      1 PHE        -0.0601
    130 CD2        -0.2260   32.7810  104.2340 C.ar      1 PHE        -0.0601
    131 CE1         2.2220   33.5500  105.2760 C.ar      1 PHE        -0.0686
    132 CE2         0.9400   32.1870  103.7740 C.ar      1 PHE        -0.0686
    133 CZ          2.1660   32.5780  104.2990 C.ar      1 PHE        -0.0687
    134 N          -4.5040   34.6370  106.3850 N.am      1 LYS        -0.2622
    135 CA         -5.6130   35.4250  106.9120 C.3       1 LYS         0.1420
    136 C          -5.3890   35.7390  108.3630 C.2       1 LYS         0.2571
    137 O          -5.8560   36.8050  108.7580 O.2       1 LYS        -0.3680
    138 CB         -6.9680   34.7020  106.7480 C.3       1 LYS        -0.0109
    139 CG         -8.1890   35.5240  107.2530 C.3       1 LYS        -0.0439
    140 CD         -9.5440   34.9090  106.8700 C.3       1 LYS        -0.0124
    141 CE        -10.1100   34.0100  107.9680 C.3       1 LYS        -0.0354
    142 NZ        -10.7830   34.7300  109.1110 N.4       1 LYS         0.2185
    143 O1         -4.7267   34.9152  109.1703 O.3       1 LYS        -0.2910
    144 H1         16.0647   28.4904  102.0785 H         1 LYS         0.2015
    145 H2         14.8659   28.5859  100.9546 H         1 LYS         0.2015
    146 H3         15.9561   29.8105  101.1013 H         1 LYS         0.2015
    147 H4         17.7573   28.4103  100.3611 H         1 LYS         0.1095
    148 H5         17.2226   26.1489   99.4704 H         1 LYS         0.0310
    149 H6         15.5170   26.3351  100.0023 H         1 LYS         0.0310
    150 H7         16.8343   26.2549  101.2210 H         1 LYS         0.0310
    151 H8         18.1227   29.4970   98.5864 H         1 LYS         0.1884
    152 H9         16.2741   30.4532   96.7251 H         1 LYS         0.0797
    153 H10        18.2690   30.7711   95.2436 H         1 LYS         0.0277
    154 H11        19.2363   29.7552   96.3656 H         1 LYS         0.0277
    155 H12        18.5605   31.3215   96.9285 H         1 LYS         0.0277
    156 H13        15.1267   29.6653   95.1624 H         1 ARG         0.1883
    157 H14        16.0130   27.1821   93.7485 H         1 ARG         0.0797
    158 H15        13.6468   26.5501   93.4872 H         1 ARG         0.0277
    159 H16        13.1604   27.9597   94.4886 H         1 ARG         0.0277
    160 H17        14.1280   26.6325   95.2159 H         1 ARG         0.0277
    161 H18        16.3471   27.5378   91.6484 H         1 PHE         0.1885
    162 H19        15.9724   30.0682   90.4132 H         1 PHE         0.0823
    163 H20        16.2426   27.3272   89.0760 H         1 PHE         0.0474
    164 H21        17.6060   28.3603   89.6244 H         1 PHE         0.0474
    165 H22        17.6281   30.7820   88.6611 H         1 PHE         0.0557
    166 H23        15.4863   27.5403   86.8764 H         1 PHE         0.0557
    167 H24        17.5844   32.0039   86.5094 H         1 PHE         0.0599
    168 H25        15.4505   28.7403   84.7273 H         1 PHE         0.0599
    169 H26        16.4751   31.0003   84.5431 H         1 PHE         0.0559
    170 H27        14.3026   30.9757   89.3444 H         1 SER         0.1884
    171 H28        12.3501   31.2172   88.1177 H         1 SER         0.0823
    172 H29        12.8580   28.7086   87.3953 H         1 SER         0.0606
    173 H30        11.2752   29.4929   87.0691 H         1 SER         0.0606
    174 H31        11.8665   27.7561   89.2431 H         1 SER         0.2097
    175 H32        12.7824   30.3202   91.2634 H         1 PHE         0.1885
    176 H33         9.9412   30.8290   92.0339 H         1 PHE         0.0823
    177 H34        10.5831   29.7416   94.2266 H         1 PHE         0.0474
    178 H35        12.1553   29.2913   93.4835 H         1 PHE         0.0474
    179 H36        12.0956   27.8225   91.4085 H         1 PHE         0.0557
    180 H37         8.7326   28.3318   93.9820 H         1 PHE         0.0557
    181 H38        11.0861   25.7877   90.4881 H         1 PHE         0.0599
    182 H39         7.7398   26.2742   93.0951 H         1 PHE         0.0599
    183 H40         8.9350   24.9767   91.3478 H         1 PHE         0.0559
    184 H41         9.5696   32.2943   93.6959 H         1 LYS         0.1883
    185 H42        11.8353   33.6833   94.9502 H         1 LYS         0.0800
    186 H43         9.7689   35.2393   93.3528 H         1 LYS         0.0312
    187 H44        11.3494   34.7325   92.6659 H         1 LYS         0.0312
    188 H45        11.9817   36.7895   93.3674 H         1 LYS         0.0269
    189 H46        12.2030   35.9387   94.9339 H         1 LYS         0.0269
    190 H47        10.1825   36.7367   95.7900 H         1 LYS         0.0317
    191 H48         9.5720   37.1987   94.1651 H         1 LYS         0.0317
    192 H49        11.2904   39.0076   94.0791 H         1 LYS         0.0813
    193 H50        11.7791   38.5802   95.7540 H         1 LYS         0.0813
    194 H51        10.0513   40.2982   95.7332 H         1 LYS         0.1994
    195 H52         9.4721   38.9266   96.4350 H         1 LYS         0.1994
    196 H53         9.0243   39.3182   94.9002 H         1 LYS         0.1994
    197 H54        11.3083   34.0828   97.0127 H         1 LYS         0.1883
    198 H55         8.5243   33.7137   97.8141 H         1 LYS         0.0800
    199 H56         9.3141   33.8487  100.0929 H         1 LYS         0.0312
    200 H57        10.9070   34.4716   99.5439 H         1 LYS         0.0312
    201 H58        11.4676   32.4414   98.5128 H         1 LYS         0.0269
    202 H59         9.7771   31.8394   98.5940 H         1 LYS         0.0269
    203 H60         9.9402   31.7142  101.0133 H         1 LYS         0.0317
    204 H61        11.6326   32.3104  100.9285 H         1 LYS         0.0317
    205 H62        10.5703   29.8006   99.5468 H         1 LYS         0.0813
    206 H63        11.4932   29.8245  101.0876 H         1 LYS         0.0813
    207 H64        12.9250   29.3975   99.1896 H         1 LYS         0.1994
    208 H65        13.3317   30.8338   99.8832 H         1 LYS         0.1994
    209 H66        12.4860   30.8119   98.4712 H         1 LYS         0.1994
    210 H67         7.0499   35.2200   97.7969 H         1 SER         0.1884
    211 H68         7.9240   38.0415   98.1325 H         1 SER         0.0823
    212 H69         5.5965   36.7340   96.7136 H         1 SER         0.0606
    213 H70         6.7673   37.9554   96.1103 H         1 SER         0.0606
    214 H71         4.6834   38.8568   96.5650 H         1 SER         0.2097
    215 H72         7.2296   39.2024   99.7839 H         1 PHE         0.1885
    216 H73         5.9106   38.0131  102.0416 H         1 PHE         0.0823
    217 H74         5.9346   40.9918  101.4953 H         1 PHE         0.0474
    218 H75         7.4793   40.1342  101.8199 H         1 PHE         0.0474
    219 H76         4.8112   38.5592  103.5789 H         1 PHE         0.0557
    220 H77         7.4251   41.8883  103.7026 H         1 PHE         0.0557
    221 H78         4.3629   38.7633  105.9719 H         1 PHE         0.0599
    222 H79         7.0304   42.0874  106.1233 H         1 PHE         0.0599
    223 H80         5.5224   40.4830  107.2768 H         1 PHE         0.0559
    224 H81         4.9372   40.2695   99.4532 H         1 LYS         0.1883
    225 H82         2.3454   40.9014  100.2513 H         1 LYS         0.0800
    226 H83         3.4517   40.5350   97.4304 H         1 LYS         0.0312
    227 H84         3.4330   42.0464   98.4011 H         1 LYS         0.0312
    228 H85         0.9428   41.9794   98.3951 H         1 LYS         0.0269
    229 H86         1.0089   40.5248   97.3433 H         1 LYS         0.0269
    230 H87         2.3321   41.8635   95.6699 H         1 LYS         0.0317
    231 H88         2.0918   43.3150   96.7005 H         1 LYS         0.0317
    232 H89        -0.3594   43.1196   96.4330 H         1 LYS         0.0813
    233 H90        -0.1453   41.6358   95.4434 H         1 LYS         0.0813
    234 H91        -0.4275   43.5973   94.0715 H         1 LYS         0.1994
    235 H92         1.0767   42.9680   93.8466 H         1 LYS         0.1994
    236 H93         0.8805   44.3277   94.7533 H         1 LYS         0.1994
    237 H94         3.1834   38.4786   97.7632 H         1 LEU         0.1883
    238 H95         0.5836   37.3797   97.5924 H         1 LEU         0.0800
    239 H96         1.7615   35.3417   96.6743 H         1 LEU         0.0315
    240 H97         3.3224   36.1323   97.0806 H         1 LEU         0.0315
    241 H98         2.9490   37.8694   95.4814 H         1 LEU         0.0298
    242 H99         2.7580   36.5066   93.4315 H         1 LEU         0.0232
    243 H100        2.0773   35.1547   94.3989 H         1 LEU         0.0232
    244 H101        3.7689   35.6930   94.6736 H         1 LEU         0.0232
    245 H102        0.5247   38.1944   95.8761 H         1 LEU         0.0232
    246 H103        0.1806   36.6156   95.0916 H         1 LEU         0.0232
    247 H104        0.8673   37.9668   94.1276 H         1 LEU         0.0232
    248 H105        3.2798   36.6917   99.8398 H         1 SER         0.1884
    249 H106        2.0801   34.3160  100.9601 H         1 SER         0.0823
    250 H107        3.5923   34.8775  102.9467 H         1 SER         0.0606
    251 H108        4.0854   36.3576  102.0563 H         1 SER         0.0606
    252 H109        4.8867   34.9433  100.3955 H         1 SER         0.2097
    253 H110        1.7524   37.8111  101.5639 H         1 GLY         0.1881
    254 H111        0.2786   39.0123  102.9032 H         1 GLY         0.0763
    255 H112        0.3689   37.6449  104.0647 H         1 GLY         0.0763
    256 H113       -0.8424   38.1171  100.7026 H         1 PHE         0.1885
    257 H114       -3.5954   37.8477  101.2996 H         1 PHE         0.0823
    258 H115       -3.7741   37.0282   98.8718 H         1 PHE         0.0474
    259 H116       -1.9935   37.2529   98.7981 H         1 PHE         0.0474
    260 H117       -1.0547   39.3887   98.5987 H         1 PHE         0.0557
    261 H118       -5.2265   38.9929   99.3642 H         1 PHE         0.0557
    262 H119       -1.3570   41.7803   98.1452 H         1 PHE         0.0599
    263 H120       -5.5505   41.3815   98.9029 H         1 PHE         0.0599
    264 H121       -3.6111   42.7840   98.2913 H         1 PHE         0.0559
    265 H122       -1.1065   35.3831  100.7988 H         1 SER         0.1884
    266 H123       -2.9089   33.1588  100.5097 H         1 SER         0.0823
    267 H124       -0.9179   31.7526  101.0534 H         1 SER         0.0606
    268 H125       -0.0141   33.2267  101.5400 H         1 SER         0.0606
    269 H126       -0.2617   33.9459   99.3700 H         1 SER         0.2097
    270 H127       -2.0110   35.1499  103.1332 H         1 PHE         0.1885
    271 H128       -2.9852   33.0873  105.0546 H         1 PHE         0.0823
    272 H129       -1.6183   34.0587  106.7470 H         1 PHE         0.0474
    273 H130       -1.2730   35.5062  105.7408 H         1 PHE         0.0474
    274 H131        1.1017   34.9000  106.4964 H         1 PHE         0.0557
    275 H132       -1.1815   32.4741  103.8243 H         1 PHE         0.0557
    276 H133        3.1777   33.8531  105.6882 H         1 PHE         0.0599
    277 H134        0.8952   31.4210  103.0083 H         1 PHE         0.0599
    278 H135        3.0797   32.1183  103.9401 H         1 PHE         0.0559
    279 H136       -4.2645   33.7710  106.8240 H         1 LYS         0.1885
    280 H137       -5.6565   36.3703  106.3512 H         1 LYS         0.0816
    281 H138       -6.9278   33.7594  107.3136 H         1 LYS         0.0313
    282 H139       -7.1162   34.4830  105.6803 H         1 LYS         0.0313
    283 H140       -8.1310   36.5341  106.8214 H         1 LYS         0.0269
    284 H141       -8.1344   35.5901  108.3496 H         1 LYS         0.0269
    285 H142       -9.4141   34.3105  105.9562 H         1 LYS         0.0317
    286 H143      -10.2587   35.7226  106.6770 H         1 LYS         0.0317
    287 H144       -9.2813   33.4166  108.3816 H         1 LYS         0.0813
    288 H145      -10.8491   33.3373  107.5085 H         1 LYS         0.0813
    289 H146      -11.1214   34.0561  109.7799 H         1 LYS         0.1994
    290 H147      -11.5569   35.2710  108.7582 H         1 LYS         0.1994
    291 H148      -10.1202   35.3437  109.5584 H         1 LYS         0.1994
    292 H149       -5.2952   34.6465  109.8825 H         1 LYS         0.2540
@<TRIPOS>BOND
     1    2    1 1  
     2    2    5 1  
     3    3    2 1  
     4    3    4 2  
     5    7    6 1  
     6    7   10 1  
     7    8    7 1  
     8    8    9 2  
     9    6    3 am 
    10   12   11 1  
    11   12   15 1  
    12   13   12 1  
    13   13   14 2  
    14   11    8 am 
    15   17   16 1  
    16   17   20 1  
    17   18   17 1  
    18   18   19 2  
    19   20   21 1  
    20   21   22 ar 
    21   21   23 ar 
    22   23   25 ar 
    23   25   26 ar 
    24   24   26 ar 
    25   22   24 ar 
    26   16   13 am 
    27   28   27 1  
    28   28   31 1  
    29   29   28 1  
    30   29   30 2  
    31   31   32 1  
    32   27   18 am 
    33   34   33 1  
    34   34   37 1  
    35   35   34 1  
    36   35   36 2  
    37   37   38 1  
    38   38   39 ar 
    39   38   40 ar 
    40   40   42 ar 
    41   42   43 ar 
    42   41   43 ar 
    43   39   41 ar 
    44   33   29 am 
    45   45   44 1  
    46   45   48 1  
    47   46   45 1  
    48   46   47 2  
    49   48   49 1  
    50   49   50 1  
    51   50   51 1  
    52   51   52 1  
    53   44   35 am 
    54   54   53 1  
    55   54   57 1  
    56   55   54 1  
    57   55   56 2  
    58   57   58 1  
    59   58   59 1  
    60   59   60 1  
    61   60   61 1  
    62   53   46 am 
    63   63   62 1  
    64   63   66 1  
    65   64   63 1  
    66   64   65 2  
    67   66   67 1  
    68   62   55 am 
    69   69   68 1  
    70   69   72 1  
    71   70   69 1  
    72   70   71 2  
    73   72   73 1  
    74   73   74 ar 
    75   73   75 ar 
    76   75   77 ar 
    77   77   78 ar 
    78   76   78 ar 
    79   74   76 ar 
    80   68   64 am 
    81   80   79 1  
    82   80   83 1  
    83   81   80 1  
    84   81   82 2  
    85   83   84 1  
    86   84   85 1  
    87   85   86 1  
    88   86   87 1  
    89   79   70 am 
    90   89   88 1  
    91   89   92 1  
    92   90   89 1  
    93   90   91 2  
    94   92   93 1  
    95   93   94 1  
    96   93   95 1  
    97   88   81 am 
    98   97   96 1  
    99   97  100 1  
   100   98   97 1  
   101   98   99 2  
   102  100  101 1  
   103   96   90 am 
   104  103  102 1  
   105  104  103 1  
   106  104  105 2  
   107  102   98 am 
   108  107  106 1  
   109  107  110 1  
   110  108  107 1  
   111  108  109 2  
   112  110  111 1  
   113  111  112 ar 
   114  111  113 ar 
   115  113  115 ar 
   116  115  116 ar 
   117  114  116 ar 
   118  112  114 ar 
   119  106  104 am 
   120  118  117 1  
   121  118  121 1  
   122  119  118 1  
   123  119  120 2  
   124  121  122 1  
   125  117  108 am 
   126  124  123 1  
   127  124  127 1  
   128  125  124 1  
   129  125  126 2  
   130  127  128 1  
   131  128  129 ar 
   132  128  130 ar 
   133  130  132 ar 
   134  132  133 ar 
   135  131  133 ar 
   136  129  131 ar 
   137  123  119 am 
   138  134  135 1  
   139  135  138 1  
   140  135  136 1  
   141  136  137 2  
   142  138  139 1  
   143  139  140 1  
   144  140  141 1  
   145  141  142 1  
   146  125  134 am 
   147  136  143 1  
   148    1  144 1  
   149    1  145 1  
   150    1  146 1  
   151    2  147 1  
   152    5  148 1  
   153    5  149 1  
   154    5  150 1  
   155    6  151 1  
   156    7  152 1  
   157   10  153 1  
   158   10  154 1  
   159   10  155 1  
   160   11  156 1  
   161   12  157 1  
   162   15  158 1  
   163   15  159 1  
   164   15  160 1  
   165   16  161 1  
   166   17  162 1  
   167   20  163 1  
   168   20  164 1  
   169   22  165 1  
   170   23  166 1  
   171   24  167 1  
   172   25  168 1  
   173   26  169 1  
   174   27  170 1  
   175   28  171 1  
   176   31  172 1  
   177   31  173 1  
   178   32  174 1  
   179   33  175 1  
   180   34  176 1  
   181   37  177 1  
   182   37  178 1  
   183   39  179 1  
   184   40  180 1  
   185   41  181 1  
   186   42  182 1  
   187   43  183 1  
   188   44  184 1  
   189   45  185 1  
   190   48  186 1  
   191   48  187 1  
   192   49  188 1  
   193   49  189 1  
   194   50  190 1  
   195   50  191 1  
   196   51  192 1  
   197   51  193 1  
   198   52  194 1  
   199   52  195 1  
   200   52  196 1  
   201   53  197 1  
   202   54  198 1  
   203   57  199 1  
   204   57  200 1  
   205   58  201 1  
   206   58  202 1  
   207   59  203 1  
   208   59  204 1  
   209   60  205 1  
   210   60  206 1  
   211   61  207 1  
   212   61  208 1  
   213   61  209 1  
   214   62  210 1  
   215   63  211 1  
   216   66  212 1  
   217   66  213 1  
   218   67  214 1  
   219   68  215 1  
   220   69  216 1  
   221   72  217 1  
   222   72  218 1  
   223   74  219 1  
   224   75  220 1  
   225   76  221 1  
   226   77  222 1  
   227   78  223 1  
   228   79  224 1  
   229   80  225 1  
   230   83  226 1  
   231   83  227 1  
   232   84  228 1  
   233   84  229 1  
   234   85  230 1  
   235   85  231 1  
   236   86  232 1  
   237   86  233 1  
   238   87  234 1  
   239   87  235 1  
   240   87  236 1  
   241   88  237 1  
   242   89  238 1  
   243   92  239 1  
   244   92  240 1  
   245   93  241 1  
   246   94  242 1  
   247   94  243 1  
   248   94  244 1  
   249   95  245 1  
   250   95  246 1  
   251   95  247 1  
   252   96  248 1  
   253   97  249 1  
   254  100  250 1  
   255  100  251 1  
   256  101  252 1  
   257  102  253 1  
   258  103  254 1  
   259  103  255 1  
   260  106  256 1  
   261  107  257 1  
   262  110  258 1  
   263  110  259 1  
   264  112  260 1  
   265  113  261 1  
   266  114  262 1  
   267  115  263 1  
   268  116  264 1  
   269  117  265 1  
   270  118  266 1  
   271  121  267 1  
   272  121  268 1  
   273  122  269 1  
   274  123  270 1  
   275  124  271 1  
   276  127  272 1  
   277  127  273 1  
   278  129  274 1  
   279  130  275 1  
   280  131  276 1  
   281  132  277 1  
   282  133  278 1  
   283  134  279 1  
   284  135  280 1  
   285  138  281 1  
   286  138  282 1  
   287  139  283 1  
   288  139  284 1  
   289  140  285 1  
   290  140  286 1  
   291  141  287 1  
   292  141  288 1  
   293  142  289 1  
   294  142  290 1  
   295  142  291 1  
   296  143  292 1  
@<TRIPOS>SUBSTRUCTURE
     1 LYS         1

