1iwq_ligand
  -I-interpret- 

292296  0  0  0  0  0  0  0  0999 V2000
   15.8280   28.8120  101.1530 N   0  3  0  0  0
   16.7090   28.1470  100.1570 C   0  0  0  0  0
   16.3120   28.6640   98.7920 C   0  0  0  0  0
   15.1420   28.6030   98.4230 O   0  0  0  0  0
   16.5600   26.6110  100.2170 C   0  0  0  0  0
   17.2590   29.3010   98.1220 N   0  0  0  0  0
   17.1010   29.7280   96.7440 C   0  0  0  0  0
   16.7500   28.6190   95.7310 C   0  0  0  0  0
   17.4580   27.6120   95.6090 O   0  0  0  0  0
   18.3830   30.4450   96.2880 C   0  0  0  0  0
   15.6670   28.8430   94.9840 N   0  0  0  0  0
   15.2320   27.9390   93.9130 C   0  0  0  0  0
   15.0630   28.7620   92.6140 C   0  0  0  0  0
   14.3620   29.7840   92.5740 O   0  0  0  0  0
   13.9540   27.2210   94.3030 C   0  0  0  0  0
   15.7540   28.3380   91.5590 N   0  0  0  0  0
   15.6600   29.0230   90.2720 C   0  0  0  0  0
   14.2240   29.0040   89.7240 C   0  0  0  0  0
   13.6100   27.9530   89.6670 O   0  0  0  0  0
   16.5780   28.3630   89.2330 C   0  0  0  0  0
   16.5710   29.0740   87.9110 C   0  0  0  0  0
   17.1500   30.3330   87.7980 C   0  0  0  0  0
   15.9520   28.5160   86.7980 C   0  0  0  0  0
   17.1230   31.0260   86.5860 C   0  0  0  0  0
   15.9240   29.1930   85.5910 C   0  0  0  0  0
   16.5070   30.4630   85.4840 C   0  0  0  0  0
   13.7220   30.1630   89.2940 N   0  0  0  0  0
   12.3560   30.3150   88.7470 C   0  0  0  0  0
   11.3270   30.5250   89.8840 C   0  0  0  0  0
   10.1520   30.6940   89.6070 O   0  0  0  0  0
   11.9500   29.1250   87.8560 C   0  0  0  0  0
   11.2910   28.0900   88.5650 O   0  0  0  0  0
   11.8050   30.4920   91.1400 N   0  0  0  0  0
   10.9890   30.6910   92.3390 C   0  0  0  0  0
   11.4580   31.9160   93.1170 C   0  0  0  0  0
   12.6410   32.1960   93.1890 O   0  0  0  0  0
   11.0910   29.4860   93.2850 C   0  0  0  0  0
   10.4730   28.2260   92.7410 C   0  0  0  0  0
   11.1300   27.4900   91.7720 C   0  0  0  0  0
    9.2530   27.7710   93.2140 C   0  0  0  0  0
   10.5710   26.3410   91.2650 C   0  0  0  0  0
    8.6970   26.6190   92.7210 C   0  0  0  0  0
    9.3660   25.8920   91.7370 C   0  0  0  0  0
   10.5190   32.6040   93.7490 N   0  0  0  0  0
   10.8310   33.7930   94.5150 C   0  0  0  0  0
    9.8250   33.9990   95.6450 C   0  0  0  0  0
    8.6020   34.0650   95.4090 O   0  0  0  0  0
   10.8160   35.0000   93.5900 C   0  0  0  0  0
   11.4690   36.2450   94.1740 C   0  0  0  0  0
   10.4600   37.1590   94.8130 C   0  0  0  0  0
   10.9510   38.5710   95.0300 C   0  0  0  0  0
    9.7780   39.3420   95.5690 N   0  3  0  0  0
   10.3200   34.1250   96.8660 N   0  0  0  0  0
    9.4190   34.3260   98.0000 C   0  0  0  0  0
    8.9470   35.7670   98.1460 C   0  0  0  0  0
    9.7310   36.6560   98.3940 O   0  0  0  0  0
   10.0590   33.8210   99.2840 C   0  0  0  0  0
   10.5500   32.4200   99.1190 C   0  0  0  0  0
   10.8500   31.7500  100.3960 C   0  0  0  0  0
   11.3340   30.3380  100.1280 C   0  0  0  0  0
   12.6260   30.3460   99.3540 N   0  3  0  0  0
    7.6570   35.9880   98.0010 N   0  0  0  0  0
    7.0980   37.3150   98.1300 C   0  0  0  0  0
    6.3260   37.4430   99.4280 C   0  0  0  0  0
    5.5520   36.5690   99.7830 O   0  0  0  0  0
    6.1660   37.6380   96.9750 C   0  0  0  0  0
    5.2480   38.6830   97.3090 O   0  0  0  0  0
    6.5460   38.5530  100.1170 N   0  0  0  0  0
    5.8260   38.8560  101.3400 C   0  0  0  0  0
    4.3530   39.0930  100.9770 C   0  0  0  0  0
    3.4600   38.5220  101.5950 O   0  0  0  0  0
    6.3920   40.1200  101.9860 C   0  0  0  0  0
    6.1380   40.2280  103.4800 C   0  0  0  0  0
    5.2940   39.3490  104.1430 C   0  0  0  0  0
    6.7550   41.1950  104.1980 C   0  0  0  0  0
    5.0510   39.4470  105.4880 C   0  0  0  0  0
    6.5370   41.3050  105.5580 C   0  0  0  0  0
    5.6810   40.4090  106.2070 C   0  0  0  0  0
    4.1420   39.9040   99.9370 N   0  0  0  0  0
    2.8120   40.2860   99.4680 C   0  0  0  0  0
    1.9310   39.1130   99.2090 C   0  0  0  0  0
    0.8810   38.9810   99.8330 O   0  0  0  0  0
    2.8960   41.1110   98.1850 C   0  0  0  0  0
    1.5270   41.4530   97.6260 C   0  0  0  0  0
    1.6620   42.3500   96.3940 C   0  0  0  0  0
    0.3030   42.6000   95.7250 C   0  0  0  0  0
    0.4720   43.4420   94.4990 N   0  3  0  0  0
    2.3390   38.2780   98.2600 N   0  0  0  0  0
    1.5880   37.0810   97.9270 C   0  0  0  0  0
    1.4490   36.1810   99.1550 C   0  0  0  0  0
    0.4310   35.5220   99.3320 O   0  0  0  0  0
    2.2760   36.3070   96.7900 C   0  0  0  0  0
    2.2720   37.0030   95.4510 C   0  0  0  0  0
    2.7510   36.0240   94.4200 C   0  0  0  0  0
    0.8630   37.4780   95.1130 C   0  0  0  0  0
    2.4560   36.1540  100.0190 N   0  0  0  0  0
    2.3670   35.3430  101.2300 C   0  0  0  0  0
    1.2940   35.9480  102.1830 C   0  0  0  0  0
    0.6490   35.2530  102.9560 O   0  0  0  0  0
    3.7330   35.3210  101.9500 C   0  0  0  0  0
    4.7460   34.5660  101.2560 O   0  0  0  0  0
    1.1700   37.2650  102.1660 N   0  0  0  0  0
    0.1960   37.9210  103.0140 C   0  0  0  0  0
   -1.1950   37.4580  102.5770 C   0  0  0  0  0
   -1.9520   36.8760  103.3490 O   0  0  0  0  0
   -1.5060   37.6750  101.3060 N   0  0  0  0  0
   -2.8200   37.2710  100.7740 C   0  0  0  0  0
   -3.0710   35.7930  101.0310 C   0  0  0  0  0
   -4.1930   35.3890  101.3220 O   0  0  0  0  0
   -2.9210   37.5840   99.2880 C   0  0  0  0  0
   -3.1160   39.0350   99.0000 C   0  0  0  0  0
   -2.0440   39.8270   98.6640 C   0  0  0  0  0
   -4.3770   39.6080   99.0900 C   0  0  0  0  0
   -2.2100   41.1660   98.4100 C   0  0  0  0  0
   -4.5610   40.9440   98.8360 C   0  0  0  0  0
   -3.4740   41.7280   98.4940 C   0  0  0  0  0
   -2.0080   34.9900  100.9800 N   0  0  0  0  0
   -2.1310   33.5480  101.1830 C   0  0  0  0  0
   -2.5300   33.2720  102.6120 C   0  0  0  0  0
   -2.9620   32.1600  102.9520 O   0  0  0  0  0
   -0.7920   32.8300  100.8710 C   0  0  0  0  0
   -0.3800   33.0180   99.5360 O   0  0  0  0  0
   -2.3610   34.2750  103.4680 N   0  0  0  0  0
   -2.6740   34.1280  104.8810 C   0  0  0  0  0
   -3.8080   35.0490  105.3340 C   0  0  0  0  0
   -4.0320   36.1200  104.7630 O   0  0  0  0  0
   -1.4330   34.4180  105.7240 C   0  0  0  0  0
   -0.1830   33.7660  105.2150 C   0  0  0  0  0
    1.0520   34.1370  105.7280 C   0  0  0  0  0
   -0.2260   32.7810  104.2340 C   0  0  0  0  0
    2.2220   33.5500  105.2760 C   0  0  0  0  0
    0.9400   32.1870  103.7740 C   0  0  0  0  0
    2.1660   32.5780  104.2990 C   0  0  0  0  0
   -4.5040   34.6370  106.3850 N   0  0  0  0  0
   -5.6130   35.4250  106.9120 C   0  0  0  0  0
   -5.3890   35.7390  108.3630 C   0  0  0  0  0
   -5.8560   36.8050  108.7580 O   0  0  0  0  0
   -6.9680   34.7020  106.7480 C   0  0  0  0  0
   -8.1890   35.5240  107.2530 C   0  0  0  0  0
   -9.5440   34.9090  106.8700 C   0  0  0  0  0
  -10.1100   34.0100  107.9680 C   0  0  0  0  0
  -10.7830   34.7300  109.1110 N   0  3  0  0  0
   -4.7267   34.9152  109.1703 O   0  0  0  0  0
   16.0683   28.4859  102.0891 H   0  0  0  0  0
   15.9585   29.8222  101.0997 H   0  0  0  0  0
   14.8549   28.5826  100.9511 H   0  0  0  0  0
   17.7540   28.3727  100.3696 H   0  0  0  0  0
   15.5222   26.3401  100.0228 H   0  0  0  0  0
   17.2029   26.1552   99.4640 H   0  0  0  0  0
   16.8501   26.2575  101.2064 H   0  0  0  0  0
   18.1400   29.5009   98.5956 H   0  0  0  0  0
   16.2354   30.3904   96.7485 H   0  0  0  0  0
   19.2006   29.7261   96.2349 H   0  0  0  0  0
   18.2209   30.8860   95.3045 H   0  0  0  0  0
   18.6329   31.2292   97.0026 H   0  0  0  0  0
   15.1159   29.6818   95.1660 H   0  0  0  0  0
   15.9823   27.1665   93.7444 H   0  0  0  0  0
   14.1277   26.6383   95.2076 H   0  0  0  0  0
   13.1685   27.9540   94.4867 H   0  0  0  0  0
   13.6507   26.5565   93.4939 H   0  0  0  0  0
   16.3589   27.5218   91.6502 H   0  0  0  0  0
   15.9679   30.0543   90.4443 H   0  0  0  0  0
   16.2168   27.3481   89.0668 H   0  0  0  0  0
   17.5959   28.3931   89.6216 H   0  0  0  0  0
   17.6307   30.7845   88.6658 H   0  0  0  0  0
   15.4837   27.5349   86.8768 H   0  0  0  0  0
   17.5869   32.0093   86.5090 H   0  0  0  0  0
   15.4479   28.7378   84.7226 H   0  0  0  0  0
   16.4749   31.0033   84.5379 H   0  0  0  0  0
   14.3142   30.9919   89.3454 H   0  0  0  0  0
   12.3618   31.2030   88.1150 H   0  0  0  0  0
   12.8626   28.7044   87.4337 H   0  0  0  0  0
   11.2571   29.5000   87.1027 H   0  0  0  0  0
   11.0650   27.3814   87.9580 H   0  0  0  0  0
   12.8019   30.3168   91.2659 H   0  0  0  0  0
    9.9612   30.8207   92.0000 H   0  0  0  0  0
   10.5508   29.7437   94.1960 H   0  0  0  0  0
   12.1512   29.2853   93.4396 H   0  0  0  0  0
   12.1010   27.8243   91.4065 H   0  0  0  0  0
    8.7297   28.3349   93.9862 H   0  0  0  0  0
   11.0890   25.7847   90.4838 H   0  0  0  0  0
    7.7345   26.2723   93.0972 H   0  0  0  0  0
    8.9326   24.9716   91.3456 H   0  0  0  0  0
    9.5507   32.2881   93.6948 H   0  0  0  0  0
   11.8193   33.6726   94.9588 H   0  0  0  0  0
    9.7711   35.2452   93.3996 H   0  0  0  0  0
   11.3826   34.7285   92.6993 H   0  0  0  0  0
   11.9572   36.7872   93.3642 H   0  0  0  0  0
   12.1797   35.9318   94.9389 H   0  0  0  0  0
   10.2284   36.7453   95.7945 H   0  0  0  0  0
    9.6060   37.2163   94.1381 H   0  0  0  0  0
   11.3163   39.0082   94.1008 H   0  0  0  0  0
   11.7903   38.5937   95.7251 H   0  0  0  0  0
   10.0557   40.3094   95.7348 H   0  0  0  0  0
    9.0160   39.3171   94.8914 H   0  0  0  0  0
    9.4694   38.9207   96.4452 H   0  0  0  0  0
   11.3280   34.0820   97.0157 H   0  0  0  0  0
    8.5232   33.7390   97.7973 H   0  0  0  0  0
    9.3132   33.8399  100.0786 H   0  0  0  0  0
   10.9052   34.4625   99.5300 H   0  0  0  0  0
   11.4757   32.4621   98.5451 H   0  0  0  0  0
    9.7606   31.8513   98.6275 H   0  0  0  0  0
    9.9480   31.7139  101.0068 H   0  0  0  0  0
   11.6262   32.3051  100.9228 H   0  0  0  0  0
   10.5787   29.8157   99.5408 H   0  0  0  0  0
   11.5022   29.8396  101.0827 H   0  0  0  0  0
   12.9276   29.3858   99.1882 H   0  0  0  0  0
   12.4831   30.8177   98.4610 H   0  0  0  0  0
   13.3393   30.8399   99.8904 H   0  0  0  0  0
    7.0377   35.2047   97.7928 H   0  0  0  0  0
    7.9313   38.0176   98.1224 H   0  0  0  0  0
    5.5929   36.7420   96.7365 H   0  0  0  0  0
    6.7697   37.9695   96.1302 H   0  0  0  0  0
    4.6775   38.8586   96.5572 H   0  0  0  0  0
    7.2433   39.2154   99.7772 H   0  0  0  0  0
    5.9253   38.0288  102.0428 H   0  0  0  0  0
    5.8973   40.9694  101.5149 H   0  0  0  0  0
    7.4727   40.0947  101.8460 H   0  0  0  0  0
    4.8085   38.5548  103.5758 H   0  0  0  0  0
    7.4288   41.8921  103.6999 H   0  0  0  0  0
    4.3591   38.7595  105.9746 H   0  0  0  0  0
    7.0331   42.0917  106.1264 H   0  0  0  0  0
    5.5215   40.4834  107.2827 H   0  0  0  0  0
    4.9531   40.2768   99.4435 H   0  0  0  0  0
    2.3772   40.8777  100.2736 H   0  0  0  0  0
    3.4270   40.5203   97.4385 H   0  0  0  0  0
    3.4081   42.0447   98.4175 H   0  0  0  0  0
    0.9544   41.9812   98.3884 H   0  0  0  0  0
    1.0203   40.5313   97.3399 H   0  0  0  0  0
    2.3131   41.8523   95.6754 H   0  0  0  0  0
    2.0719   43.3093   96.7098 H   0  0  0  0  0
   -0.3477   43.1215   96.4269 H   0  0  0  0  0
   -0.1343   41.6428   95.4408 H   0  0  0  0  0
   -0.4388   43.5985   94.0673 H   0  0  0  0  0
    0.8854   44.3379   94.7576 H   0  0  0  0  0
    1.0841   42.9614   93.8396 H   0  0  0  0  0
    3.2003   38.4826   97.7533 H   0  0  0  0  0
    0.5956   37.3848   97.5939 H   0  0  0  0  0
    1.7224   35.3767   96.6627 H   0  0  0  0  0
    3.3201   36.1860   97.0786 H   0  0  0  0  0
    2.9261   37.8746   95.4744 H   0  0  0  0  0
    3.7596   35.6968   94.6725 H   0  0  0  0  0
    2.0827   35.1632   94.4001 H   0  0  0  0  0
    2.7575   36.5033   93.4410 H   0  0  0  0  0
    0.1915   36.6203   95.0736 H   0  0  0  0  0
    0.5216   38.1734   95.8798 H   0  0  0  0  0
    0.8722   37.9787   94.1448 H   0  0  0  0  0
    3.2963   36.7025   99.8362 H   0  0  0  0  0
    2.0862   34.3256  100.9577 H   0  0  0  0  0
    3.5813   34.8460  102.9193 H   0  0  0  0  0
    4.0829   36.3514  102.0137 H   0  0  0  0  0
    5.5644   34.5947  101.7570 H   0  0  0  0  0
    1.7641   37.8220  101.5518 H   0  0  0  0  0
    0.2808   39.0035  102.9190 H   0  0  0  0  0
    0.3694   37.6620  104.0585 H   0  0  0  0  0
   -0.8291   38.1260  100.6905 H   0  0  0  0  0
   -3.5882   37.8436  101.2937 H   0  0  0  0  0
   -3.7890   37.0521   98.8985 H   0  0  0  0  0
   -1.9828   37.2800   98.8237 H   0  0  0  0  0
   -1.0492   39.3863   98.5984 H   0  0  0  0  0
   -5.2312   38.9895   99.3657 H   0  0  0  0  0
   -1.3523   41.7837   98.1437 H   0  0  0  0  0
   -5.5560   41.3839   98.9032 H   0  0  0  0  0
   -3.6118   42.7899   98.2902 H   0  0  0  0  0
   -1.0885   35.3910  100.7952 H   0  0  0  0  0
   -2.8944   33.1670  100.5047 H   0  0  0  0  0
   -0.9365   31.7617  101.0322 H   0  0  0  0  0
   -0.0250   33.2484  101.5228 H   0  0  0  0  0
    0.4496   32.5574   99.3904 H   0  0  0  0  0
   -2.0040   35.1674  103.1265 H   0  0  0  0  0
   -3.0035   33.0988  105.0233 H   0  0  0  0  0
   -1.6206   34.0217  106.7219 H   0  0  0  0  0
   -1.2691   35.4953  105.6976 H   0  0  0  0  0
    1.1020   34.9042  106.5006 H   0  0  0  0  0
   -1.1868   32.4724  103.8220 H   0  0  0  0  0
    3.1829   33.8548  105.6905 H   0  0  0  0  0
    0.8949   31.4168  103.0040 H   0  0  0  0  0
    3.0848   32.1158  103.9381 H   0  0  0  0  0
   -4.2597   33.7537  106.8328 H   0  0  0  0  0
   -5.6501   36.3490  106.3349 H   0  0  0  0  0
   -6.9226   33.7908  107.3444 H   0  0  0  0  0
   -7.1144   34.5272  105.6821 H   0  0  0  0  0
   -8.1342   36.5092  106.7900 H   0  0  0  0  0
   -8.1378   35.5508  108.3415 H   0  0  0  0  0
   -9.3965   34.2990  105.9788 H   0  0  0  0  0
  -10.2489   35.7241  106.7062 H   0  0  0  0  0
   -9.2648   33.4700  108.3947 H   0  0  0  0  0
  -10.8730   33.3886  107.4991 H   0  0  0  0  0
  -11.1250   34.0472  109.7871 H   0  0  0  0  0
  -10.1114   35.3507  109.5628 H   0  0  0  0  0
  -11.5658   35.2771  108.7528 H   0  0  0  0  0
   -4.4446   34.1424  108.6756 H   0  0  0  0  0
  2  1  1  0  0  0
  2  5  1  0  0  0
  3  2  1  0  0  0
  3  4  2  0  0  0
  7  6  1  0  0  0
  7 10  1  0  0  0
  8  7  1  0  0  0
  8  9  2  0  0  0
  6  3  1  0  0  0
 12 11  1  0  0  0
 12 15  1  0  0  0
 13 12  1  0  0  0
 13 14  2  0  0  0
 11  8  1  0  0  0
 17 16  1  0  0  0
 17 20  1  0  0  0
 18 17  1  0  0  0
 18 19  2  0  0  0
 20 21  1  0  0  0
 21 22  4  0  0  0
 21 23  4  0  0  0
 23 25  4  0  0  0
 25 26  4  0  0  0
 24 26  4  0  0  0
 22 24  4  0  0  0
 16 13  1  0  0  0
 28 27  1  0  0  0
 28 31  1  0  0  0
 29 28  1  0  0  0
 29 30  2  0  0  0
 31 32  1  0  0  0
 27 18  1  0  0  0
 34 33  1  0  0  0
 34 37  1  0  0  0
 35 34  1  0  0  0
 35 36  2  0  0  0
 37 38  1  0  0  0
 38 39  4  0  0  0
 38 40  4  0  0  0
 40 42  4  0  0  0
 42 43  4  0  0  0
 41 43  4  0  0  0
 39 41  4  0  0  0
 33 29  1  0  0  0
 45 44  1  0  0  0
 45 48  1  0  0  0
 46 45  1  0  0  0
 46 47  2  0  0  0
 48 49  1  0  0  0
 49 50  1  0  0  0
 50 51  1  0  0  0
 51 52  1  0  0  0
 44 35  1  0  0  0
 54 53  1  0  0  0
 54 57  1  0  0  0
 55 54  1  0  0  0
 55 56  2  0  0  0
 57 58  1  0  0  0
 58 59  1  0  0  0
 59 60  1  0  0  0
 60 61  1  0  0  0
 53 46  1  0  0  0
 63 62  1  0  0  0
 63 66  1  0  0  0
 64 63  1  0  0  0
 64 65  2  0  0  0
 66 67  1  0  0  0
 62 55  1  0  0  0
 69 68  1  0  0  0
 69 72  1  0  0  0
 70 69  1  0  0  0
 70 71  2  0  0  0
 72 73  1  0  0  0
 73 74  4  0  0  0
 73 75  4  0  0  0
 75 77  4  0  0  0
 77 78  4  0  0  0
 76 78  4  0  0  0
 74 76  4  0  0  0
 68 64  1  0  0  0
 80 79  1  0  0  0
 80 83  1  0  0  0
 81 80  1  0  0  0
 81 82  2  0  0  0
 83 84  1  0  0  0
 84 85  1  0  0  0
 85 86  1  0  0  0
 86 87  1  0  0  0
 79 70  1  0  0  0
 89 88  1  0  0  0
 89 92  1  0  0  0
 90 89  1  0  0  0
 90 91  2  0  0  0
 92 93  1  0  0  0
 93 94  1  0  0  0
 93 95  1  0  0  0
 88 81  1  0  0  0
 97 96  1  0  0  0
 97100  1  0  0  0
 98 97  1  0  0  0
 98 99  2  0  0  0
100101  1  0  0  0
 96 90  1  0  0  0
103102  1  0  0  0
104103  1  0  0  0
104105  2  0  0  0
102 98  1  0  0  0
107106  1  0  0  0
107110  1  0  0  0
108107  1  0  0  0
108109  2  0  0  0
110111  1  0  0  0
111112  4  0  0  0
111113  4  0  0  0
113115  4  0  0  0
115116  4  0  0  0
114116  4  0  0  0
112114  4  0  0  0
106104  1  0  0  0
118117  1  0  0  0
118121  1  0  0  0
119118  1  0  0  0
119120  2  0  0  0
121122  1  0  0  0
117108  1  0  0  0
124123  1  0  0  0
124127  1  0  0  0
125124  1  0  0  0
125126  2  0  0  0
127128  1  0  0  0
128129  4  0  0  0
128130  4  0  0  0
130132  4  0  0  0
132133  4  0  0  0
131133  4  0  0  0
129131  4  0  0  0
123119  1  0  0  0
134135  1  0  0  0
135138  1  0  0  0
135136  1  0  0  0
136137  2  0  0  0
138139  1  0  0  0
139140  1  0  0  0
140141  1  0  0  0
141142  1  0  0  0
125134  1  0  0  0
136143  1  0  0  0
  1144  1  0  0  0
  1145  1  0  0  0
  1146  1  0  0  0
  2147  1  0  0  0
  5148  1  0  0  0
  5149  1  0  0  0
  5150  1  0  0  0
  6151  1  0  0  0
  7152  1  0  0  0
 10153  1  0  0  0
 10154  1  0  0  0
 10155  1  0  0  0
 11156  1  0  0  0
 12157  1  0  0  0
 15158  1  0  0  0
 15159  1  0  0  0
 15160  1  0  0  0
 16161  1  0  0  0
 17162  1  0  0  0
 20163  1  0  0  0
 20164  1  0  0  0
 22165  1  0  0  0
 23166  1  0  0  0
 24167  1  0  0  0
 25168  1  0  0  0
 26169  1  0  0  0
 27170  1  0  0  0
 28171  1  0  0  0
 31172  1  0  0  0
 31173  1  0  0  0
 32174  1  0  0  0
 33175  1  0  0  0
 34176  1  0  0  0
 37177  1  0  0  0
 37178  1  0  0  0
 39179  1  0  0  0
 40180  1  0  0  0
 41181  1  0  0  0
 42182  1  0  0  0
 43183  1  0  0  0
 44184  1  0  0  0
 45185  1  0  0  0
 48186  1  0  0  0
 48187  1  0  0  0
 49188  1  0  0  0
 49189  1  0  0  0
 50190  1  0  0  0
 50191  1  0  0  0
 51192  1  0  0  0
 51193  1  0  0  0
 52194  1  0  0  0
 52195  1  0  0  0
 52196  1  0  0  0
 53197  1  0  0  0
 54198  1  0  0  0
 57199  1  0  0  0
 57200  1  0  0  0
 58201  1  0  0  0
 58202  1  0  0  0
 59203  1  0  0  0
 59204  1  0  0  0
 60205  1  0  0  0
 60206  1  0  0  0
 61207  1  0  0  0
 61208  1  0  0  0
 61209  1  0  0  0
 62210  1  0  0  0
 63211  1  0  0  0
 66212  1  0  0  0
 66213  1  0  0  0
 67214  1  0  0  0
 68215  1  0  0  0
 69216  1  0  0  0
 72217  1  0  0  0
 72218  1  0  0  0
 74219  1  0  0  0
 75220  1  0  0  0
 76221  1  0  0  0
 77222  1  0  0  0
 78223  1  0  0  0
 79224  1  0  0  0
 80225  1  0  0  0
 83226  1  0  0  0
 83227  1  0  0  0
 84228  1  0  0  0
 84229  1  0  0  0
 85230  1  0  0  0
 85231  1  0  0  0
 86232  1  0  0  0
 86233  1  0  0  0
 87234  1  0  0  0
 87235  1  0  0  0
 87236  1  0  0  0
 88237  1  0  0  0
 89238  1  0  0  0
 92239  1  0  0  0
 92240  1  0  0  0
 93241  1  0  0  0
 94242  1  0  0  0
 94243  1  0  0  0
 94244  1  0  0  0
 95245  1  0  0  0
 95246  1  0  0  0
 95247  1  0  0  0
 96248  1  0  0  0
 97249  1  0  0  0
100250  1  0  0  0
100251  1  0  0  0
101252  1  0  0  0
102253  1  0  0  0
103254  1  0  0  0
103255  1  0  0  0
106256  1  0  0  0
107257  1  0  0  0
110258  1  0  0  0
110259  1  0  0  0
112260  1  0  0  0
113261  1  0  0  0
114262  1  0  0  0
115263  1  0  0  0
116264  1  0  0  0
117265  1  0  0  0
118266  1  0  0  0
121267  1  0  0  0
121268  1  0  0  0
122269  1  0  0  0
123270  1  0  0  0
124271  1  0  0  0
127272  1  0  0  0
127273  1  0  0  0
129274  1  0  0  0
130275  1  0  0  0
131276  1  0  0  0
132277  1  0  0  0
133278  1  0  0  0
134279  1  0  0  0
135280  1  0  0  0
138281  1  0  0  0
138282  1  0  0  0
139283  1  0  0  0
139284  1  0  0  0
140285  1  0  0  0
140286  1  0  0  0
141287  1  0  0  0
141288  1  0  0  0
142289  1  0  0  0
142290  1  0  0  0
142291  1  0  0  0
143292  1  0  0  0
M  END
$$$$
