### 
### Created by X-TOOL on Fri Nov 18 12:32:38 2016
### 

@<TRIPOS>MOLECULE
1flm_ligand
   50    52     1     0     0
SMALL
GAST_HUCK


@<TRIPOS>ATOM
      1 N1         23.2470   26.2320   26.9460 N.2       1 FMN        -0.2549
      2 C2         24.0320   27.1060   27.6050 C.2       1 FMN         0.2439
      3 O2         24.0320   27.2660   28.7810 O.2       1 FMN        -0.3902
      4 N3         25.0800   27.7840   26.9080 N.am      1 FMN        -0.1938
      5 C4         25.3200   27.6760   25.5850 C.2       1 FMN         0.2704
      6 O4         26.2670   28.2890   25.0370 O.2       1 FMN        -0.3655
      7 C4A        24.4170   26.8250   24.8430 C.2       1 FMN         0.2076
      8 N5         24.5920   26.6480   23.5720 N.2       1 FMN        -0.2387
      9 C5A        23.8440   25.7070   22.9450 C.ar      1 FMN         0.0856
     10 C6         24.1030   25.4270   21.5640 C.ar      1 FMN        -0.0403
     11 C7         23.4120   24.4630   20.9000 C.ar      1 FMN        -0.0428
     12 C7M        23.6280   24.0830   19.4270 C.3       1 FMN        -0.0352
     13 C8         22.2680   23.8380   21.5200 C.ar      1 FMN        -0.0416
     14 C8M        21.4650   22.8020   20.7590 C.3       1 FMN        -0.0312
     15 C9         22.0230   24.0410   22.8590 C.ar      1 FMN        -0.0258
     16 C9A        22.7960   24.9480   23.5890 C.ar      1 FMN         0.1048
     17 N10        22.6290   25.1970   24.9530 N.pl3     1 FMN        -0.2138
     18 C10        23.3950   26.0980   25.6210 C.2       1 FMN         0.1894
     19 C1         21.5940   24.4710   25.7450 C.3       1 FMN         0.0886
     20 C2         22.3380   23.3510   26.4730 C.3       1 FMN         0.1102
     21 O2         22.7340   22.3610   25.5190 O.3       1 FMN        -0.3865
     22 C3         21.4680   22.6670   27.5550 C.3       1 FMN         0.1118
     23 O3         20.2720   22.1120   26.8650 O.3       1 FMN        -0.3865
     24 C4         20.9270   23.6320   28.5700 C.3       1 FMN         0.1111
     25 O4         21.9530   24.5310   29.0410 O.3       1 FMN        -0.3865
     26 C5         20.4090   22.9140   29.8140 C.3       1 FMN         0.1068
     27 O5         21.5000   22.2020   30.4500 O.3       1 FMN        -0.2734
     28 P          21.2680   21.0560   31.5140 P.3       1 FMN         0.2008
     29 O1P        20.5500   19.9260   30.8130 O.co2     1 FMN        -0.5537
     30 O2P        20.3810   21.6690   32.6260 O.co2     1 FMN        -0.5537
     31 O3P        22.6700   20.6720   31.9990 O.co2     1 FMN        -0.5537
     32 H1         25.6791   28.3822   27.4403 H         1 FMN         0.2248
     33 H2         24.8635   25.9940   21.0393 H         1 FMN         0.0564
     34 H3         24.5167   24.6035   19.0406 H         1 FMN         0.0366
     35 H4         22.7461   24.3775   18.8392 H         1 FMN         0.0366
     36 H5         23.7759   22.9960   19.3466 H         1 FMN         0.0366
     37 H6         20.6390   22.4423   21.3901 H         1 FMN         0.0395
     38 H7         22.1166   21.9572   20.4913 H         1 FMN         0.0395
     39 H8         21.0566   23.2546   19.8434 H         1 FMN         0.0395
     40 H9         21.2261   23.4944   23.3501 H         1 FMN         0.0493
     41 H10        20.8262   24.0510   25.0786 H         1 FMN         0.0631
     42 H11        21.1196   25.1497   26.4691 H         1 FMN         0.0631
     43 H12        23.2315   23.7760   26.9537 H         1 FMN         0.0647
     44 H13        21.9625   22.0091   25.0907 H         1 FMN         0.2100
     45 H14        22.0467   21.8760   28.0544 H         1 FMN         0.0647
     46 H15        19.7119   21.6824   27.5008 H         1 FMN         0.2100
     47 H16        20.1117   24.2071   28.1069 H         1 FMN         0.0646
     48 H17        22.2994   25.0262   28.3081 H         1 FMN         0.2100
     49 H18        19.6240   22.1997   29.5250 H         1 FMN         0.0639
     50 H19        19.9933   23.6513   30.5166 H         1 FMN         0.0639
@<TRIPOS>BOND
     1    1    2 1  
     2    1   18 2  
     3    2    3 2  
     4    2    4 am 
     5    4    5 am 
     6    5    6 2  
     7    5    7 1  
     8    7    8 2  
     9    7   18 1  
    10    8    9 1  
    11    9   10 ar 
    12    9   16 ar 
    13   10   11 ar 
    14   11   12 1  
    15   11   13 ar 
    16   13   14 1  
    17   13   15 ar 
    18   15   16 ar 
    19   16   17 1  
    20   17   18 1  
    21   17   19 1  
    22   19   20 1  
    23   20   21 1  
    24   20   22 1  
    25   22   23 1  
    26   22   24 1  
    27   24   25 1  
    28   24   26 1  
    29   26   27 1  
    30   27   28 1  
    31   28   29 ar 
    32   28   30 ar 
    33   28   31 ar 
    34    4   32 1  
    35   10   33 1  
    36   12   34 1  
    37   12   35 1  
    38   12   36 1  
    39   14   37 1  
    40   14   38 1  
    41   14   39 1  
    42   15   40 1  
    43   19   41 1  
    44   19   42 1  
    45   20   43 1  
    46   21   44 1  
    47   22   45 1  
    48   23   46 1  
    49   24   47 1  
    50   25   48 1  
    51   26   49 1  
    52   26   50 1  
@<TRIPOS>SUBSTRUCTURE
     1 FMN         1

