1flm_ligand
  -I-interpret- 

 52 54  0  0  0  0  0  0  0  0999 V2000
   23.2470   26.2320   26.9460 N   0  0  0  0  0
   24.0320   27.1060   27.6050 C   0  0  0  0  0
   24.0320   27.2660   28.7810 O   0  0  0  0  0
   25.0800   27.7840   26.9080 N   0  0  0  0  0
   25.3200   27.6760   25.5850 C   0  0  0  0  0
   26.2670   28.2890   25.0370 O   0  0  0  0  0
   24.4170   26.8250   24.8430 C   0  0  0  0  0
   24.5920   26.6480   23.5720 N   0  0  0  0  0
   23.8440   25.7070   22.9450 C   0  0  0  0  0
   24.1030   25.4270   21.5640 C   0  0  0  0  0
   23.4120   24.4630   20.9000 C   0  0  0  0  0
   23.6280   24.0830   19.4270 C   0  0  0  0  0
   22.2680   23.8380   21.5200 C   0  0  0  0  0
   21.4650   22.8020   20.7590 C   0  0  0  0  0
   22.0230   24.0410   22.8590 C   0  0  0  0  0
   22.7960   24.9480   23.5890 C   0  0  0  0  0
   22.6290   25.1970   24.9530 N   0  0  0  0  0
   23.3950   26.0980   25.6210 C   0  0  0  0  0
   21.5940   24.4710   25.7450 C   0  0  0  0  0
   22.3380   23.3510   26.4730 C   0  0  0  0  0
   22.7340   22.3610   25.5190 O   0  0  0  0  0
   21.4680   22.6670   27.5550 C   0  0  0  0  0
   20.2720   22.1120   26.8650 O   0  0  0  0  0
   20.9270   23.6320   28.5700 C   0  0  0  0  0
   21.9530   24.5310   29.0410 O   0  0  0  0  0
   20.4090   22.9140   29.8140 C   0  0  0  0  0
   21.5000   22.2020   30.4500 O   0  0  0  0  0
   21.2680   21.0560   31.5140 P   0  0  0  0  0
   20.5500   19.9260   30.8130 O   0  0  0  0  0
   20.3810   21.6690   32.6260 O   0  0  0  0  0
   22.6700   20.6720   31.9990 O   0  0  0  0  0
   25.6910   28.3941   27.4509 H   0  0  0  0  0
   24.8677   25.9971   21.0364 H   0  0  0  0  0
   23.4410   24.9530   18.7975 H   0  0  0  0  0
   24.6550   23.7456   19.2870 H   0  0  0  0  0
   22.9407   23.2818   19.1553 H   0  0  0  0  0
   21.0609   23.2517   19.8520 H   0  0  0  0  0
   22.1117   21.9655   20.4943 H   0  0  0  0  0
   20.6469   22.4464   21.3853 H   0  0  0  0  0
   21.2217   23.4913   23.3528 H   0  0  0  0  0
   20.8088   24.0734   25.1020 H   0  0  0  0  0
   21.0926   25.1366   26.4477 H   0  0  0  0  0
   23.1995   23.7990   26.9683 H   0  0  0  0  0
   23.2021   21.6539   25.9689 H   0  0  0  0  0
   22.0919   21.9292   28.0595 H   0  0  0  0  0
   19.7060   21.6779   27.5075 H   0  0  0  0  0
   20.1260   24.1682   28.0611 H   0  0  0  0  0
   21.5770   25.1337   29.6867 H   0  0  0  0  0
   19.6310   22.2063   29.5277 H   0  0  0  0  0
   19.9969   23.6445   30.5102 H   0  0  0  0  0
   20.8570   22.3831   33.0562 H   0  0  0  0  0
   23.0746   21.4261   32.4340 H   0  0  0  0  0
  1  2  1  0  0  0
  1 18  2  0  0  0
  2  3  2  0  0  0
  2  4  1  0  0  0
  4  5  1  0  0  0
  5  6  2  0  0  0
  5  7  1  0  0  0
  7  8  2  0  0  0
  7 18  1  0  0  0
  8  9  1  0  0  0
  9 10  4  0  0  0
  9 16  4  0  0  0
 10 11  4  0  0  0
 11 12  1  0  0  0
 11 13  4  0  0  0
 13 14  1  0  0  0
 13 15  4  0  0  0
 15 16  4  0  0  0
 16 17  1  0  0  0
 17 18  1  0  0  0
 17 19  1  0  0  0
 19 20  1  0  0  0
 20 21  1  0  0  0
 20 22  1  0  0  0
 22 23  1  0  0  0
 22 24  1  0  0  0
 24 25  1  0  0  0
 24 26  1  0  0  0
 26 27  1  0  0  0
 27 28  1  0  0  0
 28 29  2  0  0  0
 28 30  1  0  0  0
 28 31  1  0  0  0
  4 32  1  0  0  0
 10 33  1  0  0  0
 12 34  1  0  0  0
 12 35  1  0  0  0
 12 36  1  0  0  0
 14 37  1  0  0  0
 14 38  1  0  0  0
 14 39  1  0  0  0
 15 40  1  0  0  0
 19 41  1  0  0  0
 19 42  1  0  0  0
 20 43  1  0  0  0
 21 44  1  0  0  0
 22 45  1  0  0  0
 23 46  1  0  0  0
 24 47  1  0  0  0
 25 48  1  0  0  0
 26 49  1  0  0  0
 26 50  1  0  0  0
 30 51  1  0  0  0
 31 52  1  0  0  0
M  END
$$$$
