5lws_ligand
  -I-interpret- 

 67 72  0  0  0  0  0  0  0  0999 V2000
   -3.4880    4.1690    5.3790 N   0  0  0  0  0
   -2.2640    9.9220    7.0030 C   0  0  0  0  0
   -0.6470    5.8220    7.2160 O   0  0  0  0  0
   -7.2020   -3.5040    8.1220 Cl  0  0  0  0  0
   -4.9450   -0.7610    6.5920 N   0  3  0  0  0
   -6.6380   -2.2280    7.1180 C   0  0  0  0  0
   -7.5230   -1.6880    6.1120 C   0  0  0  0  0
   -8.7820   -1.9470    5.6010 C   0  0  0  0  0
   -9.7680   -3.0070    5.9480 C   0  0  0  0  0
   -9.0220   -1.0040    4.6100 N   0  0  0  0  0
  -10.2840   -0.9340    3.8500 C   0  0  0  0  0
   -7.9600   -0.1810    4.4760 C   0  0  0  0  0
   -7.7890    0.9090    3.4760 C   0  0  0  0  0
   -6.9720   -0.6030    5.3640 C   0  0  0  0  0
   -5.7610   -0.1620    5.7080 C   0  0  0  0  0
   -5.4260   -1.8160    7.3260 N   0  0  0  0  0
   -3.5560   -0.4310    6.8700 C   0  0  0  0  0
   -3.4580    0.4420    8.0790 C   0  0  0  0  0
   -3.4230   -0.0050    9.3830 N   0  0  0  0  0
   -3.5270   -1.3910    9.8470 C   0  0  0  0  0
   -3.2820    1.0870   10.2290 C   0  0  0  0  0
   -3.1720    0.9320   11.7060 C   0  0  0  0  0
   -3.2430    2.2310    9.4570 C   0  0  0  0  0
   -3.3570    1.8130    8.0800 C   0  0  0  0  0
   -3.1700    3.6140    9.7530 C   0  0  0  0  0
   -3.2270    4.5570    8.8740 N   0  0  0  0  0
   -3.3280    4.1300    7.5740 N   0  0  0  0  0
   -3.3810    2.8350    7.1060 C   0  0  0  0  0
   -3.4780    2.8530    5.7820 N   0  0  0  0  0
   -3.4110    4.9350    6.4620 C   0  0  0  0  0
   -3.4920    6.4120    6.5020 C   0  0  0  0  0
   -2.4230    7.3150    6.8700 C   0  0  0  0  0
   -1.0860    6.9490    7.2590 C   0  0  0  0  0
   -4.5910    7.1740    6.1640 C   0  0  0  0  0
   -5.9400    6.7720    5.6810 C   0  0  0  0  0
   -4.2250    8.5020    6.3180 N   0  0  0  0  0
   -5.0940    9.6370    6.0070 C   0  0  0  0  0
   -2.9140    8.6050    6.7490 C   0  0  0  0  0
   -1.9494    9.9755    8.0452 H   0  0  0  0  0
   -1.3948   10.0279    6.3539 H   0  0  0  0  0
   -2.9741   10.7223    6.7950 H   0  0  0  0  0
   -9.3240   -3.9865    5.7707 H   0  0  0  0  0
  -10.0427   -2.9160    6.9989 H   0  0  0  0  0
  -10.6568   -2.8919    5.3275 H   0  0  0  0  0
  -10.4393   -1.8731    3.3188 H   0  0  0  0  0
  -11.1120   -0.7630    4.5380 H   0  0  0  0  0
  -10.2301   -0.1144    3.1335 H   0  0  0  0  0
   -7.8339    0.4888    2.4712 H   0  0  0  0  0
   -8.5855    1.6426    3.6003 H   0  0  0  0  0
   -6.8229    1.3906    3.6270 H   0  0  0  0  0
   -5.4061    0.7542    5.2360 H   0  0  0  0  0
   -3.1400    0.1008    6.0143 H   0  0  0  0  0
   -3.0026   -1.3522    7.0523 H   0  0  0  0  0
   -4.4816   -1.8091    9.5275 H   0  0  0  0  0
   -2.7119   -1.9771    9.4225 H   0  0  0  0  0
   -3.4646   -1.4142   10.9350 H   0  0  0  0  0
   -4.0686    0.4427   12.0865 H   0  0  0  0  0
   -2.2976    0.3257   11.9423 H   0  0  0  0  0
   -3.0696    1.9146   12.1665 H   0  0  0  0  0
   -3.0576    3.9025   10.7981 H   0  0  0  0  0
   -0.4255    7.7392    7.6158 H   0  0  0  0  0
   -5.8405    6.2227    4.7448 H   0  0  0  0  0
   -6.4174    6.1370    6.4273 H   0  0  0  0  0
   -6.5467    7.6629    5.5184 H   0  0  0  0  0
   -5.3690    9.6043    4.9528 H   0  0  0  0  0
   -5.9935    9.5830    6.6203 H   0  0  0  0  0
   -4.5647   10.5664    6.2171 H   0  0  0  0  0
  1 29  4  0  0  0
 30  1  4  0  0  0
 38  2  1  0  0  0
 33  3  2  0  0  0
  6  4  1  0  0  0
  5 15  4  0  0  0
  5 16  4  0  0  0
 17  5  1  0  0  0
  6  7  4  0  0  0
 16  6  4  0  0  0
  7  8  4  0  0  0
 14  7  4  0  0  0
  8  9  1  0  0  0
  8 10  4  0  0  0
 10 11  1  0  0  0
 12 10  4  0  0  0
 12 13  1  0  0  0
 14 12  4  0  0  0
 15 14  4  0  0  0
 18 17  1  0  0  0
 18 19  4  0  0  0
 24 18  4  0  0  0
 19 20  1  0  0  0
 21 19  4  0  0  0
 21 22  1  0  0  0
 23 21  4  0  0  0
 24 23  4  0  0  0
 25 23  4  0  0  0
 28 24  4  0  0  0
 26 25  4  0  0  0
 27 26  4  0  0  0
 27 28  4  0  0  0
 30 27  4  0  0  0
 28 29  4  0  0  0
 31 30  1  0  0  0
 32 31  4  0  0  0
 31 34  4  0  0  0
 32 33  1  0  0  0
 32 38  4  0  0  0
 34 35  1  0  0  0
 34 36  4  0  0  0
 36 37  1  0  0  0
 36 38  4  0  0  0
  2 39  1  0  0  0
  2 40  1  0  0  0
  2 41  1  0  0  0
  9 42  1  0  0  0
  9 43  1  0  0  0
  9 44  1  0  0  0
 11 45  1  0  0  0
 11 46  1  0  0  0
 11 47  1  0  0  0
 13 48  1  0  0  0
 13 49  1  0  0  0
 13 50  1  0  0  0
 15 51  1  0  0  0
 17 52  1  0  0  0
 17 53  1  0  0  0
 20 54  1  0  0  0
 20 55  1  0  0  0
 20 56  1  0  0  0
 22 57  1  0  0  0
 22 58  1  0  0  0
 22 59  1  0  0  0
 25 60  1  0  0  0
 33 61  1  0  0  0
 35 62  1  0  0  0
 35 63  1  0  0  0
 35 64  1  0  0  0
 37 65  1  0  0  0
 37 66  1  0  0  0
 37 67  1  0  0  0
M  END
$$$$
