3qfy_ligand
  -I-interpret- 

 24 24  0  0  0  0  0  0  0  0999 V2000
   12.8150   42.3740   86.0380 O   0  0  0  0  0
   11.6720   42.8820   85.3420 C   0  0  0  0  0
   12.1580   44.1980   84.7560 C   0  0  0  0  0
   12.5540   45.0020   85.8530 O   0  0  0  0  0
   11.0630   44.8920   83.9300 C   0  0  0  0  0
   10.5560   43.9510   82.8790 N   0  3  0  0  0
   10.0680   42.6610   83.4050 C   0  0  0  0  0
   11.1830   41.9710   84.1970 C   0  0  0  0  0
   10.7160   40.5520   84.6230 C   0  0  0  0  0
    9.4040   40.5890   85.1810 O   0  0  0  0  0
   13.0637   42.9876   86.7332 H   0  0  0  0  0
   10.8236   42.9665   86.0211 H   0  0  0  0  0
   12.9877   44.0288   84.0696 H   0  0  0  0  0
   13.2369   44.5473   86.3515 H   0  0  0  0  0
   11.4767   45.7803   83.4526 H   0  0  0  0  0
   10.2415   45.1801   84.5859 H   0  0  0  0  0
   11.3379   43.7456   82.2570 H   0  0  0  0  0
    9.7664   44.4075   82.4224 H   0  0  0  0  0
    9.7669   42.0228   82.5742 H   0  0  0  0  0
    9.2153   42.8376   84.0606 H   0  0  0  0  0
   12.0657   41.8129   83.5774 H   0  0  0  0  0
   11.4047   40.1698   85.3764 H   0  0  0  0  0
   10.7023   39.9103   83.7420 H   0  0  0  0  0
    9.1404   39.7016   85.4352 H   0  0  0  0  0
  1  2  1  0  0  0
  2  3  1  0  0  0
  2  8  1  0  0  0
  3  4  1  0  0  0
  3  5  1  0  0  0
  5  6  1  0  0  0
  6  7  1  0  0  0
  7  8  1  0  0  0
  8  9  1  0  0  0
  9 10  1  0  0  0
  1 11  1  0  0  0
  2 12  1  0  0  0
  3 13  1  0  0  0
  4 14  1  0  0  0
  5 15  1  0  0  0
  5 16  1  0  0  0
  6 17  1  0  0  0
  6 18  1  0  0  0
  7 19  1  0  0  0
  7 20  1  0  0  0
  8 21  1  0  0  0
  9 22  1  0  0  0
  9 23  1  0  0  0
 10 24  1  0  0  0
M  END
$$$$
