4zpe_ligand
  -I-interpret- 

 74 78  0  0  0  0  0  0  0  0999 V2000
   29.5280   38.6570    0.5040 C   0  0  0  0  0
   28.6250   39.0090   -1.6560 C   0  0  0  0  0
   28.2340   37.9350    0.1560 C   0  0  0  0  0
   30.6660   37.6710    0.7530 C   0  0  0  0  0
   29.6140   39.3700   -0.7550 N   0  0  0  0  0
   27.7340   38.1870   -1.0260 N   0  0  0  0  0
   31.9600   38.2980    1.2680 C   0  0  0  0  0
   31.6940   39.2300    2.3830 N   0  3  0  0  0
   30.5300   40.1860    2.2820 C   0  0  0  0  0
   29.2640   39.5690    1.6970 C   0  0  0  0  0
   28.6080   39.2810   -2.8510 O   0  0  0  0  0
   27.6430   37.1260    1.1120 N   0  0  0  0  0
   30.5830   40.3360   -1.0990 C   0  0  0  0  0
   26.4460   36.3600    0.7970 C   0  0  0  0  0
   26.8560   34.9320    0.4710 C   0  0  0  0  0
   25.6250   34.0660    0.2170 C   0  0  0  0  0
   24.6450   34.1180    1.3770 C   0  0  0  0  0
   24.2530   35.5420    1.7350 C   0  0  0  0  0
   25.4970   36.3920    1.9860 C   0  0  0  0  0
   30.3650   41.6710   -0.8090 C   0  0  0  0  0
   31.2870   42.6330   -1.1680 C   0  0  0  0  0
   32.3970   42.2700   -1.8970 C   0  0  0  0  0
   32.5800   40.9400   -2.2260 C   0  0  0  0  0
   31.6880   39.9630   -1.8370 C   0  0  0  0  0
   33.6250   40.5910   -2.9600 F   0  0  0  0  0
   32.9320   39.7690    3.0510 C   0  0  0  0  0
   33.6230   40.8050    2.2150 C   0  0  0  0  0
   34.5700   40.4720    1.2740 C   0  0  0  0  0
   35.1610   41.4490    0.4930 C   0  0  0  0  0
   34.8010   42.7730    0.6640 C   0  0  0  0  0
   33.8560   43.1110    1.6130 C   0  0  0  0  0
   33.2740   42.1230    2.3860 C   0  0  0  0  0
   33.5060   44.4510    1.7320 O   0  0  0  0  0
   32.3450   44.6200    2.5680 C   0  0  0  0  0
   32.8260   45.1600    3.8860 C   0  0  0  0  0
   31.4100   45.6000    1.8740 C   0  0  0  0  0
   30.8993   37.2099   -0.2067 H   0  0  0  0  0
   30.3220   36.9805    1.5230 H   0  0  0  0  0
   32.4262   38.8529    0.4539 H   0  0  0  0  0
   32.6135   37.5029    1.6270 H   0  0  0  0  0
   31.2817   38.5866    3.0586 H   0  0  0  0  0
   30.8330   40.9926    1.6144 H   0  0  0  0  0
   30.2914   40.5107    3.2948 H   0  0  0  0  0
   28.8038   38.9630    2.4774 H   0  0  0  0  0
   28.6306   40.3860    1.3513 H   0  0  0  0  0
   28.0502   37.0663    2.0453 H   0  0  0  0  0
   25.9321   36.7897   -0.0629 H   0  0  0  0  0
   27.4093   34.5213    1.3155 H   0  0  0  0  0
   27.4756   34.9378   -0.4258 H   0  0  0  0  0
   25.9533   33.0340    0.0935 H   0  0  0  0  0
   25.1207   34.4423   -0.6730 H   0  0  0  0  0
   25.1254   33.6700    2.2468 H   0  0  0  0  0
   23.7427   33.5820    1.0826 H   0  0  0  0  0
   23.6467   35.5254    2.6406 H   0  0  0  0  0
   23.6904   35.9733    0.9070 H   0  0  0  0  0
   25.1828   37.4230    2.1484 H   0  0  0  0  0
   26.0191   35.9905    2.8545 H   0  0  0  0  0
   29.4532   41.9668   -0.2902 H   0  0  0  0  0
   31.1375   43.6726   -0.8765 H   0  0  0  0  0
   33.1218   43.0213   -2.2105 H   0  0  0  0  0
   31.8519   38.9196   -2.1063 H   0  0  0  0  0
   33.6232   38.9400    3.2026 H   0  0  0  0  0
   32.6344   40.2351    3.9903 H   0  0  0  0  0
   34.8572   39.4287    1.1427 H   0  0  0  0  0
   35.9069   41.1764   -0.2536 H   0  0  0  0  0
   35.2618   43.5480    0.0515 H   0  0  0  0  0
   32.5318   42.3921    3.1376 H   0  0  0  0  0
   31.8065   43.6874    2.7360 H   0  0  0  0  0
   33.5239   44.4527    4.3341 H   0  0  0  0  0
   33.3272   46.1144    3.7250 H   0  0  0  0  0
   31.9744   45.3030    4.5512 H   0  0  0  0  0
   31.9207   46.5533    1.7381 H   0  0  0  0  0
   31.1217   45.1991    0.9023 H   0  0  0  0  0
   30.5203   45.7470    2.4863 H   0  0  0  0  0
  1  3  1  0  0  0
  1  4  1  0  0  0
  1  5  1  0  0  0
  1 10  1  0  0  0
  5  2  1  0  0  0
  2  6  1  0  0  0
  2 11  2  0  0  0
  3  6  2  0  0  0
  3 12  1  0  0  0
  4  7  1  0  0  0
  5 13  1  0  0  0
  7  8  1  0  0  0
  8  9  1  0  0  0
  8 26  1  0  0  0
  9 10  1  0  0  0
 12 14  1  0  0  0
 13 20  4  0  0  0
 13 24  4  0  0  0
 14 15  1  0  0  0
 14 19  1  0  0  0
 15 16  1  0  0  0
 16 17  1  0  0  0
 17 18  1  0  0  0
 18 19  1  0  0  0
 20 21  4  0  0  0
 21 22  4  0  0  0
 22 23  4  0  0  0
 23 24  4  0  0  0
 23 25  1  0  0  0
 26 27  1  0  0  0
 27 28  4  0  0  0
 27 32  4  0  0  0
 28 29  4  0  0  0
 29 30  4  0  0  0
 30 31  4  0  0  0
 31 32  4  0  0  0
 31 33  1  0  0  0
 33 34  1  0  0  0
 34 35  1  0  0  0
 34 36  1  0  0  0
  4 37  1  0  0  0
  4 38  1  0  0  0
  7 39  1  0  0  0
  7 40  1  0  0  0
  8 41  1  0  0  0
  9 42  1  0  0  0
  9 43  1  0  0  0
 10 44  1  0  0  0
 10 45  1  0  0  0
 12 46  1  0  0  0
 14 47  1  0  0  0
 15 48  1  0  0  0
 15 49  1  0  0  0
 16 50  1  0  0  0
 16 51  1  0  0  0
 17 52  1  0  0  0
 17 53  1  0  0  0
 18 54  1  0  0  0
 18 55  1  0  0  0
 19 56  1  0  0  0
 19 57  1  0  0  0
 20 58  1  0  0  0
 21 59  1  0  0  0
 22 60  1  0  0  0
 24 61  1  0  0  0
 26 62  1  0  0  0
 26 63  1  0  0  0
 28 64  1  0  0  0
 29 65  1  0  0  0
 30 66  1  0  0  0
 32 67  1  0  0  0
 34 68  1  0  0  0
 35 69  1  0  0  0
 35 70  1  0  0  0
 35 71  1  0  0  0
 36 72  1  0  0  0
 36 73  1  0  0  0
 36 74  1  0  0  0
M  END
$$$$
