1ni1_ligand
  -I-interpret- 

 50 53  0  0  0  0  0  0  0  0999 V2000
   50.3780   48.9040   -1.2380 O   0  0  0  0  0
   50.8460   47.6040   -0.8410 C   0  0  0  0  0
   52.1080   47.7610    0.0520 C   0  0  0  0  0
   52.0700   47.4920    1.4600 C   0  0  0  0  0
   53.2300   47.6620    2.2760 C   0  0  0  0  0
   54.4340   48.1010    1.6830 C   0  0  0  0  0
   54.4870   48.3620    0.3070 C   0  0  0  0  0
   53.3440   48.1980   -0.4920 C   0  0  0  0  0
   54.6030   52.0260    1.7970 C   0  0  0  0  0
   54.7530   51.7970    0.4120 C   0  0  0  0  0
   56.3190   51.4400   -0.2150 Cl  0  0  0  0  0
   55.6090   48.3000    2.4660 C   0  0  0  0  0
   53.6440   51.8490   -0.4710 C   0  0  0  0  0
   56.5540   48.5140    3.0970 N   0  0  0  0  0
   53.3150   52.3150    2.2960 C   0  0  0  0  0
   52.3520   52.1410    0.0300 C   0  0  0  0  0
   52.2020   52.3700    1.4150 C   0  0  0  0  0
   50.1050   49.9440   -0.2770 C   0  0  0  0  0
   51.7230   45.4050   -3.9430 N   0  0  0  0  0
   52.0480   46.0740   -2.6820 C   0  0  0  0  0
   50.9830   46.7490   -2.1600 C   0  0  0  0  0
   49.9210   46.4700   -3.1740 N   0  0  0  0  0
   50.4440   45.6930   -4.1330 C   0  0  0  0  0
   48.5250   46.9280   -3.1520 C   0  0  0  0  0
   49.1190   51.4100   -1.8960 N   0  0  0  0  0
   50.1570   51.2340   -1.0370 C   0  0  0  0  0
   51.1780   52.2130   -0.9020 C   0  0  0  0  0
   51.0640   53.3740   -1.7000 C   0  0  0  0  0
   49.9880   53.5410   -2.6060 C   0  0  0  0  0
   49.0090   52.5210   -2.6670 C   0  0  0  0  0
   49.9060   54.7340   -3.4130 C   0  0  0  0  0
   49.8260   55.6580   -4.0990 N   0  0  0  0  0
   47.6380   52.6460   -3.7290 Cl  0  0  0  0  0
   50.1610   47.0503   -0.1989 H   0  0  0  0  0
   51.1399   47.1519    1.9154 H   0  0  0  0  0
   53.1863   47.4550    3.3453 H   0  0  0  0  0
   55.4212   48.6943   -0.1457 H   0  0  0  0  0
   53.4077   48.4121   -1.5589 H   0  0  0  0  0
   55.4626   51.9806    2.4657 H   0  0  0  0  0
   53.7864   51.6641   -1.5357 H   0  0  0  0  0
   53.1736   52.4967    3.3614 H   0  0  0  0  0
   51.2133   52.5933    1.8160 H   0  0  0  0  0
   50.8343   49.9338    0.5330 H   0  0  0  0  0
   49.1315   49.8017    0.1923 H   0  0  0  0  0
   53.0310   46.0371   -2.2124 H   0  0  0  0  0
   49.8715   45.3325   -4.9876 H   0  0  0  0  0
   48.0340   46.5500   -2.2553 H   0  0  0  0  0
   48.5015   48.0177   -3.1487 H   0  0  0  0  0
   48.0076   46.5548   -4.0358 H   0  0  0  0  0
   51.8187   54.1560   -1.6166 H   0  0  0  0  0
  1  2  1  0  0  0
 18  1  1  0  0  0
  2  3  1  0  0  0
  2 21  1  0  0  0
  3  4  4  0  0  0
  3  8  4  0  0  0
  4  5  4  0  0  0
  5  6  4  0  0  0
  7  6  4  0  0  0
  6 12  1  0  0  0
  8  7  4  0  0  0
 10  9  4  0  0  0
 15  9  4  0  0  0
 10 11  1  0  0  0
 13 10  4  0  0  0
 12 14  3  0  0  0
 16 13  4  0  0  0
 17 15  4  0  0  0
 16 17  4  0  0  0
 27 16  1  0  0  0
 26 18  1  0  0  0
 20 19  4  0  0  0
 23 19  4  0  0  0
 21 20  4  0  0  0
 21 22  4  0  0  0
 22 23  4  0  0  0
 22 24  1  0  0  0
 26 25  4  0  0  0
 25 30  4  0  0  0
 26 27  4  0  0  0
 27 28  4  0  0  0
 28 29  4  0  0  0
 29 30  4  0  0  0
 29 31  1  0  0  0
 30 33  1  0  0  0
 31 32  3  0  0  0
  2 34  1  0  0  0
  4 35  1  0  0  0
  5 36  1  0  0  0
  7 37  1  0  0  0
  8 38  1  0  0  0
  9 39  1  0  0  0
 13 40  1  0  0  0
 15 41  1  0  0  0
 17 42  1  0  0  0
 18 43  1  0  0  0
 18 44  1  0  0  0
 20 45  1  0  0  0
 23 46  1  0  0  0
 24 47  1  0  0  0
 24 48  1  0  0  0
 24 49  1  0  0  0
 28 50  1  0  0  0
M  END
$$$$
