6jib_ligand
  -I-interpret- 

 41 44  0  0  0  0  0  0  0  0999 V2000
  -66.5820   31.8750  -21.8770 C   0  0  0  0  0
  -61.7890   28.2470  -29.0530 C   0  0  0  0  0
  -62.8860   28.2660  -31.1980 C   0  0  0  0  0
  -61.6400   28.1500  -31.8410 C   0  0  0  0  0
  -60.4570   28.0550  -31.1100 C   0  0  0  0  0
  -65.1900   31.1550  -23.8600 C   0  0  0  0  0
  -62.8750   30.3970  -23.4610 C   0  0  0  0  0
  -63.0170   30.6040  -22.0650 C   0  0  0  0  0
  -64.2500   31.0810  -21.5810 C   0  0  0  0  0
  -61.6280   29.8600  -24.0190 C   0  0  0  0  0
  -61.7800   28.3060  -27.5890 C   0  0  0  0  0
  -63.1330   28.4160  -26.8770 C   0  0  0  0  0
  -60.5920   28.2140  -26.9310 C   0  0  0  0  0
  -65.3160   31.3910  -22.4620 C   0  0  0  0  0
  -60.4620   28.2860  -25.4540 C   0  0  0  0  0
  -62.9770   28.1780  -25.3750 C   0  0  0  0  0
  -67.6430   31.7370  -22.5200 O   0  0  0  0  0
  -66.5340   32.3190  -20.7200 O   0  0  0  0  0
  -63.9380   30.6740  -24.3360 C   0  0  0  0  0
  -60.5190   30.2770  -23.6320 O   0  0  0  0  0
  -61.7390   28.8430  -24.9120 N   0  0  0  0  0
  -59.3270   28.0620  -27.6360 C   0  0  0  0  0
  -58.2750   27.9860  -27.0310 O   0  0  0  0  0
  -59.3770   28.0210  -29.0110 O   0  0  0  0  0
  -60.5480   28.1190  -29.7150 C   0  0  0  0  0
  -62.9900   28.3330  -29.7870 C   0  0  0  0  0
  -63.7935   28.3053  -31.8004 H   0  0  0  0  0
  -61.5990   28.1341  -32.9301 H   0  0  0  0  0
  -59.4946   27.9350  -31.6075 H   0  0  0  0  0
  -66.0217   31.3360  -24.5409 H   0  0  0  0  0
  -62.1915   30.3987  -21.3834 H   0  0  0  0  0
  -64.3874   31.2145  -20.5080 H   0  0  0  0  0
  -63.8067   27.6621  -27.2842 H   0  0  0  0  0
  -63.5326   29.4178  -27.0345 H   0  0  0  0  0
  -59.6225   28.9239  -25.1778 H   0  0  0  0  0
  -60.2750   27.2948  -25.0409 H   0  0  0  0  0
  -62.9182   27.1081  -25.1750 H   0  0  0  0  0
  -63.8366   28.5883  -24.8451 H   0  0  0  0  0
  -67.4452   31.3791  -23.3886 H   0  0  0  0  0
  -63.8008   30.5168  -25.4058 H   0  0  0  0  0
  -63.9542   28.4459  -29.2912 H   0  0  0  0  0
 14  1  1  0  0  0
  1 17  1  0  0  0
  1 18  2  0  0  0
 11  2  1  0  0  0
  2 25  4  0  0  0
  2 26  4  0  0  0
  3  4  4  0  0  0
 26  3  4  0  0  0
  5  4  4  0  0  0
 25  5  4  0  0  0
  6 14  4  0  0  0
 19  6  4  0  0  0
  7  8  4  0  0  0
 10  7  1  0  0  0
  7 19  4  0  0  0
  8  9  4  0  0  0
  9 14  4  0  0  0
 10 20  2  0  0  0
 21 10  1  0  0  0
 11 12  1  0  0  0
 13 11  2  0  0  0
 12 16  1  0  0  0
 15 13  1  0  0  0
 13 22  1  0  0  0
 15 21  1  0  0  0
 16 21  1  0  0  0
 22 23  2  0  0  0
 22 24  1  0  0  0
 24 25  1  0  0  0
  3 27  1  0  0  0
  4 28  1  0  0  0
  5 29  1  0  0  0
  6 30  1  0  0  0
  8 31  1  0  0  0
  9 32  1  0  0  0
 12 33  1  0  0  0
 12 34  1  0  0  0
 15 35  1  0  0  0
 15 36  1  0  0  0
 16 37  1  0  0  0
 16 38  1  0  0  0
 17 39  1  0  0  0
 19 40  1  0  0  0
 26 41  1  0  0  0
M  END
$$$$
