4x8t_ligand
  -I-interpret- 

 20 21  0  0  0  0  0  0  0  0999 V2000
   10.9770   31.5150   29.4090 C   0  0  0  0  0
    9.8170   34.1060   30.2030 C   0  0  0  0  0
    9.9990   33.7720   28.7790 C   0  0  0  0  0
   10.0340   33.1020   31.0740 N   0  0  0  0  0
   10.5160   32.5240   28.3850 C   0  0  0  0  0
    9.5190   34.6630   27.8090 C   0  0  0  0  0
    9.4250   35.2050   30.5820 O   0  0  0  0  0
   10.5570   32.2150   27.0280 C   0  0  0  0  0
    9.5370   34.2940   26.4790 C   0  0  0  0  0
   10.2620   31.7040   30.7260 C   0  0  0  0  0
   10.0870   33.0990   26.0730 C   0  0  0  0  0
    8.7010   35.2870   25.3140 Cl  0  0  0  0  0
   12.0463   31.6498   29.5721 H   0  0  0  0  0
   10.7566   30.5153   29.0348 H   0  0  0  0  0
   10.0394   33.3405   32.0657 H   0  0  0  0  0
    9.1345   35.6397   28.1028 H   0  0  0  0  0
   10.9680   31.2564   26.7113 H   0  0  0  0  0
   10.8924   31.2731   31.5039 H   0  0  0  0  0
    9.2860   31.2266   30.6385 H   0  0  0  0  0
   10.1513   32.8525   25.0132 H   0  0  0  0  0
  5  1  1  0  0  0
  1 10  1  0  0  0
  3  2  1  0  0  0
  2  4  1  0  0  0
  2  7  2  0  0  0
  3  5  4  0  0  0
  3  6  4  0  0  0
  4 10  1  0  0  0
  5  8  4  0  0  0
  6  9  4  0  0  0
  8 11  4  0  0  0
  9 11  4  0  0  0
  9 12  1  0  0  0
  1 13  1  0  0  0
  1 14  1  0  0  0
  4 15  1  0  0  0
  6 16  1  0  0  0
  8 17  1  0  0  0
 10 18  1  0  0  0
 10 19  1  0  0  0
 11 20  1  0  0  0
M  END
$$$$
