2j9n_ligand
  -I-interpret- 

 17 17  0  0  0  0  0  0  0  0999 V2000
   28.6820   43.7880   16.0130 C   0  0  0  0  0
   28.4050   44.3650   17.2430 C   0  0  0  0  0
   28.0380   43.6080   18.3440 C   0  0  0  0  0
   27.9890   42.2340   18.2400 C   0  0  0  0  0
   28.2580   41.6420   17.0210 C   0  0  0  0  0
   28.6190   42.4170   15.9170 C   0  0  0  0  0
   29.0350   44.5610   14.9010 C   0  0  0  0  0
   28.7290   45.8570   14.8650 N   0  0  0  0  0
   29.6720   44.0550   13.8530 N   0  0  0  0  0
   28.4782   45.4476   17.3470 H   0  0  0  0  0
   27.7895   44.0957   19.2866 H   0  0  0  0  0
   27.7413   41.6230   19.1080 H   0  0  0  0  0
   28.1877   40.5590   16.9200 H   0  0  0  0  0
   28.8532   41.9310   14.9699 H   0  0  0  0  0
   28.9844   46.4190   14.0530 H   0  0  0  0  0
   28.2393   46.2874   15.6495 H   0  0  0  0  0
   29.9081   44.6538   13.0617 H   0  0  0  0  0
  1  2  4  0  0  0
  1  6  4  0  0  0
  1  7  1  0  0  0
  2  3  4  0  0  0
  3  4  4  0  0  0
  4  5  4  0  0  0
  5  6  4  0  0  0
  7  8  1  0  0  0
  7  9  2  0  0  0
  2 10  1  0  0  0
  3 11  1  0  0  0
  4 12  1  0  0  0
  5 13  1  0  0  0
  6 14  1  0  0  0
  8 15  1  0  0  0
  8 16  1  0  0  0
  9 17  1  0  0  0
M  END
$$$$
