4j8s_ligand
  -I-interpret- 

216217  0  0  0  0  0  0  0  0999 V2000
    9.8250    2.3180   29.1810 N   0  3  0  0  0
   10.9800    2.1500   28.2990 C   0  0  0  0  0
   12.1860    1.4890   29.0040 C   0  0  0  0  0
   13.2940    1.4790   28.4510 O   0  0  0  0  0
   11.4350    3.5180   27.7440 C   0  0  0  0  0
   10.3410    4.5910   27.6130 C   0  0  0  0  0
   10.9710    5.9950   27.4320 C   0  0  0  0  0
   10.3010    6.7880   26.3920 N   0  0  0  0  0
   10.3590    6.5180   25.0900 C   0  0  0  0  0
   11.0300    5.4580   24.6530 N   0  0  0  0  0
    9.7240    7.2940   24.2150 N   0  0  0  0  0
   11.9840    0.9280   30.1980 N   0  0  0  0  0
   13.1190    0.5480   31.0530 C   0  0  0  0  0
   14.0000   -0.5690   30.5040 C   0  0  0  0  0
   13.5060   -1.5460   29.9070 O   0  0  0  0  0
   12.6520    0.1230   32.4470 C   0  0  0  0  0
   11.8630    1.1680   33.1740 C   0  0  0  0  0
   11.4220    0.5900   34.4670 C   0  0  0  0  0
   12.4560    0.6960   35.4870 N   0  0  0  0  0
   12.4140    0.0490   36.6410 C   0  0  0  0  0
   11.4060   -0.7740   36.9100 N   0  0  0  0  0
   13.3630    0.2450   37.5370 N   0  0  0  0  0
   15.3020   -0.4380   30.7300 N   0  0  0  0  0
   16.2330   -1.4940   30.3320 C   0  0  0  0  0
   16.0170   -2.6970   31.2710 C   0  0  0  0  0
   15.7450   -2.5220   32.4610 O   0  0  0  0  0
   17.6820   -1.0110   30.4120 C   0  0  0  0  0
   18.0910    0.1260   29.4780 C   0  0  0  0  0
   19.5130    0.5820   29.7970 C   0  0  0  0  0
   17.9340   -0.2650   27.9950 C   0  0  0  0  0
   16.1750   -3.9100   30.7570 N   0  0  0  0  0
   15.8970   -5.1010   31.5630 C   0  0  0  0  0
   16.6500   -5.1380   32.8740 C   0  0  0  0  0
   16.0940   -5.6100   33.8690 O   0  0  0  0  0
   16.3310   -6.2580   30.6520 C   0  0  0  0  0
   16.2400   -5.7110   29.2760 C   0  0  0  0  0
   16.5440   -4.2540   29.3790 C   0  0  0  0  0
   17.8880   -4.6630   32.8900 N   0  0  0  0  0
   18.7030   -4.7090   34.1110 C   0  0  0  0  0
   18.0170   -3.9560   35.2590 C   0  0  0  0  0
   18.0480   -4.3930   36.4170 O   0  0  0  0  0
   20.1230   -4.1640   33.8700 C   0  0  0  0  0
   20.9710   -4.2620   35.1460 C   0  0  0  0  0
   20.1100   -2.6970   33.4190 C   0  0  0  0  0
   21.0470   -5.6800   35.7470 C   0  0  0  0  0
   17.3380   -2.8590   34.9380 N   0  0  0  0  0
   16.6990   -2.0770   35.9930 C   0  0  0  0  0
   15.4040   -2.7120   36.4880 C   0  0  0  0  0
   15.0500   -2.6150   37.6760 O   0  0  0  0  0
   16.4810   -0.6520   35.5050 C   0  0  0  0  0
   17.7530    0.1070   35.2990 C   0  0  0  0  0
   18.6390    0.3100   36.3440 C   0  0  0  0  0
   18.0530    0.6530   34.0700 C   0  0  0  0  0
   19.8130    1.0310   36.1550 C   0  0  0  0  0
   19.1940    1.3400   33.8680 C   0  0  0  0  0
   20.0900    1.5570   34.9230 C   0  0  0  0  0
   14.6620   -3.3190   35.5750 N   0  0  0  0  0
   13.4980   -4.0870   35.9490 C   0  0  0  0  0
   13.9430   -5.1730   36.9080 C   0  0  0  0  0
   13.2540   -5.4740   37.8790 O   0  0  0  0  0
   12.8660   -4.7590   34.7220 C   0  0  0  0  0
   11.9910   -3.8210   33.8990 C   0  0  0  0  0
   12.1070   -3.7580   32.6660 O   0  0  0  0  0
   11.0880   -3.1200   34.5660 N   0  0  0  0  0
   15.1060   -5.7650   36.6180 N   0  0  0  0  0
   15.5970   -6.8960   37.3880 C   0  0  0  0  0
   15.9760   -6.5180   38.8200 C   0  0  0  0  0
   15.6460   -7.2330   39.7620 O   0  0  0  0  0
   16.8020   -7.5470   36.6970 C   0  0  0  0  0
   17.2570   -8.8290   37.3840 C   0  0  0  0  0
   18.7350   -9.0990   37.1600 C   0  0  0  0  0
   19.0430   -9.3110   35.7520 N   0  0  0  0  0
   20.2760   -9.3280   35.2530 C   0  0  0  0  0
   21.3270   -9.1390   36.0500 N   0  0  0  0  0
   20.4550   -9.5280   33.9540 N   0  0  0  0  0
   16.6940   -5.4220   38.9860 N   0  0  0  0  0
   17.2080   -5.1230   40.3230 C   0  0  0  0  0
   16.1460   -4.4600   41.1910 C   0  0  0  0  0
   16.1680   -4.6020   42.4140 O   0  0  0  0  0
   18.4900   -4.2970   40.2810 C   0  0  0  0  0
   18.2510   -2.9300   39.6810 C   0  0  0  0  0
   19.5680   -5.0420   39.4710 C   0  0  0  0  0
   19.4690   -2.0320   39.8050 C   0  0  0  0  0
   15.1960   -3.7830   40.5460 N   0  0  0  0  0
   14.1040   -3.0910   41.2480 C   0  0  0  0  0
   13.1470   -4.0130   41.9980 C   0  0  0  0  0
   12.5800   -4.9430   41.4230 O   0  0  0  0  0
   13.2780   -2.2680   40.2540 C   0  0  0  0  0
   13.9720   -1.1100   39.8760 O   0  0  0  0  0
   12.9520   -3.7400   43.2840 N   0  0  0  0  0
   11.8950   -4.3950   44.0610 C   0  0  0  0  0
   10.6410   -3.5170   44.0510 C   0  0  0  0  0
   10.5730   -2.5100   44.7500 O   0  0  0  0  0
   12.3310   -4.6610   45.5220 C   0  0  0  0  0
   11.1750   -5.2600   46.3170 C   0  0  0  0  0
   13.5310   -5.6000   45.5590 C   0  0  0  0  0
    9.6570   -3.9010   43.2370 N   0  0  0  0  0
    8.4570   -3.0930   43.0500 C   0  0  0  0  0
    7.3460   -3.5290   43.9950 C   0  0  0  0  0
    6.1787   -3.0731   43.8642 O   0  0  0  0  0
    7.9780   -3.2100   41.6070 C   0  0  0  0  0
    7.6110   -4.5490   41.3090 O   0  0  0  0  0
    7.5958   -4.3524   44.9155 O   0  0  0  0  0
    9.5368    1.4074   29.5390 H   0  0  0  0  0
   10.0789    2.9259   29.9597 H   0  0  0  0  0
    9.0568    2.7374   28.6571 H   0  0  0  0  0
   10.6519    1.4917   27.4946 H   0  0  0  0  0
   11.8029    3.3316   26.7350 H   0  0  0  0  0
   12.1635    3.9092   28.4542 H   0  0  0  0  0
    9.7359    4.5902   28.5196 H   0  0  0  0  0
    9.7276    4.3646   26.7409 H   0  0  0  0  0
   12.0100    5.8592   27.1317 H   0  0  0  0  0
   10.8722    6.5302   28.3764 H   0  0  0  0  0
    9.7560    7.5981   26.6871 H   0  0  0  0  0
   11.5045    4.8456   25.3165 H   0  0  0  0  0
    9.7556    7.0724   23.2199 H   0  0  0  0  0
    9.2057    8.1104   24.5395 H   0  0  0  0  0
   11.0312    0.7608   30.5215 H   0  0  0  0  0
   13.7214    1.4557   31.0897 H   0  0  0  0  0
   13.5453   -0.0760   33.0391 H   0  0  0  0  0
   12.0003   -0.7413   32.3187 H   0  0  0  0  0
   10.9992    1.4689   32.5812 H   0  0  0  0  0
   12.4766    2.0524   33.3458 H   0  0  0  0  0
   11.1999   -0.4659   34.3125 H   0  0  0  0  0
   10.5461    1.1418   34.8082 H   0  0  0  0  0
   13.2558    1.3015   35.3022 H   0  0  0  0  0
   11.3657   -1.2543   37.8090 H   0  0  0  0  0
   10.6726   -0.9255   36.2175 H   0  0  0  0  0
   14.1253    0.8932   37.3390 H   0  0  0  0  0
   15.6552    0.4043   31.1840 H   0  0  0  0  0
   16.0436   -1.7790   29.2971 H   0  0  0  0  0
   18.2951   -1.8652   30.1246 H   0  0  0  0  0
   17.8097   -0.6241   31.4230 H   0  0  0  0  0
   17.4169    0.9656   29.6478 H   0  0  0  0  0
   19.5582    0.9318   30.8283 H   0  0  0  0  0
   20.1995   -0.2543   29.6652 H   0  0  0  0  0
   19.7927    1.3928   29.1243 H   0  0  0  0  0
   18.5636   -1.1283   27.7796 H   0  0  0  0  0
   16.8920   -0.5146   27.7947 H   0  0  0  0  0
   18.2358    0.5724   27.3659 H   0  0  0  0  0
   14.8494   -5.1388   31.8618 H   0  0  0  0  0
   15.6988   -7.1364   30.7823 H   0  0  0  0  0
   17.3382   -6.6030   30.8859 H   0  0  0  0  0
   15.2475   -5.8741   28.8558 H   0  0  0  0  0
   16.9435   -6.2105   28.6099 H   0  0  0  0  0
   17.5899   -4.0343   29.1646 H   0  0  0  0  0
   15.9943   -3.6647   28.6451 H   0  0  0  0  0
   18.2809   -4.2588   32.0399 H   0  0  0  0  0
   18.7984   -5.7563   34.3978 H   0  0  0  0  0
   20.5542   -4.7775   33.0789 H   0  0  0  0  0
   20.5033   -3.6207   35.8930 H   0  0  0  0  0
   21.9871   -3.9705   34.8801 H   0  0  0  0  0
   19.5497   -2.6093   32.4881 H   0  0  0  0  0
   19.6373   -2.0860   34.1880 H   0  0  0  0  0
   21.1338   -2.3575   33.2617 H   0  0  0  0  0
   20.0431   -6.0192   36.0025 H   0  0  0  0  0
   21.4867   -6.3596   35.0170 H   0  0  0  0  0
   21.6647   -5.6601   36.6449 H   0  0  0  0  0
   17.2640   -2.5662   33.9637 H   0  0  0  0  0
   17.3652   -2.0583   36.8555 H   0  0  0  0  0
   15.9059   -0.1279   36.2683 H   0  0  0  0  0
   15.9729   -0.7087   34.5423 H   0  0  0  0  0
   18.4130   -0.1010   37.3279 H   0  0  0  0  0
   17.3528    0.5264   33.2443 H   0  0  0  0  0
   20.5074    1.1760   36.9825 H   0  0  0  0  0
   19.4219    1.7301   32.8760 H   0  0  0  0  0
   20.9980    2.1387   34.7638 H   0  0  0  0  0
   14.9170   -3.2428   34.5903 H   0  0  0  0  0
   12.7632   -3.4224   36.4035 H   0  0  0  0  0
   12.2307   -5.5681   35.0823 H   0  0  0  0  0
   13.6784   -5.0979   34.0791 H   0  0  0  0  0
   10.4534   -2.4980   34.0652 H   0  0  0  0  0
   11.0267   -3.2017   35.5809 H   0  0  0  0  0
   15.6621   -5.4148   35.8379 H   0  0  0  0  0
   14.7731   -7.6077   37.4394 H   0  0  0  0  0
   17.6294   -6.8383   36.7322 H   0  0  0  0  0
   16.5054   -7.8014   35.6794 H   0  0  0  0  0
   16.6906   -9.6606   36.9647 H   0  0  0  0  0
   17.0883   -8.7206   38.4554 H   0  0  0  0  0
   19.0036  -10.0023   37.7077 H   0  0  0  0  0
   19.2965   -8.2308   37.5050 H   0  0  0  0  0
   18.2647   -9.4554   35.1087 H   0  0  0  0  0
   22.2700   -9.1481   35.6613 H   0  0  0  0  0
   21.1885   -8.9853   37.0488 H   0  0  0  0  0
   19.6497   -9.6677   33.3438 H   0  0  0  0  0
   16.8856   -4.7991   38.2013 H   0  0  0  0  0
   17.4652   -6.0775   40.7821 H   0  0  0  0  0
   18.8322   -4.1585   41.3066 H   0  0  0  0  0
   17.4267   -2.4616   40.2188 H   0  0  0  0  0
   18.0286   -3.0575   38.6216 H   0  0  0  0  0
   19.7744   -6.0034   39.9414 H   0  0  0  0  0
   19.2100   -5.2030   38.4541 H   0  0  0  0  0
   20.4796   -4.4449   39.4464 H   0  0  0  0  0
   19.7178   -1.9027   40.8583 H   0  0  0  0  0
   20.3106   -2.4896   39.2851 H   0  0  0  0  0
   19.2499   -1.0613   39.3603 H   0  0  0  0  0
   15.2274   -3.7433   39.5273 H   0  0  0  0  0
   14.5991   -2.4633   41.9889 H   0  0  0  0  0
   12.3401   -1.9789   40.7282 H   0  0  0  0  0
   13.0887   -2.8720   39.3666 H   0  0  0  0  0
   13.4400   -0.6081   39.2542 H   0  0  0  0  0
   13.5540   -3.0563   43.7429 H   0  0  0  0  0
   11.6865   -5.3594   43.5977 H   0  0  0  0  0
   12.6171   -3.7114   45.9742 H   0  0  0  0  0
   10.3359   -4.5643   46.3158 H   0  0  0  0  0
   10.8694   -6.2006   45.8587 H   0  0  0  0  0
   11.4966   -5.4416   47.3425 H   0  0  0  0  0
   13.2640   -6.5474   45.0907 H   0  0  0  0  0
   14.3619   -5.1472   45.0180 H   0  0  0  0  0
   13.8223   -5.7746   46.5947 H   0  0  0  0  0
    9.7458   -4.7827   42.7320 H   0  0  0  0  0
    8.7073   -2.0559   43.2732 H   0  0  0  0  0
    8.7867   -2.9090   40.9410 H   0  0  0  0  0
    7.1087   -2.5668   41.4703 H   0  0  0  0  0
    7.3127   -4.6027   40.3981 H   0  0  0  0  0
    8.5226   -4.6001   44.8789 H   0  0  0  0  0
  1  2  1  0  0  0
  2  3  1  0  0  0
  2  5  1  0  0  0
  3  4  2  0  0  0
  3 12  1  0  0  0
  5  6  1  0  0  0
  6  7  1  0  0  0
  7  8  1  0  0  0
  8  9  1  0  0  0
  9 10  2  0  0  0
  9 11  1  0  0  0
 12 13  1  0  0  0
 13 14  1  0  0  0
 13 16  1  0  0  0
 14 15  2  0  0  0
 14 23  1  0  0  0
 16 17  1  0  0  0
 17 18  1  0  0  0
 18 19  1  0  0  0
 19 20  1  0  0  0
 20 21  1  0  0  0
 20 22  2  0  0  0
 23 24  1  0  0  0
 24 25  1  0  0  0
 24 27  1  0  0  0
 25 26  2  0  0  0
 25 31  1  0  0  0
 27 28  1  0  0  0
 28 29  1  0  0  0
 28 30  1  0  0  0
 31 32  1  0  0  0
 31 37  1  0  0  0
 32 33  1  0  0  0
 32 35  1  0  0  0
 33 34  2  0  0  0
 33 38  1  0  0  0
 35 36  1  0  0  0
 36 37  1  0  0  0
 38 39  1  0  0  0
 39 40  1  0  0  0
 39 42  1  0  0  0
 40 41  2  0  0  0
 40 46  1  0  0  0
 42 43  1  0  0  0
 42 44  1  0  0  0
 43 45  1  0  0  0
 46 47  1  0  0  0
 47 48  1  0  0  0
 47 50  1  0  0  0
 48 49  2  0  0  0
 48 57  1  0  0  0
 50 51  1  0  0  0
 51 52  4  0  0  0
 51 53  4  0  0  0
 52 54  4  0  0  0
 53 55  4  0  0  0
 54 56  4  0  0  0
 55 56  4  0  0  0
 57 58  1  0  0  0
 58 59  1  0  0  0
 58 61  1  0  0  0
 59 60  2  0  0  0
 59 65  1  0  0  0
 61 62  1  0  0  0
 62 63  2  0  0  0
 62 64  1  0  0  0
 65 66  1  0  0  0
 66 67  1  0  0  0
 66 69  1  0  0  0
 67 68  2  0  0  0
 67 76  1  0  0  0
 69 70  1  0  0  0
 70 71  1  0  0  0
 71 72  1  0  0  0
 72 73  1  0  0  0
 73 74  1  0  0  0
 73 75  2  0  0  0
 76 77  1  0  0  0
 77 78  1  0  0  0
 77 80  1  0  0  0
 78 79  2  0  0  0
 78 84  1  0  0  0
 80 81  1  0  0  0
 80 82  1  0  0  0
 81 83  1  0  0  0
 84 85  1  0  0  0
 85 86  1  0  0  0
 85 88  1  0  0  0
 86 87  2  0  0  0
 86 90  1  0  0  0
 88 89  1  0  0  0
 90 91  1  0  0  0
 91 92  1  0  0  0
 91 94  1  0  0  0
 92 93  2  0  0  0
 92 97  1  0  0  0
 94 95  1  0  0  0
 94 96  1  0  0  0
 97 98  1  0  0  0
 98 99  1  0  0  0
 98101  1  0  0  0
 99100  2  0  0  0
101102  1  0  0  0
 99103  1  0  0  0
  1104  1  0  0  0
  1105  1  0  0  0
  1106  1  0  0  0
  2107  1  0  0  0
  5108  1  0  0  0
  5109  1  0  0  0
  6110  1  0  0  0
  6111  1  0  0  0
  7112  1  0  0  0
  7113  1  0  0  0
  8114  1  0  0  0
 10115  1  0  0  0
 11116  1  0  0  0
 11117  1  0  0  0
 12118  1  0  0  0
 13119  1  0  0  0
 16120  1  0  0  0
 16121  1  0  0  0
 17122  1  0  0  0
 17123  1  0  0  0
 18124  1  0  0  0
 18125  1  0  0  0
 19126  1  0  0  0
 21127  1  0  0  0
 21128  1  0  0  0
 22129  1  0  0  0
 23130  1  0  0  0
 24131  1  0  0  0
 27132  1  0  0  0
 27133  1  0  0  0
 28134  1  0  0  0
 29135  1  0  0  0
 29136  1  0  0  0
 29137  1  0  0  0
 30138  1  0  0  0
 30139  1  0  0  0
 30140  1  0  0  0
 32141  1  0  0  0
 35142  1  0  0  0
 35143  1  0  0  0
 36144  1  0  0  0
 36145  1  0  0  0
 37146  1  0  0  0
 37147  1  0  0  0
 38148  1  0  0  0
 39149  1  0  0  0
 42150  1  0  0  0
 43151  1  0  0  0
 43152  1  0  0  0
 44153  1  0  0  0
 44154  1  0  0  0
 44155  1  0  0  0
 45156  1  0  0  0
 45157  1  0  0  0
 45158  1  0  0  0
 46159  1  0  0  0
 47160  1  0  0  0
 50161  1  0  0  0
 50162  1  0  0  0
 52163  1  0  0  0
 53164  1  0  0  0
 54165  1  0  0  0
 55166  1  0  0  0
 56167  1  0  0  0
 57168  1  0  0  0
 58169  1  0  0  0
 61170  1  0  0  0
 61171  1  0  0  0
 64172  1  0  0  0
 64173  1  0  0  0
 65174  1  0  0  0
 66175  1  0  0  0
 69176  1  0  0  0
 69177  1  0  0  0
 70178  1  0  0  0
 70179  1  0  0  0
 71180  1  0  0  0
 71181  1  0  0  0
 72182  1  0  0  0
 74183  1  0  0  0
 74184  1  0  0  0
 75185  1  0  0  0
 76186  1  0  0  0
 77187  1  0  0  0
 80188  1  0  0  0
 81189  1  0  0  0
 81190  1  0  0  0
 82191  1  0  0  0
 82192  1  0  0  0
 82193  1  0  0  0
 83194  1  0  0  0
 83195  1  0  0  0
 83196  1  0  0  0
 84197  1  0  0  0
 85198  1  0  0  0
 88199  1  0  0  0
 88200  1  0  0  0
 89201  1  0  0  0
 90202  1  0  0  0
 91203  1  0  0  0
 94204  1  0  0  0
 95205  1  0  0  0
 95206  1  0  0  0
 95207  1  0  0  0
 96208  1  0  0  0
 96209  1  0  0  0
 96210  1  0  0  0
 97211  1  0  0  0
 98212  1  0  0  0
101213  1  0  0  0
101214  1  0  0  0
102215  1  0  0  0
103216  1  0  0  0
M  END
$$$$
