### 
### Created by X-TOOL on Mon Sep 10 21:13:13 2018
### 

@<TRIPOS>MOLECULE
4j8s_ligand
  218   219     1     0     0
SMALL
GAST_HUCK


@<TRIPOS>ATOM
      1 N           9.8250    2.3180   29.1810 N.4       1 ARG         0.2379
      2 CA         10.9800    2.1500   28.2990 C.3       1 ARG         0.0651
      3 C          12.1860    1.4890   29.0040 C.2       1 ARG         0.2267
      4 O          13.2940    1.4790   28.4510 O.2       1 ARG        -0.3907
      5 CB         11.4350    3.5180   27.7440 C.3       1 ARG         0.0110
      6 CG         10.3410    4.5910   27.6130 C.3       1 ARG        -0.0125
      7 CD         10.9710    5.9950   27.4320 C.3       1 ARG         0.0629
      8 NE         10.3010    6.7880   26.3920 N.pl3     1 ARG        -0.2723
      9 CZ         10.3590    6.5180   25.0900 C.cat     1 ARG         0.2882
     10 NH1        11.0300    5.4580   24.6530 N.pl3     1 ARG        -0.2849
     11 NH2         9.7240    7.2940   24.2150 N.pl3     1 ARG        -0.2849
     12 N          11.9840    0.9280   30.1980 N.am      1 ARG        -0.2610
     13 CA         13.1190    0.5480   31.0530 C.3       1 ARG         0.1312
     14 C          14.0000   -0.5690   30.5040 C.2       1 ARG         0.2039
     15 O          13.5060   -1.5460   29.9070 O.2       1 ARG        -0.3944
     16 CB         12.6520    0.1230   32.4470 C.3       1 ARG        -0.0092
     17 CG         11.8630    1.1680   33.1740 C.3       1 ARG        -0.0156
     18 CD         11.4220    0.5900   34.4670 C.3       1 ARG         0.0627
     19 NE         12.4560    0.6960   35.4870 N.pl3     1 ARG        -0.2723
     20 CZ         12.4140    0.0490   36.6410 C.cat     1 ARG         0.2882
     21 NH1        11.4060   -0.7740   36.9100 N.pl3     1 ARG        -0.2849
     22 NH2        13.3630    0.2450   37.5370 N.pl3     1 ARG        -0.2849
     23 N          15.3020   -0.4380   30.7300 N.am      1 LEU        -0.2637
     24 CA         16.2330   -1.4940   30.3320 C.3       1 LEU         0.1314
     25 C          16.0170   -2.6970   31.2710 C.2       1 LEU         0.2064
     26 O          15.7450   -2.5220   32.4610 O.2       1 LEU        -0.3942
     27 CB         17.6820   -1.0110   30.4120 C.3       1 LEU        -0.0101
     28 CG         18.0910    0.1260   29.4780 C.3       1 LEU        -0.0425
     29 CD1        19.5130    0.5820   29.7970 C.3       1 LEU        -0.0625
     30 CD2        17.9340   -0.2650   27.9950 C.3       1 LEU        -0.0625
     31 N          16.1750   -3.9100   30.7570 N.am      1 PRO        -0.2498
     32 CA         15.8970   -5.1010   31.5630 C.3       1 PRO         0.1338
     33 C          16.6500   -5.1380   32.8740 C.2       1 PRO         0.2041
     34 O          16.0940   -5.6100   33.8690 O.2       1 PRO        -0.3944
     35 CB         16.3310   -6.2580   30.6520 C.3       1 PRO        -0.0104
     36 CG         16.2400   -5.7110   29.2760 C.3       1 PRO        -0.0281
     37 CD         16.5440   -4.2540   29.3790 C.3       1 PRO         0.0369
     38 N          17.8880   -4.6630   32.8900 N.am      1 ILE        -0.2635
     39 CA         18.7030   -4.7090   34.1110 C.3       1 ILE         0.1335
     40 C          18.0170   -3.9560   35.2590 C.2       1 ILE         0.2043
     41 O          18.0480   -4.3930   36.4170 O.2       1 ILE        -0.3944
     42 CB         20.1230   -4.1640   33.8700 C.3       1 ILE        -0.0037
     43 CG1        20.9710   -4.2620   35.1460 C.3       1 ILE        -0.0491
     44 CG2        20.1100   -2.6970   33.4190 C.3       1 ILE        -0.0582
     45 CD1        21.0470   -5.6800   35.7470 C.3       1 ILE        -0.0648
     46 N          17.3380   -2.8590   34.9380 N.am      1 PHE        -0.2619
     47 CA         16.6990   -2.0770   35.9930 C.3       1 PHE         0.1404
     48 C          15.4040   -2.7120   36.4880 C.2       1 PHE         0.2061
     49 O          15.0500   -2.6150   37.6760 O.2       1 PHE        -0.3942
     50 CB         16.4810   -0.6520   35.5050 C.3       1 PHE         0.0214
     51 CG         17.7530    0.1070   35.2990 C.ar      1 PHE        -0.0386
     52 CD1        18.6390    0.3100   36.3440 C.ar      1 PHE        -0.0601
     53 CD2        18.0530    0.6530   34.0700 C.ar      1 PHE        -0.0601
     54 CE1        19.8130    1.0310   36.1550 C.ar      1 PHE        -0.0686
     55 CE2        19.1940    1.3400   33.8680 C.ar      1 PHE        -0.0686
     56 CZ         20.0900    1.5570   34.9230 C.ar      1 PHE        -0.0687
     57 N          14.6620   -3.3190   35.5750 N.am      1 ASN        -0.2615
     58 CA         13.4980   -4.0870   35.9490 C.3       1 ASN         0.1476
     59 C          13.9430   -5.1730   36.9080 C.2       1 ASN         0.2063
     60 O          13.2540   -5.4740   37.8790 O.2       1 ASN        -0.3942
     61 CB         12.8660   -4.7590   34.7220 C.3       1 ASN         0.0773
     62 CG         11.9910   -3.8210   33.8990 C.2       1 ASN         0.1780
     63 OD1        12.1070   -3.7580   32.6660 O.2       1 ASN        -0.3970
     64 ND2        11.0880   -3.1200   34.5660 N.am      1 ASN        -0.3007
     65 N          15.1060   -5.7650   36.6180 N.am      1 ARG        -0.2636
     66 CA         15.5970   -6.8960   37.3880 C.3       1 ARG         0.1311
     67 C          15.9760   -6.5180   38.8200 C.2       1 ARG         0.2039
     68 O          15.6460   -7.2330   39.7620 O.2       1 ARG        -0.3944
     69 CB         16.8020   -7.5470   36.6970 C.3       1 ARG        -0.0092
     70 CG         17.2570   -8.8290   37.3840 C.3       1 ARG        -0.0156
     71 CD         18.7350   -9.0990   37.1600 C.3       1 ARG         0.0627
     72 NE         19.0430   -9.3110   35.7520 N.pl3     1 ARG        -0.2723
     73 CZ         20.2760   -9.3280   35.2530 C.cat     1 ARG         0.2882
     74 NH1        21.3270   -9.1390   36.0500 N.pl3     1 ARG        -0.2849
     75 NH2        20.4550   -9.5280   33.9540 N.pl3     1 ARG        -0.2849
     76 N          16.6940   -5.4220   38.9860 N.am      1 ILE        -0.2635
     77 CA         17.2080   -5.1230   40.3230 C.3       1 ILE         0.1335
     78 C          16.1460   -4.4600   41.1910 C.2       1 ILE         0.2042
     79 O          16.1680   -4.6020   42.4140 O.2       1 ILE        -0.3944
     80 CB         18.4900   -4.2970   40.2810 C.3       1 ILE        -0.0037
     81 CG1        18.2510   -2.9300   39.6810 C.3       1 ILE        -0.0491
     82 CG2        19.5680   -5.0420   39.4710 C.3       1 ILE        -0.0582
     83 CD1        19.4690   -2.0320   39.8050 C.3       1 ILE        -0.0648
     84 N          15.1960   -3.7830   40.5460 N.am      1 SER        -0.2616
     85 CA         14.1040   -3.0910   41.2480 C.3       1 SER         0.1539
     86 C          13.1470   -4.0130   41.9980 C.2       1 SER         0.2062
     87 O          12.5800   -4.9430   41.4230 O.2       1 SER        -0.3943
     88 CB         13.2780   -2.2680   40.2540 C.3       1 SER         0.0843
     89 OG         13.9720   -1.1100   39.8760 O.3       1 SER        -0.3903
     90 N          12.9520   -3.7400   43.2840 N.am      1 VAL        -0.2634
     91 CA         11.8950   -4.3950   44.0610 C.3       1 VAL         0.1332
     92 C          10.6410   -3.5170   44.0510 C.2       1 VAL         0.2037
     93 O          10.5730   -2.5100   44.7500 O.2       1 VAL        -0.3944
     94 CB         12.3310   -4.6610   45.5220 C.3       1 VAL        -0.0063
     95 CG1        11.1750   -5.2600   46.3170 C.3       1 VAL        -0.0584
     96 CG2        13.5310   -5.6000   45.5590 C.3       1 VAL        -0.0584
     97 N           9.6570   -3.9010   43.2370 N.am      1 SER        -0.2672
     98 CA          8.4570   -3.0930   43.0500 C.3       1 SER         0.1173
     99 C           7.3460   -3.5290   43.9950 C.2       1 SER         0.0623
    100 O           6.1787   -3.0731   43.8642 O.co2     1 SER        -0.5665
    101 CB          7.9780   -3.2100   41.6070 C.3       1 SER         0.0789
    102 OG          7.6110   -4.5490   41.3090 O.3       1 SER        -0.3910
    103 O           7.5958   -4.3524   44.9155 O.co2     1 SER        -0.5665
    104 H1          9.0722    2.7518   28.6699 H         1 ARG         0.2015
    105 H2         10.0808    2.9015   29.9621 H         1 ARG         0.2015
    106 H3          9.5261    1.4165   29.5186 H         1 ARG         0.2015
    107 H4         10.6750    1.5084   27.4592 H         1 ARG         0.1098
    108 H5         11.8628    3.3501   26.7446 H         1 ARG         0.0347
    109 H6         12.2131    3.9112   28.4147 H         1 ARG         0.0347
    110 H7          9.7211    4.5877   28.5217 H         1 ARG         0.0302
    111 H8          9.7128    4.3617   26.7397 H         1 ARG         0.0302
    112 H9         12.0285    5.8730   27.1548 H         1 ARG         0.0689
    113 H10        10.9024    6.5372   28.3866 H         1 ARG         0.0689
    114 H11         9.7507    7.6061   26.6900 H         1 ARG         0.2642
    115 H12        11.0711    5.2545   23.6441 H         1 ARG         0.2615
    116 H13        11.5091    4.8396   25.3230 H         1 ARG         0.2615
    117 H14         9.2007    8.1184   24.5427 H         1 ARG         0.2615
    118 H15         9.7559    7.0702   23.2101 H         1 ARG         0.2615
    119 H16        11.0499    0.7640   30.5152 H         1 ARG         0.1884
    120 H17        13.7489    1.4435   31.1593 H         1 ARG         0.0800
    121 H18        13.5398   -0.1203   33.0492 H         1 ARG         0.0313
    122 H19        12.0232   -0.7734   32.3420 H         1 ARG         0.0313
    123 H20        10.9864    1.4577   32.5760 H         1 ARG         0.0301
    124 H21        12.4918    2.0522   33.3552 H         1 ARG         0.0301
    125 H22        11.1770   -0.4719   34.3174 H         1 ARG         0.0689
    126 H23        10.5263    1.1281   34.8107 H         1 ARG         0.0689
    127 H24        13.2636    1.3074   35.3004 H         1 ARG         0.2642
    128 H25        11.3767   -1.2758   37.8090 H         1 ARG         0.2615
    129 H26        10.6540   -0.9102   36.2195 H         1 ARG         0.2615
    130 H27        14.1443    0.8829   37.3285 H         1 ARG         0.2615
    131 H28        13.3223   -0.2400   38.4448 H         1 ARG         0.2615
    132 H29        15.6483    0.3878   31.1751 H         1 LEU         0.1883
    133 H30        16.0174   -1.7957   29.2964 H         1 LEU         0.0800
    134 H31        18.3304   -1.8713   30.1897 H         1 LEU         0.0315
    135 H32        17.8618   -0.6730   31.4432 H         1 LEU         0.0315
    136 H33        17.4167    0.9741   29.6675 H         1 LEU         0.0298
    137 H34        19.7964    1.4003   29.1188 H         1 LEU         0.0232
    138 H35        20.2069   -0.2611   29.6643 H         1 LEU         0.0232
    139 H36        19.5600    0.9354   30.8376 H         1 LEU         0.0232
    140 H37        16.8987   -0.5863   27.8082 H         1 LEU         0.0232
    141 H38        18.6222   -1.0898   27.7584 H         1 LEU         0.0232
    142 H39        18.1690    0.6021   27.3603 H         1 LEU         0.0232
    143 H40        14.8201   -5.1638   31.7783 H         1 PRO         0.0802
    144 H41        15.6575   -7.1194   30.7719 H         1 PRO         0.0313
    145 H42        17.3626   -6.5646   30.8797 H         1 PRO         0.0313
    146 H43        15.2272   -5.8604   28.8737 H         1 PRO         0.0287
    147 H44        16.9716   -6.2065   28.6208 H         1 PRO         0.0287
    148 H45        17.6129   -4.0643   29.2016 H         1 PRO         0.0524
    149 H46        15.9449   -3.6779   28.6585 H         1 PRO         0.0524
    150 H47        18.2732   -4.2668   32.0566 H         1 ILE         0.1883
    151 H48        18.7967   -5.7636   34.4092 H         1 ILE         0.0803
    152 H49        20.5930   -4.7706   33.0819 H         1 ILE         0.0345
    153 H50        20.5370   -3.5901   35.9011 H         1 ILE         0.0267
    154 H51        21.9932   -3.9334   34.9070 H         1 ILE         0.0267
    155 H52        19.5072   -2.6001   32.5040 H         1 ILE         0.0235
    156 H53        21.1394   -2.3664   33.2166 H         1 ILE         0.0235
    157 H54        19.6739   -2.0731   34.2131 H         1 ILE         0.0235
    158 H55        21.6701   -5.6612   36.6533 H         1 ILE         0.0230
    159 H56        21.4907   -6.3668   35.0112 H         1 ILE         0.0230
    160 H57        20.0345   -6.0235   36.0053 H         1 ILE         0.0230
    161 H58        17.2655   -2.5719   33.9828 H         1 PHE         0.1885
    162 H59        17.3908   -2.0388   36.8473 H         1 PHE         0.0823
    163 H60        15.8730   -0.1176   36.2498 H         1 PHE         0.0474
    164 H61        15.9391   -0.6902   34.5485 H         1 PHE         0.0474
    165 H62        18.4142   -0.0987   37.3225 H         1 PHE         0.0557
    166 H63        17.3566    0.5271   33.2489 H         1 PHE         0.0557
    167 H64        20.5036    1.1752   36.9780 H         1 PHE         0.0599
    168 H65        19.4207    1.7280   32.8815 H         1 PHE         0.0599
    169 H66        20.9930    2.1355   34.7647 H         1 PHE         0.0559
    170 H67        14.9120   -3.2443   34.6096 H         1 ASN         0.1885
    171 H68        12.7598   -3.4305   36.4327 H         1 ASN         0.0826
    172 H69        12.2468   -5.6005   35.0661 H         1 ASN         0.0551
    173 H70        13.6733   -5.1372   34.0776 H         1 ASN         0.0551
    174 H71        10.4855   -2.4881   34.0784 H         1 ASN         0.1814
    175 H72        11.0082   -3.2223   35.5576 H         1 ASN         0.1814
    176 H73        15.6512   -5.4216   35.8532 H         1 ARG         0.1883
    177 H74        14.7873   -7.6389   37.4388 H         1 ARG         0.0800
    178 H75        17.6374   -6.8314   36.7001 H         1 ARG         0.0313
    179 H76        16.5259   -7.7839   35.6589 H         1 ARG         0.0313
    180 H77        16.6767   -9.6728   36.9823 H         1 ARG         0.0301
    181 H78        17.0721   -8.7382   38.4645 H         1 ARG         0.0301
    182 H79        19.0217   -9.9978   37.7256 H         1 ARG         0.0689
    183 H80        19.3129   -8.2368   37.5241 H         1 ARG         0.0689
    184 H81        18.2571   -9.4568   35.1024 H         1 ARG         0.2642
    185 H82        22.2795   -9.1532   35.6583 H         1 ARG         0.2615
    186 H83        21.1869   -8.9787   37.0578 H         1 ARG         0.2615
    187 H84        19.6421   -9.6740   33.3386 H         1 ARG         0.2615
    188 H85        21.4069   -9.5373   33.5607 H         1 ARG         0.2615
    189 H86        16.8818   -4.8113   38.2167 H         1 ILE         0.1883
    190 H87        17.4598   -6.0846   40.7940 H         1 ILE         0.0803
    191 H88        18.8513   -4.1652   41.3116 H         1 ILE         0.0345
    192 H89        17.4063   -2.4562   40.2026 H         1 ILE         0.0267
    193 H90        18.0043   -3.0483   38.6156 H         1 ILE         0.0267
    194 H91        19.7371   -6.0353   39.9124 H         1 ILE         0.0235
    195 H92        20.5054   -4.4669   39.4922 H         1 ILE         0.0235
    196 H93        19.2312   -5.1559   38.4301 H         1 ILE         0.0235
    197 H94        19.2491   -1.0519   39.3565 H         1 ILE         0.0230
    198 H95        20.3192   -2.4927   39.2806 H         1 ILE         0.0230
    199 H96        19.7211   -1.9007   40.8676 H         1 ILE         0.0230
    200 H97        15.2268   -3.7440   39.5472 H         1 SER         0.1884
    201 H98        14.5612   -2.4092   41.9802 H         1 SER         0.0823
    202 H99        12.3261   -1.9815   40.7249 H         1 SER         0.0606
    203 H100       13.0764   -2.8766   39.3602 H         1 SER         0.0606
    204 H101       14.7937   -1.3541   39.4665 H         1 SER         0.2097
    205 H102       13.5422   -3.0697   43.7339 H         1 VAL         0.1883
    206 H103       11.6600   -5.3594   43.5870 H         1 VAL         0.0802
    207 H104       12.6182   -3.7043   45.9827 H         1 VAL         0.0343
    208 H105       11.4983   -5.4438   47.3522 H         1 VAL         0.0234
    209 H106       10.8657   -6.2094   45.8555 H         1 VAL         0.0234
    210 H107       10.3275   -4.5588   46.3166 H         1 VAL         0.0234
    211 H108       14.3588   -5.1599   44.9836 H         1 VAL         0.0234
    212 H109       13.2524   -6.5686   45.1183 H         1 VAL         0.0234
    213 H110       13.8479   -5.7491   46.6017 H         1 VAL         0.0234
    214 H111        9.7440   -4.7654   42.7419 H         1 SER         0.1876
    215 H112        8.7048   -2.0420   43.2599 H         1 SER         0.0749
    216 H113        8.7877   -2.8982   40.9309 H         1 SER         0.0599
    217 H114        7.1061   -2.5553   41.4613 H         1 SER         0.0599
    218 H115        8.3627   -5.1169   41.4312 H         1 SER         0.2096
@<TRIPOS>BOND
     1    1    2 1  
     2    2    3 1  
     3    2    5 1  
     4    3    4 2  
     5    3   12 am 
     6    5    6 1  
     7    6    7 1  
     8    7    8 1  
     9    8    9 ar 
    10    9   10 ar 
    11    9   11 ar 
    12   12   13 1  
    13   13   14 1  
    14   13   16 1  
    15   14   15 2  
    16   14   23 am 
    17   16   17 1  
    18   17   18 1  
    19   18   19 1  
    20   19   20 ar 
    21   20   21 ar 
    22   20   22 ar 
    23   23   24 1  
    24   24   25 1  
    25   24   27 1  
    26   25   26 2  
    27   25   31 am 
    28   27   28 1  
    29   28   29 1  
    30   28   30 1  
    31   31   32 1  
    32   31   37 1  
    33   32   33 1  
    34   32   35 1  
    35   33   34 2  
    36   33   38 am 
    37   35   36 1  
    38   36   37 1  
    39   38   39 1  
    40   39   40 1  
    41   39   42 1  
    42   40   41 2  
    43   40   46 am 
    44   42   43 1  
    45   42   44 1  
    46   43   45 1  
    47   46   47 1  
    48   47   48 1  
    49   47   50 1  
    50   48   49 2  
    51   48   57 am 
    52   50   51 1  
    53   51   52 ar 
    54   51   53 ar 
    55   52   54 ar 
    56   53   55 ar 
    57   54   56 ar 
    58   55   56 ar 
    59   57   58 1  
    60   58   59 1  
    61   58   61 1  
    62   59   60 2  
    63   59   65 am 
    64   61   62 1  
    65   62   63 2  
    66   62   64 am 
    67   65   66 1  
    68   66   67 1  
    69   66   69 1  
    70   67   68 2  
    71   67   76 am 
    72   69   70 1  
    73   70   71 1  
    74   71   72 1  
    75   72   73 ar 
    76   73   74 ar 
    77   73   75 ar 
    78   76   77 1  
    79   77   78 1  
    80   77   80 1  
    81   78   79 2  
    82   78   84 am 
    83   80   81 1  
    84   80   82 1  
    85   81   83 1  
    86   84   85 1  
    87   85   86 1  
    88   85   88 1  
    89   86   87 2  
    90   86   90 am 
    91   88   89 1  
    92   90   91 1  
    93   91   92 1  
    94   91   94 1  
    95   92   93 2  
    96   92   97 am 
    97   94   95 1  
    98   94   96 1  
    99   97   98 1  
   100   98   99 1  
   101   98  101 1  
   102   99  100 ar 
   103  101  102 1  
   104   99  103 ar 
   105    1  104 1  
   106    1  105 1  
   107    1  106 1  
   108    2  107 1  
   109    5  108 1  
   110    5  109 1  
   111    6  110 1  
   112    6  111 1  
   113    7  112 1  
   114    7  113 1  
   115    8  114 1  
   116   10  115 1  
   117   10  116 1  
   118   11  117 1  
   119   11  118 1  
   120   12  119 1  
   121   13  120 1  
   122   16  121 1  
   123   16  122 1  
   124   17  123 1  
   125   17  124 1  
   126   18  125 1  
   127   18  126 1  
   128   19  127 1  
   129   21  128 1  
   130   21  129 1  
   131   22  130 1  
   132   22  131 1  
   133   23  132 1  
   134   24  133 1  
   135   27  134 1  
   136   27  135 1  
   137   28  136 1  
   138   29  137 1  
   139   29  138 1  
   140   29  139 1  
   141   30  140 1  
   142   30  141 1  
   143   30  142 1  
   144   32  143 1  
   145   35  144 1  
   146   35  145 1  
   147   36  146 1  
   148   36  147 1  
   149   37  148 1  
   150   37  149 1  
   151   38  150 1  
   152   39  151 1  
   153   42  152 1  
   154   43  153 1  
   155   43  154 1  
   156   44  155 1  
   157   44  156 1  
   158   44  157 1  
   159   45  158 1  
   160   45  159 1  
   161   45  160 1  
   162   46  161 1  
   163   47  162 1  
   164   50  163 1  
   165   50  164 1  
   166   52  165 1  
   167   53  166 1  
   168   54  167 1  
   169   55  168 1  
   170   56  169 1  
   171   57  170 1  
   172   58  171 1  
   173   61  172 1  
   174   61  173 1  
   175   64  174 1  
   176   64  175 1  
   177   65  176 1  
   178   66  177 1  
   179   69  178 1  
   180   69  179 1  
   181   70  180 1  
   182   70  181 1  
   183   71  182 1  
   184   71  183 1  
   185   72  184 1  
   186   74  185 1  
   187   74  186 1  
   188   75  187 1  
   189   75  188 1  
   190   76  189 1  
   191   77  190 1  
   192   80  191 1  
   193   81  192 1  
   194   81  193 1  
   195   82  194 1  
   196   82  195 1  
   197   82  196 1  
   198   83  197 1  
   199   83  198 1  
   200   83  199 1  
   201   84  200 1  
   202   85  201 1  
   203   88  202 1  
   204   88  203 1  
   205   89  204 1  
   206   90  205 1  
   207   91  206 1  
   208   94  207 1  
   209   95  208 1  
   210   95  209 1  
   211   95  210 1  
   212   96  211 1  
   213   96  212 1  
   214   96  213 1  
   215   97  214 1  
   216   98  215 1  
   217  101  216 1  
   218  101  217 1  
   219  102  218 1  
@<TRIPOS>SUBSTRUCTURE
     1 ARG         1

