3h1z_ligand
  -I-interpret- 

254261  0  0  0  0  0  0  0  0999 V2000
  -11.3140  -22.2310  -37.6170 N   0  3  0  0  0
  -12.6880  -21.6660  -37.7680 C   0  0  0  0  0
  -13.2540  -21.2560  -36.4300 C   0  0  0  0  0
  -13.0530  -21.9430  -35.4200 O   0  0  0  0  0
  -13.6100  -22.6900  -38.4290 C   0  0  0  0  0
  -15.0710  -22.3710  -38.3400 C   0  0  0  0  0
  -15.8380  -22.8110  -37.2530 C   0  0  0  0  0
  -15.7040  -21.6420  -39.3410 C   0  0  0  0  0
  -17.2130  -22.5540  -37.1850 C   0  0  0  0  0
  -17.0690  -21.3370  -39.2600 C   0  0  0  0  0
  -17.8080  -21.8120  -38.1880 C   0  0  0  0  0
  -19.1270  -21.5200  -38.1430 O   0  0  0  0  0
  -13.9390  -20.1220  -36.4090 N   0  0  0  0  0
  -14.7940  -19.7930  -35.2830 C   0  0  0  0  0
  -15.9890  -19.0870  -35.8880 C   0  0  0  0  0
  -15.8770  -18.4910  -36.9720 O   0  0  0  0  0
  -14.0480  -18.9370  -34.2370 C   0  0  0  0  0
  -13.6440  -17.5720  -34.7390 C   0  0  0  0  0
  -12.3870  -17.3880  -35.3060 C   0  0  0  0  0
  -14.5180  -16.4890  -34.6600 C   0  0  0  0  0
  -11.9820  -16.1250  -35.7890 C   0  0  0  0  0
  -14.1350  -15.1950  -35.1360 C   0  0  0  0  0
  -12.8530  -15.0320  -35.7210 C   0  0  0  0  0
  -17.1130  -19.1270  -35.2190 N   0  0  0  0  0
  -18.3080  -18.4900  -35.7420 C   0  0  0  0  0
  -18.2150  -16.9870  -35.7900 C   0  0  0  0  0
  -17.8980  -16.4200  -34.8230 O   0  0  0  0  0
  -19.4040  -18.9660  -34.7990 C   0  0  0  0  0
  -18.7590  -19.6050  -33.7340 C   0  0  0  0  0
  -17.4290  -20.0300  -34.1250 C   0  0  0  0  0
  -18.4940  -16.3880  -36.9280 N   0  0  0  0  0
  -18.3820  -14.9720  -37.1460 C   0  0  0  0  0
  -19.8000  -14.4250  -37.2550 C   0  0  0  0  0
  -20.6160  -15.0900  -37.7860 O   0  0  0  0  0
  -17.5800  -14.6920  -38.4310 C   0  0  0  0  0
  -18.1130  -15.4430  -39.4980 O   0  0  0  0  0
  -16.1550  -15.0080  -38.2730 C   0  0  0  0  0
  -20.0830  -13.2370  -36.7290 N   0  0  0  0  0
  -21.3740  -12.5680  -36.9640 C   0  0  0  0  0
  -21.1180  -11.4200  -37.9120 C   0  0  0  0  0
  -20.0570  -10.7770  -37.8530 O   0  0  0  0  0
  -22.0520  -12.0490  -35.6800 C   0  0  0  0  0
  -22.5810  -13.1730  -34.7850 C   0  0  0  0  0
  -23.4070  -14.0230  -35.2380 O   0  0  0  0  0
  -22.1860  -13.1840  -33.5990 O   0  0  0  0  0
  -22.1000  -11.1740  -38.7730 N   0  0  0  0  0
  -21.9740  -10.2440  -39.8800 C   0  0  0  0  0
  -21.6560   -8.8420  -39.3780 C   0  0  0  0  0
  -20.8470   -8.1180  -39.9770 O   0  0  0  0  0
  -23.2710  -10.2560  -40.7080 C   0  0  0  0  0
  -23.3330   -9.2550  -41.8620 C   0  0  0  0  0
  -22.1180   -9.3250  -42.7710 C   0  0  0  0  0
  -21.7460  -10.4460  -43.1830 O   0  0  0  0  0
  -21.5440   -8.2530  -43.0660 O   0  0  0  0  0
  -22.2960   -8.4700  -38.2760 N   0  0  0  0  0
  -22.1440   -7.1290  -37.7410 C   0  0  0  0  0
  -20.7970   -6.9020  -37.0830 C   0  0  0  0  0
  -20.4110   -5.7620  -36.8820 O   0  0  0  0  0
  -23.2860   -6.7940  -36.7750 C   0  0  0  0  0
  -22.9810   -6.9880  -35.2920 C   0  0  0  0  0
  -23.3360   -8.3740  -34.8030 C   0  0  0  0  0
  -24.1040   -8.3290  -33.5540 N   0  0  0  0  0
  -23.7140   -8.8450  -32.3880 C   0  0  0  0  0
  -22.5370   -9.4640  -32.2710 N   0  0  0  0  0
  -24.5160   -8.7500  -31.3350 N   0  0  0  0  0
  -20.0760   -7.9670  -36.7400 N   0  0  0  0  0
  -18.7630   -7.7780  -36.1530 C   0  0  0  0  0
  -17.6470   -7.5990  -37.1860 C   0  0  0  0  0
  -16.5330   -7.2760  -36.8120 O   0  0  0  0  0
  -18.4360   -8.9030  -35.1750 C   0  0  0  0  0
  -19.4590   -8.9850  -34.1800 O   0  0  0  0  0
  -17.9520   -7.8030  -38.4760 N   0  0  0  0  0
  -16.9590   -7.5830  -39.5370 C   0  0  0  0  0
  -16.6410   -6.1150  -39.6360 C   0  0  0  0  0
  -17.5510   -5.2670  -39.5400 O   0  0  0  0  0
  -17.4560   -8.0520  -40.9040 C   0  0  0  0  0
  -17.4390   -9.5140  -41.0840 C   0  0  0  0  0
  -18.5070  -10.3620  -41.0900 C   0  0  0  0  0
  -16.2730  -10.3250  -41.2350 C   0  0  0  0  0
  -18.0740  -11.6660  -41.2600 N   0  0  0  0  0
  -16.7040  -11.6640  -41.3550 C   0  0  0  0  0
  -14.8970  -10.0400  -41.2810 C   0  0  0  0  0
  -15.8100  -12.7230  -41.5290 C   0  0  0  0  0
  -14.0140  -11.0730  -41.4780 C   0  0  0  0  0
  -14.4730  -12.4070  -41.5750 C   0  0  0  0  0
  -15.3600   -5.8020  -39.8260 N   0  0  0  0  0
  -14.9520   -4.4270  -40.0290 C   0  0  0  0  0
  -14.5120   -4.3470  -41.4830 C   0  0  0  0  0
  -13.4440   -4.8260  -41.8420 O   0  0  0  0  0
  -13.8270   -4.0130  -39.0620 C   0  0  0  0  0
  -13.4180   -2.5450  -39.2790 C   0  0  0  0  0
  -14.2720   -4.2890  -37.6020 C   0  0  0  0  0
  -15.3910   -3.7970  -42.3200 N   0  0  0  0  0
  -15.1440   -3.7700  -43.7470 C   0  0  0  0  0
  -14.2730   -2.5780  -44.1640 C   0  0  0  0  0
  -14.4840   -1.4410  -43.7060 O   0  0  0  0  0
  -16.4670   -3.6960  -44.5150 C   0  0  0  0  0
  -17.2360   -4.9930  -44.5630 C   0  0  0  0  0
  -17.0820   -5.8830  -45.6070 C   0  0  0  0  0
  -18.1530   -5.2970  -43.5480 C   0  0  0  0  0
  -17.7940   -7.0770  -45.6110 C   0  0  0  0  0
  -18.8550   -6.4680  -43.5450 C   0  0  0  0  0
  -18.6760   -7.3410  -44.5650 C   0  0  0  0  0
  -19.4250   -8.4940  -44.5410 O   0  0  0  0  0
  -13.3750   -2.8110  -45.1220 N   0  0  0  0  0
  -12.5680   -1.7040  -45.6470 C   0  0  0  0  0
  -13.4000   -0.9100  -46.6970 C   0  0  0  0  0
  -14.1030   -1.5190  -47.5390 O   0  0  0  0  0
  -11.2890   -2.2200  -46.3050 C   0  0  0  0  0
  -10.4940   -2.9530  -45.3680 O   0  0  0  0  0
  -13.2990    0.4270  -46.6620 N   0  0  0  0  0
  -13.8970    1.2070  -47.7500 C   0  0  0  0  0
  -13.1460    1.0050  -49.0760 C   0  0  0  0  0
  -11.9360    0.7290  -49.0570 O   0  0  0  0  0
  -13.7710    2.6570  -47.2520 C   0  0  0  0  0
  -12.5780    2.6600  -46.3650 C   0  0  0  0  0
  -12.6650    1.2920  -45.6470 C   0  0  0  0  0
  -13.8450    1.1580  -50.2080 N   0  0  0  0  0
  -13.2210    1.0400  -51.5080 C   0  0  0  0  0
  -13.1110    2.3960  -52.1550 C   0  0  0  0  0
  -14.0970    3.1370  -52.2250 O   0  0  0  0  0
  -14.0300    0.1380  -52.4330 C   0  0  0  0  0
  -14.2090   -1.3130  -52.0220 C   0  0  0  0  0
  -14.9860   -2.0010  -53.1360 C   0  0  0  0  0
  -12.8430   -2.0130  -51.7890 C   0  0  0  0  0
  -11.9110    2.7190  -52.6160 N   0  0  0  0  0
  -11.6820    3.9720  -53.3380 C   0  0  0  0  0
  -11.4750    3.5840  -54.7960 C   0  0  0  0  0
  -10.7120    2.6370  -55.1370 O   0  0  0  0  0
  -10.4730    4.7420  -52.7970 C   0  0  0  0  0
  -10.4820    4.9530  -51.3060 C   0  0  0  0  0
   -9.3660    5.3820  -50.6140 N   0  0  0  0  0
  -11.4530    4.7800  -50.3750 C   0  0  0  0  0
   -9.6550    5.4880  -49.3300 C   0  0  0  0  0
  -10.9140    5.1210  -49.1570 N   0  0  0  0  0
  -12.1200    4.1700  -55.6610 O   0  0  0  0  0
  -10.7095  -21.5384  -37.1751 H   0  0  0  0  0
  -11.3541  -23.0688  -37.0365 H   0  0  0  0  0
  -10.9432  -22.4705  -38.5365 H   0  0  0  0  0
  -12.6218  -20.7807  -38.4005 H   0  0  0  0  0
  -13.4602  -23.6344  -37.9058 H   0  0  0  0  0
  -13.3544  -22.7081  -39.4884 H   0  0  0  0  0
  -15.3560  -23.3630  -36.4461 H   0  0  0  0  0
  -15.1289  -21.3025  -40.2024 H   0  0  0  0  0
  -17.8057  -22.9338  -36.3528 H   0  0  0  0  0
  -17.5449  -20.7324  -40.0321 H   0  0  0  0  0
  -19.3654  -21.0018  -38.9152 H   0  0  0  0  0
  -13.8647  -19.4732  -37.1925 H   0  0  0  0  0
  -15.1091  -20.6772  -34.7288 H   0  0  0  0  0
  -13.1338  -19.4695  -33.9749 H   0  0  0  0  0
  -14.7273  -18.7858  -33.3980 H   0  0  0  0  0
  -11.7031  -18.2337  -35.3785 H   0  0  0  0  0
  -15.5091  -16.6300  -34.2287 H   0  0  0  0  0
  -10.9871  -16.0007  -36.2165 H   0  0  0  0  0
  -14.8168  -14.3489  -35.0505 H   0  0  0  0  0
  -12.5486  -14.0622  -36.1147 H   0  0  0  0  0
  -18.4890  -18.7601  -36.7824 H   0  0  0  0  0
  -20.4784  -18.8351  -34.9277 H   0  0  0  0  0
  -19.1958  -19.7615  -32.7477 H   0  0  0  0  0
  -16.7087  -19.9769  -33.3086 H   0  0  0  0  0
  -17.3864  -21.0799  -34.4148 H   0  0  0  0  0
  -18.8104  -16.9666  -37.7062 H   0  0  0  0  0
  -17.8513  -14.4884  -36.3259 H   0  0  0  0  0
  -17.6623  -13.6260  -38.6429 H   0  0  0  0  0
  -17.6098  -15.2649  -40.2959 H   0  0  0  0  0
  -15.7360  -14.3997  -37.4714 H   0  0  0  0  0
  -16.0435  -16.0638  -38.0259 H   0  0  0  0  0
  -15.6313  -14.7943  -39.2047 H   0  0  0  0  0
  -19.3854  -12.7753  -36.1455 H   0  0  0  0  0
  -22.0655  -13.3007  -37.3800 H   0  0  0  0  0
  -22.9018  -11.4352  -35.9786 H   0  0  0  0  0
  -21.3049  -11.4958  -35.1109 H   0  0  0  0  0
  -23.5774  -13.8395  -36.1648 H   0  0  0  0  0
  -22.9865  -11.6632  -38.6496 H   0  0  0  0  0
  -21.1462  -10.5565  -40.5166 H   0  0  0  0  0
  -24.0756   -9.9870  -40.0236 H   0  0  0  0  0
  -23.3409  -11.2471  -41.1562 H   0  0  0  0  0
  -23.3704   -8.2538  -41.4327 H   0  0  0  0  0
  -24.2117   -9.4923  -42.4618 H   0  0  0  0  0
  -21.9973   -7.5212  -42.6411 H   0  0  0  0  0
  -22.9033   -9.1359  -37.7983 H   0  0  0  0  0
  -22.1913   -6.4495  -38.5920 H   0  0  0  0  0
  -24.1010   -7.4775  -37.0134 H   0  0  0  0  0
  -23.5009   -5.7338  -36.9087 H   0  0  0  0  0
  -23.5782   -6.2703  -34.7296 H   0  0  0  0  0
  -21.9101   -6.8451  -35.1479 H   0  0  0  0  0
  -22.4110   -8.9200  -34.6177 H   0  0  0  0  0
  -23.9463   -8.8606  -35.5639 H   0  0  0  0  0
  -25.0117   -7.8644  -33.5796 H   0  0  0  0  0
  -22.2569   -9.8619  -31.3745 H   0  0  0  0  0
  -21.9178   -9.5391  -33.0781 H   0  0  0  0  0
  -25.4201   -8.2860  -31.4227 H   0  0  0  0  0
  -20.4432   -8.9070  -36.8885 H   0  0  0  0  0
  -18.8106   -6.8377  -35.6037 H   0  0  0  0  0
  -17.4789   -8.6990  -34.6949 H   0  0  0  0  0
  -18.3794   -9.8479  -35.7154 H   0  0  0  0  0
  -19.2509   -9.6933  -33.5663 H   0  0  0  0  0
  -18.8901   -8.1165  -38.7253 H   0  0  0  0  0
  -16.0757   -8.1633  -39.2703 H   0  0  0  0  0
  -16.7863   -7.6281  -41.6523 H   0  0  0  0  0
  -18.4927   -7.7286  -40.9975 H   0  0  0  0  0
  -19.5477  -10.0581  -40.9776 H   0  0  0  0  0
  -14.5377   -9.0178  -41.1625 H   0  0  0  0  0
  -16.1564  -13.7521  -41.6239 H   0  0  0  0  0
  -12.9477  -10.8624  -41.5605 H   0  0  0  0  0
  -13.7442  -13.2094  -41.6898 H   0  0  0  0  0
  -14.6568   -6.5408  -39.8286 H   0  0  0  0  0
  -15.7671   -3.7336  -39.8216 H   0  0  0  0  0
  -12.9392   -4.6118  -39.2657 H   0  0  0  0  0
  -13.0635   -2.4153  -40.3015 H   0  0  0  0  0
  -14.2797   -1.8999  -39.1073 H   0  0  0  0  0
  -12.6223   -2.2839  -38.5813 H   0  0  0  0  0
  -15.1709   -3.7129  -37.3824 H   0  0  0  0  0
  -14.4819   -5.3519  -37.4823 H   0  0  0  0  0
  -13.4749   -3.9955  -36.9189 H   0  0  0  0  0
  -16.2499   -3.3893  -41.9506 H   0  0  0  0  0
  -14.6118   -4.6901  -43.9887 H   0  0  0  0  0
  -16.2241   -3.4309  -45.5440 H   0  0  0  0  0
  -17.0959   -2.9713  -43.9979 H   0  0  0  0  0
  -16.4030   -5.6498  -46.4272 H   0  0  0  0  0
  -18.3097   -4.5811  -42.7411 H   0  0  0  0  0
  -17.6643   -7.7958  -46.4201 H   0  0  0  0  0
  -19.5480   -6.6965  -42.7353 H   0  0  0  0  0
  -19.9705   -8.5035  -43.7511 H   0  0  0  0  0
  -13.2498   -3.7548  -45.4881 H   0  0  0  0  0
  -12.2926   -1.0556  -44.8153 H   0  0  0  0  0
  -10.7114   -1.3686  -46.6649 H   0  0  0  0  0
  -11.5599   -2.8811  -47.1282 H   0  0  0  0  0
   -9.6975   -3.2668  -45.8024 H   0  0  0  0  0
  -14.9248    0.9137  -47.9635 H   0  0  0  0  0
  -14.6673    2.9805  -46.7228 H   0  0  0  0  0
  -13.6601    3.3587  -48.0787 H   0  0  0  0  0
  -12.5741    3.4994  -45.6697 H   0  0  0  0  0
  -11.6459    2.7864  -46.9157 H   0  0  0  0  0
  -11.6926    0.9215  -45.3226 H   0  0  0  0  0
  -13.2307    1.3374  -44.7164 H   0  0  0  0  0
  -14.8426    1.3629  -50.1523 H   0  0  0  0  0
  -12.2327    0.6065  -51.3548 H   0  0  0  0  0
  -13.4763    0.1098  -53.3715 H   0  0  0  0  0
  -15.0337    0.5627  -52.4509 H   0  0  0  0  0
  -14.7494   -1.3714  -51.0772 H   0  0  0  0  0
  -15.9532   -1.5132  -53.2575 H   0  0  0  0  0
  -14.4229   -1.9312  -54.0667 H   0  0  0  0  0
  -15.1362   -3.0494  -52.8785 H   0  0  0  0  0
  -12.2600   -1.9847  -52.7095 H   0  0  0  0  0
  -12.3009   -1.4948  -50.9980 H   0  0  0  0  0
  -13.0124   -3.0493  -51.4965 H   0  0  0  0  0
  -11.1300    2.0807  -52.4645 H   0  0  0  0  0
  -12.5314    4.6439  -53.2152 H   0  0  0  0  0
  -10.2788    2.2803  -54.3581 H   0  0  0  0  0
  -10.4914    5.7292  -53.2586 H   0  0  0  0  0
   -9.5879    4.1498  -53.0297 H   0  0  0  0  0
  -12.4706    4.4350  -50.5582 H   0  0  0  0  0
   -8.9733    5.8207  -48.5472 H   0  0  0  0  0
  1  2  1  0  0  0
  2  3  1  0  0  0
  2  5  1  0  0  0
  3  4  2  0  0  0
  3 13  1  0  0  0
  5  6  1  0  0  0
  6  7  4  0  0  0
  6  8  4  0  0  0
  7  9  4  0  0  0
  8 10  4  0  0  0
  9 11  4  0  0  0
 10 11  4  0  0  0
 11 12  1  0  0  0
 13 14  1  0  0  0
 14 15  1  0  0  0
 14 17  1  0  0  0
 15 16  2  0  0  0
 15 24  1  0  0  0
 17 18  1  0  0  0
 18 19  4  0  0  0
 18 20  4  0  0  0
 19 21  4  0  0  0
 20 22  4  0  0  0
 21 23  4  0  0  0
 22 23  4  0  0  0
 24 25  1  0  0  0
 24 30  1  0  0  0
 25 26  1  0  0  0
 25 28  1  0  0  0
 26 27  2  0  0  0
 26 31  1  0  0  0
 28 29  2  0  0  0
 29 30  1  0  0  0
 31 32  1  0  0  0
 32 33  1  0  0  0
 32 35  1  0  0  0
 33 34  2  0  0  0
 33 38  1  0  0  0
 35 36  1  0  0  0
 35 37  1  0  0  0
 38 39  1  0  0  0
 39 40  1  0  0  0
 39 42  1  0  0  0
 40 41  2  0  0  0
 40 46  1  0  0  0
 42 43  1  0  0  0
 43 44  1  0  0  0
 43 45  2  0  0  0
 46 47  1  0  0  0
 47 48  1  0  0  0
 47 50  1  0  0  0
 48 49  2  0  0  0
 48 55  1  0  0  0
 50 51  1  0  0  0
 51 52  1  0  0  0
 52 53  2  0  0  0
 52 54  1  0  0  0
 55 56  1  0  0  0
 56 57  1  0  0  0
 56 59  1  0  0  0
 57 58  2  0  0  0
 57 66  1  0  0  0
 59 60  1  0  0  0
 60 61  1  0  0  0
 61 62  1  0  0  0
 62 63  1  0  0  0
 63 64  1  0  0  0
 63 65  2  0  0  0
 66 67  1  0  0  0
 67 68  1  0  0  0
 67 70  1  0  0  0
 68 69  2  0  0  0
 68 72  1  0  0  0
 70 71  1  0  0  0
 72 73  1  0  0  0
 73 74  1  0  0  0
 73 76  1  0  0  0
 74 75  2  0  0  0
 74 86  1  0  0  0
 76 77  1  0  0  0
 77 78  4  0  0  0
 77 79  4  0  0  0
 78 80  4  0  0  0
 79 81  4  0  0  0
 79 82  4  0  0  0
 80 81  4  0  0  0
 81 83  4  0  0  0
 82 84  4  0  0  0
 83 85  4  0  0  0
 84 85  4  0  0  0
 86 87  1  0  0  0
 87 88  1  0  0  0
 87 90  1  0  0  0
 88 89  2  0  0  0
 88 93  1  0  0  0
 90 91  1  0  0  0
 90 92  1  0  0  0
 93 94  1  0  0  0
 94 95  1  0  0  0
 94 97  1  0  0  0
 95 96  2  0  0  0
 95105  1  0  0  0
 97 98  1  0  0  0
 98 99  4  0  0  0
 98100  4  0  0  0
 99101  4  0  0  0
100102  4  0  0  0
101103  4  0  0  0
102103  4  0  0  0
103104  1  0  0  0
105106  1  0  0  0
106107  1  0  0  0
106109  1  0  0  0
107108  2  0  0  0
107111  1  0  0  0
109110  1  0  0  0
111112  1  0  0  0
111117  1  0  0  0
112113  1  0  0  0
112115  1  0  0  0
113114  2  0  0  0
113118  1  0  0  0
115116  1  0  0  0
116117  1  0  0  0
118119  1  0  0  0
119120  1  0  0  0
119122  1  0  0  0
120121  2  0  0  0
120126  1  0  0  0
122123  1  0  0  0
123124  1  0  0  0
123125  1  0  0  0
126127  1  0  0  0
127128  1  0  0  0
127130  1  0  0  0
128129  1  0  0  0
128136  2  0  0  0
130131  1  0  0  0
131132  4  0  0  0
131133  4  0  0  0
132134  4  0  0  0
133135  4  0  0  0
134135  4  0  0  0
  1137  1  0  0  0
  1138  1  0  0  0
  1139  1  0  0  0
  2140  1  0  0  0
  5141  1  0  0  0
  5142  1  0  0  0
  7143  1  0  0  0
  8144  1  0  0  0
  9145  1  0  0  0
 10146  1  0  0  0
 12147  1  0  0  0
 13148  1  0  0  0
 14149  1  0  0  0
 17150  1  0  0  0
 17151  1  0  0  0
 19152  1  0  0  0
 20153  1  0  0  0
 21154  1  0  0  0
 22155  1  0  0  0
 23156  1  0  0  0
 25157  1  0  0  0
 28158  1  0  0  0
 29159  1  0  0  0
 30160  1  0  0  0
 30161  1  0  0  0
 31162  1  0  0  0
 32163  1  0  0  0
 35164  1  0  0  0
 36165  1  0  0  0
 37166  1  0  0  0
 37167  1  0  0  0
 37168  1  0  0  0
 38169  1  0  0  0
 39170  1  0  0  0
 42171  1  0  0  0
 42172  1  0  0  0
 44173  1  0  0  0
 46174  1  0  0  0
 47175  1  0  0  0
 50176  1  0  0  0
 50177  1  0  0  0
 51178  1  0  0  0
 51179  1  0  0  0
 54180  1  0  0  0
 55181  1  0  0  0
 56182  1  0  0  0
 59183  1  0  0  0
 59184  1  0  0  0
 60185  1  0  0  0
 60186  1  0  0  0
 61187  1  0  0  0
 61188  1  0  0  0
 62189  1  0  0  0
 64190  1  0  0  0
 64191  1  0  0  0
 65192  1  0  0  0
 66193  1  0  0  0
 67194  1  0  0  0
 70195  1  0  0  0
 70196  1  0  0  0
 71197  1  0  0  0
 72198  1  0  0  0
 73199  1  0  0  0
 76200  1  0  0  0
 76201  1  0  0  0
 78202  1  0  0  0
 82203  1  0  0  0
 83204  1  0  0  0
 84205  1  0  0  0
 85206  1  0  0  0
 86207  1  0  0  0
 87208  1  0  0  0
 90209  1  0  0  0
 91210  1  0  0  0
 91211  1  0  0  0
 91212  1  0  0  0
 92213  1  0  0  0
 92214  1  0  0  0
 92215  1  0  0  0
 93216  1  0  0  0
 94217  1  0  0  0
 97218  1  0  0  0
 97219  1  0  0  0
 99220  1  0  0  0
100221  1  0  0  0
101222  1  0  0  0
102223  1  0  0  0
104224  1  0  0  0
105225  1  0  0  0
106226  1  0  0  0
109227  1  0  0  0
109228  1  0  0  0
110229  1  0  0  0
112230  1  0  0  0
115231  1  0  0  0
115232  1  0  0  0
116233  1  0  0  0
116234  1  0  0  0
117235  1  0  0  0
117236  1  0  0  0
118237  1  0  0  0
119238  1  0  0  0
122239  1  0  0  0
122240  1  0  0  0
123241  1  0  0  0
124242  1  0  0  0
124243  1  0  0  0
124244  1  0  0  0
125245  1  0  0  0
125246  1  0  0  0
125247  1  0  0  0
126248  1  0  0  0
127249  1  0  0  0
129250  1  0  0  0
130251  1  0  0  0
130252  1  0  0  0
133253  1  0  0  0
134254  1  0  0  0
M  END
$$$$
