### 
### Created by X-TOOL on Mon Sep 10 21:13:00 2018
### 

@<TRIPOS>MOLECULE
3h1z_ligand
  254   261     1     0     0
SMALL
GAST_HUCK


@<TRIPOS>ATOM
      1 N         -11.3140  -22.2310  -37.6170 N.4       1 TYR         0.2392
      2 CA        -12.6880  -21.6660  -37.7680 C.3       1 TYR         0.0730
      3 C         -13.2540  -21.2560  -36.4300 C.2       1 TYR         0.2287
      4 O         -13.0530  -21.9430  -35.4200 O.2       1 TYR        -0.3905
      5 CB        -13.6100  -22.6900  -38.4290 C.3       1 TYR         0.0365
      6 CG        -15.0710  -22.3710  -38.3400 C.ar      1 TYR        -0.0460
      7 CD1       -15.8380  -22.8110  -37.2530 C.ar      1 TYR        -0.0684
      8 CD2       -15.7040  -21.6420  -39.3410 C.ar      1 TYR        -0.0684
      9 CE1       -17.2130  -22.5540  -37.1850 C.ar      1 TYR        -0.0398
     10 CE2       -17.0690  -21.3370  -39.2600 C.ar      1 TYR        -0.0398
     11 CZ        -17.8080  -21.8120  -38.1880 C.ar      1 TYR         0.0805
     12 OH        -19.1270  -21.5200  -38.1430 O.3       1 TYR        -0.3376
     13 N         -13.9390  -20.1220  -36.4090 N.am      1 PHE        -0.2591
     14 CA        -14.7940  -19.7930  -35.2830 C.3       1 PHE         0.1410
     15 C         -15.9890  -19.0870  -35.8880 C.2       1 PHE         0.2117
     16 O         -15.8770  -18.4910  -36.9720 O.2       1 PHE        -0.3937
     17 CB        -14.0480  -18.9370  -34.2370 C.3       1 PHE         0.0214
     18 CG        -13.6440  -17.5720  -34.7390 C.ar      1 PHE        -0.0386
     19 CD1       -12.3870  -17.3880  -35.3060 C.ar      1 PHE        -0.0601
     20 CD2       -14.5180  -16.4890  -34.6600 C.ar      1 PHE        -0.0601
     21 CE1       -11.9820  -16.1250  -35.7890 C.ar      1 PHE        -0.0686
     22 CE2       -14.1350  -15.1950  -35.1360 C.ar      1 PHE        -0.0686
     23 CZ        -12.8530  -15.0320  -35.7210 C.ar      1 PHE        -0.0687
     24 N         -17.1130  -19.1270  -35.2190 N.am      1 PRO        -0.2339
     25 CA        -18.3080  -18.4900  -35.7420 C.3       1 PRO         0.1522
     26 C         -18.2150  -16.9870  -35.7900 C.2       1 PRO         0.2124
     27 O         -17.8980  -16.4200  -34.8230 O.2       1 PRO        -0.3919
     28 CB        -19.4040  -18.9660  -34.7990 C.2       1 PRO        -0.0526
     29 CG        -18.7590  -19.6050  -33.7340 C.2       1 PRO        -0.0712
     30 CD        -17.4290  -20.0300  -34.1250 C.3       1 PRO         0.0563
     31 N         -18.4940  -16.3880  -36.9280 N.am      1 THR        -0.2600
     32 CA        -18.3820  -14.9720  -37.1460 C.3       1 THR         0.1566
     33 C         -19.8000  -14.4250  -37.2550 C.2       1 THR         0.2066
     34 O         -20.6160  -15.0900  -37.7860 O.2       1 THR        -0.3943
     35 CB        -17.5800  -14.6920  -38.4310 C.3       1 THR         0.0924
     36 OG1       -18.1130  -15.4430  -39.4980 O.3       1 THR        -0.3874
     37 CG2       -16.1550  -15.0080  -38.2730 C.3       1 THR        -0.0346
     38 N         -20.0830  -13.2370  -36.7290 N.am      1 ASP        -0.2621
     39 CA        -21.3740  -12.5680  -36.9640 C.3       1 ASP         0.1423
     40 C         -21.1180  -11.4200  -37.9120 C.2       1 ASP         0.2056
     41 O         -20.0570  -10.7770  -37.8530 O.2       1 ASP        -0.3943
     42 CB        -22.0520  -12.0490  -35.6800 C.3       1 ASP         0.0406
     43 CG        -22.5810  -13.1730  -34.7850 C.2       1 ASP         0.0393
     44 OD1       -23.4070  -14.0230  -35.2380 O.co2     1 ASP        -0.5688
     45 OD2       -22.1860  -13.1840  -33.5990 O.co2     1 ASP        -0.5688
     46 N         -22.1000  -11.1740  -38.7730 N.am      1 GLU        -0.2635
     47 CA        -21.9740  -10.2440  -39.8800 C.3       1 GLU         0.1325
     48 C         -21.6560   -8.8420  -39.3780 C.2       1 GLU         0.2040
     49 O         -20.8470   -8.1180  -39.9770 O.2       1 GLU        -0.3944
     50 CB        -23.2710  -10.2560  -40.7080 C.3       1 GLU        -0.0008
     51 CG        -23.3330   -9.2550  -41.8620 C.3       1 GLU         0.0044
     52 CD        -22.1180   -9.3250  -42.7710 C.2       1 GLU         0.0350
     53 OE1       -21.7460  -10.4460  -43.1830 O.co2     1 GLU        -0.5690
     54 OE2       -21.5440   -8.2530  -43.0660 O.co2     1 GLU        -0.5690
     55 N         -22.2960   -8.4700  -38.2760 N.am      1 ARG        -0.2637
     56 CA        -22.1440   -7.1290  -37.7410 C.3       1 ARG         0.1311
     57 C         -20.7970   -6.9020  -37.0830 C.2       1 ARG         0.2040
     58 O         -20.4110   -5.7620  -36.8820 O.2       1 ARG        -0.3944
     59 CB        -23.2860   -6.7940  -36.7750 C.3       1 ARG        -0.0092
     60 CG        -22.9810   -6.9880  -35.2920 C.3       1 ARG        -0.0156
     61 CD        -23.3360   -8.3740  -34.8030 C.3       1 ARG         0.0627
     62 NE        -24.1040   -8.3290  -33.5540 N.pl3     1 ARG        -0.2723
     63 CZ        -23.7140   -8.8450  -32.3880 C.cat     1 ARG         0.2882
     64 NH1       -22.5370   -9.4640  -32.2710 N.pl3     1 ARG        -0.2849
     65 NH2       -24.5160   -8.7500  -31.3350 N.pl3     1 ARG        -0.2849
     66 N         -20.0760   -7.9670  -36.7400 N.am      1 SER        -0.2616
     67 CA        -18.7630   -7.7780  -36.1530 C.3       1 SER         0.1539
     68 C         -17.6470   -7.5990  -37.1860 C.2       1 SER         0.2063
     69 O         -16.5330   -7.2760  -36.8120 O.2       1 SER        -0.3943
     70 CB        -18.4360   -8.9030  -35.1750 C.3       1 SER         0.0843
     71 OG        -19.4590   -8.9850  -34.1800 O.3       1 SER        -0.3903
     72 N         -17.9520   -7.8030  -38.4760 N.am      1 TRP        -0.2626
     73 CA        -16.9590   -7.5830  -39.5370 C.3       1 TRP         0.1352
     74 C         -16.6410   -6.1150  -39.6360 C.2       1 TRP         0.2052
     75 O         -17.5510   -5.2670  -39.5400 O.2       1 TRP        -0.3942
     76 CB        -17.4560   -8.0520  -40.9040 C.3       1 TRP         0.0042
     77 CG        -17.4390   -9.5140  -41.0840 C.2       1 TRP        -0.0418
     78 CD1       -18.5070  -10.3620  -41.0900 C.2       1 TRP         0.0167
     79 CD2       -16.2730  -10.3250  -41.2350 C.ar      1 TRP        -0.0214
     80 NE1       -18.0740  -11.6660  -41.2600 N.pl3     1 TRP        -0.2890
     81 CE2       -16.7040  -11.6640  -41.3550 C.ar      1 TRP         0.0603
     82 CE3       -14.8970  -10.0400  -41.2810 C.ar      1 TRP        -0.0747
     83 CZ2       -15.8100  -12.7230  -41.5290 C.ar      1 TRP        -0.0443
     84 CZ3       -14.0140  -11.0730  -41.4780 C.ar      1 TRP        -0.0792
     85 CH2       -14.4730  -12.4070  -41.5750 C.ar      1 TRP        -0.0768
     86 N         -15.3600   -5.8020  -39.8260 N.am      1 VAL        -0.2634
     87 CA        -14.9520   -4.4270  -40.0290 C.3       1 VAL         0.1333
     88 C         -14.5120   -4.3470  -41.4830 C.2       1 VAL         0.2043
     89 O         -13.4440   -4.8260  -41.8420 O.2       1 VAL        -0.3944
     90 CB        -13.8270   -4.0130  -39.0620 C.3       1 VAL        -0.0063
     91 CG1       -13.4180   -2.5450  -39.2790 C.3       1 VAL        -0.0584
     92 CG2       -14.2720   -4.2890  -37.6020 C.3       1 VAL        -0.0584
     93 N         -15.3910   -3.7970  -42.3200 N.am      1 TYR        -0.2621
     94 CA        -15.1440   -3.7700  -43.7470 C.3       1 TYR         0.1390
     95 C         -14.2730   -2.5780  -44.1640 C.2       1 TYR         0.2058
     96 O         -14.4840   -1.4410  -43.7060 O.2       1 TYR        -0.3942
     97 CB        -16.4670   -3.6960  -44.5150 C.3       1 TYR         0.0163
     98 CG        -17.2360   -4.9930  -44.5630 C.ar      1 TYR        -0.0493
     99 CD1       -17.0820   -5.8830  -45.6070 C.ar      1 TYR        -0.0685
    100 CD2       -18.1530   -5.2970  -43.5480 C.ar      1 TYR        -0.0685
    101 CE1       -17.7940   -7.0770  -45.6110 C.ar      1 TYR        -0.0398
    102 CE2       -18.8550   -6.4680  -43.5450 C.ar      1 TYR        -0.0398
    103 CZ        -18.6760   -7.3410  -44.5650 C.ar      1 TYR         0.0805
    104 OH        -19.4250   -8.4940  -44.5410 O.3       1 TYR        -0.3376
    105 N         -13.3750   -2.8110  -45.1220 N.am      1 SER        -0.2614
    106 CA        -12.5680   -1.7040  -45.6470 C.3       1 SER         0.1541
    107 C         -13.4000   -0.9100  -46.6970 C.2       1 SER         0.2087
    108 O         -14.1030   -1.5190  -47.5390 O.2       1 SER        -0.3941
    109 CB        -11.2890   -2.2200  -46.3050 C.3       1 SER         0.0843
    110 OG        -10.4940   -2.9530  -45.3680 O.3       1 SER        -0.3903
    111 N         -13.2990    0.4270  -46.6620 N.am      1 PRO        -0.2498
    112 CA        -13.8970    1.2070  -47.7500 C.3       1 PRO         0.1338
    113 C         -13.1460    1.0050  -49.0760 C.2       1 PRO         0.2041
    114 O         -11.9360    0.7290  -49.0570 O.2       1 PRO        -0.3944
    115 CB        -13.7710    2.6570  -47.2520 C.3       1 PRO        -0.0104
    116 CG        -12.5780    2.6600  -46.3650 C.3       1 PRO        -0.0281
    117 CD        -12.6650    1.2920  -45.6470 C.3       1 PRO         0.0369
    118 N         -13.8450    1.1580  -50.2080 N.am      1 LEU        -0.2637
    119 CA        -13.2210    1.0400  -51.5080 C.3       1 LEU         0.1312
    120 C         -13.1110    2.3960  -52.1550 C.2       1 LEU         0.2034
    121 O         -14.0970    3.1370  -52.2250 O.2       1 LEU        -0.3944
    122 CB        -14.0300    0.1380  -52.4330 C.3       1 LEU        -0.0101
    123 CG        -14.2090   -1.3130  -52.0220 C.3       1 LEU        -0.0425
    124 CD1       -14.9860   -2.0010  -53.1360 C.3       1 LEU        -0.0625
    125 CD2       -12.8430   -2.0130  -51.7890 C.3       1 LEU        -0.0625
    126 N         -11.9110    2.7190  -52.6160 N.am      1 HIS        -0.2682
    127 CA        -11.6820    3.9720  -53.3380 C.3       1 HIS         0.1004
    128 C         -11.4750    3.5840  -54.7960 C.2       1 HIS         0.0615
    129 O         -10.7120    2.6370  -55.1370 O.co2     1 HIS        -0.5665
    130 CB        -10.4730    4.7420  -52.7970 C.3       1 HIS         0.0090
    131 CG        -10.4820    4.9530  -51.3060 C.2       1 HIS        -0.0033
    132 ND1        -9.3660    5.3820  -50.6140 N.2       1 HIS        -0.3253
    133 CD2       -11.4530    4.7800  -50.3750 C.2       1 HIS         0.0291
    134 CE1        -9.6550    5.4880  -49.3300 C.2       1 HIS         0.0907
    135 NE2       -10.9140    5.1210  -49.1570 N.pl3     1 HIS        -0.2752
    136 OXT       -12.1200    4.1700  -55.6610 O.co2     1 HIS        -0.5665
    137 H1        -10.9586  -22.4967  -38.5221 H         1 TYR         0.2017
    138 H2        -11.3478  -23.0412  -37.0183 H         1 TYR         0.2017
    139 H3        -10.7081  -21.5365  -37.2088 H         1 TYR         0.2017
    140 H4        -12.6303  -20.7757  -38.4115 H         1 TYR         0.1120
    141 H5        -13.4425  -23.6636  -37.9452 H         1 TYR         0.0486
    142 H6        -13.3390  -22.7577  -39.4929 H         1 TYR         0.0486
    143 H7        -15.3586  -23.3600  -36.4506 H         1 TYR         0.0530
    144 H8        -15.1320  -21.3043  -40.1977 H         1 TYR         0.0530
    145 H9        -17.8024  -22.9317  -36.3574 H         1 TYR         0.0525
    146 H10       -17.5423  -20.7357  -40.0278 H         1 TYR         0.0525
    147 H11       -19.5087  -21.9038  -37.3623 H         1 TYR         0.2458
    148 H12       -13.8662  -19.4859  -37.1772 H         1 PHE         0.1886
    149 H13       -15.1290  -20.7177  -34.7904 H         1 PHE         0.0824
    150 H14       -13.1393  -19.4768  -33.9323 H         1 PHE         0.0474
    151 H15       -14.7056  -18.8046  -33.3652 H         1 PHE         0.0474
    152 H16       -11.7069  -18.2290  -35.3781 H         1 PHE         0.0557
    153 H17       -15.5036  -16.6293  -34.2311 H         1 PHE         0.0557
    154 H18       -10.9926  -16.0014  -36.2142 H         1 PHE         0.0599
    155 H19       -14.8131  -14.3535  -35.0510 H         1 PHE         0.0599
    156 H20       -12.5503  -14.0676  -36.1126 H         1 PHE         0.0559
    157 H21       -18.5055  -18.8519  -36.7618 H         1 PRO         0.0924
    158 H22       -20.4774  -18.8352  -34.9276 H         1 PRO         0.0494
    159 H23       -19.1954  -19.7613  -32.7486 H         1 PRO         0.0482
    160 H24       -16.7157  -19.9133  -33.2958 H         1 PRO         0.0653
    161 H25       -17.4306  -21.0769  -34.4627 H         1 PRO         0.0653
    162 H26       -18.8042  -16.9552  -37.6909 H         1 THR         0.1885
    163 H27       -17.8687  -14.5027  -36.2938 H         1 THR         0.0826
    164 H28       -17.6726  -13.6222  -38.6694 H         1 THR         0.0639
    165 H29       -18.0611  -16.3684  -39.2895 H         1 THR         0.2101
    166 H30       -15.6253  -14.7927  -39.2127 H         1 THR         0.0257
    167 H31       -16.0411  -16.0733  -38.0237 H         1 THR         0.0257
    168 H32       -15.7309  -14.3947  -37.4643 H         1 THR         0.0257
    169 H33       -19.3990  -12.7843  -36.1569 H         1 ASP         0.1884
    170 H34       -22.0569  -13.2867  -37.4406 H         1 ASP         0.0819
    171 H35       -22.8950  -11.4027  -35.9657 H         1 ASP         0.0478
    172 H36       -21.3175  -11.4626  -35.1085 H         1 ASP         0.0478
    173 H37       -22.9691  -11.6536  -38.6521 H         1 GLU         0.1883
    174 H38       -21.1456  -10.5753  -40.5234 H         1 GLU         0.0801
    175 H39       -24.1077  -10.0390  -40.0277 H         1 GLU         0.0330
    176 H40       -23.3931  -11.2647  -41.1294 H         1 GLU         0.0330
    177 H41       -23.3999   -8.2401  -41.4431 H         1 GLU         0.0433
    178 H42       -24.2317   -9.4646  -42.4606 H         1 GLU         0.0433
    179 H43       -22.8914   -9.1229  -37.8077 H         1 ARG         0.1883
    180 H44       -22.2118   -6.4321  -38.5894 H         1 ARG         0.0800
    181 H45       -24.1426   -7.4353  -37.0299 H         1 ARG         0.0313
    182 H46       -23.5590   -5.7395  -36.9281 H         1 ARG         0.0313
    183 H47       -23.5586   -6.2516  -34.7140 H         1 ARG         0.0301
    184 H48       -21.9061   -6.8211  -35.1284 H         1 ARG         0.0301
    185 H49       -22.4084   -8.9396  -34.6308 H         1 ARG         0.0689
    186 H50       -23.9368   -8.8805  -35.5727 H         1 ARG         0.0689
    187 H51       -25.0206   -7.8599  -33.5799 H         1 ARG         0.2642
    188 H52       -22.2500   -9.8574  -31.3634 H         1 ARG         0.2615
    189 H53       -21.9159   -9.5482  -33.0883 H         1 ARG         0.2615
    190 H54       -25.4249   -8.2732  -31.4212 H         1 ARG         0.2615
    191 H55       -24.2296   -9.1531  -30.4315 H         1 ARG         0.2615
    192 H56       -20.4360   -8.8885  -36.8856 H         1 SER         0.1884
    193 H57       -18.8075   -6.8449  -35.5722 H         1 SER         0.0823
    194 H58       -17.4698   -8.6980  -34.6908 H         1 SER         0.0606
    195 H59       -18.3780   -9.8567  -35.7200 H         1 SER         0.0606
    196 H60       -19.2530   -9.6859  -33.5727 H         1 SER         0.2097
    197 H61       -18.8717   -8.1104  -38.7204 H         1 TRP         0.1884
    198 H62       -16.0448   -8.1386  -39.2812 H         1 TRP         0.0815
    199 H63       -16.8156   -7.6019  -41.6769 H         1 TRP         0.0397
    200 H64       -18.4901   -7.7005  -41.0342 H         1 TRP         0.0397
    201 H65       -19.5468  -10.0584  -40.9777 H         1 TRP         0.0795
    202 H66       -18.6785  -12.4986  -41.3073 H         1 TRP         0.2216
    203 H67       -14.5397   -9.0234  -41.1631 H         1 TRP         0.0540
    204 H68       -16.1545  -13.7465  -41.6234 H         1 TRP         0.0541
    205 H69       -12.9536  -10.8636  -41.5600 H         1 TRP         0.0510
    206 H70       -13.7482  -13.2050  -41.6891 H         1 TRP         0.0530
    207 H71       -14.6706   -6.5264  -39.8285 H         1 VAL         0.1883
    208 H72       -15.8108   -3.7591  -39.8662 H         1 VAL         0.0802
    209 H73       -12.9468   -4.6384  -39.2721 H         1 VAL         0.0343
    210 H74       -12.6149   -2.2803  -38.5754 H         1 VAL         0.0234
    211 H75       -14.2868   -1.8929  -39.1059 H         1 VAL         0.0234
    212 H76       -13.0599   -2.4128  -40.3106 H         1 VAL         0.0234
    213 H77       -14.5532   -5.3474  -37.4983 H         1 VAL         0.0234
    214 H78       -15.1360   -3.6543  -37.3558 H         1 VAL         0.0234
    215 H79       -13.4424   -4.0612  -36.9165 H         1 VAL         0.0234
    216 H80       -16.2330   -3.3973  -41.9578 H         1 TYR         0.1885
    217 H81       -14.6223   -4.6983  -44.0229 H         1 TYR         0.0821
    218 H82       -16.2478   -3.3882  -45.5480 H         1 TYR         0.0453
    219 H83       -17.1019   -2.9378  -44.0333 H         1 TYR         0.0453
    220 H84       -16.4067   -5.6511  -46.4227 H         1 TYR         0.0530
    221 H85       -18.3088   -4.5850  -42.7456 H         1 TYR         0.0530
    222 H86       -17.6650   -7.7918  -46.4156 H         1 TYR         0.0525
    223 H87       -19.5441   -6.6953  -42.7397 H         1 TYR         0.0525
    224 H88       -20.3483   -8.2709  -44.5551 H         1 TYR         0.2458
    225 H89       -13.2522   -3.7363  -45.4809 H         1 SER         0.1884
    226 H90       -12.2975   -1.0350  -44.8167 H         1 SER         0.0823
    227 H91       -10.7069   -1.3655  -46.6806 H         1 SER         0.0606
    228 H92       -11.5561   -2.8791  -47.1442 H         1 SER         0.0606
    229 H93       -10.2583   -2.3863  -44.6428 H         1 SER         0.2097
    230 H94       -14.9531    0.9328  -47.8895 H         1 PRO         0.0802
    231 H95       -14.6700    2.9521  -46.6909 H         1 PRO         0.0313
    232 H96       -13.6247    3.3445  -48.0981 H         1 PRO         0.0313
    233 H97       -12.6262    3.4880  -45.6425 H         1 PRO         0.0287
    234 H98       -11.6509    2.7388  -46.9517 H         1 PRO         0.0287
    235 H99       -11.6646    0.9209  -45.3798 H         1 PRO         0.0524
    236 H100      -13.2852    1.3593  -44.7410 H         1 PRO         0.0524
    237 H101      -14.8231    1.3589  -50.1534 H         1 LEU         0.1883
    238 H102      -12.2149    0.6144  -51.3794 H         1 LEU         0.0800
    239 H103      -13.5331    0.1429  -53.4144 H         1 LEU         0.0315
    240 H104      -15.0332    0.5791  -52.5277 H         1 LEU         0.0315
    241 H105      -14.7893   -1.3577  -51.0886 H         1 LEU         0.0298
    242 H106      -15.1383   -3.0593  -52.8773 H         1 LEU         0.0232
    243 H107      -14.4188   -1.9313  -54.0759 H         1 LEU         0.0232
    244 H108      -15.9624   -1.5097  -53.2596 H         1 LEU         0.0232
    245 H109      -12.3009   -1.4994  -50.9814 H         1 LEU         0.0232
    246 H110      -12.2480   -1.9728  -52.7133 H         1 LEU         0.0232
    247 H111      -13.0122   -3.0627  -51.5072 H         1 LEU         0.0232
    248 H112      -11.1453    2.0932  -52.4674 H         1 HIS         0.1877
    249 H113      -12.5711    4.6134  -53.2482 H         1 HIS         0.0743
    250 H114      -10.4485    5.7284  -53.2832 H         1 HIS         0.0413
    251 H115       -9.5636    4.1814  -53.0589 H         1 HIS         0.0413
    252 H116      -12.4697    4.4354  -50.5580 H         1 HIS         0.0729
    253 H117       -8.9740    5.8204  -48.5479 H         1 HIS         0.1199
    254 H118      -11.4106    5.0949  -48.2550 H         1 HIS         0.2361
@<TRIPOS>BOND
     1    1    2 1  
     2    2    3 1  
     3    2    5 1  
     4    3    4 2  
     5    3   13 am 
     6    5    6 1  
     7    6    7 ar 
     8    6    8 ar 
     9    7    9 ar 
    10    8   10 ar 
    11    9   11 ar 
    12   10   11 ar 
    13   11   12 1  
    14   13   14 1  
    15   14   15 1  
    16   14   17 1  
    17   15   16 2  
    18   15   24 am 
    19   17   18 1  
    20   18   19 ar 
    21   18   20 ar 
    22   19   21 ar 
    23   20   22 ar 
    24   21   23 ar 
    25   22   23 ar 
    26   24   25 1  
    27   24   30 1  
    28   25   26 1  
    29   25   28 1  
    30   26   27 2  
    31   26   31 am 
    32   28   29 2  
    33   29   30 1  
    34   31   32 1  
    35   32   33 1  
    36   32   35 1  
    37   33   34 2  
    38   33   38 am 
    39   35   36 1  
    40   35   37 1  
    41   38   39 1  
    42   39   40 1  
    43   39   42 1  
    44   40   41 2  
    45   40   46 am 
    46   42   43 1  
    47   43   44 ar 
    48   43   45 ar 
    49   46   47 1  
    50   47   48 1  
    51   47   50 1  
    52   48   49 2  
    53   48   55 am 
    54   50   51 1  
    55   51   52 1  
    56   52   53 ar 
    57   52   54 ar 
    58   55   56 1  
    59   56   57 1  
    60   56   59 1  
    61   57   58 2  
    62   57   66 am 
    63   59   60 1  
    64   60   61 1  
    65   61   62 1  
    66   62   63 ar 
    67   63   64 ar 
    68   63   65 ar 
    69   66   67 1  
    70   67   68 1  
    71   67   70 1  
    72   68   69 2  
    73   68   72 am 
    74   70   71 1  
    75   72   73 1  
    76   73   74 1  
    77   73   76 1  
    78   74   75 2  
    79   74   86 am 
    80   76   77 1  
    81   77   78 2  
    82   77   79 1  
    83   78   80 1  
    84   79   81 ar 
    85   79   82 ar 
    86   80   81 1  
    87   81   83 ar 
    88   82   84 ar 
    89   83   85 ar 
    90   84   85 ar 
    91   86   87 1  
    92   87   88 1  
    93   87   90 1  
    94   88   89 2  
    95   88   93 am 
    96   90   91 1  
    97   90   92 1  
    98   93   94 1  
    99   94   95 1  
   100   94   97 1  
   101   95   96 2  
   102   95  105 am 
   103   97   98 1  
   104   98   99 ar 
   105   98  100 ar 
   106   99  101 ar 
   107  100  102 ar 
   108  101  103 ar 
   109  102  103 ar 
   110  103  104 1  
   111  105  106 1  
   112  106  107 1  
   113  106  109 1  
   114  107  108 2  
   115  107  111 am 
   116  109  110 1  
   117  111  112 1  
   118  111  117 1  
   119  112  113 1  
   120  112  115 1  
   121  113  114 2  
   122  113  118 am 
   123  115  116 1  
   124  116  117 1  
   125  118  119 1  
   126  119  120 1  
   127  119  122 1  
   128  120  121 2  
   129  120  126 am 
   130  122  123 1  
   131  123  124 1  
   132  123  125 1  
   133  126  127 1  
   134  127  128 1  
   135  127  130 1  
   136  128  129 ar 
   137  128  136 ar 
   138  130  131 1  
   139  131  132 1  
   140  131  133 2  
   141  132  134 2  
   142  133  135 1  
   143  134  135 1  
   144    1  137 1  
   145    1  138 1  
   146    1  139 1  
   147    2  140 1  
   148    5  141 1  
   149    5  142 1  
   150    7  143 1  
   151    8  144 1  
   152    9  145 1  
   153   10  146 1  
   154   12  147 1  
   155   13  148 1  
   156   14  149 1  
   157   17  150 1  
   158   17  151 1  
   159   19  152 1  
   160   20  153 1  
   161   21  154 1  
   162   22  155 1  
   163   23  156 1  
   164   25  157 1  
   165   28  158 1  
   166   29  159 1  
   167   30  160 1  
   168   30  161 1  
   169   31  162 1  
   170   32  163 1  
   171   35  164 1  
   172   36  165 1  
   173   37  166 1  
   174   37  167 1  
   175   37  168 1  
   176   38  169 1  
   177   39  170 1  
   178   42  171 1  
   179   42  172 1  
   180   46  173 1  
   181   47  174 1  
   182   50  175 1  
   183   50  176 1  
   184   51  177 1  
   185   51  178 1  
   186   55  179 1  
   187   56  180 1  
   188   59  181 1  
   189   59  182 1  
   190   60  183 1  
   191   60  184 1  
   192   61  185 1  
   193   61  186 1  
   194   62  187 1  
   195   64  188 1  
   196   64  189 1  
   197   65  190 1  
   198   65  191 1  
   199   66  192 1  
   200   67  193 1  
   201   70  194 1  
   202   70  195 1  
   203   71  196 1  
   204   72  197 1  
   205   73  198 1  
   206   76  199 1  
   207   76  200 1  
   208   78  201 1  
   209   80  202 1  
   210   82  203 1  
   211   83  204 1  
   212   84  205 1  
   213   85  206 1  
   214   86  207 1  
   215   87  208 1  
   216   90  209 1  
   217   91  210 1  
   218   91  211 1  
   219   91  212 1  
   220   92  213 1  
   221   92  214 1  
   222   92  215 1  
   223   93  216 1  
   224   94  217 1  
   225   97  218 1  
   226   97  219 1  
   227   99  220 1  
   228  100  221 1  
   229  101  222 1  
   230  102  223 1  
   231  104  224 1  
   232  105  225 1  
   233  106  226 1  
   234  109  227 1  
   235  109  228 1  
   236  110  229 1  
   237  112  230 1  
   238  115  231 1  
   239  115  232 1  
   240  116  233 1  
   241  116  234 1  
   242  117  235 1  
   243  117  236 1  
   244  118  237 1  
   245  119  238 1  
   246  122  239 1  
   247  122  240 1  
   248  123  241 1  
   249  124  242 1  
   250  124  243 1  
   251  124  244 1  
   252  125  245 1  
   253  125  246 1  
   254  125  247 1  
   255  126  248 1  
   256  127  249 1  
   257  130  250 1  
   258  130  251 1  
   259  133  252 1  
   260  134  253 1  
   261  135  254 1  
@<TRIPOS>SUBSTRUCTURE
     1 TYR         1

