5nxv_ligand
  -I-interpret- 

 36 37  0  0  0  0  0  0  0  0999 V2000
   -3.8910    4.2280   15.6950 C   0  0  0  0  0
   -2.3040    8.6080   12.3650 C   0  0  0  0  0
   -6.1380    4.9310   15.4140 C   0  0  0  0  0
   -5.7090    6.0590   14.7240 C   0  0  0  0  0
   -4.3530    6.2780   14.5210 C   0  0  0  0  0
   -2.6440    7.7870   13.5920 C   0  0  0  0  0
   -5.2790    1.2840   16.0190 N   0  0  0  0  0
   -2.0020   10.8830   13.3030 C   0  0  0  0  0
   -3.0810   10.8260   11.3520 N   0  0  0  0  0
   -3.9490    7.4410   13.8380 N   0  0  0  0  0
   -1.9590   13.5390   13.9000 Cl  0  0  0  0  0
   -2.3240   12.1420   12.9450 C   0  0  0  0  0
   -2.9970   12.0770   11.7130 C   0  0  0  0  0
   -3.5460   13.2100   10.9570 N   0  0  0  0  0
   -3.7050   13.0840    9.7530 O   0  0  0  0  0
   -3.8460   14.2450   11.5370 O   0  0  0  0  0
   -2.4700   10.0580   12.3550 N   0  0  0  0  0
   -1.2790   10.4490   14.5520 C   0  0  0  0  0
   -1.6980    7.3160   14.2250 O   0  0  0  0  0
   -3.4470    5.3560   15.0100 C   0  0  0  0  0
   -5.2420    4.0120   15.9080 C   0  0  0  0  0
   -5.8590    2.6040   16.7610 S   0  0  0  0  0
   -7.2760    2.6870   16.5730 O   0  0  0  0  0
   -5.3610    2.6840   18.0670 O   0  0  0  0  0
   -3.1654    3.5054   16.0685 H   0  0  0  0  0
   -3.0092    8.2579   11.6112 H   0  0  0  0  0
   -1.2302    8.4659   12.2434 H   0  0  0  0  0
   -7.2055    4.7718   15.5665 H   0  0  0  0  0
   -6.4385    6.7729   14.3416 H   0  0  0  0  0
   -5.9119    0.6624   15.5156 H   0  0  0  0  0
   -4.2813    1.0753   16.0557 H   0  0  0  0  0
   -4.6777    8.0708   13.5023 H   0  0  0  0  0
   -0.2934   10.9137   14.5798 H   0  0  0  0  0
   -1.8517   10.7561   15.4271 H   0  0  0  0  0
   -1.1708    9.3644   14.5493 H   0  0  0  0  0
   -2.3790    5.5127   14.8586 H   0  0  0  0  0
  1 20  4  0  0  0
 21  1  4  0  0  0
  6  2  1  0  0  0
  2 17  1  0  0  0
  3  4  4  0  0  0
 21  3  4  0  0  0
  4  5  4  0  0  0
  5 10  1  0  0  0
 20  5  4  0  0  0
 10  6  1  0  0  0
  6 19  2  0  0  0
 22  7  1  0  0  0
  8 12  4  0  0  0
 17  8  4  0  0  0
  8 18  1  0  0  0
  9 13  4  0  0  0
 17  9  4  0  0  0
 12 11  1  0  0  0
 13 12  4  0  0  0
 13 14  1  0  0  0
 14 15  2  0  0  0
 14 16  2  0  0  0
 21 22  1  0  0  0
 22 23  2  0  0  0
 22 24  2  0  0  0
  1 25  1  0  0  0
  2 26  1  0  0  0
  2 27  1  0  0  0
  3 28  1  0  0  0
  4 29  1  0  0  0
  7 30  1  0  0  0
  7 31  1  0  0  0
 10 32  1  0  0  0
 18 33  1  0  0  0
 18 34  1  0  0  0
 18 35  1  0  0  0
 20 36  1  0  0  0
M  END
$$$$
