### 
### Created by X-TOOL on Mon Sep 10 21:12:45 2018
### 

@<TRIPOS>MOLECULE
1els_ligand
   13    12     1     0     0
SMALL
GAST_HUCK


@<TRIPOS>ATOM
      1 C1         96.7260   47.1220   24.8770 C.3       1 PAH         0.1101
      2 C2         96.8630   47.9920   26.0560 C.2       1 PAH         0.2153
      3 N3         95.9830   49.1620   26.3950 N.am      1 PAH        -0.1631
      4 O4         95.5950   50.3900   25.8510 O.3       1 PAH        -0.2717
      5 O5         97.3790   47.3690   27.0420 O.2       1 PAH        -0.3954
      6 O6         94.1910   47.2500   24.2970 O.co2     1 PAH        -0.5606
      7 O7         95.7390   46.2080   22.5240 O.co2     1 PAH        -0.5606
      8 O8         94.9280   45.0580   24.6830 O.co2     1 PAH        -0.5606
      9 P9         95.3300   46.2510   24.0130 P.3       1 PAH         0.0776
     10 H1         97.1538   47.7404   24.0741 H         1 PAH         0.0691
     11 H2         97.4140   46.2959   25.1098 H         1 PAH         0.0691
     12 H3         95.5396   49.0184   27.2797 H         1 PAH         0.2217
     13 H4         96.3622   50.9360   25.7254 H         1 PAH         0.2490
@<TRIPOS>BOND
     1    1    9 1  
     2    1    2 1  
     3    2    5 2  
     4    2    3 am 
     5    3    4 1  
     6    9    6 ar 
     7    9    8 ar 
     8    9    7 ar 
     9    1   10 1  
    10    1   11 1  
    11    3   12 1  
    12    4   13 1  
@<TRIPOS>SUBSTRUCTURE
     1 PAH         1

