1els_ligand
  -I-interpret- 

 15 14  0  0  0  0  0  0  0  0999 V2000
   96.7260   47.1220   24.8770 C   0  0  0  0  0
   96.8630   47.9920   26.0560 C   0  0  0  0  0
   95.9830   49.1620   26.3950 N   0  0  0  0  0
   95.5950   50.3900   25.8510 O   0  0  0  0  0
   97.3790   47.3690   27.0420 O   0  0  0  0  0
   94.1910   47.2500   24.2970 O   0  0  0  0  0
   95.7390   46.2080   22.5240 O   0  0  0  0  0
   94.9280   45.0580   24.6830 O   0  0  0  0  0
   95.3300   46.2510   24.0130 P   0  0  0  0  0
   96.9382   47.8679   24.1111 H   0  0  0  0  0
   97.2311   46.2425   25.2764 H   0  0  0  0  0
   95.5307   49.0155   27.2974 H   0  0  0  0  0
   94.9852   50.8260   26.4507 H   0  0  0  0  0
   94.3896   48.0886   23.8741 H   0  0  0  0  0
   95.9790   47.0910   22.2336 H   0  0  0  0  0
  1  9  1  0  0  0
  1  2  1  0  0  0
  2  5  2  0  0  0
  2  3  1  0  0  0
  3  4  1  0  0  0
  9  6  1  0  0  0
  9  8  2  0  0  0
  9  7  1  0  0  0
  1 10  1  0  0  0
  1 11  1  0  0  0
  3 12  1  0  0  0
  4 13  1  0  0  0
  6 14  1  0  0  0
  7 15  1  0  0  0
M  END
$$$$
