3tv4_ligand
  -I-interpret- 

 41 42  0  0  0  0  0  0  0  0999 V2000
   18.3810  -25.6150   -0.6190 N   0  0  0  0  0
   18.0520  -24.3380   -0.3160 C   0  0  0  0  0
   16.7420  -23.8490   -0.4090 C   0  0  0  0  0
   15.7270  -24.7220   -0.8380 C   0  0  0  0  0
   16.0450  -26.0510   -1.1690 C   0  0  0  0  0
   17.3870  -26.4370   -1.0370 C   0  0  0  0  0
   19.1310  -23.5380    0.1050 N   0  0  0  0  0
   16.3760  -22.0330    0.0410 Br  0  0  0  0  0
   15.0820  -27.0230   -1.5870 N   0  0  0  0  0
   13.9650  -26.9080   -2.3940 C   0  0  0  0  0
   13.6270  -25.8740   -2.9440 O   0  0  0  0  0
   13.1360  -28.1180   -2.6430 C   0  0  0  0  0
   12.6050  -28.9260   -1.6360 C   0  0  0  0  0
   11.8250  -30.0420   -1.9570 C   0  0  0  0  0
   11.5540  -30.3650   -3.2860 C   0  0  0  0  0
   12.0710  -29.5560   -4.2940 C   0  0  0  0  0
   12.8460  -28.4490   -3.9580 C   0  0  0  0  0
   13.3470  -27.6760   -4.9220 F   0  0  0  0  0
   12.8430  -28.6370   -0.3510 F   0  0  0  0  0
   11.8710  -29.7900   -5.6570 N   0  0  0  0  0
   10.9680  -31.1190   -6.1760 S   0  0  0  0  0
   10.9440  -31.0460   -7.6260 O   0  0  0  0  0
    9.7840  -31.1940   -5.3580 O   0  0  0  0  0
   12.0310  -32.4750   -5.6610 C   0  0  0  0  0
   13.0570  -32.9150   -6.7030 C   0  0  0  0  0
   14.3300  -32.0820   -6.7210 C   0  0  0  0  0
   14.6981  -24.3702   -0.9137 H   0  0  0  0  0
   17.6480  -27.4654   -1.2869 H   0  0  0  0  0
   20.0689  -23.9351    0.1611 H   0  0  0  0  0
   18.9750  -22.5612    0.3540 H   0  0  0  0  0
   15.2480  -27.9631   -1.2277 H   0  0  0  0  0
   11.4243  -30.6665   -1.1586 H   0  0  0  0  0
   10.9473  -31.2366   -3.5316 H   0  0  0  0  0
   12.2738  -29.1527   -6.3441 H   0  0  0  0  0
   11.3833  -33.3313   -5.4731 H   0  0  0  0  0
   12.5907  -32.1265   -4.7930 H   0  0  0  0  0
   12.5881  -32.8043   -7.6807 H   0  0  0  0  0
   13.3462  -33.9365   -6.4561 H   0  0  0  0  0
   14.0801  -31.0435   -6.9382 H   0  0  0  0  0
   14.8170  -32.1440   -5.7478 H   0  0  0  0  0
   15.0017  -32.4638   -7.4899 H   0  0  0  0  0
  1  2  4  0  0  0
  1  6  4  0  0  0
  2  3  4  0  0  0
  2  7  1  0  0  0
  3  4  4  0  0  0
  3  8  1  0  0  0
  4  5  4  0  0  0
  5  6  4  0  0  0
  5  9  1  0  0  0
  9 10  1  0  0  0
 10 11  2  0  0  0
 10 12  1  0  0  0
 12 13  4  0  0  0
 12 17  4  0  0  0
 13 14  4  0  0  0
 13 19  1  0  0  0
 14 15  4  0  0  0
 15 16  4  0  0  0
 16 17  4  0  0  0
 16 20  1  0  0  0
 17 18  1  0  0  0
 20 21  1  0  0  0
 21 22  2  0  0  0
 21 23  2  0  0  0
 21 24  1  0  0  0
 24 25  1  0  0  0
 25 26  1  0  0  0
  4 27  1  0  0  0
  6 28  1  0  0  0
  7 29  1  0  0  0
  7 30  1  0  0  0
  9 31  1  0  0  0
 14 32  1  0  0  0
 15 33  1  0  0  0
 20 34  1  0  0  0
 24 35  1  0  0  0
 24 36  1  0  0  0
 25 37  1  0  0  0
 25 38  1  0  0  0
 26 39  1  0  0  0
 26 40  1  0  0  0
 26 41  1  0  0  0
M  END
$$$$
