### 
### Created by X-TOOL on Mon Sep 10 21:12:58 2018
### 

@<TRIPOS>MOLECULE
2zlg_ligand
  139   144     1     0     0
SMALL
GAST_HUCK


@<TRIPOS>ATOM
      1 O1         11.8780   19.0230   -1.9680 O.2       1 MRT        -0.3772
      2 O2         10.9920   20.4400   -3.5320 O.3       1 MRT        -0.2584
      3 C3         10.5730   21.7970   -3.4270 C.3       1 MRT         0.1002
      4 C4         11.7660   22.6290   -3.8750 C.3       1 MRT         0.0549
      5 C5         11.5700   24.0540   -3.6170 C.ar      1 MRT        -0.0188
      6 C6         11.4090   24.6640   -2.3830 C.ar      1 MRT        -0.0580
      7 C7         11.2370   26.0450   -2.3730 C.ar      1 MRT        -0.0687
      8 C8         11.2290   26.7740   -3.5660 C.ar      1 MRT        -0.0687
      9 C9         11.8690   22.6430   -5.3340 C.ar      1 MRT        -0.0188
     10 C10        12.0620   21.5530   -6.1670 C.ar      1 MRT        -0.0580
     11 C11        12.1300   21.7950   -7.5360 C.ar      1 MRT        -0.0687
     12 C12        12.0070   23.0900   -8.0440 C.ar      1 MRT        -0.0687
     13 C13        11.8120   24.1800   -7.1970 C.ar      1 MRT        -0.0622
     14 C14        11.7490   23.9140   -5.8410 C.ar      1 MRT        -0.0184
     15 C15        11.5670   24.7820   -4.7860 C.ar      1 MRT        -0.0184
     16 C16        11.3980   26.1530   -4.8010 C.ar      1 MRT        -0.0622
     17 C17        12.1030   19.9570   -2.7190 C.2       1 MRT         0.3264
     18 C18        16.4120   21.5540   -2.8190 C.3       1 MRT         0.0462
     19 C19        15.8480   20.2900   -3.4610 C.2       1 MRT         0.1861
     20 O20        16.4690   19.7920   -4.3950 O.2       1 MRT        -0.3804
     21 C21        14.5660   19.6170   -2.9890 C.3       1 MRT         0.1577
     22 C22        14.8980   18.7490   -1.8130 C.ar      1 MRT         0.0003
     23 C23        16.0760   18.0050   -1.8650 C.ar      1 MRT        -0.0557
     24 C24        16.4340   17.1720   -0.8080 C.ar      1 MRT        -0.0680
     25 C25        15.6200   17.0680    0.3160 C.ar      1 MRT        -0.0684
     26 C26        14.4430   17.8040    0.3780 C.ar      1 MRT        -0.0680
     27 C27        14.0910   18.6370   -0.6800 C.ar      1 MRT        -0.0557
     28 N28        13.4150   20.5650   -2.8440 N.am      1 MRT        -0.2207
     29 C29        13.6710   21.5540   -1.7730 C.3       1 MRT         0.0294
     30 O30        19.3260   21.1210   -2.2710 O.2       1 MRT        -0.3907
     31 C31        19.1710   21.7260   -1.2180 C.2       1 MRT         0.2269
     32 C32        17.7910   21.9410   -0.6390 C.3       1 MRT         0.0689
     33 C33        17.8000   21.2650    0.7340 C.3       1 MRT         0.0103
     34 C34        16.4360   21.2760    1.4110 C.3       1 MRT        -0.0394
     35 C35        16.2940   22.4640    2.3520 C.3       1 MRT        -0.0623
     36 C36        16.2020   19.9830    2.1790 C.3       1 MRT        -0.0623
     37 N37        16.6780   21.3710   -1.3960 N.4       1 MRT         0.2624
     38 N38        20.1980   22.2090   -0.5040 N.am      1 MRT        -0.2595
     39 C39        21.5890   22.0570   -0.9330 C.3       1 MRT         0.1424
     40 C40        21.8110   22.9490   -2.1570 C.3       1 MRT         0.0406
     41 C41        21.7980   24.4240   -1.8180 C.2       1 MRT         0.0393
     42 O42        22.6490   24.8810   -1.0210 O.co2     1 MRT        -0.5688
     43 O43        20.9340   25.1430   -2.3680 O.co2     1 MRT        -0.5688
     44 C44        22.5780   22.4150    0.1480 C.2       1 MRT         0.2056
     45 O45        22.1860   22.8410    1.2220 O.2       1 MRT        -0.3943
     46 N46        23.8730   22.2380   -0.1390 N.am      1 MRT        -0.2634
     47 C47        24.9440   22.5310    0.8130 C.3       1 MRT         0.1338
     48 C48        25.5310   21.1800    1.2180 C.3       1 MRT        -0.0006
     49 C49        26.4410   21.3160    2.4370 C.3       1 MRT        -0.0460
     50 C50        25.6530   21.7120    3.6810 C.3       1 MRT        -0.0526
     51 C51        24.5480   20.7000    3.9650 C.3       1 MRT        -0.0530
     52 C52        23.6360   20.5460    2.7540 C.3       1 MRT        -0.0526
     53 C53        24.4380   20.1580    1.5150 C.3       1 MRT        -0.0460
     54 C54        26.0310   23.4080    0.2370 C.2       1 MRT         0.2043
     55 O55        26.8890   23.8810    0.9730 O.2       1 MRT        -0.3944
     56 N56        26.0040   23.6410   -1.0840 N.am      1 MRT        -0.2622
     57 C57        26.9840   24.5000   -1.7500 C.3       1 MRT         0.1423
     58 C58        26.8690   24.2280   -3.2480 C.3       1 MRT         0.0406
     59 C59        25.7000   24.9820   -3.8400 C.2       1 MRT         0.0393
     60 O60        25.9140   26.0840   -4.3980 O.co2     1 MRT        -0.5688
     61 O61        24.5590   24.4700   -3.7640 O.co2     1 MRT        -0.5688
     62 C62        26.6290   25.9170   -1.4000 C.2       1 MRT         0.2052
     63 O63        27.1840   26.8860   -1.8920 O.2       1 MRT        -0.3943
     64 N64        25.6430   25.9460   -0.5090 N.am      1 MRT        -0.2676
     65 C65        24.9800   27.0340    0.1710 C.3       1 MRT         0.1039
     66 C66        26.0620   27.8790    0.7660 C.2       1 MRT         0.0621
     67 O67        25.9330   29.1320    0.7810 O.co2     1 MRT        -0.5664
     68 O68        27.0740   27.2700    1.2120 O.co2     1 MRT        -0.5664
     69 C69        24.2430   26.2120    1.2000 C.3       1 MRT         0.0159
     70 C70        24.0820   26.3970    2.6610 C.ar      1 MRT        -0.0392
     71 C71        24.5880   27.4880    3.3520 C.ar      1 MRT        -0.0602
     72 C72        24.3890   27.5910    4.7210 C.ar      1 MRT        -0.0686
     73 C73        23.6820   26.6080    5.3970 C.ar      1 MRT        -0.0687
     74 C74        23.1710   25.5140    4.7110 C.ar      1 MRT        -0.0686
     75 C75        23.3740   25.4130    3.3420 C.ar      1 MRT        -0.0602
     76 H1         10.3061   22.0372   -2.3873 H         1 MRT         0.0667
     77 H2          9.7078   21.9835   -4.0802 H         1 MRT         0.0667
     78 H3         12.6826   22.2500   -3.3993 H         1 MRT         0.0681
     79 H4         11.4167   24.0894   -1.4639 H         1 MRT         0.0563
     80 H5         11.1077   26.5617   -1.4289 H         1 MRT         0.0592
     81 H6         11.0879   27.8481   -3.5288 H         1 MRT         0.0561
     82 H7         12.1565   20.5496   -5.7677 H         1 MRT         0.0563
     83 H8         12.2807   20.9660   -8.2180 H         1 MRT         0.0592
     84 H9         12.0641   23.2503   -9.1146 H         1 MRT         0.0561
     85 H10        11.7144   25.1883   -7.5828 H         1 MRT         0.0597
     86 H11        11.3970   26.7167   -5.7269 H         1 MRT         0.0597
     87 H12        15.6849   22.3701   -2.9425 H         1 MRT         0.1056
     88 H13        17.3518   21.8205   -3.3247 H         1 MRT         0.1056
     89 H14        14.2612   18.9282   -3.7906 H         1 MRT         0.0954
     90 H15        16.7184   18.0755   -2.7353 H         1 MRT         0.0562
     91 H16        17.3535   16.6004   -0.8611 H         1 MRT         0.0600
     92 H17        15.9019   16.4181    1.1365 H         1 MRT         0.0562
     93 H18        13.8007   17.7296    1.2480 H         1 MRT         0.0600
     94 H19        13.1724   19.2097   -0.6228 H         1 MRT         0.0562
     95 H20        12.8112   22.2350   -1.6897 H         1 MRT         0.0489
     96 H21        14.5745   22.1323   -2.0162 H         1 MRT         0.0489
     97 H22        13.8175   21.0298   -0.8171 H         1 MRT         0.0489
     98 H23        17.6197   23.0224   -0.5331 H         1 MRT         0.1099
     99 H24        18.5164   21.7933    1.3803 H         1 MRT         0.0348
    100 H25        18.1206   20.2203    0.6084 H         1 MRT         0.0348
    101 H26        15.6669   21.3601    0.6291 H         1 MRT         0.0299
    102 H27        15.3002   22.4418    2.8231 H         1 MRT         0.0232
    103 H28        16.4092   23.3983    1.7830 H         1 MRT         0.0232
    104 H29        17.0698   22.4104    3.1300 H         1 MRT         0.0232
    105 H30        16.3054   19.1270    1.4959 H         1 MRT         0.0232
    106 H31        15.1891   19.9895    2.6080 H         1 MRT         0.0232
    107 H32        16.9424   19.8979    2.9881 H         1 MRT         0.0232
    108 H33        16.7595   20.3741   -1.2708 H         1 MRT         0.2055
    109 H34        15.8477   21.7015   -0.9297 H         1 MRT         0.2055
    110 H35        20.0068   22.6900    0.3517 H         1 MRT         0.1886
    111 H36        21.7549   21.0072   -1.2167 H         1 MRT         0.0819
    112 H37        21.0127   22.7492   -2.8869 H         1 MRT         0.0478
    113 H38        22.7856   22.6993   -2.6018 H         1 MRT         0.0478
    114 H39        24.1192   21.8903   -1.0437 H         1 MRT         0.1883
    115 H40        24.5186   23.0347    1.6935 H         1 MRT         0.0803
    116 H41        26.1328   20.8067    0.3763 H         1 MRT         0.0348
    117 H42        27.1986   22.0871    2.2333 H         1 MRT         0.0270
    118 H43        26.9387   20.3524    2.6209 H         1 MRT         0.0270
    119 H44        25.2027   22.7031    3.5228 H         1 MRT         0.0265
    120 H45        26.3354   21.7526    4.5428 H         1 MRT         0.0265
    121 H46        23.9534   21.0457    4.8234 H         1 MRT         0.0265
    122 H47        25.0018   19.7263    4.2016 H         1 MRT         0.0265
    123 H48        23.1222   21.5003    2.5662 H         1 MRT         0.0265
    124 H49        22.8915   19.7632    2.9609 H         1 MRT         0.0265
    125 H50        24.9027   19.1752    1.6826 H         1 MRT         0.0270
    126 H51        23.7582   20.0998    0.6522 H         1 MRT         0.0270
    127 H52        25.2876   23.2117   -1.6340 H         1 MRT         0.1884
    128 H53        28.0041   24.2739   -1.4061 H         1 MRT         0.0819
    129 H54        26.7220   23.1498   -3.4090 H         1 MRT         0.0478
    130 H55        27.7956   24.5501   -3.7456 H         1 MRT         0.0478
    131 H56        25.2937   25.0420   -0.2625 H         1 MRT         0.1877
    132 H57        24.3094   27.6297   -0.4658 H         1 MRT         0.0749
    133 H58        24.6934   25.2125    1.1097 H         1 MRT         0.0467
    134 H59        23.2099   26.1840    0.8232 H         1 MRT         0.0467
    135 H60        25.1377   28.2584    2.8235 H         1 MRT         0.0557
    136 H61        24.7868   28.4412    5.2632 H         1 MRT         0.0599
    137 H62        23.5274   26.6940    6.4665 H         1 MRT         0.0559
    138 H63        22.6186   24.7459    5.2401 H         1 MRT         0.0599
    139 H64        22.9782   24.5617    2.8001 H         1 MRT         0.0557
@<TRIPOS>BOND
     1   17    1 2  
     2    2    3 1  
     3   17    2 1  
     4    3    4 1  
     5    4    5 1  
     6    4    9 1  
     7    5    6 ar 
     8    5   15 ar 
     9    6    7 ar 
    10    7    8 ar 
    11   16    8 ar 
    12    9   10 ar 
    13    9   14 ar 
    14   10   11 ar 
    15   11   12 ar 
    16   13   12 ar 
    17   14   13 ar 
    18   14   15 1  
    19   15   16 ar 
    20   28   17 am 
    21   18   19 1  
    22   37   18 1  
    23   19   20 2  
    24   19   21 1  
    25   21   22 1  
    26   21   28 1  
    27   22   23 ar 
    28   22   27 ar 
    29   23   24 ar 
    30   24   25 ar 
    31   26   25 ar 
    32   27   26 ar 
    33   28   29 1  
    34   31   30 2  
    35   32   31 1  
    36   31   38 am 
    37   32   33 1  
    38   32   37 1  
    39   33   34 1  
    40   34   35 1  
    41   34   36 1  
    42   38   39 1  
    43   39   40 1  
    44   39   44 1  
    45   40   41 1  
    46   41   42 ar 
    47   41   43 ar 
    48   44   45 2  
    49   44   46 am 
    50   46   47 1  
    51   47   48 1  
    52   47   54 1  
    53   48   49 1  
    54   48   53 1  
    55   49   50 1  
    56   50   51 1  
    57   51   52 1  
    58   52   53 1  
    59   54   55 2  
    60   54   56 am 
    61   56   57 1  
    62   57   58 1  
    63   57   62 1  
    64   58   59 1  
    65   59   60 ar 
    66   59   61 ar 
    67   62   63 2  
    68   62   64 am 
    69   64   65 1  
    70   65   66 1  
    71   65   69 1  
    72   66   67 ar 
    73   66   68 ar 
    74   69   70 1  
    75   70   71 ar 
    76   70   75 ar 
    77   71   72 ar 
    78   72   73 ar 
    79   73   74 ar 
    80   74   75 ar 
    81    3   76 1  
    82    3   77 1  
    83    4   78 1  
    84    6   79 1  
    85    7   80 1  
    86    8   81 1  
    87   10   82 1  
    88   11   83 1  
    89   12   84 1  
    90   13   85 1  
    91   16   86 1  
    92   18   87 1  
    93   18   88 1  
    94   21   89 1  
    95   23   90 1  
    96   24   91 1  
    97   25   92 1  
    98   26   93 1  
    99   27   94 1  
   100   29   95 1  
   101   29   96 1  
   102   29   97 1  
   103   32   98 1  
   104   33   99 1  
   105   33  100 1  
   106   34  101 1  
   107   35  102 1  
   108   35  103 1  
   109   35  104 1  
   110   36  105 1  
   111   36  106 1  
   112   36  107 1  
   113   37  108 1  
   114   37  109 1  
   115   38  110 1  
   116   39  111 1  
   117   40  112 1  
   118   40  113 1  
   119   46  114 1  
   120   47  115 1  
   121   48  116 1  
   122   49  117 1  
   123   49  118 1  
   124   50  119 1  
   125   50  120 1  
   126   51  121 1  
   127   51  122 1  
   128   52  123 1  
   129   52  124 1  
   130   53  125 1  
   131   53  126 1  
   132   56  127 1  
   133   57  128 1  
   134   58  129 1  
   135   58  130 1  
   136   64  131 1  
   137   65  132 1  
   138   69  133 1  
   139   69  134 1  
   140   71  135 1  
   141   72  136 1  
   142   73  137 1  
   143   74  138 1  
   144   75  139 1  
@<TRIPOS>SUBSTRUCTURE
     1 MRT         1

