2zlg_ligand
  -I-interpret- 

142147  0  0  0  0  0  0  0  0999 V2000
   11.8780   19.0230   -1.9680 O   0  0  0  0  0
   10.9920   20.4400   -3.5320 O   0  0  0  0  0
   10.5730   21.7970   -3.4270 C   0  0  0  0  0
   11.7660   22.6290   -3.8750 C   0  0  0  0  0
   11.5700   24.0540   -3.6170 C   0  0  0  0  0
   11.4090   24.6640   -2.3830 C   0  0  0  0  0
   11.2370   26.0450   -2.3730 C   0  0  0  0  0
   11.2290   26.7740   -3.5660 C   0  0  0  0  0
   11.8690   22.6430   -5.3340 C   0  0  0  0  0
   12.0620   21.5530   -6.1670 C   0  0  0  0  0
   12.1300   21.7950   -7.5360 C   0  0  0  0  0
   12.0070   23.0900   -8.0440 C   0  0  0  0  0
   11.8120   24.1800   -7.1970 C   0  0  0  0  0
   11.7490   23.9140   -5.8410 C   0  0  0  0  0
   11.5670   24.7820   -4.7860 C   0  0  0  0  0
   11.3980   26.1530   -4.8010 C   0  0  0  0  0
   12.1030   19.9570   -2.7190 C   0  0  0  0  0
   16.4120   21.5540   -2.8190 C   0  0  0  0  0
   15.8480   20.2900   -3.4610 C   0  0  0  0  0
   16.4690   19.7920   -4.3950 O   0  0  0  0  0
   14.5660   19.6170   -2.9890 C   0  0  0  0  0
   14.8980   18.7490   -1.8130 C   0  0  0  0  0
   16.0760   18.0050   -1.8650 C   0  0  0  0  0
   16.4340   17.1720   -0.8080 C   0  0  0  0  0
   15.6200   17.0680    0.3160 C   0  0  0  0  0
   14.4430   17.8040    0.3780 C   0  0  0  0  0
   14.0910   18.6370   -0.6800 C   0  0  0  0  0
   13.4150   20.5650   -2.8440 N   0  0  0  0  0
   13.6710   21.5540   -1.7730 C   0  0  0  0  0
   19.3260   21.1210   -2.2710 O   0  0  0  0  0
   19.1710   21.7260   -1.2180 C   0  0  0  0  0
   17.7910   21.9410   -0.6390 C   0  0  0  0  0
   17.8000   21.2650    0.7340 C   0  0  0  0  0
   16.4360   21.2760    1.4110 C   0  0  0  0  0
   16.2940   22.4640    2.3520 C   0  0  0  0  0
   16.2020   19.9830    2.1790 C   0  0  0  0  0
   16.6780   21.3710   -1.3960 N   0  3  0  0  0
   20.1980   22.2090   -0.5040 N   0  0  0  0  0
   21.5890   22.0570   -0.9330 C   0  0  0  0  0
   21.8110   22.9490   -2.1570 C   0  0  0  0  0
   21.7980   24.4240   -1.8180 C   0  0  0  0  0
   22.6490   24.8810   -1.0210 O   0  0  0  0  0
   20.9340   25.1430   -2.3680 O   0  0  0  0  0
   22.5780   22.4150    0.1480 C   0  0  0  0  0
   22.1860   22.8410    1.2220 O   0  0  0  0  0
   23.8730   22.2380   -0.1390 N   0  0  0  0  0
   24.9440   22.5310    0.8130 C   0  0  0  0  0
   25.5310   21.1800    1.2180 C   0  0  0  0  0
   26.4410   21.3160    2.4370 C   0  0  0  0  0
   25.6530   21.7120    3.6810 C   0  0  0  0  0
   24.5480   20.7000    3.9650 C   0  0  0  0  0
   23.6360   20.5460    2.7540 C   0  0  0  0  0
   24.4380   20.1580    1.5150 C   0  0  0  0  0
   26.0310   23.4080    0.2370 C   0  0  0  0  0
   26.8890   23.8810    0.9730 O   0  0  0  0  0
   26.0040   23.6410   -1.0840 N   0  0  0  0  0
   26.9840   24.5000   -1.7500 C   0  0  0  0  0
   26.8690   24.2280   -3.2480 C   0  0  0  0  0
   25.7000   24.9820   -3.8400 C   0  0  0  0  0
   25.9140   26.0840   -4.3980 O   0  0  0  0  0
   24.5590   24.4700   -3.7640 O   0  0  0  0  0
   26.6290   25.9170   -1.4000 C   0  0  0  0  0
   27.1840   26.8860   -1.8920 O   0  0  0  0  0
   25.6430   25.9460   -0.5090 N   0  0  0  0  0
   24.9800   27.0340    0.1710 C   0  0  0  0  0
   26.0620   27.8790    0.7660 C   0  0  0  0  0
   25.9330   29.1320    0.7810 O   0  0  0  0  0
   27.0740   27.2700    1.2120 O   0  0  0  0  0
   24.2430   26.2120    1.2000 C   0  0  0  0  0
   24.0820   26.3970    2.6610 C   0  0  0  0  0
   24.5880   27.4880    3.3520 C   0  0  0  0  0
   24.3890   27.5910    4.7210 C   0  0  0  0  0
   23.6820   26.6080    5.3970 C   0  0  0  0  0
   23.1710   25.5140    4.7110 C   0  0  0  0  0
   23.3740   25.4130    3.3420 C   0  0  0  0  0
   10.2745   22.0443   -2.4083 H   0  0  0  0  0
    9.6963   21.9924   -4.0445 H   0  0  0  0  0
   12.6138   22.1909   -3.3483 H   0  0  0  0  0
   11.4168   24.0862   -1.4588 H   0  0  0  0  0
   11.1070   26.5645   -1.4236 H   0  0  0  0  0
   11.0871   27.8541   -3.5286 H   0  0  0  0  0
   12.1570   20.5441   -5.7655 H   0  0  0  0  0
   12.2815   20.9614   -8.2217 H   0  0  0  0  0
   12.0644   23.2512   -9.1205 H   0  0  0  0  0
   11.7138   25.1939   -7.5849 H   0  0  0  0  0
   11.3970   26.7198   -5.7320 H   0  0  0  0  0
   15.6758   22.3503   -2.9289 H   0  0  0  0  0
   17.3524   21.7974   -3.3134 H   0  0  0  0  0
   14.1699   18.9517   -3.7562 H   0  0  0  0  0
   16.7220   18.0759   -2.7401 H   0  0  0  0  0
   17.3586   16.5972   -0.8614 H   0  0  0  0  0
   15.9034   16.4145    1.1410 H   0  0  0  0  0
   13.7971   17.7292    1.2529 H   0  0  0  0  0
   13.1673   19.2129   -0.6225 H   0  0  0  0  0
   12.9222   22.3445   -1.8236 H   0  0  0  0  0
   13.6147   21.0600   -0.8030 H   0  0  0  0  0
   14.6640   21.9833   -1.9064 H   0  0  0  0  0
   17.6173   23.0171   -0.6349 H   0  0  0  0  0
   18.4916   21.8162    1.3712 H   0  0  0  0  0
   18.0911   20.2245    0.5901 H   0  0  0  0  0
   15.6851   21.3643    0.6259 H   0  0  0  0  0
   17.0633   22.4097    3.1223 H   0  0  0  0  0
   16.4084   23.3891    1.7870 H   0  0  0  0  0
   15.3090   22.4409    2.8182 H   0  0  0  0  0
   16.2456   19.1396    1.4899 H   0  0  0  0  0
   16.9723   19.8706    2.9420 H   0  0  0  0  0
   15.2211   20.0160    2.6532 H   0  0  0  0  0
   16.8872   20.3737   -1.3515 H   0  0  0  0  0
   15.8781   21.8427   -0.9740 H   0  0  0  0  0
   20.0030   22.6996    0.3688 H   0  0  0  0  0
   21.7591   21.0072   -1.1719 H   0  0  0  0  0
   20.9987   22.7607   -2.8590 H   0  0  0  0  0
   22.7908   22.7102   -2.5707 H   0  0  0  0  0
   23.2141   24.1680   -0.7145 H   0  0  0  0  0
   24.1241   21.8833   -1.0618 H   0  0  0  0  0
   24.5351   23.0860    1.6573 H   0  0  0  0  0
   26.1188   20.8267    0.3708 H   0  0  0  0  0
   27.1777   22.0930    2.2330 H   0  0  0  0  0
   26.9170   20.3530    2.6218 H   0  0  0  0  0
   25.2007   22.6897    3.5148 H   0  0  0  0  0
   26.3318   21.7406    4.5334 H   0  0  0  0  0
   23.9561   21.0518    4.8099 H   0  0  0  0  0
   25.0025   19.7350    4.1893 H   0  0  0  0  0
   23.1387   21.4976    2.5661 H   0  0  0  0  0
   22.9081   19.7614    2.9606 H   0  0  0  0  0
   24.9076   19.1909    1.6950 H   0  0  0  0  0
   23.7603   20.1177    0.6622 H   0  0  0  0  0
   25.2733   23.2032   -1.6450 H   0  0  0  0  0
   28.0130   24.3131   -1.4427 H   0  0  0  0  0
   26.7134   23.1601   -3.4012 H   0  0  0  0  0
   27.7853   24.5581   -3.7374 H   0  0  0  0  0
   26.8498   26.2916   -4.3456 H   0  0  0  0  0
   25.2867   25.0239   -0.2576 H   0  0  0  0  0
   24.3384   27.7120   -0.3918 H   0  0  0  0  0
   26.9537   26.3246    1.0967 H   0  0  0  0  0
   24.8556   25.3105    1.1924 H   0  0  0  0  0
   23.2166   26.3837    0.8758 H   0  0  0  0  0
   25.1408   28.2627    2.8206 H   0  0  0  0  0
   24.7890   28.4459    5.2662 H   0  0  0  0  0
   23.5266   26.6945    6.4724 H   0  0  0  0  0
   22.6155   24.7417    5.2431 H   0  0  0  0  0
   22.9760   24.5570    2.7971 H   0  0  0  0  0
 17  1  2  0  0  0
  2  3  1  0  0  0
 17  2  1  0  0  0
  3  4  1  0  0  0
  4  5  1  0  0  0
  4  9  1  0  0  0
  5  6  4  0  0  0
  5 15  4  0  0  0
  6  7  4  0  0  0
  7  8  4  0  0  0
 16  8  4  0  0  0
  9 10  4  0  0  0
  9 14  4  0  0  0
 10 11  4  0  0  0
 11 12  4  0  0  0
 13 12  4  0  0  0
 14 13  4  0  0  0
 14 15  1  0  0  0
 15 16  4  0  0  0
 28 17  1  0  0  0
 18 19  1  0  0  0
 37 18  1  0  0  0
 19 20  2  0  0  0
 19 21  1  0  0  0
 21 22  1  0  0  0
 21 28  1  0  0  0
 22 23  4  0  0  0
 22 27  4  0  0  0
 23 24  4  0  0  0
 24 25  4  0  0  0
 26 25  4  0  0  0
 27 26  4  0  0  0
 28 29  1  0  0  0
 31 30  2  0  0  0
 32 31  1  0  0  0
 31 38  1  0  0  0
 32 33  1  0  0  0
 32 37  1  0  0  0
 33 34  1  0  0  0
 34 35  1  0  0  0
 34 36  1  0  0  0
 38 39  1  0  0  0
 39 40  1  0  0  0
 39 44  1  0  0  0
 40 41  1  0  0  0
 41 42  1  0  0  0
 41 43  2  0  0  0
 44 45  2  0  0  0
 44 46  1  0  0  0
 46 47  1  0  0  0
 47 48  1  0  0  0
 47 54  1  0  0  0
 48 49  1  0  0  0
 48 53  1  0  0  0
 49 50  1  0  0  0
 50 51  1  0  0  0
 51 52  1  0  0  0
 52 53  1  0  0  0
 54 55  2  0  0  0
 54 56  1  0  0  0
 56 57  1  0  0  0
 57 58  1  0  0  0
 57 62  1  0  0  0
 58 59  1  0  0  0
 59 60  1  0  0  0
 59 61  2  0  0  0
 62 63  2  0  0  0
 62 64  1  0  0  0
 64 65  1  0  0  0
 65 66  1  0  0  0
 65 69  1  0  0  0
 66 67  2  0  0  0
 66 68  1  0  0  0
 69 70  1  0  0  0
 70 71  4  0  0  0
 70 75  4  0  0  0
 71 72  4  0  0  0
 72 73  4  0  0  0
 73 74  4  0  0  0
 74 75  4  0  0  0
  3 76  1  0  0  0
  3 77  1  0  0  0
  4 78  1  0  0  0
  6 79  1  0  0  0
  7 80  1  0  0  0
  8 81  1  0  0  0
 10 82  1  0  0  0
 11 83  1  0  0  0
 12 84  1  0  0  0
 13 85  1  0  0  0
 16 86  1  0  0  0
 18 87  1  0  0  0
 18 88  1  0  0  0
 21 89  1  0  0  0
 23 90  1  0  0  0
 24 91  1  0  0  0
 25 92  1  0  0  0
 26 93  1  0  0  0
 27 94  1  0  0  0
 29 95  1  0  0  0
 29 96  1  0  0  0
 29 97  1  0  0  0
 32 98  1  0  0  0
 33 99  1  0  0  0
 33100  1  0  0  0
 34101  1  0  0  0
 35102  1  0  0  0
 35103  1  0  0  0
 35104  1  0  0  0
 36105  1  0  0  0
 36106  1  0  0  0
 36107  1  0  0  0
 37108  1  0  0  0
 37109  1  0  0  0
 38110  1  0  0  0
 39111  1  0  0  0
 40112  1  0  0  0
 40113  1  0  0  0
 42114  1  0  0  0
 46115  1  0  0  0
 47116  1  0  0  0
 48117  1  0  0  0
 49118  1  0  0  0
 49119  1  0  0  0
 50120  1  0  0  0
 50121  1  0  0  0
 51122  1  0  0  0
 51123  1  0  0  0
 52124  1  0  0  0
 52125  1  0  0  0
 53126  1  0  0  0
 53127  1  0  0  0
 56128  1  0  0  0
 57129  1  0  0  0
 58130  1  0  0  0
 58131  1  0  0  0
 60132  1  0  0  0
 64133  1  0  0  0
 65134  1  0  0  0
 68135  1  0  0  0
 69136  1  0  0  0
 69137  1  0  0  0
 71138  1  0  0  0
 72139  1  0  0  0
 73140  1  0  0  0
 74141  1  0  0  0
 75142  1  0  0  0
M  END
$$$$
