1k4g_ligand
  -I-interpret- 

 31 33  0  0  0  0  0  0  0  0999 V2000
   17.3030   17.2870   18.5860 C   0  0  0  0  0
   16.2560   17.0760   19.5090 C   0  0  0  0  0
   14.8190   16.6670   19.0990 C   0  0  0  0  0
   16.5320   17.2430   20.8840 C   0  0  0  0  0
   15.5600   17.0610   21.8200 N   0  0  0  0  0
   15.7440   17.1950   23.0860 C   0  0  0  0  0
   14.7420   16.9990   23.9050 N   0  0  0  0  0
   16.9300   17.5320   23.5920 N   0  0  0  0  0
   17.9840   17.7520   22.8230 C   0  0  0  0  0
   19.0790   18.0620   23.2770 O   0  0  0  0  0
   17.8250   17.6090   21.3180 C   0  0  0  0  0
   18.8600   17.8140   20.3860 C   0  0  0  0  0
   18.5980   17.6560   19.0090 C   0  0  0  0  0
   19.5820   17.8530   18.0990 N   0  0  0  0  0
   14.6390   14.9630   18.4200 S   0  0  0  0  0
   14.5470   15.4380   16.6960 C   0  0  0  0  0
   15.3680   16.3400   16.1280 N   0  0  0  0  0
   13.7510   15.0380   15.8040 N   0  0  0  0  0
   15.0030   16.4360   14.8490 C   0  0  0  0  0
   13.9740   15.6440   14.5320 C   0  0  0  0  0
   17.1067   17.1620   17.5211 H   0  0  0  0  0
   14.5175   17.3500   18.3049 H   0  0  0  0  0
   14.2160   16.7039   20.0062 H   0  0  0  0  0
   13.8257   16.7425   23.5376 H   0  0  0  0  0
   14.8775   17.1027   24.9106 H   0  0  0  0  0
   17.0282   17.6231   24.6032 H   0  0  0  0  0
   19.8573   18.0930   20.7262 H   0  0  0  0  0
   19.3882   17.7347   17.1046 H   0  0  0  0  0
   20.5167   18.1196   18.4082 H   0  0  0  0  0
   15.4948   17.0948   14.1333 H   0  0  0  0  0
   13.4579   15.5029   13.5824 H   0  0  0  0  0
  1 13  4  0  0  0
  1  2  4  0  0  0
  2  4  4  0  0  0
  2  3  1  0  0  0
  3 15  1  0  0  0
 15 16  1  0  0  0
 16 18  4  0  0  0
 16 17  4  0  0  0
 17 19  4  0  0  0
 19 20  4  0  0  0
 20 18  4  0  0  0
  4 11  4  0  0  0
  4  5  1  0  0  0
  5  6  2  0  0  0
  6  8  1  0  0  0
  6  7  1  0  0  0
  8  9  1  0  0  0
  9 11  1  0  0  0
  9 10  2  0  0  0
 11 12  4  0  0  0
 12 13  4  0  0  0
 13 14  1  0  0  0
  1 21  1  0  0  0
  3 22  1  0  0  0
  3 23  1  0  0  0
  7 24  1  0  0  0
  7 25  1  0  0  0
  8 26  1  0  0  0
 12 27  1  0  0  0
 14 28  1  0  0  0
 14 29  1  0  0  0
 19 30  1  0  0  0
 20 31  1  0  0  0
M  END
$$$$
