6hzv_ligand
  -I-interpret- 

 49 53  0  0  0  0  0  0  0  0999 V2000
   10.2120   26.0660    0.0010 C   0  0  0  0  0
    8.7700   26.7400    1.7400 C   0  0  0  0  0
    9.7250   27.0260   -0.8580 C   0  0  0  0  0
    8.2500   27.7230    0.9070 C   0  0  0  0  0
    8.7290   27.8680   -0.3880 C   0  0  0  0  0
   10.4050   24.9290    1.8140 C   0  0  0  0  0
   11.3050   24.4470    0.8860 C   0  0  0  0  0
   10.2850   24.3870    3.1810 C   0  0  0  0  0
   10.0810   23.3980    5.7610 C   0  0  0  0  0
    9.4690   24.5720    5.4060 C   0  0  0  0  0
    9.0400   24.1870    7.5160 C   0  0  0  0  0
   11.7100   21.5170    7.8050 C   0  0  0  0  0
    5.9750   27.5940    5.7900 C   0  0  0  0  0
    6.8520   28.6840    5.4930 O   0  0  0  0  0
    8.8070   27.5580    6.3640 C   0  0  0  0  0
    8.6010   24.3120    8.6390 O   0  0  0  0  0
    9.8340   23.1150    7.1230 N   0  0  0  0  0
   10.2520   21.9760    7.9700 C   0  0  0  0  0
   12.6090   22.6180    7.7380 O   0  0  0  0  0
   10.8210   22.6920    4.8260 C   0  0  0  0  0
   10.9200   23.2000    3.5390 N   0  0  0  0  0
    8.7860   25.1130    6.5100 N   0  0  0  0  0
    7.9650   26.3270    6.6920 C   0  0  0  0  0
    7.9060   28.7950    6.4500 C   0  0  0  0  0
    6.7390   26.2580    5.7630 C   0  0  0  0  0
    9.5570   25.0870    4.1320 N   0  0  0  0  0
    9.7430   25.9420    1.2480 N   0  0  0  0  0
   11.1710   25.1660   -0.2440 N   0  0  0  0  0
    7.2220   28.5990    1.3620 C   0  0  0  0  0
    6.3850   29.3140    1.7260 N   0  0  0  0  0
    8.4041   26.6164    2.7593 H   0  0  0  0  0
   10.1098   27.1206   -1.8734 H   0  0  0  0  0
    8.3217   28.6444   -1.0356 H   0  0  0  0  0
   12.0042   23.6254    1.0412 H   0  0  0  0  0
   11.7880   20.9551    6.8742 H   0  0  0  0  0
   11.9771   20.9101    8.6701 H   0  0  0  0  0
    5.1847   27.5632    5.0399 H   0  0  0  0  0
    5.5559   27.7402    6.7855 H   0  0  0  0  0
    9.2244   27.4688    5.3611 H   0  0  0  0  0
    9.6313   27.6462    7.0717 H   0  0  0  0  0
   10.1494   22.3076    9.0033 H   0  0  0  0  0
    9.6289   21.1308    7.6777 H   0  0  0  0  0
   13.5059   22.2915    7.6354 H   0  0  0  0  0
   11.3143   21.7582    5.0958 H   0  0  0  0  0
    7.6236   26.3936    7.7250 H   0  0  0  0  0
    7.4814   28.8662    7.4514 H   0  0  0  0  0
    8.4944   29.6882    6.2403 H   0  0  0  0  0
    7.0738   26.0592    4.7449 H   0  0  0  0  0
    6.0773   25.4619    6.1043 H   0  0  0  0  0
  1  3  4  0  0  0
 27  1  4  0  0  0
  1 28  4  0  0  0
  2  4  4  0  0  0
 27  2  4  0  0  0
  3  5  4  0  0  0
  4  5  4  0  0  0
  4 29  1  0  0  0
  6  7  4  0  0  0
  8  6  1  0  0  0
  6 27  4  0  0  0
  7 28  4  0  0  0
  8 21  4  0  0  0
 26  8  4  0  0  0
 10  9  4  0  0  0
 17  9  1  0  0  0
  9 20  4  0  0  0
 22 10  1  0  0  0
 10 26  4  0  0  0
 11 16  2  0  0  0
 11 17  1  0  0  0
 22 11  1  0  0  0
 18 12  1  0  0  0
 12 19  1  0  0  0
 14 13  1  0  0  0
 13 25  1  0  0  0
 24 14  1  0  0  0
 23 15  1  0  0  0
 15 24  1  0  0  0
 17 18  1  0  0  0
 20 21  4  0  0  0
 22 23  1  0  0  0
 23 25  1  0  0  0
 29 30  3  0  0  0
  2 31  1  0  0  0
  3 32  1  0  0  0
  5 33  1  0  0  0
  7 34  1  0  0  0
 12 35  1  0  0  0
 12 36  1  0  0  0
 13 37  1  0  0  0
 13 38  1  0  0  0
 15 39  1  0  0  0
 15 40  1  0  0  0
 18 41  1  0  0  0
 18 42  1  0  0  0
 19 43  1  0  0  0
 20 44  1  0  0  0
 23 45  1  0  0  0
 24 46  1  0  0  0
 24 47  1  0  0  0
 25 48  1  0  0  0
 25 49  1  0  0  0
M  END
$$$$
