2hwg_ligand
  -I-interpret- 

  8  7  0  0  0  0  0  0  0  0999 V2000
   21.5630   -8.1150   19.2100 C   0  0  0  0  0
   20.1000   -8.2180   19.0210 C   0  0  0  0  0
   22.2150   -7.1730   18.6670 O   0  0  0  0  0
   19.5090   -7.4230   18.2520 O   0  0  0  0  0
   22.1230   -8.9780   19.9290 O   0  0  0  0  0
   19.4540   -9.0960   19.6480 O   0  0  0  0  0
   21.6151   -6.6206   18.1605 H   0  0  0  0  0
   20.0581   -9.6131   20.1858 H   0  0  0  0  0
  1  2  1  0  0  0
  1  3  1  0  0  0
  1  5  2  0  0  0
  2  4  2  0  0  0
  2  6  1  0  0  0
  3  7  1  0  0  0
  6  8  1  0  0  0
M  END
$$$$
