6i0b_ligand
  -I-interpret- 

 73 77  0  0  0  0  0  0  0  0999 V2000
  132.7870  117.7180   41.3160 C   0  0  0  0  0
  133.7840  117.9310   40.1580 C   0  0  0  0  0
  133.4640  117.0600   38.9220 C   0  0  0  0  0
  133.1290  115.5850   39.2710 C   0  0  0  0  0
  132.3810  115.2770   40.5440 C   0  0  0  0  0
  132.2050  116.3150   41.5390 C   0  0  0  0  0
  131.5420  116.0650   42.6820 N   0  0  0  0  0
  130.9850  114.7930   42.9380 C   0  0  0  0  0
  130.2850  114.5510   44.1440 C   0  0  0  0  0
  129.7380  113.3540   44.4360 C   0  0  0  0  0
  128.8870  113.1810   45.8990 Cl  0  0  0  0  0
  129.8270  112.2450   43.5810 C   0  0  0  0  0
  130.5000  112.4520   42.3960 C   0  0  0  0  0
  131.0950  113.7150   42.0240 C   0  0  0  0  0
  131.8370  113.9770   40.7950 C   0  0  0  0  0
  131.9840  112.9380   39.8400 N   0  0  0  0  0
  133.1600  112.2220   39.4690 C   0  0  0  0  0
  133.2690  110.8380   40.0470 C   0  0  0  0  0
  133.9040  110.7700   41.4300 C   0  0  0  0  0
  135.3320  110.1320   41.4500 C   0  0  0  0  0
  135.4090  108.6370   41.7920 C   0  0  0  0  0
  136.3780  107.8100   40.8880 C   0  0  0  0  0
  137.7160  108.4690   40.7220 N   0  0  0  0  0
  138.3710  108.6360   39.4520 C   0  0  0  0  0
  137.8360  108.2550   38.4290 O   0  0  0  0  0
  139.7740  109.3470   39.3560 C   0  0  0  0  0
  140.7650  108.3950   38.8580 N   0  3  0  0  0
  139.6290  110.4920   38.3280 C   0  0  0  0  0
  138.4760  111.4140   38.6320 C   0  0  0  0  0
  138.4370  112.4170   39.6790 C   0  0  0  0  0
  139.3530  112.8340   40.6530 C   0  0  0  0  0
  139.0340  113.8370   41.5380 C   0  0  0  0  0
  137.7610  114.4900   41.4830 C   0  0  0  0  0
  136.8180  114.1270   40.5350 C   0  0  0  0  0
  137.1590  113.0920   39.6340 C   0  0  0  0  0
  136.4210  112.5100   38.5680 N   0  0  0  0  0
  137.2490  111.4850   37.9850 C   0  0  0  0  0
  131.9296  118.3447   41.0705 H   0  0  0  0  0
  133.3533  117.9370   42.2213 H   0  0  0  0  0
  134.7748  117.6508   40.5156 H   0  0  0  0  0
  133.7232  118.9760   39.8540 H   0  0  0  0  0
  134.3512  117.0526   38.2889 H   0  0  0  0  0
  132.5863  117.4888   38.4384 H   0  0  0  0  0
  134.0983  115.1021   39.3949 H   0  0  0  0  0
  132.4650  115.2547   38.4722 H   0  0  0  0  0
  130.1844  115.3632   44.8639 H   0  0  0  0  0
  129.3910  111.2796   43.8380 H   0  0  0  0  0
  130.5882  111.6168   41.7012 H   0  0  0  0  0
  131.1309  112.6657   39.3516 H   0  0  0  0  0
  134.0083  112.7904   39.8503 H   0  0  0  0  0
  133.1316  112.1095   38.3852 H   0  0  0  0  0
  133.9097  110.2652   39.3766 H   0  0  0  0  0
  132.2529  110.4563   40.1467 H   0  0  0  0  0
  133.2625  110.1414   42.0476 H   0  0  0  0  0
  134.0048  111.7946   41.7881 H   0  0  0  0  0
  135.8834  110.6502   42.2346 H   0  0  0  0  0
  135.7211  110.2305   40.4366 H   0  0  0  0  0
  134.4101  108.2261   41.6456 H   0  0  0  0  0
  135.7864  108.5638   42.8120 H   0  0  0  0  0
  135.9229  107.7217   39.9015 H   0  0  0  0  0
  136.5374  106.8426   41.3643 H   0  0  0  0  0
  138.1875  108.8181   41.5564 H   0  0  0  0  0
  140.0897  109.7200   40.3303 H   0  0  0  0  0
  141.6739  108.8537   38.7953 H   0  0  0  0  0
  140.8259  107.6033   39.4982 H   0  0  0  0  0
  140.4844  108.0660   37.9342 H   0  0  0  0  0
  139.4455  110.0413   37.3527 H   0  0  0  0  0
  140.5441  111.0835   38.3585 H   0  0  0  0  0
  140.3315  112.3573   40.7103 H   0  0  0  0  0
  139.7607  114.1392   42.2921 H   0  0  0  0  0
  137.5310  115.2822   42.1955 H   0  0  0  0  0
  135.8479  114.6216   40.4855 H   0  0  0  0  0
  136.9526  110.8511   37.1493 H   0  0  0  0  0
  1  2  1  0  0  0
  1  6  1  0  0  0
  2  3  1  0  0  0
  3  4  1  0  0  0
  4  5  1  0  0  0
  5  6  4  0  0  0
  5 15  4  0  0  0
  6  7  4  0  0  0
  7  8  4  0  0  0
  8  9  4  0  0  0
  8 14  4  0  0  0
  9 10  4  0  0  0
 10 11  1  0  0  0
 10 12  4  0  0  0
 12 13  4  0  0  0
 13 14  4  0  0  0
 14 15  4  0  0  0
 15 16  1  0  0  0
 16 17  1  0  0  0
 17 18  1  0  0  0
 18 19  1  0  0  0
 19 20  1  0  0  0
 20 21  1  0  0  0
 21 22  1  0  0  0
 22 23  1  0  0  0
 23 24  1  0  0  0
 24 25  2  0  0  0
 24 26  1  0  0  0
 26 27  1  0  0  0
 26 28  1  0  0  0
 28 29  1  0  0  0
 29 30  4  0  0  0
 29 37  4  0  0  0
 30 31  4  0  0  0
 30 35  4  0  0  0
 31 32  4  0  0  0
 32 33  4  0  0  0
 33 34  4  0  0  0
 34 35  4  0  0  0
 35 36  4  0  0  0
 36 37  4  0  0  0
  1 38  1  0  0  0
  1 39  1  0  0  0
  2 40  1  0  0  0
  2 41  1  0  0  0
  3 42  1  0  0  0
  3 43  1  0  0  0
  4 44  1  0  0  0
  4 45  1  0  0  0
  9 46  1  0  0  0
 12 47  1  0  0  0
 13 48  1  0  0  0
 16 49  1  0  0  0
 17 50  1  0  0  0
 17 51  1  0  0  0
 18 52  1  0  0  0
 18 53  1  0  0  0
 19 54  1  0  0  0
 19 55  1  0  0  0
 20 56  1  0  0  0
 20 57  1  0  0  0
 21 58  1  0  0  0
 21 59  1  0  0  0
 22 60  1  0  0  0
 22 61  1  0  0  0
 23 62  1  0  0  0
 26 63  1  0  0  0
 27 64  1  0  0  0
 27 65  1  0  0  0
 27 66  1  0  0  0
 28 67  1  0  0  0
 28 68  1  0  0  0
 31 69  1  0  0  0
 32 70  1  0  0  0
 33 71  1  0  0  0
 34 72  1  0  0  0
 37 73  1  0  0  0
M  END
$$$$
