3o9g_ligand
  -I-interpret- 

 83 86  0  0  0  0  0  0  0  0999 V2000
   14.2960   35.7890   18.2350 C   0  0  0  0  0
   14.8510   35.8600   19.5590 O   0  0  0  0  0
   15.2060   34.9220   17.3790 C   0  0  0  0  0
   16.2360   35.5150   16.6580 C   0  0  0  0  0
   17.0740   34.7250   15.8480 C   0  0  0  0  0
   16.9100   33.3270   15.7550 C   0  0  0  0  0
   15.8810   32.7460   16.5160 C   0  0  0  0  0
   15.0210   33.5420   17.3020 C   0  0  0  0  0
   22.5210   24.6060   11.2720 O   0  0  0  0  0
   17.9290   32.3990   14.8720 S   0  0  0  0  0
   18.5970   33.2150   13.9280 O   0  0  0  0  0
   17.2180   31.2890   14.2940 O   0  0  0  0  0
   19.1210   31.7980   15.7940 N   0  0  0  0  0
   19.7810   32.8440   16.6270 C   0  0  0  0  0
   21.2890   32.6320   16.5680 C   0  0  0  0  0
   21.8490   32.8160   15.1560 C   0  0  0  0  0
   21.9750   33.5550   17.5770 C   0  0  0  0  0
   18.8230   30.4980   16.4310 C   0  0  0  0  0
   19.7940   29.4340   15.8810 C   0  0  0  0  0
   21.8030   35.0240   17.2580 C   0  0  0  0  0
   19.7890   28.2430   16.6950 O   0  0  0  0  0
   19.4670   29.0490   14.4330 C   0  0  0  0  0
   23.3300   32.4940   15.0310 C   0  0  0  0  0
   20.5620   28.2570   13.9230 N   0  0  0  0  0
   21.4570   28.6380   13.0100 C   0  0  0  0  0
   21.5550   29.6840   12.4000 O   0  0  0  0  0
   22.4390   27.6090   12.7640 O   0  0  0  0  0
   23.2770   27.7790   11.6290 C   0  0  0  0  0
   24.5910   27.1810   12.1260 C   0  0  0  0  0
   24.3900   25.7760   11.9720 O   0  0  0  0  0
   23.5160   25.5460   10.8720 C   0  0  0  0  0
   21.2370   25.2510   11.3180 C   0  0  0  0  0
   21.3650   26.4900   10.4390 C   0  0  0  0  0
   22.8480   26.8540   10.5110 C   0  0  0  0  0
   18.1900   28.2210   14.2730 C   0  0  0  0  0
   18.0810   26.5890   12.3620 C   0  0  0  0  0
   17.8970   26.2280   11.0320 C   0  0  0  0  0
   17.5650   27.2110   10.1090 C   0  0  0  0  0
   17.4330   28.5250   10.5340 C   0  0  0  0  0
   17.6080   28.8820   11.8810 C   0  0  0  0  0
   17.9600   27.9060   12.8070 C   0  0  0  0  0
   14.2228   36.7888   17.8071 H   0  0  0  0  0
   13.2961   35.3568   18.2724 H   0  0  0  0  0
   14.2868   36.4049   20.1125 H   0  0  0  0  0
   16.3949   36.5916   16.7197 H   0  0  0  0  0
   17.8694   35.2057   15.2785 H   0  0  0  0  0
   15.7453   31.6646   16.4987 H   0  0  0  0  0
   14.2054   33.0744   17.8535 H   0  0  0  0  0
   19.4357   32.7699   17.6582 H   0  0  0  0  0
   19.5301   33.8343   16.2469 H   0  0  0  0  0
   21.4991   31.5969   16.8375 H   0  0  0  0  0
   21.7231   33.8662   14.8926 H   0  0  0  0  0
   21.3123   32.1277   14.5031 H   0  0  0  0  0
   23.0423   33.3353   17.5517 H   0  0  0  0  0
   21.5203   33.3741   18.5510 H   0  0  0  0  0
   17.7961   30.2074   16.2095 H   0  0  0  0  0
   18.9438   30.5820   17.5110 H   0  0  0  0  0
   20.7852   29.8867   15.9082 H   0  0  0  0  0
   22.2298   35.2339   16.2772 H   0  0  0  0  0
   20.7416   35.2718   17.2544 H   0  0  0  0  0
   22.3142   35.6208   18.0134 H   0  0  0  0  0
   20.4019   27.6025   16.3267 H   0  0  0  0  0
   19.3146   29.9825   13.8912 H   0  0  0  0  0
   23.8997   33.1478   15.6914 H   0  0  0  0  0
   23.4995   31.4546   15.3120 H   0  0  0  0  0
   23.6486   32.6496   14.0003 H   0  0  0  0  0
   20.6607   27.3135   14.2978 H   0  0  0  0  0
   23.2886   28.8099   11.2751 H   0  0  0  0  0
   24.8184   27.4626   13.1541 H   0  0  0  0  0
   25.4551   27.5452   11.5703 H   0  0  0  0  0
   24.0686   25.1598   10.0155 H   0  0  0  0  0
   20.9615   25.5151   12.3390 H   0  0  0  0  0
   20.4475   24.5901   10.9603 H   0  0  0  0  0
   20.7260   27.3037   10.7820 H   0  0  0  0  0
   21.0381   26.3026    9.4162 H   0  0  0  0  0
   23.0951   27.3500    9.5723 H   0  0  0  0  0
   17.3424   28.7893   14.6561 H   0  0  0  0  0
   18.2933   27.2893   14.8293 H   0  0  0  0  0
   18.3296   25.8127   13.0856 H   0  0  0  0  0
   18.0115   25.1902   10.7189 H   0  0  0  0  0
   17.4097   26.9529    9.0615 H   0  0  0  0  0
   17.1878   29.2981    9.8058 H   0  0  0  0  0
   17.4691   29.9156   12.1980 H   0  0  0  0  0
  1  2  1  0  0  0
  3  1  1  0  0  0
  4  3  4  0  0  0
  8  3  4  0  0  0
  5  4  4  0  0  0
  6  5  4  0  0  0
  6  7  4  0  0  0
 10  6  1  0  0  0
  7  8  4  0  0  0
 31  9  1  0  0  0
 32  9  1  0  0  0
 10 11  2  0  0  0
 10 12  2  0  0  0
 13 10  1  0  0  0
 13 14  1  0  0  0
 18 13  1  0  0  0
 14 15  1  0  0  0
 15 16  1  0  0  0
 15 17  1  0  0  0
 16 23  1  0  0  0
 17 20  1  0  0  0
 19 18  1  0  0  0
 19 21  1  0  0  0
 22 19  1  0  0  0
 22 24  1  0  0  0
 35 22  1  0  0  0
 24 25  1  0  0  0
 25 26  2  0  0  0
 25 27  1  0  0  0
 27 28  1  0  0  0
 28 29  1  0  0  0
 28 34  1  0  0  0
 29 30  1  0  0  0
 31 30  1  0  0  0
 34 31  1  0  0  0
 33 32  1  0  0  0
 34 33  1  0  0  0
 41 35  1  0  0  0
 36 37  4  0  0  0
 36 41  4  0  0  0
 37 38  4  0  0  0
 38 39  4  0  0  0
 39 40  4  0  0  0
 40 41  4  0  0  0
  1 42  1  0  0  0
  1 43  1  0  0  0
  2 44  1  0  0  0
  4 45  1  0  0  0
  5 46  1  0  0  0
  7 47  1  0  0  0
  8 48  1  0  0  0
 14 49  1  0  0  0
 14 50  1  0  0  0
 15 51  1  0  0  0
 16 52  1  0  0  0
 16 53  1  0  0  0
 17 54  1  0  0  0
 17 55  1  0  0  0
 18 56  1  0  0  0
 18 57  1  0  0  0
 19 58  1  0  0  0
 20 59  1  0  0  0
 20 60  1  0  0  0
 20 61  1  0  0  0
 21 62  1  0  0  0
 22 63  1  0  0  0
 23 64  1  0  0  0
 23 65  1  0  0  0
 23 66  1  0  0  0
 24 67  1  0  0  0
 28 68  1  0  0  0
 29 69  1  0  0  0
 29 70  1  0  0  0
 31 71  1  0  0  0
 32 72  1  0  0  0
 32 73  1  0  0  0
 33 74  1  0  0  0
 33 75  1  0  0  0
 34 76  1  0  0  0
 35 77  1  0  0  0
 35 78  1  0  0  0
 36 79  1  0  0  0
 37 80  1  0  0  0
 38 81  1  0  0  0
 39 82  1  0  0  0
 40 83  1  0  0  0
M  END
$$$$
