6e0q_ligand
  -I-interpret- 

 22 22  0  0  0  0  0  0  0  0999 V2000
  -20.5820   18.1830   18.6230 O   0  0  0  0  0
  -19.7670   18.6110   17.7790 C   0  0  0  0  0
  -18.8570   19.4000   18.1310 O   0  0  0  0  0
  -19.8790   18.2870   16.4240 C   0  0  0  0  0
  -18.9070   17.3990   15.9930 C   0  0  0  0  0
  -18.6340   16.9210   14.7300 C   0  0  0  0  0
  -17.5730   16.0750   14.7050 O   0  0  0  0  0
  -19.2940   17.1600   13.5160 C   0  0  0  0  0
  -18.8930   16.5980   12.5080 O   0  0  0  0  0
  -20.4370   17.9620   13.3550 C   0  0  0  0  0
  -20.9420   18.0140   12.0680 O   0  0  0  0  0
  -21.1360   18.7070   14.3150 C   0  0  0  0  0
  -20.8920   18.8970   15.6780 C   0  0  0  0  0
  -21.7990   19.7630   16.3650 C   0  0  0  0  0
  -18.3221   19.6306   17.3679 H   0  0  0  0  0
  -18.2542   17.0177   16.7782 H   0  0  0  0  0
  -19.4119   17.6508   14.5055 H   0  0  0  0  0
  -17.2092   15.9936   15.5896 H   0  0  0  0  0
  -20.3973   17.4751   11.4897 H   0  0  0  0  0
  -22.0169   19.2245   13.9350 H   0  0  0  0  0
  -22.6217   20.2304   15.8239 H   0  0  0  0  0
  -21.6677   19.9558   17.4298 H   0  0  0  0  0
  1  2  2  0  0  0
  2  3  1  0  0  0
  2  4  1  0  0  0
  4  5  2  0  0  0
  4 13  1  0  0  0
  5  6  1  0  0  0
  6  7  1  0  0  0
  6  8  1  0  0  0
  8  9  2  0  0  0
  8 10  1  0  0  0
 10 11  1  0  0  0
 10 12  2  0  0  0
 12 13  1  0  0  0
 13 14  2  0  0  0
  3 15  1  0  0  0
  5 16  1  0  0  0
  6 17  1  0  0  0
  7 18  1  0  0  0
 11 19  1  0  0  0
 12 20  1  0  0  0
 14 21  1  0  0  0
 14 22  1  0  0  0
M  END
$$$$
