### 
### Created by X-TOOL on Mon Sep 10 21:13:10 2018
### 

@<TRIPOS>MOLECULE
3tzd_ligand
  210   211     1     0     0
SMALL
GAST_HUCK


@<TRIPOS>ATOM
      1 N          22.8790   40.6680   -2.9270 N.4       1 TYR         0.2392
      2 CA         23.1200   39.1910   -2.8790 C.3       1 TYR         0.0732
      3 C          23.8210   38.7800   -4.1760 C.2       1 TYR         0.2311
      4 O          23.4800   39.2880   -5.2240 O.2       1 TYR        -0.3903
      5 CB         21.7950   38.4220   -2.8020 C.3       1 TYR         0.0365
      6 CG         21.9660   36.9420   -2.4540 C.ar      1 TYR        -0.0460
      7 CD1        22.1190   36.5400   -1.1300 C.ar      1 TYR        -0.0684
      8 CD2        21.9790   35.9490   -3.4560 C.ar      1 TYR        -0.0684
      9 CE1        22.2900   35.1840   -0.7630 C.ar      1 TYR        -0.0398
     10 CE2        22.1330   34.5510   -3.0730 C.ar      1 TYR        -0.0398
     11 CZ         22.3050   34.2170   -1.7310 C.ar      1 TYR         0.0805
     12 OH         22.4360   32.8950   -1.3380 O.3       1 TYR        -0.3376
     13 N          24.8190   37.8810   -4.1030 N.am      1 PRO        -0.2470
     14 CA         25.6090   37.7630   -5.3610 C.3       1 PRO         0.1339
     15 C          24.9090   36.9970   -6.4680 C.2       1 PRO         0.2041
     16 O          24.1650   36.0440   -6.2010 O.2       1 PRO        -0.3944
     17 CB         26.8740   36.9870   -4.9370 C.3       1 PRO        -0.0104
     18 CG         26.5520   36.3420   -3.6610 C.3       1 PRO        -0.0281
     19 CD         25.3670   37.0630   -3.0020 C.3       1 PRO         0.0371
     20 N          25.1710   37.4160   -7.6970 N.am      1 VAL        -0.2635
     21 CA         24.6380   36.7260   -8.8610 C.3       1 VAL         0.1332
     22 C          25.7210   36.1170   -9.7570 C.2       1 VAL         0.2041
     23 O          25.3950   35.4590  -10.7530 O.2       1 VAL        -0.3944
     24 CB         23.7150   37.6610   -9.7040 C.3       1 VAL        -0.0063
     25 CG1        22.6140   38.2170   -8.8350 C.3       1 VAL        -0.0584
     26 CG2        24.5050   38.7790  -10.3620 C.3       1 VAL        -0.0584
     27 N          26.9900   36.3600   -9.4160 N.am      1 LYS        -0.2637
     28 CA         28.1410   35.8560  -10.1670 C.3       1 LYS         0.1310
     29 C          29.3260   35.8450   -9.2220 C.2       1 LYS         0.2039
     30 O          29.2170   36.4310   -8.1340 O.2       1 LYS        -0.3944
     31 CB         28.4590   36.7610  -11.3670 C.3       1 LYS        -0.0122
     32 CG         28.6630   38.2110  -10.9980 C.3       1 LYS        -0.0440
     33 CD         28.7710   39.1170  -12.2250 C.3       1 LYS        -0.0124
     34 CE         29.1330   40.5520  -11.8030 C.3       1 LYS        -0.0354
     35 NZ         29.3090   41.4800  -12.9690 N.4       1 LYS         0.2185
     36 N          30.4500   35.2430   -9.6410 N.am      1 LYS        -0.2637
     37 CA         31.7250   35.2560   -8.8080 C.3       1 LYS         0.1310
     38 C          31.4010   34.8870   -7.3490 C.2       1 LYS         0.2039
     39 O          31.6930   35.6260   -6.3810 O.2       1 LYS        -0.3944
     40 CB         32.4380   36.6230   -8.8820 C.3       1 LYS        -0.0122
     41 CG         33.9310   36.5810   -8.4500 C.3       1 LYS        -0.0440
     42 CD         34.5680   37.9550   -8.5860 C.3       1 LYS        -0.0124
     43 CE         34.3020   38.8280   -7.3230 C.3       1 LYS        -0.0354
     44 NZ         35.0440   40.1220   -7.5260 N.4       1 LYS         0.2185
     45 N          30.7730   33.7260   -7.1970 N.am      1 LYS        -0.2637
     46 CA         30.2010   33.3230   -5.9050 C.3       1 LYS         0.1310
     47 C          30.3460   31.8100   -5.6610 C.2       1 LYS         0.2039
     48 O          30.6490   31.0720   -6.5830 O.2       1 LYS        -0.3944
     49 CB         28.7120   33.7030   -5.8320 C.3       1 LYS        -0.0122
     50 CG         27.8410   32.9940   -6.8670 C.3       1 LYS        -0.0440
     51 CD         26.3450   33.4340   -6.7360 C.3       1 LYS        -0.0124
     52 CE         25.4850   33.1070   -7.9720 C.3       1 LYS        -0.0354
     53 NZ         25.3990   31.6410   -8.2100 N.4       1 LYS         0.2185
     54 N          30.1410   31.3890   -4.4200 N.am      1 ALA        -0.2640
     55 CA         30.1650   29.9730   -4.0540 C.3       1 ALA         0.1282
     56 C          29.3610   29.7500   -2.7830 C.2       1 ALA         0.2036
     57 O          29.1320   30.6700   -1.9690 O.2       1 ALA        -0.3944
     58 CB         31.6320   29.4910   -3.8680 C.3       1 ALA        -0.0244
     59 N          28.9340   28.5090   -2.6300 N.am      1 ARG        -0.2637
     60 CA         28.2750   28.0280   -1.4380 C.3       1 ARG         0.1311
     61 C          29.3650   27.3660   -0.5910 C.2       1 ARG         0.2039
     62 O          30.4910   27.1550   -1.0470 O.2       1 ARG        -0.3944
     63 CB         27.1880   27.0520   -1.8860 C.3       1 ARG        -0.0092
     64 CG         26.6630   26.0150   -0.9460 C.3       1 ARG        -0.0156
     65 CD         25.4410   25.3160   -1.6100 C.3       1 ARG         0.0627
     66 NE         25.3110   25.5920   -3.0490 N.pl3     1 ARG        -0.2723
     67 CZ         25.6110   24.7250   -4.0280 C.cat     1 ARG         0.2882
     68 NH1        26.0520   23.4860   -3.7430 N.pl3     1 ARG        -0.2849
     69 NH2        25.4520   25.0980   -5.3040 N.pl3     1 ARG        -0.2849
     70 N          29.1870   27.5090    0.8700 N.am      1 MLY        -0.2637
     71 CA         30.1230   26.9390    1.8480 C.3       1 MLY         0.1310
     72 CB         30.1440   27.8460    3.0630 C.3       1 MLY        -0.0122
     73 CG         30.9780   29.0870    2.7420 C.3       1 MLY        -0.0440
     74 CD         31.0720   30.0010    3.9780 C.3       1 MLY        -0.0123
     75 CE         31.9720   31.1880    3.6110 C.3       1 MLY        -0.0324
     76 NZ         32.1180   32.0740    4.7950 N.4       1 MLY         0.2309
     77 CH1        33.2620   33.0000    4.5930 C.3       1 MLY        -0.0433
     78 CH2        30.8760   32.8570    5.0740 C.3       1 MLY        -0.0433
     79 C          29.6650   25.5180    2.2470 C.2       1 MLY         0.2040
     80 O          28.5160   25.2240    2.6410 O.2       1 MLY        -0.3944
     81 N          30.6760   24.4780    2.2320 N.am      1 SER        -0.2616
     82 CA         30.6200   23.1710    2.9450 C.3       1 SER         0.1539
     83 C          30.0870   23.3130    4.3660 C.2       1 SER         0.2062
     84 O          29.2750   22.4800    4.7990 O.2       1 SER        -0.3943
     85 CB         31.9970   22.5340    2.9320 C.3       1 SER         0.0843
     86 OG         32.3540   22.3170    1.6000 O.3       1 SER        -0.3903
     87 N          30.4900   24.3930    5.0400 N.am      1 ALA        -0.2639
     88 CA         29.9750   24.7890    6.3850 C.3       1 ALA         0.1281
     89 C          28.4470   24.9490    6.5120 C.2       1 ALA         0.2029
     90 O          27.9100   24.8090    7.6150 O.2       1 ALA        -0.3944
     91 CB         30.6850   26.0860    6.8830 C.3       1 ALA        -0.0244
     92 N          27.7670   25.2850    5.4100 N.am      1 GLY        -0.2722
     93 CA         26.3030   25.3400    5.3630 C.3       1 GLY         0.0833
     94 C          25.6420   23.9870    5.0910 C.2       1 GLY         0.0570
     95 O          26.3220   22.9620    4.8410 O.co2     1 GLY        -0.5669
     96 OXT        24.3940   23.8500    5.1070 O.co2     1 GLY        -0.5669
     97 H1         22.4170   40.9607   -2.0803 H         1 TYR         0.2017
     98 H2         22.2974   40.8880   -3.7203 H         1 TYR         0.2017
     99 H3         23.7603   41.1497   -3.0126 H         1 TYR         0.2017
    100 H4         23.7464   38.9442   -2.0091 H         1 TYR         0.1120
    101 H5         21.2936   38.4941   -3.7784 H         1 TYR         0.0486
    102 H6         21.1653   38.8901   -2.0310 H         1 TYR         0.0486
    103 H7         22.1067   37.2938   -0.3511 H         1 TYR         0.0530
    104 H8         21.8756   36.2227   -4.4998 H         1 TYR         0.0530
    105 H9         22.4085   34.9127    0.2798 H         1 TYR         0.0525
    106 H10        22.1138   33.7743   -3.8290 H         1 TYR         0.0525
    107 H11        21.6572   32.4125   -1.5892 H         1 TYR         0.2458
    108 H12        25.8696   38.7651   -5.7324 H         1 PRO         0.0802
    109 H13        27.7206   37.6780   -4.8116 H         1 PRO         0.0313
    110 H14        27.1277   36.2296   -5.6933 H         1 PRO         0.0313
    111 H15        27.4263   36.3914   -2.9953 H         1 PRO         0.0287
    112 H16        26.2862   35.2897   -3.8398 H         1 PRO         0.0287
    113 H17        24.6206   36.3427   -2.6357 H         1 PRO         0.0524
    114 H18        25.7043   37.6971   -2.1689 H         1 PRO         0.0524
    115 H19        25.7469   38.2231   -7.8271 H         1 VAL         0.1883
    116 H20        24.0199   35.8965   -8.4869 H         1 VAL         0.0802
    117 H21        23.2538   37.0586  -10.5005 H         1 VAL         0.0343
    118 H22        21.9688   38.8742   -9.4364 H         1 VAL         0.0234
    119 H23        23.0550   38.7930   -8.0081 H         1 VAL         0.0234
    120 H24        22.0155   37.3892   -8.4270 H         1 VAL         0.0234
    121 H25        25.2994   38.3471  -10.9883 H         1 VAL         0.0234
    122 H26        24.9552   39.4157   -9.5862 H         1 VAL         0.0234
    123 H27        23.8326   39.3838  -10.9881 H         1 VAL         0.0234
    124 H28        27.1628   36.9166   -8.6034 H         1 LYS         0.1883
    125 H29        27.9332   34.8367  -10.5247 H         1 LYS         0.0800
    126 H30        27.6236   36.6986  -12.0798 H         1 LYS         0.0312
    127 H31        29.3780   36.3922  -11.8459 H         1 LYS         0.0312
    128 H32        29.5896   38.2990  -10.4117 H         1 LYS         0.0269
    129 H33        27.8101   38.5433  -10.3880 H         1 LYS         0.0269
    130 H34        27.8065   39.1273  -12.7538 H         1 LYS         0.0317
    131 H35        29.5523   38.7284  -12.8947 H         1 LYS         0.0317
    132 H36        30.0735   40.5230  -11.2332 H         1 LYS         0.0813
    133 H37        28.3283   40.9425  -11.1628 H         1 LYS         0.0813
    134 H38        29.5439   42.4009  -12.6330 H         1 LYS         0.1994
    135 H39        28.4510   41.5235  -13.4963 H         1 LYS         0.1994
    136 H40        30.0503   41.1391  -13.5609 H         1 LYS         0.1994
    137 H41        30.4503   34.7733  -10.5238 H         1 LYS         0.1883
    138 H42        32.4075   34.4947   -9.2138 H         1 LYS         0.0800
    139 H43        31.9070   37.3263   -8.2237 H         1 LYS         0.0312
    140 H44        32.3882   36.9835   -9.9200 H         1 LYS         0.0312
    141 H45        34.4719   35.8673   -9.0887 H         1 LYS         0.0269
    142 H46        33.9946   36.2557   -7.4011 H         1 LYS         0.0269
    143 H47        34.1455   38.4606   -9.4668 H         1 LYS         0.0317
    144 H48        35.6536   37.8356   -8.7172 H         1 LYS         0.0317
    145 H49        34.6732   38.3156   -6.4232 H         1 LYS         0.0813
    146 H50        33.2245   39.0219   -7.2164 H         1 LYS         0.0813
    147 H51        34.8992   40.7210   -6.7283 H         1 LYS         0.1994
    148 H52        34.7010   40.5793   -8.3562 H         1 LYS         0.1994
    149 H53        36.0285   39.9322   -7.6293 H         1 LYS         0.1994
    150 H54        30.6876   33.1114   -7.9812 H         1 LYS         0.1883
    151 H55        30.7410   33.8573   -5.1094 H         1 LYS         0.0800
    152 H56        28.6233   34.7880   -5.9896 H         1 LYS         0.0312
    153 H57        28.3377   33.4462   -4.8301 H         1 LYS         0.0312
    154 H58        27.9112   31.9072   -6.7126 H         1 LYS         0.0269
    155 H59        28.2030   33.2453   -7.8748 H         1 LYS         0.0269
    156 H60        26.3173   34.5215   -6.5733 H         1 LYS         0.0317
    157 H61        25.9087   32.9218   -5.8658 H         1 LYS         0.0317
    158 H62        25.9333   33.5858   -8.8551 H         1 LYS         0.0813
    159 H63        24.4707   33.5028   -7.8155 H         1 LYS         0.0813
    160 H64        24.8306   31.4655   -9.0237 H         1 LYS         0.1994
    161 H65        24.9839   31.1941   -7.4075 H         1 LYS         0.1994
    162 H66        26.3242   31.2701   -8.3601 H         1 LYS         0.1994
    163 H67        29.9630   32.0665   -3.7063 H         1 ALA         0.1883
    164 H68        29.7055   29.3909   -4.8665 H         1 ALA         0.0797
    165 H69        31.6359   28.4259   -3.5933 H         1 ALA         0.0277
    166 H70        32.1122   30.0771   -3.0706 H         1 ALA         0.0277
    167 H71        32.1854   29.6291   -4.8086 H         1 ALA         0.0277
    168 H72        29.0752   27.8658   -3.3826 H         1 ARG         0.1883
    169 H73        27.8184   28.8568   -0.8772 H         1 ARG         0.0800
    170 H74        27.5884   26.5132   -2.7574 H         1 ARG         0.0313
    171 H75        26.3261   27.6612   -2.1958 H         1 ARG         0.0313
    172 H76        26.3510   26.4917   -0.0050 H         1 ARG         0.0301
    173 H77        27.4471   25.2720   -0.7383 H         1 ARG         0.0301
    174 H78        24.5267   25.6626   -1.1061 H         1 ARG         0.0689
    175 H79        25.5458   24.2296   -1.4730 H         1 ARG         0.0689
    176 H80        24.9634   26.5212   -3.3260 H         1 ARG         0.2642
    177 H81        26.2782   22.8317   -4.5057 H         1 ARG         0.2615
    178 H82        26.1633   23.1919   -2.7622 H         1 ARG         0.2615
    179 H83        25.1146   26.0457   -5.5253 H         1 ARG         0.2615
    180 H84        25.6671   24.4373   -6.0643 H         1 ARG         0.2615
    181 H85        28.3940   28.0164    1.2072 H         1 MLY         0.1883
    182 H86        31.1305   26.8856    1.4097 H         1 MLY         0.0800
    183 H87        30.5903   27.3117    3.9147 H         1 MLY         0.0312
    184 H88        29.1169   28.1472    3.3165 H         1 MLY         0.0312
    185 H89        30.5042   29.6395    1.9172 H         1 MLY         0.0269
    186 H90        31.9898   28.7768    2.4421 H         1 MLY         0.0269
    187 H91        31.5083   29.4466    4.8220 H         1 MLY         0.0317
    188 H92        30.0703   30.3616    4.2547 H         1 MLY         0.0317
    189 H93        31.5178   31.7521    2.7831 H         1 MLY         0.0814
    190 H94        32.9614   30.8185    3.3037 H         1 MLY         0.0814
    191 H95        32.3104   31.4953    5.5976 H         1 MLY         0.2028
    192 H96        33.3649   33.6529    5.4723 H         1 MLY         0.0777
    193 H97        33.0826   33.6149    3.6988 H         1 MLY         0.0777
    194 H98        34.1856   32.4179    4.4585 H         1 MLY         0.0777
    195 H99        30.0328   32.1664    5.2226 H         1 MLY         0.0777
    196 H100       30.6614   33.5198    4.2228 H         1 MLY         0.0777
    197 H101       31.0196   33.4611    5.9820 H         1 MLY         0.0777
    198 H102       31.4951   24.6567    1.6869 H         1 SER         0.1884
    199 H103       29.9316   22.5123    2.3953 H         1 SER         0.0823
    200 H104       31.9717   21.5768    3.4733 H         1 SER         0.0606
    201 H105       32.7249   23.2063    3.4097 H         1 SER         0.0606
    202 H106       32.3698   23.1472    1.1383 H         1 SER         0.2097
    203 H107       31.1831   24.9758    4.6158 H         1 ALA         0.1883
    204 H108       30.2569   23.9763    7.0706 H         1 ALA         0.0797
    205 H109       30.2931   26.3613    7.8733 H         1 ALA         0.0277
    206 H110       30.4944   26.9041    6.1729 H         1 ALA         0.0277
    207 H111       31.7680   25.9070    6.9541 H         1 ALA         0.0277
    208 H112       28.2803   25.5086    4.5814 H         1 GLY         0.1873
    209 H113       26.0077   26.0368    4.5648 H         1 GLY         0.0689
    210 H114       25.9389   25.7154    6.3307 H         1 GLY         0.0689
@<TRIPOS>BOND
     1    1    2 1  
     2    2    3 1  
     3    2    5 1  
     4    3    4 2  
     5    3   13 am 
     6    5    6 1  
     7    6    7 ar 
     8    6    8 ar 
     9    7    9 ar 
    10    8   10 ar 
    11    9   11 ar 
    12   10   11 ar 
    13   11   12 1  
    14   13   14 1  
    15   13   19 1  
    16   14   15 1  
    17   14   17 1  
    18   15   16 2  
    19   15   20 am 
    20   17   18 1  
    21   18   19 1  
    22   20   21 1  
    23   21   22 1  
    24   21   24 1  
    25   22   23 2  
    26   22   27 am 
    27   24   25 1  
    28   24   26 1  
    29   27   28 1  
    30   28   29 1  
    31   28   31 1  
    32   29   30 2  
    33   29   36 am 
    34   31   32 1  
    35   32   33 1  
    36   33   34 1  
    37   34   35 1  
    38   36   37 1  
    39   37   38 1  
    40   37   40 1  
    41   38   39 2  
    42   38   45 am 
    43   40   41 1  
    44   41   42 1  
    45   42   43 1  
    46   43   44 1  
    47   45   46 1  
    48   46   47 1  
    49   46   49 1  
    50   47   48 2  
    51   47   54 am 
    52   49   50 1  
    53   50   51 1  
    54   51   52 1  
    55   52   53 1  
    56   54   55 1  
    57   55   56 1  
    58   55   58 1  
    59   56   57 2  
    60   56   59 am 
    61   59   60 1  
    62   60   61 1  
    63   60   63 1  
    64   61   62 2  
    65   61   70 am 
    66   63   64 1  
    67   64   65 1  
    68   65   66 1  
    69   66   67 ar 
    70   67   68 ar 
    71   67   69 ar 
    72   70   71 1  
    73   71   72 1  
    74   71   79 1  
    75   72   73 1  
    76   73   74 1  
    77   74   75 1  
    78   75   76 1  
    79   76   77 1  
    80   76   78 1  
    81   79   80 2  
    82   79   81 am 
    83   81   82 1  
    84   82   83 1  
    85   82   85 1  
    86   83   84 2  
    87   83   87 am 
    88   85   86 1  
    89   87   88 1  
    90   88   89 1  
    91   88   91 1  
    92   89   90 2  
    93   89   92 am 
    94   92   93 1  
    95   93   94 1  
    96   94   95 ar 
    97   94   96 ar 
    98    1   97 1  
    99    1   98 1  
   100    1   99 1  
   101    2  100 1  
   102    5  101 1  
   103    5  102 1  
   104    7  103 1  
   105    8  104 1  
   106    9  105 1  
   107   10  106 1  
   108   12  107 1  
   109   14  108 1  
   110   17  109 1  
   111   17  110 1  
   112   18  111 1  
   113   18  112 1  
   114   19  113 1  
   115   19  114 1  
   116   20  115 1  
   117   21  116 1  
   118   24  117 1  
   119   25  118 1  
   120   25  119 1  
   121   25  120 1  
   122   26  121 1  
   123   26  122 1  
   124   26  123 1  
   125   27  124 1  
   126   28  125 1  
   127   31  126 1  
   128   31  127 1  
   129   32  128 1  
   130   32  129 1  
   131   33  130 1  
   132   33  131 1  
   133   34  132 1  
   134   34  133 1  
   135   35  134 1  
   136   35  135 1  
   137   35  136 1  
   138   36  137 1  
   139   37  138 1  
   140   40  139 1  
   141   40  140 1  
   142   41  141 1  
   143   41  142 1  
   144   42  143 1  
   145   42  144 1  
   146   43  145 1  
   147   43  146 1  
   148   44  147 1  
   149   44  148 1  
   150   44  149 1  
   151   45  150 1  
   152   46  151 1  
   153   49  152 1  
   154   49  153 1  
   155   50  154 1  
   156   50  155 1  
   157   51  156 1  
   158   51  157 1  
   159   52  158 1  
   160   52  159 1  
   161   53  160 1  
   162   53  161 1  
   163   53  162 1  
   164   54  163 1  
   165   55  164 1  
   166   58  165 1  
   167   58  166 1  
   168   58  167 1  
   169   59  168 1  
   170   60  169 1  
   171   63  170 1  
   172   63  171 1  
   173   64  172 1  
   174   64  173 1  
   175   65  174 1  
   176   65  175 1  
   177   66  176 1  
   178   68  177 1  
   179   68  178 1  
   180   69  179 1  
   181   69  180 1  
   182   70  181 1  
   183   71  182 1  
   184   72  183 1  
   185   72  184 1  
   186   73  185 1  
   187   73  186 1  
   188   74  187 1  
   189   74  188 1  
   190   75  189 1  
   191   75  190 1  
   192   76  191 1  
   193   77  192 1  
   194   77  193 1  
   195   77  194 1  
   196   78  195 1  
   197   78  196 1  
   198   78  197 1  
   199   81  198 1  
   200   82  199 1  
   201   85  200 1  
   202   85  201 1  
   203   86  202 1  
   204   87  203 1  
   205   88  204 1  
   206   91  205 1  
   207   91  206 1  
   208   91  207 1  
   209   92  208 1  
   210   93  209 1  
   211   93  210 1  
@<TRIPOS>SUBSTRUCTURE
     1 TYR         1

