3tzd_ligand
  -I-interpret- 

210211  0  0  0  0  0  0  0  0999 V2000
   22.8790   40.6680   -2.9270 N   0  3  0  0  0
   23.1200   39.1910   -2.8790 C   0  0  0  0  0
   23.8210   38.7800   -4.1760 C   0  0  0  0  0
   23.4800   39.2880   -5.2240 O   0  0  0  0  0
   21.7950   38.4220   -2.8020 C   0  0  0  0  0
   21.9660   36.9420   -2.4540 C   0  0  0  0  0
   22.1190   36.5400   -1.1300 C   0  0  0  0  0
   21.9790   35.9490   -3.4560 C   0  0  0  0  0
   22.2900   35.1840   -0.7630 C   0  0  0  0  0
   22.1330   34.5510   -3.0730 C   0  0  0  0  0
   22.3050   34.2170   -1.7310 C   0  0  0  0  0
   22.4360   32.8950   -1.3380 O   0  0  0  0  0
   24.8190   37.8810   -4.1030 N   0  0  0  0  0
   25.6090   37.7630   -5.3610 C   0  0  0  0  0
   24.9090   36.9970   -6.4680 C   0  0  0  0  0
   24.1650   36.0440   -6.2010 O   0  0  0  0  0
   26.8740   36.9870   -4.9370 C   0  0  0  0  0
   26.5520   36.3420   -3.6610 C   0  0  0  0  0
   25.3670   37.0630   -3.0020 C   0  0  0  0  0
   25.1710   37.4160   -7.6970 N   0  0  0  0  0
   24.6380   36.7260   -8.8610 C   0  0  0  0  0
   25.7210   36.1170   -9.7570 C   0  0  0  0  0
   25.3950   35.4590  -10.7530 O   0  0  0  0  0
   23.7150   37.6610   -9.7040 C   0  0  0  0  0
   22.6140   38.2170   -8.8350 C   0  0  0  0  0
   24.5050   38.7790  -10.3620 C   0  0  0  0  0
   26.9900   36.3600   -9.4160 N   0  0  0  0  0
   28.1410   35.8560  -10.1670 C   0  0  0  0  0
   29.3260   35.8450   -9.2220 C   0  0  0  0  0
   29.2170   36.4310   -8.1340 O   0  0  0  0  0
   28.4590   36.7610  -11.3670 C   0  0  0  0  0
   28.6630   38.2110  -10.9980 C   0  0  0  0  0
   28.7710   39.1170  -12.2250 C   0  0  0  0  0
   29.1330   40.5520  -11.8030 C   0  0  0  0  0
   29.3090   41.4800  -12.9690 N   0  3  0  0  0
   30.4500   35.2430   -9.6410 N   0  0  0  0  0
   31.7250   35.2560   -8.8080 C   0  0  0  0  0
   31.4010   34.8870   -7.3490 C   0  0  0  0  0
   31.6930   35.6260   -6.3810 O   0  0  0  0  0
   32.4380   36.6230   -8.8820 C   0  0  0  0  0
   33.9310   36.5810   -8.4500 C   0  0  0  0  0
   34.5680   37.9550   -8.5860 C   0  0  0  0  0
   34.3020   38.8280   -7.3230 C   0  0  0  0  0
   35.0440   40.1220   -7.5260 N   0  3  0  0  0
   30.7730   33.7260   -7.1970 N   0  0  0  0  0
   30.2010   33.3230   -5.9050 C   0  0  0  0  0
   30.3460   31.8100   -5.6610 C   0  0  0  0  0
   30.6490   31.0720   -6.5830 O   0  0  0  0  0
   28.7120   33.7030   -5.8320 C   0  0  0  0  0
   27.8410   32.9940   -6.8670 C   0  0  0  0  0
   26.3450   33.4340   -6.7360 C   0  0  0  0  0
   25.4850   33.1070   -7.9720 C   0  0  0  0  0
   25.3990   31.6410   -8.2100 N   0  3  0  0  0
   30.1410   31.3890   -4.4200 N   0  0  0  0  0
   30.1650   29.9730   -4.0540 C   0  0  0  0  0
   29.3610   29.7500   -2.7830 C   0  0  0  0  0
   29.1320   30.6700   -1.9690 O   0  0  0  0  0
   31.6320   29.4910   -3.8680 C   0  0  0  0  0
   28.9340   28.5090   -2.6300 N   0  0  0  0  0
   28.2750   28.0280   -1.4380 C   0  0  0  0  0
   29.3650   27.3660   -0.5910 C   0  0  0  0  0
   30.4910   27.1550   -1.0470 O   0  0  0  0  0
   27.1880   27.0520   -1.8860 C   0  0  0  0  0
   26.6630   26.0150   -0.9460 C   0  0  0  0  0
   25.4410   25.3160   -1.6100 C   0  0  0  0  0
   25.3110   25.5920   -3.0490 N   0  0  0  0  0
   25.6110   24.7250   -4.0280 C   0  0  0  0  0
   26.0520   23.4860   -3.7430 N   0  0  0  0  0
   25.4520   25.0980   -5.3040 N   0  0  0  0  0
   29.1870   27.5090    0.8700 N   0  0  0  0  0
   30.1230   26.9390    1.8480 C   0  0  0  0  0
   30.1440   27.8460    3.0630 C   0  0  0  0  0
   30.9780   29.0870    2.7420 C   0  0  0  0  0
   31.0720   30.0010    3.9780 C   0  0  0  0  0
   31.9720   31.1880    3.6110 C   0  0  0  0  0
   32.1180   32.0740    4.7950 N   0  3  0  0  0
   33.2620   33.0000    4.5930 C   0  0  0  0  0
   30.8760   32.8570    5.0740 C   0  0  0  0  0
   29.6650   25.5180    2.2470 C   0  0  0  0  0
   28.5160   25.2240    2.6410 O   0  0  0  0  0
   30.6760   24.4780    2.2320 N   0  0  0  0  0
   30.6200   23.1710    2.9450 C   0  0  0  0  0
   30.0870   23.3130    4.3660 C   0  0  0  0  0
   29.2750   22.4800    4.7990 O   0  0  0  0  0
   31.9970   22.5340    2.9320 C   0  0  0  0  0
   32.3540   22.3170    1.6000 O   0  0  0  0  0
   30.4900   24.3930    5.0400 N   0  0  0  0  0
   29.9750   24.7890    6.3850 C   0  0  0  0  0
   28.4470   24.9490    6.5120 C   0  0  0  0  0
   27.9100   24.8090    7.6150 O   0  0  0  0  0
   30.6850   26.0860    6.8830 C   0  0  0  0  0
   27.7670   25.2850    5.4100 N   0  0  0  0  0
   26.3030   25.3400    5.3630 C   0  0  0  0  0
   25.6420   23.9870    5.0910 C   0  0  0  0  0
   26.3220   22.9620    4.8410 O   0  0  0  0  0
   24.3940   23.8500    5.1070 O   0  0  0  0  0
   23.7734   41.1557   -2.9778 H   0  0  0  0  0
   22.3202   40.8935   -3.7500 H   0  0  0  0  0
   22.3798   40.9574   -2.0859 H   0  0  0  0  0
   23.7212   38.9613   -1.9993 H   0  0  0  0  0
   21.3285   38.4749   -3.7857 H   0  0  0  0  0
   21.1982   38.8770   -2.0115 H   0  0  0  0  0
   22.1066   37.2980   -0.3468 H   0  0  0  0  0
   21.8750   36.2243   -4.5055 H   0  0  0  0  0
   22.4092   34.9112    0.2856 H   0  0  0  0  0
   22.1137   33.7700   -3.8332 H   0  0  0  0  0
   22.4312   32.3297   -2.1139 H   0  0  0  0  0
   25.7924   38.7539   -5.7765 H   0  0  0  0  0
   27.7283   37.6560   -4.8337 H   0  0  0  0  0
   27.1526   36.2497   -5.6899 H   0  0  0  0  0
   27.4183   36.3928   -3.0014 H   0  0  0  0  0
   26.2873   35.2998   -3.8393 H   0  0  0  0  0
   24.6337   36.3735   -2.5837 H   0  0  0  0  0
   25.6636   37.6606   -2.1400 H   0  0  0  0  0
   25.7585   38.2392   -7.8297 H   0  0  0  0  0
   24.0484   35.8996   -8.4641 H   0  0  0  0  0
   23.2683   37.0693  -10.5030 H   0  0  0  0  0
   22.0218   37.3958   -8.4313 H   0  0  0  0  0
   23.0523   38.7874   -8.0161 H   0  0  0  0  0
   21.9754   38.8680   -9.4320 H   0  0  0  0  0
   24.9936   39.3780   -9.5935 H   0  0  0  0  0
   25.2578   38.3498  -11.0232 H   0  0  0  0  0
   23.8286   39.4087  -10.9399 H   0  0  0  0  0
   27.1662   36.9277   -8.5871 H   0  0  0  0  0
   27.9230   34.8589  -10.5496 H   0  0  0  0  0
   27.6066   36.7144  -12.0447 H   0  0  0  0  0
   29.3898   36.4030  -11.8070 H   0  0  0  0  0
   29.5958   38.2882  -10.4395 H   0  0  0  0  0
   27.8004   38.5346  -10.4155 H   0  0  0  0  0
   27.8113   39.1306  -12.7416 H   0  0  0  0  0
   29.5513   38.7329  -12.8820 H   0  0  0  0  0
   30.0805   40.5108  -11.2657 H   0  0  0  0  0
   28.3141   40.9355  -11.1944 H   0  0  0  0  0
   29.5467   42.4114  -12.6279 H   0  0  0  0  0
   30.0593   41.1340  -13.5672 H   0  0  0  0  0
   28.4403   41.5232  -13.5018 H   0  0  0  0  0
   30.4503   34.7639  -10.5415 H   0  0  0  0  0
   32.4079   34.5128   -9.2195 H   0  0  0  0  0
   31.9216   37.2948   -8.1964 H   0  0  0  0  0
   32.4113   36.9460   -9.9227 H   0  0  0  0  0
   34.4643   35.8800   -9.0921 H   0  0  0  0  0
   33.9878   36.2676   -7.4076 H   0  0  0  0  0
   34.1341   38.4551   -9.4519 H   0  0  0  0  0
   35.6446   37.8292   -8.7011 H   0  0  0  0  0
   34.6458   38.3209   -6.4215 H   0  0  0  0  0
   33.2349   39.0088   -7.1941 H   0  0  0  0  0
   34.8968   40.7273   -6.7183 H   0  0  0  0  0
   36.0400   39.9286   -7.6304 H   0  0  0  0  0
   34.6961   40.5838   -8.3663 H   0  0  0  0  0
   30.6858   33.0991   -7.9969 H   0  0  0  0  0
   30.7572   33.8530   -5.1318 H   0  0  0  0  0
   28.6406   34.7731   -6.0266 H   0  0  0  0  0
   28.3501   33.4081   -4.8470 H   0  0  0  0  0
   27.9053   31.9187   -6.7008 H   0  0  0  0  0
   28.1971   33.2568   -7.8631 H   0  0  0  0  0
   26.3361   34.5170   -6.6133 H   0  0  0  0  0
   25.9202   32.8888   -5.8931 H   0  0  0  0  0
   25.9468   33.5701   -8.8440 H   0  0  0  0  0
   24.4779   33.4867   -7.7999 H   0  0  0  0  0
   24.8236   31.4646   -9.0336 H   0  0  0  0  0
   26.3357   31.2669   -8.3617 H   0  0  0  0  0
   24.9789   31.1899   -7.3973 H   0  0  0  0  0
   29.9594   32.0800   -3.6921 H   0  0  0  0  0
   29.7121   29.3910   -4.8566 H   0  0  0  0  0
   32.1792   29.6284   -4.8006 H   0  0  0  0  0
   32.1067   30.0725   -3.0777 H   0  0  0  0  0
   31.6346   28.4355   -3.5958 H   0  0  0  0  0
   29.0780   27.8530   -3.3977 H   0  0  0  0  0
   27.7943   28.8048   -0.8433 H   0  0  0  0  0
   27.6569   26.4769   -2.6844 H   0  0  0  0  0
   26.3265   27.6870   -2.0926 H   0  0  0  0  0
   26.3593   26.4827   -0.0094 H   0  0  0  0  0
   27.4396   25.2807   -0.7322 H   0  0  0  0  0
   24.5435   25.6972   -1.1229 H   0  0  0  0  0
   25.5791   24.2408   -1.4958 H   0  0  0  0  0
   24.9667   26.5121   -3.3233 H   0  0  0  0  0
   26.2641   22.8339   -4.4981 H   0  0  0  0  0
   26.1741   23.1989   -2.7719 H   0  0  0  0  0
   25.1062   26.0323   -5.5229 H   0  0  0  0  0
   28.3782   28.0265    1.2140 H   0  0  0  0  0
   31.1229   26.8665    1.4201 H   0  0  0  0  0
   30.5820   27.3171    3.9095 H   0  0  0  0  0
   29.1267   28.1423    3.3187 H   0  0  0  0  0
   30.5023   29.6353    1.9289 H   0  0  0  0  0
   31.9816   28.7763    2.4516 H   0  0  0  0  0
   31.4899   29.4546    4.8236 H   0  0  0  0  0
   30.0812   30.3509    4.2679 H   0  0  0  0  0
   31.5243   31.7464    2.7889 H   0  0  0  0  0
   32.9521   30.8230    3.3038 H   0  0  0  0  0
   32.2906   31.4768    5.6037 H   0  0  0  0  0
   34.1765   32.4220    4.4598 H   0  0  0  0  0
   33.0830   33.6087    3.7067 H   0  0  0  0  0
   33.3629   33.6464    5.4649 H   0  0  0  0  0
   30.6399   33.4808    4.2119 H   0  0  0  0  0
   30.0507   32.1710    5.2646 H   0  0  0  0  0
   31.0347   33.4883    5.9483 H   0  0  0  0  0
   31.5115   24.6603    1.6760 H   0  0  0  0  0
   29.9184   22.5223    2.4206 H   0  0  0  0  0
   31.9830   21.5910    3.4785 H   0  0  0  0  0
   32.7215   23.1888    3.4162 H   0  0  0  0  0
   33.2243   21.9133    1.5648 H   0  0  0  0  0
   31.1970   24.9875    4.6073 H   0  0  0  0  0
   30.2184   23.9368    7.0196 H   0  0  0  0  0
   31.7580   25.9073    6.9530 H   0  0  0  0  0
   30.4954   26.8958    6.1785 H   0  0  0  0  0
   30.2959   26.3578    7.8642 H   0  0  0  0  0
   28.2906   25.5131    4.5649 H   0  0  0  0  0
   26.0291   26.0058    4.5446 H   0  0  0  0  0
   25.9591   25.6789    6.3402 H   0  0  0  0  0
   23.9831   24.6942    5.3074 H   0  0  0  0  0
  1  2  1  0  0  0
  2  3  1  0  0  0
  2  5  1  0  0  0
  3  4  2  0  0  0
  3 13  1  0  0  0
  5  6  1  0  0  0
  6  7  4  0  0  0
  6  8  4  0  0  0
  7  9  4  0  0  0
  8 10  4  0  0  0
  9 11  4  0  0  0
 10 11  4  0  0  0
 11 12  1  0  0  0
 13 14  1  0  0  0
 13 19  1  0  0  0
 14 15  1  0  0  0
 14 17  1  0  0  0
 15 16  2  0  0  0
 15 20  1  0  0  0
 17 18  1  0  0  0
 18 19  1  0  0  0
 20 21  1  0  0  0
 21 22  1  0  0  0
 21 24  1  0  0  0
 22 23  2  0  0  0
 22 27  1  0  0  0
 24 25  1  0  0  0
 24 26  1  0  0  0
 27 28  1  0  0  0
 28 29  1  0  0  0
 28 31  1  0  0  0
 29 30  2  0  0  0
 29 36  1  0  0  0
 31 32  1  0  0  0
 32 33  1  0  0  0
 33 34  1  0  0  0
 34 35  1  0  0  0
 36 37  1  0  0  0
 37 38  1  0  0  0
 37 40  1  0  0  0
 38 39  2  0  0  0
 38 45  1  0  0  0
 40 41  1  0  0  0
 41 42  1  0  0  0
 42 43  1  0  0  0
 43 44  1  0  0  0
 45 46  1  0  0  0
 46 47  1  0  0  0
 46 49  1  0  0  0
 47 48  2  0  0  0
 47 54  1  0  0  0
 49 50  1  0  0  0
 50 51  1  0  0  0
 51 52  1  0  0  0
 52 53  1  0  0  0
 54 55  1  0  0  0
 55 56  1  0  0  0
 55 58  1  0  0  0
 56 57  2  0  0  0
 56 59  1  0  0  0
 59 60  1  0  0  0
 60 61  1  0  0  0
 60 63  1  0  0  0
 61 62  2  0  0  0
 61 70  1  0  0  0
 63 64  1  0  0  0
 64 65  1  0  0  0
 65 66  1  0  0  0
 66 67  1  0  0  0
 67 68  1  0  0  0
 67 69  2  0  0  0
 70 71  1  0  0  0
 71 72  1  0  0  0
 71 79  1  0  0  0
 72 73  1  0  0  0
 73 74  1  0  0  0
 74 75  1  0  0  0
 75 76  1  0  0  0
 76 77  1  0  0  0
 76 78  1  0  0  0
 79 80  2  0  0  0
 79 81  1  0  0  0
 81 82  1  0  0  0
 82 83  1  0  0  0
 82 85  1  0  0  0
 83 84  2  0  0  0
 83 87  1  0  0  0
 85 86  1  0  0  0
 87 88  1  0  0  0
 88 89  1  0  0  0
 88 91  1  0  0  0
 89 90  2  0  0  0
 89 92  1  0  0  0
 92 93  1  0  0  0
 93 94  1  0  0  0
 94 95  2  0  0  0
 94 96  1  0  0  0
  1 97  1  0  0  0
  1 98  1  0  0  0
  1 99  1  0  0  0
  2100  1  0  0  0
  5101  1  0  0  0
  5102  1  0  0  0
  7103  1  0  0  0
  8104  1  0  0  0
  9105  1  0  0  0
 10106  1  0  0  0
 12107  1  0  0  0
 14108  1  0  0  0
 17109  1  0  0  0
 17110  1  0  0  0
 18111  1  0  0  0
 18112  1  0  0  0
 19113  1  0  0  0
 19114  1  0  0  0
 20115  1  0  0  0
 21116  1  0  0  0
 24117  1  0  0  0
 25118  1  0  0  0
 25119  1  0  0  0
 25120  1  0  0  0
 26121  1  0  0  0
 26122  1  0  0  0
 26123  1  0  0  0
 27124  1  0  0  0
 28125  1  0  0  0
 31126  1  0  0  0
 31127  1  0  0  0
 32128  1  0  0  0
 32129  1  0  0  0
 33130  1  0  0  0
 33131  1  0  0  0
 34132  1  0  0  0
 34133  1  0  0  0
 35134  1  0  0  0
 35135  1  0  0  0
 35136  1  0  0  0
 36137  1  0  0  0
 37138  1  0  0  0
 40139  1  0  0  0
 40140  1  0  0  0
 41141  1  0  0  0
 41142  1  0  0  0
 42143  1  0  0  0
 42144  1  0  0  0
 43145  1  0  0  0
 43146  1  0  0  0
 44147  1  0  0  0
 44148  1  0  0  0
 44149  1  0  0  0
 45150  1  0  0  0
 46151  1  0  0  0
 49152  1  0  0  0
 49153  1  0  0  0
 50154  1  0  0  0
 50155  1  0  0  0
 51156  1  0  0  0
 51157  1  0  0  0
 52158  1  0  0  0
 52159  1  0  0  0
 53160  1  0  0  0
 53161  1  0  0  0
 53162  1  0  0  0
 54163  1  0  0  0
 55164  1  0  0  0
 58165  1  0  0  0
 58166  1  0  0  0
 58167  1  0  0  0
 59168  1  0  0  0
 60169  1  0  0  0
 63170  1  0  0  0
 63171  1  0  0  0
 64172  1  0  0  0
 64173  1  0  0  0
 65174  1  0  0  0
 65175  1  0  0  0
 66176  1  0  0  0
 68177  1  0  0  0
 68178  1  0  0  0
 69179  1  0  0  0
 70180  1  0  0  0
 71181  1  0  0  0
 72182  1  0  0  0
 72183  1  0  0  0
 73184  1  0  0  0
 73185  1  0  0  0
 74186  1  0  0  0
 74187  1  0  0  0
 75188  1  0  0  0
 75189  1  0  0  0
 76190  1  0  0  0
 77191  1  0  0  0
 77192  1  0  0  0
 77193  1  0  0  0
 78194  1  0  0  0
 78195  1  0  0  0
 78196  1  0  0  0
 81197  1  0  0  0
 82198  1  0  0  0
 85199  1  0  0  0
 85200  1  0  0  0
 86201  1  0  0  0
 87202  1  0  0  0
 88203  1  0  0  0
 91204  1  0  0  0
 91205  1  0  0  0
 91206  1  0  0  0
 92207  1  0  0  0
 93208  1  0  0  0
 93209  1  0  0  0
 96210  1  0  0  0
M  END
$$$$
