5ivj_ligand
  -I-interpret- 

 51 54  0  0  0  0  0  0  0  0999 V2000
  -24.5960   21.8780    3.5670 N   0  0  0  0  0
  -24.2470   22.5460    0.9420 C   0  0  0  0  0
  -25.1220   22.5810   -1.3380 C   0  0  0  0  0
  -27.5880   21.8370   -0.6270 C   0  0  0  0  0
  -25.8570   23.6940    4.0770 C   0  0  0  0  0
  -26.4080   23.2560    6.4020 C   0  0  0  0  0
  -22.7020   18.4190    8.4090 O   0  0  0  0  0
  -23.4750   19.0840    7.6900 C   0  0  0  0  0
  -24.1560   20.0460    8.1110 O   0  0  0  0  0
  -23.5840   18.7330    6.2450 C   0  0  0  0  0
  -23.0820   17.4890    5.8710 C   0  0  0  0  0
  -23.1530   17.1040    4.5310 C   0  0  0  0  0
  -23.7020   17.8870    3.5610 N   0  0  0  0  0
  -24.1900   19.0880    3.9520 C   0  0  0  0  0
  -24.1350   19.5430    5.2670 C   0  0  0  0  0
  -24.6820   20.8040    5.6470 N   0  0  0  0  0
  -24.9770   21.7470    4.8400 C   0  0  0  0  0
  -25.1510   23.0750    3.0980 N   0  0  0  0  0
  -25.7840   22.9000    5.2140 C   0  0  0  0  0
  -27.1130   24.4490    6.3790 C   0  0  0  0  0
  -27.7300   24.8350    7.5010 F   0  0  0  0  0
  -27.2110   25.2700    5.2700 C   0  0  0  0  0
  -26.5780   24.8970    4.0950 C   0  0  0  0  0
  -24.9390   23.4400    1.8680 C   0  0  0  0  0
  -25.1510   21.8970   -0.0310 N   0  3  0  0  0
  -26.1760   23.6950   -1.4570 C   0  0  0  0  0
  -27.5730   23.1930   -1.2460 C   0  0  0  0  0
  -28.2540   23.1690   -2.4490 F   0  0  0  0  0
  -28.2650   24.0710   -0.4500 F   0  0  0  0  0
  -26.5550   21.7570    0.4960 C   0  0  0  0  0
  -23.7791   21.7584    1.5326 H   0  0  0  0  0
  -23.5322   23.1453    0.3781 H   0  0  0  0  0
  -25.3359   21.8381   -2.1064 H   0  0  0  0  0
  -24.1397   23.0398   -1.4509 H   0  0  0  0  0
  -27.3455   21.0952   -1.3879 H   0  0  0  0  0
  -28.5784   21.6444   -0.2146 H   0  0  0  0  0
  -26.3473   22.6362    7.2966 H   0  0  0  0  0
  -24.6758   20.4084    7.3899 H   0  0  0  0  0
  -22.6399   16.8253    6.6141 H   0  0  0  0  0
  -22.7504   16.1315    4.2478 H   0  0  0  0  0
  -24.6486   19.7304    3.2003 H   0  0  0  0  0
  -24.8503   20.9643    6.6402 H   0  0  0  0  0
  -27.7791   26.1989    5.3197 H   0  0  0  0  0
  -26.6390   25.5239    3.2054 H   0  0  0  0  0
  -25.9368   23.5489    1.4430 H   0  0  0  0  0
  -24.2796   24.3038    1.9527 H   0  0  0  0  0
  -24.7991   20.9504   -0.1740 H   0  0  0  0  0
  -26.1164   24.1065   -2.4646 H   0  0  0  0  0
  -25.9669   24.4378   -0.6872 H   0  0  0  0  0
  -26.6461   20.7841    0.9790 H   0  0  0  0  0
  -26.7431   22.5715    1.1955 H   0  0  0  0  0
  1 17  4  0  0  0
 18  1  4  0  0  0
  2 24  1  0  0  0
 25  2  1  0  0  0
 25  3  1  0  0  0
  3 26  1  0  0  0
  4 27  1  0  0  0
 30  4  1  0  0  0
 18  5  4  0  0  0
  5 19  4  0  0  0
  5 23  4  0  0  0
 19  6  4  0  0  0
  6 20  4  0  0  0
  8  7  2  0  0  0
  8  9  1  0  0  0
 10  8  1  0  0  0
 10 11  4  0  0  0
 15 10  4  0  0  0
 11 12  4  0  0  0
 13 12  4  0  0  0
 14 13  4  0  0  0
 15 14  4  0  0  0
 16 15  1  0  0  0
 17 16  1  0  0  0
 19 17  4  0  0  0
 24 18  1  0  0  0
 20 21  1  0  0  0
 22 20  4  0  0  0
 23 22  4  0  0  0
 25 30  1  0  0  0
 26 27  1  0  0  0
 27 28  1  0  0  0
 27 29  1  0  0  0
  2 31  1  0  0  0
  2 32  1  0  0  0
  3 33  1  0  0  0
  3 34  1  0  0  0
  4 35  1  0  0  0
  4 36  1  0  0  0
  6 37  1  0  0  0
  9 38  1  0  0  0
 11 39  1  0  0  0
 12 40  1  0  0  0
 14 41  1  0  0  0
 16 42  1  0  0  0
 22 43  1  0  0  0
 23 44  1  0  0  0
 24 45  1  0  0  0
 24 46  1  0  0  0
 25 47  1  0  0  0
 26 48  1  0  0  0
 26 49  1  0  0  0
 30 50  1  0  0  0
 30 51  1  0  0  0
M  END
$$$$
