2ojg_ligand
  -I-interpret- 

 35 37  0  0  0  0  0  0  0  0999 V2000
   -9.1600   13.4150   41.2390 C   0  0  0  0  0
  -10.6260   13.2630   41.1770 N   0  0  0  0  0
  -11.4360   14.2250   41.9340 C   0  0  0  0  0
  -11.1760   12.2240   40.4120 C   0  0  0  0  0
  -10.4080   11.4850   39.8100 O   0  0  0  0  0
  -12.6640   11.9330   40.2690 C   0  0  0  0  0
  -13.7000   12.3210   41.0960 C   0  0  0  0  0
  -14.9110   11.8230   40.5940 C   0  0  0  0  0
  -14.5920   11.1230   39.4520 C   0  0  0  0  0
  -13.2440   11.1880   39.2590 N   0  0  0  0  0
  -16.2930   12.0050   41.1940 C   0  0  0  0  0
  -17.2510   11.0900   41.1270 N   0  0  0  0  0
  -18.3840   11.5640   41.7800 N   0  0  0  0  0
  -18.1310   12.7850   42.2610 C   0  0  0  0  0
  -16.8370   13.1240   41.9330 C   0  0  0  0  0
  -16.1830   14.4280   42.3110 C   0  0  0  0  0
  -15.4870   15.2460   41.3680 C   0  0  0  0  0
  -14.8960   16.4610   41.7790 C   0  0  0  0  0
  -15.0050   16.8690   43.1270 C   0  0  0  0  0
  -15.6960   16.0630   44.0740 C   0  0  0  0  0
  -16.2800   14.8590   43.6720 C   0  0  0  0  0
   -8.7193   12.5090   41.6551 H   0  0  0  0  0
   -8.7705   13.5819   40.2347 H   0  0  0  0  0
   -8.9107   14.2660   41.8728 H   0  0  0  0  0
  -12.0904   14.7649   41.2497 H   0  0  0  0  0
  -12.0380   13.6916   42.6697 H   0  0  0  0  0
  -10.7789   14.9303   42.4428 H   0  0  0  0  0
  -13.5928   12.9215   41.9993 H   0  0  0  0  0
  -15.3008   10.6024   38.8081 H   0  0  0  0  0
  -18.8307   13.4075   42.8187 H   0  0  0  0  0
  -15.4120   14.9308   40.3273 H   0  0  0  0  0
  -14.3590   17.0802   41.0604 H   0  0  0  0  0
  -14.5556   17.8099   43.4445 H   0  0  0  0  0
  -15.7698   16.3846   45.1129 H   0  0  0  0  0
  -16.8121   14.2451   44.3987 H   0  0  0  0  0
  1  2  1  0  0  0
  2  3  1  0  0  0
  2  4  1  0  0  0
  4  5  2  0  0  0
  4  6  1  0  0  0
  6  7  4  0  0  0
  6 10  4  0  0  0
  7  8  4  0  0  0
  8  9  4  0  0  0
  8 11  1  0  0  0
  9 10  4  0  0  0
 11 12  4  0  0  0
 11 15  4  0  0  0
 12 13  4  0  0  0
 13 14  4  0  0  0
 14 15  4  0  0  0
 15 16  1  0  0  0
 16 17  4  0  0  0
 16 21  4  0  0  0
 17 18  4  0  0  0
 18 19  4  0  0  0
 19 20  4  0  0  0
 20 21  4  0  0  0
  1 22  1  0  0  0
  1 23  1  0  0  0
  1 24  1  0  0  0
  3 25  1  0  0  0
  3 26  1  0  0  0
  3 27  1  0  0  0
  7 28  1  0  0  0
  9 29  1  0  0  0
 14 30  1  0  0  0
 17 31  1  0  0  0
 18 32  1  0  0  0
 19 33  1  0  0  0
 20 34  1  0  0  0
 21 35  1  0  0  0
M  END
$$$$
