6c3e_ligand
  -I-interpret- 

 29 31  0  0  0  0  0  0  0  0999 V2000
    6.0320  -12.8780  -26.1790 C   0  0  0  0  0
    6.3190  -13.5870  -27.3420 C   0  0  0  0  0
    6.7440  -12.9260  -28.4720 C   0  0  0  0  0
    6.8940  -11.5470  -28.4460 C   0  0  0  0  0
    7.2540   -9.4030  -28.8080 C   0  0  0  0  0
    7.4040   -5.7910  -28.8620 C   0  0  0  0  0
    5.2890   -4.6710  -28.9560 C   0  0  0  0  0
    5.4630   -6.9630  -29.6440 C   0  0  0  0  0
    6.1730  -11.5070  -26.1450 C   0  0  0  0  0
    4.9680  -13.0530  -24.0880 O   0  0  0  0  0
    5.5820  -13.6240  -24.9730 N   0  0  0  0  0
    5.8380  -14.8120  -24.8510 O   0  0  0  0  0
    7.2950  -10.6270  -29.3790 N   0  0  0  0  0
    7.6610   -8.1650  -29.5620 C   0  0  0  0  0
    6.8110   -6.9470  -29.3420 C   0  0  0  0  0
    6.6410   -4.6540  -28.6620 C   0  0  0  0  0
    4.7000   -5.8250  -29.4440 C   0  0  0  0  0
    6.8540   -9.5040  -27.5730 N   0  0  0  0  0
    6.6110  -10.8140  -27.2830 C   0  0  0  0  0
    6.2066  -14.6711  -27.3579 H   0  0  0  0  0
    6.9617  -13.4834  -29.3831 H   0  0  0  0  0
    8.4714   -5.7769  -28.6418 H   0  0  0  0  0
    4.6872   -3.7751  -28.8033 H   0  0  0  0  0
    5.0017   -7.8684  -30.0384 H   0  0  0  0  0
    5.9433  -10.9598  -25.2307 H   0  0  0  0  0
    7.5741   -8.4103  -30.6205 H   0  0  0  0  0
    8.6597   -7.9076  -29.2091 H   0  0  0  0  0
    7.1041   -3.7469  -28.2737 H   0  0  0  0  0
    3.6340   -5.8377  -29.6711 H   0  0  0  0  0
  2  1  4  0  0  0
  9  1  4  0  0  0
  1 11  1  0  0  0
  3  2  4  0  0  0
  4  3  4  0  0  0
 13  4  4  0  0  0
  4 19  4  0  0  0
  5 13  4  0  0  0
 14  5  1  0  0  0
  5 18  4  0  0  0
 15  6  4  0  0  0
  6 16  4  0  0  0
 16  7  4  0  0  0
 17  7  4  0  0  0
 15  8  4  0  0  0
  8 17  4  0  0  0
 19  9  4  0  0  0
 11 10  2  0  0  0
 11 12  2  0  0  0
 14 15  1  0  0  0
 18 19  4  0  0  0
  2 20  1  0  0  0
  3 21  1  0  0  0
  6 22  1  0  0  0
  7 23  1  0  0  0
  8 24  1  0  0  0
  9 25  1  0  0  0
 14 26  1  0  0  0
 14 27  1  0  0  0
 16 28  1  0  0  0
 17 29  1  0  0  0
M  END
$$$$
