6fnt_ligand
  -I-interpret- 

 30 31  0  0  0  0  0  0  0  0999 V2000
   10.2250   16.7620   16.8920 C   0  0  0  0  0
   10.7190   18.2300   16.9970 C   0  0  0  0  0
   10.7200   18.6680   15.5420 C   0  0  0  0  0
    9.6180   17.7780   14.8900 C   0  0  0  0  0
    9.2940   16.7530   15.8060 N   0  3  0  0  0
    9.3030   15.4810   15.1520 C   0  0  0  0  0
    8.2540   15.4590   14.0350 C   0  0  0  0  0
    7.0400   15.6580   14.3050 O   0  0  0  0  0
    8.6160   15.2400   12.8470 O   0  0  0  0  0
    8.9810   14.3550   16.1200 C   0  0  0  0  0
    9.0110   13.0210   15.4520 C   0  0  0  0  0
    9.8640   12.6000   14.4660 C   0  0  0  0  0
    9.5540   11.3040   14.1590 N   0  0  0  0  0
    8.5180   10.9150   14.9490 C   0  0  0  0  0
    8.1860   11.9820   15.7530 N   0  0  0  0  0
    9.7615   16.4276   17.8202 H   0  0  0  0  0
   11.0510   16.0725   16.7176 H   0  0  0  0  0
   11.6932   18.3243   17.4768 H   0  0  0  0  0
   10.0910   18.8522   17.6346 H   0  0  0  0  0
   11.6935   18.5394   15.0688 H   0  0  0  0  0
   10.5176   19.7329   15.4272 H   0  0  0  0  0
    9.9807   17.3500   13.9555 H   0  0  0  0  0
    8.7350   18.3750   14.6618 H   0  0  0  0  0
    8.3567   16.9193   16.1725 H   0  0  0  0  0
   10.3039   15.3326   14.7468 H   0  0  0  0  0
    9.5670   15.1110   12.8221 H   0  0  0  0  0
    7.9772   14.5182   16.5123 H   0  0  0  0  0
    9.7319   14.3584   16.9101 H   0  0  0  0  0
   10.6530   13.1950   14.0060 H   0  0  0  0  0
    8.0378    9.9365   14.9462 H   0  0  0  0  0
  1  2  1  0  0  0
  1  5  1  0  0  0
  2  3  1  0  0  0
  3  4  1  0  0  0
  4  5  1  0  0  0
  5  6  1  0  0  0
  6  7  1  0  0  0
  6 10  1  0  0  0
  7  8  2  0  0  0
  7  9  1  0  0  0
 10 11  1  0  0  0
 11 12  4  0  0  0
 11 15  4  0  0  0
 12 13  4  0  0  0
 13 14  4  0  0  0
 14 15  4  0  0  0
  1 16  1  0  0  0
  1 17  1  0  0  0
  2 18  1  0  0  0
  2 19  1  0  0  0
  3 20  1  0  0  0
  3 21  1  0  0  0
  4 22  1  0  0  0
  4 23  1  0  0  0
  5 24  1  0  0  0
  6 25  1  0  0  0
  9 26  1  0  0  0
 10 27  1  0  0  0
 10 28  1  0  0  0
 12 29  1  0  0  0
 14 30  1  0  0  0
M  END
$$$$
