1fwe_ligand
  -I-interpret- 

 10  9  0  0  0  0  0  0  0  0999 V2000
   70.7460  108.0780   71.6150 C   0  0  0  0  0
   69.3800  107.4350   71.5780 C   0  0  0  0  0
   68.6350  107.6130   70.6140 O   0  0  0  0  0
   69.0620  106.6910   72.6110 N   0  0  0  0  0
   67.8240  106.1210   72.8270 O   0  0  0  0  0
   71.3326  107.7311   70.7643 H   0  0  0  0  0
   70.6376  109.1615   71.5656 H   0  0  0  0  0
   71.2502  107.8039   72.5417 H   0  0  0  0  0
   69.7863  106.5207   73.3087 H   0  0  0  0  0
   67.8405  105.6246   73.6485 H   0  0  0  0  0
  1  2  1  0  0  0
  2  3  2  0  0  0
  2  4  1  0  0  0
  4  5  1  0  0  0
  1  6  1  0  0  0
  1  7  1  0  0  0
  1  8  1  0  0  0
  4  9  1  0  0  0
  5 10  1  0  0  0
M  END
$$$$
