1inf_ligand
  -I-interpret- 

 29 29  0  0  0  0  0  0  0  0999 V2000
   33.1050  -12.4580   65.9980 C   0  0  0  0  0
   34.0300  -12.5250   66.8260 O   0  0  0  0  0
   32.3620  -13.4370   65.7300 O   0  0  0  0  0
   32.8880  -11.2680   65.3080 C   0  0  0  0  0
   31.6060  -10.9310   64.8860 C   0  0  0  0  0
   31.3880   -9.8400   64.0720 C   0  0  0  0  0
   30.1070   -9.5670   63.6370 N   0  0  0  0  0
   29.3990  -10.4570   62.9490 C   0  0  0  0  0
   28.1950  -10.1450   62.4930 N   0  0  0  0  0
   29.9080  -11.6440   62.6720 N   0  0  0  0  0
   32.4760   -9.0450   63.6690 C   0  0  0  0  0
   32.2970   -7.9780   62.7840 N   0  0  0  0  0
   31.4600   -6.9730   63.0050 C   0  0  0  0  0
   30.8700   -6.8440   64.0770 O   0  0  0  0  0
   31.3110   -5.8990   61.9640 C   0  0  0  0  0
   33.7490   -9.3650   64.1120 C   0  0  0  0  0
   33.9470  -10.4570   64.9240 C   0  0  0  0  0
   31.7162  -13.1758   65.0695 H   0  0  0  0  0
   30.7597  -11.5398   65.2043 H   0  0  0  0  0
   29.6930   -8.6592   63.8489 H   0  0  0  0  0
   27.6710  -10.8185   61.9342 H   0  0  0  0  0
   27.7920   -9.2313   62.7007 H   0  0  0  0  0
   29.3749  -12.3095   62.1123 H   0  0  0  0  0
   32.8400   -7.9719   61.9206 H   0  0  0  0  0
   30.2601   -5.8023   61.6914 H   0  0  0  0  0
   31.6719   -4.9524   62.3662 H   0  0  0  0  0
   31.8933   -6.1662   61.0822 H   0  0  0  0  0
   34.5975   -8.7484   63.8156 H   0  0  0  0  0
   34.9533  -10.6898   65.2722 H   0  0  0  0  0
  4  1  1  0  0  0
  1  3  1  0  0  0
  1  2  2  0  0  0
  4 17  4  0  0  0
  4  5  4  0  0  0
  5  6  4  0  0  0
  6 11  4  0  0  0
  6  7  1  0  0  0
  7  8  1  0  0  0
  8 10  2  0  0  0
  8  9  1  0  0  0
 11 16  4  0  0  0
 11 12  1  0  0  0
 12 13  1  0  0  0
 13 15  1  0  0  0
 13 14  2  0  0  0
 16 17  4  0  0  0
  3 18  1  0  0  0
  5 19  1  0  0  0
  7 20  1  0  0  0
  9 21  1  0  0  0
  9 22  1  0  0  0
 10 23  1  0  0  0
 12 24  1  0  0  0
 15 25  1  0  0  0
 15 26  1  0  0  0
 15 27  1  0  0  0
 16 28  1  0  0  0
 17 29  1  0  0  0
M  END
$$$$
