### 
### Created by X-TOOL on Mon Aug  2 16:17:06 2021
### 

@<TRIPOS>MOLECULE
6oie_ligand
  253   253     1     0     0
SMALL
GAST_HUCK


@<TRIPOS>ATOM
      1 N          99.5000  -17.2530   35.7480 N.4       1 ALA         0.2377
      2 CA        100.1980  -16.4190   34.7780 C.3       1 ALA         0.0621
      3 C          99.9760  -14.9220   35.0240 C.2       1 ALA         0.2264
      4 O          98.9840  -14.5250   35.6010 O.2       1 ALA        -0.3907
      5 CB         99.7620  -16.7890   33.3560 C.3       1 ALA        -0.0040
      6 N         100.9230  -14.1060   34.5740 N.am      1 ALA        -0.2610
      7 CA        100.8230  -12.6570   34.6640 C.3       1 ALA         0.1312
      8 C         100.1230  -12.1290   33.4220 C.2       1 ALA         0.2040
      9 O         100.3570  -12.6100   32.3090 O.2       1 ALA        -0.3944
     10 CB        102.2070  -12.0190   34.7850 C.3       1 ALA        -0.0092
     11 CG        102.9720  -12.4260   36.0540 C.3       1 ALA        -0.0156
     12 CD        104.2990  -11.6990   36.1710 C.3       1 ALA         0.0627
     13 NE        105.1050  -11.8810   34.9660 N.pl3     1 ALA        -0.2723
     14 CZ        105.4130  -10.9050   34.1160 C.cat     1 ALA         0.2882
     15 NH1       105.0050   -9.6750   34.3630 N.pl3     1 ALA        -0.2849
     16 NH2       106.1550  -11.1560   33.0350 N.pl3     1 ALA        -0.2849
     17 N          99.2020  -11.2030   33.6200 N.am      1 ALA        -0.2613
     18 CA         98.5140  -10.6030   32.4920 C.3       1 ALA         0.1565
     19 C          98.7200   -9.1020   32.5500 C.2       1 ALA         0.2065
     20 O          99.2310   -8.5620   33.5390 O.2       1 ALA        -0.3943
     21 CB         97.0180  -10.9290   32.4920 C.3       1 ALA         0.0924
     22 OG1        96.4110  -10.3710   33.6640 O.3       1 ALA        -0.3874
     23 CG2        96.8130  -12.4430   32.4720 C.3       1 ALA        -0.0346
     24 N          98.2570   -8.4220   31.4960 N.am      1 ALA        -0.2637
     25 CA         98.3280   -6.9670   31.4920 C.3       1 ALA         0.1310
     26 C          97.6140   -6.3850   32.6990 C.2       1 ALA         0.2039
     27 O          98.0420   -5.3600   33.2420 O.2       1 ALA        -0.3944
     28 CB         97.7240   -6.4130   30.1920 C.3       1 ALA        -0.0122
     29 CG         97.7770   -4.8860   30.0860 C.3       1 ALA        -0.0440
     30 CD         97.3620   -4.3740   28.7050 C.3       1 ALA        -0.0124
     31 CE         98.3400   -4.8220   27.6350 C.3       1 ALA        -0.0354
     32 NZ         98.7200   -3.7610   26.6490 N.4       1 ALA         0.2185
     33 N          96.5580   -7.0510   33.1590 N.am      1 ALA        -0.2636
     34 CA         95.8090   -6.5890   34.3190 C.3       1 ALA         0.1330
     35 C          96.5530   -6.8730   35.6210 C.2       1 ALA         0.2041
     36 O          96.6780   -5.9850   36.4710 O.2       1 ALA        -0.3944
     37 CB         94.4140   -7.2150   34.2980 C.3       1 ALA         0.0045
     38 CG         93.5010   -6.8400   35.4370 C.3       1 ALA         0.0412
     39 CD         92.0560   -7.0640   35.0500 C.2       1 ALA         0.1737
     40 OE1        91.5360   -6.3740   34.1710 O.2       1 ALA        -0.3973
     41 NE2        91.4000   -8.0260   35.6890 N.am      1 ALA        -0.3009
     42 N          97.0630   -8.0990   35.7990 N.am      1 ALA        -0.2613
     43 CA         97.7670   -8.4170   37.0430 C.3       1 ALA         0.1565
     44 C          99.0180   -7.5550   37.2070 C.2       1 ALA         0.2065
     45 O          99.3240   -7.0950   38.3140 O.2       1 ALA        -0.3943
     46 CB         98.1350   -9.9080   37.1050 C.3       1 ALA         0.0924
     47 OG1        99.2120  -10.2050   36.2020 O.3       1 ALA        -0.3874
     48 CG2        96.9360  -10.7780   36.7450 C.3       1 ALA        -0.0346
     49 N          99.7530   -7.3250   36.1150 N.am      1 ALA        -0.2639
     50 CA        100.9540   -6.4950   36.1860 C.3       1 ALA         0.1282
     51 C         100.6010   -5.0570   36.5490 C.2       1 ALA         0.2036
     52 O         101.2370   -4.4480   37.4170 O.2       1 ALA        -0.3944
     53 CB        101.7130   -6.5500   34.8630 C.3       1 ALA        -0.0244
     54 N          99.5810   -4.4980   35.8840 N.am      1 ALA        -0.2637
     55 CA         99.1600   -3.1230   36.1500 C.3       1 ALA         0.1311
     56 C          98.7870   -2.9290   37.6130 C.2       1 ALA         0.2039
     57 O          99.1300   -1.9070   38.2180 O.2       1 ALA        -0.3944
     58 CB         97.9740   -2.7670   35.2540 C.3       1 ALA        -0.0092
     59 CG         97.7880   -1.3030   34.9900 C.3       1 ALA        -0.0156
     60 CD         96.4500   -1.0660   34.3250 C.3       1 ALA         0.0627
     61 NE         96.5140   -1.2020   32.8730 N.pl3     1 ALA        -0.2723
     62 CZ         95.7620   -2.0430   32.1670 C.cat     1 ALA         0.2882
     63 NH1        94.8940   -2.8350   32.7830 N.pl3     1 ALA        -0.2849
     64 NH2        95.8760   -2.0940   30.8430 N.pl3     1 ALA        -0.2849
     65 N          98.0900   -3.8990   38.2060 N.am      1 ALA        -0.2637
     66 CA         97.7590   -3.7850   39.6220 C.3       1 ALA         0.1310
     67 C          98.9650   -4.0760   40.5070 C.2       1 ALA         0.2040
     68 O          99.1550   -3.4140   41.5310 O.2       1 ALA        -0.3944
     69 CB         96.6010   -4.7210   39.9710 C.3       1 ALA        -0.0122
     70 CG         95.2510   -4.0160   40.0300 C.3       1 ALA        -0.0440
     71 CD         94.1080   -4.9510   39.6690 C.3       1 ALA        -0.0124
     72 CE         92.8930   -4.1720   39.1810 C.3       1 ALA        -0.0354
     73 NZ         93.2650   -3.0990   38.2150 N.4       1 ALA         0.2185
     74 N          99.7940   -5.0510   40.1170 N.am      1 ALA        -0.2616
     75 CA        100.9670   -5.4290   40.9050 C.3       1 ALA         0.1539
     76 C         101.8750   -4.2370   41.1850 C.2       1 ALA         0.2063
     77 O         102.4800   -4.1420   42.2590 O.2       1 ALA        -0.3943
     78 CB        101.7390   -6.5300   40.1750 C.3       1 ALA         0.0843
     79 OG        103.0270   -6.7080   40.7260 O.3       1 ALA        -0.3903
     80 N         102.0230   -3.3430   40.2090 N.am      1 ALA        -0.2613
     81 CA        102.8380   -2.1480   40.3760 C.3       1 ALA         0.1565
     82 C         102.1290   -1.0440   41.1400 C.2       1 ALA         0.2063
     83 O         102.7930   -0.1360   41.6470 O.2       1 ALA        -0.3943
     84 CB        103.2460   -1.5930   39.0140 C.3       1 ALA         0.0924
     85 OG1       102.1110   -0.9630   38.4090 O.3       1 ALA        -0.3874
     86 CG2       103.7480   -2.7120   38.1080 C.3       1 ALA        -0.0346
     87 N         100.8070   -1.0600   41.1820 N.am      1 ALA        -0.2663
     88 CA        100.0760    0.1120   41.6020 C.3       1 ALA         0.1201
     89 C         100.1210    1.1520   40.4960 C.2       1 ALA         0.2005
     90 O         100.6570    0.9380   39.4100 O.2       1 ALA        -0.3947
     91 N          99.5580    2.3140   40.7960 N.am      1 ALA        -0.2666
     92 CA         99.4950    3.3720   39.8060 C.3       1 ALA         0.1201
     93 C         100.8230    4.0180   39.4540 C.2       1 ALA         0.2007
     94 O         101.7810    3.9670   40.2250 O.2       1 ALA        -0.3947
     95 N         100.8760    4.6070   38.2660 N.am      1 ALA        -0.2640
     96 CA        101.9050    5.5200   37.9220 C.3       1 ALA         0.1310
     97 CB        101.8080    5.9250   36.4580 C.3       1 ALA        -0.0123
     98 CG        102.0550    4.7350   35.5390 C.3       1 ALA        -0.0470
     99 CD        101.6070    5.0870   34.1200 C.3       1 ALA        -0.0327
    100 CE        101.7770    3.8660   33.2020 C.3       1 ALA         0.0295
    101 NZ        103.1600    3.8300   32.7970 N.am      1 ALA        -0.2917
    102 CH        103.9570    2.6390   32.8240 C.2       1 ALA         0.1759
    103 OH        103.5030    1.5550   33.1460 O.2       1 ALA        -0.4012
    104 CX        105.4080    2.7620   32.3870 C.2       1 ALA        -0.0032
    105 CY        106.2530    1.7260   32.6000 C.2       1 ALA        -0.0626
    106 CH3       107.6940    1.8560   32.1670 C.3       1 ALA        -0.0267
    107 C         101.7500    6.7300   38.8310 C.2       1 ALA         0.2039
    108 O         100.6160    7.0510   39.2650 O.2       1 ALA        -0.3944
    109 N         102.8390    7.4220   39.1360 N.am      1 ALA        -0.2640
    110 CA        102.7320    8.6440   39.9290 C.3       1 ALA         0.1283
    111 C         101.9110    9.7030   39.2030 C.2       1 ALA         0.2056
    112 O         102.1010    9.9370   38.0130 O.2       1 ALA        -0.3942
    113 CB        104.1140    9.1910   40.2610 C.3       1 ALA        -0.0244
    114 N         100.9780   10.3430   39.9160 N.am      1 ALA        -0.2556
    115 CA        100.2520   11.4570   39.2980 C.3       1 ALA         0.0972
    116 C         101.0780   12.7460   39.3040 C.2       1 ALA         0.0603
    117 O         102.2450   12.7220   39.7130 O.co2     1 ALA        -0.5666
    118 CB         99.0080   11.5900   40.1750 C.3       1 ALA        -0.0159
    119 CG         99.4180   11.0510   41.5040 C.3       1 ALA        -0.0288
    120 CD        100.4680   10.0050   41.2560 C.3       1 ALA         0.0362
    121 OXT       100.5700   13.7990   38.9000 O.co2     1 ALA        -0.5666
    122 H1         99.6765  -18.2244   35.5446 H         1 ALA         0.2015
    123 H2         98.5096  -17.0732   35.6947 H         1 ALA         0.2015
    124 H3         99.8311  -17.0384   36.6756 H         1 ALA         0.2015
    125 H4        101.2752  -16.6204   34.8731 H         1 ALA         0.1095
    126 H5        100.2943  -16.1541   32.6324 H         1 ALA         0.0310
    127 H6         98.6780  -16.6332   33.2526 H         1 ALA         0.0310
    128 H7        100.0008  -17.8452   33.1624 H         1 ALA         0.0310
    129 H8        101.7392  -14.5045   34.1557 H         1 ALA         0.1884
    130 H9        100.2312  -12.3938   35.5531 H         1 ALA         0.0800
    131 H10       102.0851  -10.9258   34.7899 H         1 ALA         0.0313
    132 H11       102.8036  -12.3176   33.9104 H         1 ALA         0.0313
    133 H12       103.1612  -13.5092   36.0235 H         1 ALA         0.0301
    134 H13       102.3561  -12.1860   36.9332 H         1 ALA         0.0301
    135 H14       104.8510  -12.0953   37.0360 H         1 ALA         0.0689
    136 H15       104.1091  -10.6255   36.3177 H         1 ALA         0.0689
    137 H16       105.4578  -12.8268   34.7612 H         1 ALA         0.2642
    138 H17       105.2393   -8.9138   33.7099 H         1 ALA         0.2615
    139 H18       104.4522   -9.4759   35.2090 H         1 ALA         0.2615
    140 H19       106.4742  -12.1159   32.8410 H         1 ALA         0.2615
    141 H20       106.4083  -10.3898   32.3950 H         1 ALA         0.2615
    142 H21        98.9780  -10.9143   34.5509 H         1 ALA         0.1884
    143 H22        98.9542  -10.9918   31.5619 H         1 ALA         0.0826
    144 H23        96.5514  -10.4903   31.5977 H         1 ALA         0.0639
    145 H24        95.4826  -10.5727   33.6650 H         1 ALA         0.2101
    146 H25        95.7361  -12.6672   32.4721 H         1 ALA         0.0257
    147 H26        97.2803  -12.8881   33.3628 H         1 ALA         0.0257
    148 H27        97.2749  -12.8637   31.5667 H         1 ALA         0.0257
    149 H28        97.8646   -8.9090   30.7157 H         1 ALA         0.1883
    150 H29        99.3862   -6.6705   31.5396 H         1 ALA         0.0800
    151 H30        96.6715   -6.7279   30.1371 H         1 ALA         0.0312
    152 H31        98.2789   -6.8388   29.3430 H         1 ALA         0.0312
    153 H32        98.8061   -4.5548   30.2892 H         1 ALA         0.0269
    154 H33        97.0986   -4.4575   30.8384 H         1 ALA         0.0269
    155 H34        97.3311   -3.2746   28.7247 H         1 ALA         0.0317
    156 H35        96.3625   -4.7647   28.4633 H         1 ALA         0.0317
    157 H36        97.8837   -5.6560   27.0816 H         1 ALA         0.0813
    158 H37        99.2567   -5.1704   28.1332 H         1 ALA         0.0813
    159 H38        99.3686   -4.1424   25.9783 H         1 ALA         0.1994
    160 H39        99.1527   -2.9907   27.1343 H         1 ALA         0.1994
    161 H40        97.8946   -3.4357   26.1706 H         1 ALA         0.1994
    162 H41        96.2715   -7.8900   32.6964 H         1 ALA         0.1883
    163 H42        95.6920   -5.4983   34.2373 H         1 ALA         0.0801
    164 H43        94.5361   -8.3081   34.3113 H         1 ALA         0.0337
    165 H44        93.9239   -6.9121   33.3610 H         1 ALA         0.0337
    166 H45        93.6492   -5.7789   35.6861 H         1 ALA         0.0504
    167 H46        93.7417   -7.4595   36.3135 H         1 ALA         0.0504
    168 H47        90.4426   -8.2109   35.4671 H         1 ALA         0.1814
    169 H48        91.8635   -8.5654   36.3920 H         1 ALA         0.1814
    170 H49        96.9634   -8.7932   35.0862 H         1 ALA         0.1884
    171 H50        97.0891   -8.1974   37.8810 H         1 ALA         0.0826
    172 H51        98.4534  -10.1469   38.1304 H         1 ALA         0.0639
    173 H52        99.9743   -9.6905   36.4400 H         1 ALA         0.2101
    174 H53        97.2238  -11.8384   36.7964 H         1 ALA         0.0257
    175 H54        96.6018  -10.5379   35.7249 H         1 ALA         0.0257
    176 H55        96.1173  -10.5856   37.4539 H         1 ALA         0.0257
    177 H56        99.4786   -7.7248   35.2404 H         1 ALA         0.1883
    178 H57       101.6058   -6.8979   36.9752 H         1 ALA         0.0797
    179 H58       102.6134   -5.9217   34.9305 H         1 ALA         0.0277
    180 H59       101.0668   -6.1790   34.0538 H         1 ALA         0.0277
    181 H60       102.0059   -7.5889   34.6512 H         1 ALA         0.0277
    182 H61        99.0972   -5.0325   35.1909 H         1 ALA         0.1883
    183 H62        99.9970   -2.4498   35.9129 H         1 ALA         0.0800
    184 H63        97.0594   -3.1446   35.7346 H         1 ALA         0.0313
    185 H64        98.1151   -3.2716   34.2868 H         1 ALA         0.0313
    186 H65        98.5919   -0.9464   34.3293 H         1 ALA         0.0301
    187 H66        97.8247   -0.7531   35.9420 H         1 ALA         0.0301
    188 H67        96.1103   -0.0486   34.5691 H         1 ALA         0.0689
    189 H68        95.7275   -1.7975   34.7160 H         1 ALA         0.0689
    190 H69        97.1839   -0.6093   32.3623 H         1 ALA         0.2642
    191 H70        94.3123   -3.4856   32.2360 H         1 ALA         0.2615
    192 H71        94.8018   -2.7992   33.8082 H         1 ALA         0.2615
    193 H72        96.5484   -1.4812   30.3600 H         1 ALA         0.2615
    194 H73        95.2919   -2.7463   30.3005 H         1 ALA         0.2615
    195 H74        97.7962   -4.6993   37.6833 H         1 ALA         0.1883
    196 H75        97.4373   -2.7509   39.8148 H         1 ALA         0.0800
    197 H76        96.8017   -5.1730   40.9535 H         1 ALA         0.0312
    198 H77        96.5488   -5.5112   39.2076 H         1 ALA         0.0312
    199 H78        95.2583   -3.1735   39.3228 H         1 ALA         0.0269
    200 H79        95.0918   -3.6369   41.0503 H         1 ALA         0.0269
    201 H80        93.8269   -5.5343   40.5582 H         1 ALA         0.0317
    202 H81        94.4403   -5.6334   38.8728 H         1 ALA         0.0317
    203 H82        92.3952   -3.7121   40.0474 H         1 ALA         0.0813
    204 H83        92.1999   -4.8689   38.6872 H         1 ALA         0.0813
    205 H84        92.4343   -2.6107   37.9190 H         1 ALA         0.1994
    206 H85        93.7165   -3.5105   37.4132 H         1 ALA         0.1994
    207 H86        93.8956   -2.4504   38.6597 H         1 ALA         0.1994
    208 H87        99.6064   -5.5352   39.2624 H         1 ALA         0.1884
    209 H88       100.6197   -5.8266   41.8700 H         1 ALA         0.0823
    210 H89       101.8383   -6.2548   39.1146 H         1 ALA         0.0606
    211 H90       101.1806   -7.4741   40.2581 H         1 ALA         0.0606
    212 H91       103.5162   -5.8969   40.6532 H         1 ALA         0.2097
    213 H92       101.5608   -3.4970   39.3357 H         1 ALA         0.1884
    214 H93       103.7434   -2.4298   40.9335 H         1 ALA         0.0826
    215 H94       104.0475   -0.8519   39.1499 H         1 ALA         0.0639
    216 H95       101.8083   -0.2557   38.9664 H         1 ALA         0.2101
    217 H96       104.0367   -2.2926   37.1329 H         1 ALA         0.0257
    218 H97       102.9492   -3.4548   37.9657 H         1 ALA         0.0257
    219 H98       104.6203   -3.1958   38.5717 H         1 ALA         0.0257
    220 H99       100.3112   -1.8884   40.9214 H         1 ALA         0.1881
    221 H100      100.5339    0.5242   42.5133 H         1 ALA         0.0763
    222 H101       99.0305   -0.1608   41.8080 H         1 ALA         0.0763
    223 H102       99.1754    2.4616   41.7081 H         1 ALA         0.1881
    224 H103       98.8278    4.1572   40.1912 H         1 ALA         0.0763
    225 H104       99.0693    2.9487   38.8843 H         1 ALA         0.0763
    226 H105      100.1673    4.4003   37.5915 H         1 ALA         0.1883
    227 H106      102.8852    5.0521   38.0958 H         1 ALA         0.0800
    228 H107      102.5594    6.7009   36.2499 H         1 ALA         0.0312
    229 H108      100.8027    6.3264   36.2627 H         1 ALA         0.0312
    230 H109      101.4827    3.8677   35.8999 H         1 ALA         0.0268
    231 H110      103.1275    4.4908   35.5351 H         1 ALA         0.0268
    232 H111      102.2191    5.9179   33.7394 H         1 ALA         0.0285
    233 H112      100.5491    5.3878   34.1352 H         1 ALA         0.0285
    234 H113      101.1278    3.9640   32.3195 H         1 ALA         0.0518
    235 H114      101.5192    2.9456   33.7465 H         1 ALA         0.0518
    236 H115      103.5847    4.6786   32.4814 H         1 ALA         0.1831
    237 H116      105.7635    3.6731   31.9081 H         1 ALA         0.0472
    238 H117      105.8991    0.8129   33.0763 H         1 ALA         0.0843
    239 H118      108.2357    0.9308   32.4131 H         1 ALA         0.0453
    240 H119      108.1593    2.7038   32.6911 H         1 ALA         0.0453
    241 H120      107.7366    2.0280   31.0814 H         1 ALA         0.0453
    242 H121      103.7349    7.1069   38.8227 H         1 ALA         0.1883
    243 H122      102.2209    8.3975   40.8713 H         1 ALA         0.0797
    244 H123      104.0112   10.1095   40.8574 H         1 ALA         0.0277
    245 H124      104.6524    9.4175   39.3289 H         1 ALA         0.0277
    246 H125      104.6766    8.4412   40.8365 H         1 ALA         0.0277
    247 H126       99.9745   11.2128   38.2620 H         1 ALA         0.0728
    248 H127       98.1761   11.0028   39.7589 H         1 ALA         0.0306
    249 H128       98.7057   12.6441   40.2611 H         1 ALA         0.0306
    250 H129       98.5517   10.6020   42.0119 H         1 ALA         0.0286
    251 H130       99.8304   11.8583   42.1269 H         1 ALA         0.0286
    252 H131      101.2683   10.0648   42.0083 H         1 ALA         0.0524
    253 H132      100.0290    8.9965   41.2671 H         1 ALA         0.0524
@<TRIPOS>BOND
     1    1    2 1  
     2    2    3 1  
     3    2    5 1  
     4    3    4 2  
     5    3    6 am 
     6    6    7 1  
     7    7    8 1  
     8    7   10 1  
     9    8    9 2  
    10    8   17 am 
    11   10   11 1  
    12   11   12 1  
    13   12   13 1  
    14   13   14 ar 
    15   14   15 ar 
    16   14   16 ar 
    17   17   18 1  
    18   18   19 1  
    19   18   21 1  
    20   19   20 2  
    21   19   24 am 
    22   21   22 1  
    23   21   23 1  
    24   24   25 1  
    25   25   26 1  
    26   25   28 1  
    27   26   27 2  
    28   26   33 am 
    29   28   29 1  
    30   29   30 1  
    31   30   31 1  
    32   31   32 1  
    33   33   34 1  
    34   34   35 1  
    35   34   37 1  
    36   35   36 2  
    37   35   42 am 
    38   37   38 1  
    39   38   39 1  
    40   39   40 2  
    41   39   41 am 
    42   42   43 1  
    43   43   44 1  
    44   43   46 1  
    45   44   45 2  
    46   44   49 am 
    47   46   47 1  
    48   46   48 1  
    49   49   50 1  
    50   50   51 1  
    51   50   53 1  
    52   51   52 2  
    53   51   54 am 
    54   54   55 1  
    55   55   56 1  
    56   55   58 1  
    57   56   57 2  
    58   56   65 am 
    59   58   59 1  
    60   59   60 1  
    61   60   61 1  
    62   61   62 ar 
    63   62   63 ar 
    64   62   64 ar 
    65   65   66 1  
    66   66   67 1  
    67   66   69 1  
    68   67   68 2  
    69   67   74 am 
    70   69   70 1  
    71   70   71 1  
    72   71   72 1  
    73   72   73 1  
    74   74   75 1  
    75   75   76 1  
    76   75   78 1  
    77   76   77 2  
    78   76   80 am 
    79   78   79 1  
    80   80   81 1  
    81   81   82 1  
    82   81   84 1  
    83   82   83 2  
    84   82   87 am 
    85   84   85 1  
    86   84   86 1  
    87   87   88 1  
    88   88   89 1  
    89   89   90 2  
    90   89   91 am 
    91   91   92 1  
    92   92   93 1  
    93   93   94 2  
    94   93   95 am 
    95   95   96 1  
    96   96   97 1  
    97   96  107 1  
    98   97   98 1  
    99   98   99 1  
   100   99  100 1  
   101  100  101 1  
   102  101  102 am 
   103  102  103 2  
   104  102  104 1  
   105  104  105 2  
   106  105  106 1  
   107  107  108 2  
   108  107  109 am 
   109  109  110 1  
   110  110  111 1  
   111  110  113 1  
   112  111  112 2  
   113  111  114 am 
   114  114  115 1  
   115  114  120 1  
   116  115  116 1  
   117  115  118 1  
   118  116  117 ar 
   119  116  121 ar 
   120  118  119 1  
   121  119  120 1  
   122    1  122 1  
   123    1  123 1  
   124    1  124 1  
   125    2  125 1  
   126    5  126 1  
   127    5  127 1  
   128    5  128 1  
   129    6  129 1  
   130    7  130 1  
   131   10  131 1  
   132   10  132 1  
   133   11  133 1  
   134   11  134 1  
   135   12  135 1  
   136   12  136 1  
   137   13  137 1  
   138   15  138 1  
   139   15  139 1  
   140   16  140 1  
   141   16  141 1  
   142   17  142 1  
   143   18  143 1  
   144   21  144 1  
   145   22  145 1  
   146   23  146 1  
   147   23  147 1  
   148   23  148 1  
   149   24  149 1  
   150   25  150 1  
   151   28  151 1  
   152   28  152 1  
   153   29  153 1  
   154   29  154 1  
   155   30  155 1  
   156   30  156 1  
   157   31  157 1  
   158   31  158 1  
   159   32  159 1  
   160   32  160 1  
   161   32  161 1  
   162   33  162 1  
   163   34  163 1  
   164   37  164 1  
   165   37  165 1  
   166   38  166 1  
   167   38  167 1  
   168   41  168 1  
   169   41  169 1  
   170   42  170 1  
   171   43  171 1  
   172   46  172 1  
   173   47  173 1  
   174   48  174 1  
   175   48  175 1  
   176   48  176 1  
   177   49  177 1  
   178   50  178 1  
   179   53  179 1  
   180   53  180 1  
   181   53  181 1  
   182   54  182 1  
   183   55  183 1  
   184   58  184 1  
   185   58  185 1  
   186   59  186 1  
   187   59  187 1  
   188   60  188 1  
   189   60  189 1  
   190   61  190 1  
   191   63  191 1  
   192   63  192 1  
   193   64  193 1  
   194   64  194 1  
   195   65  195 1  
   196   66  196 1  
   197   69  197 1  
   198   69  198 1  
   199   70  199 1  
   200   70  200 1  
   201   71  201 1  
   202   71  202 1  
   203   72  203 1  
   204   72  204 1  
   205   73  205 1  
   206   73  206 1  
   207   73  207 1  
   208   74  208 1  
   209   75  209 1  
   210   78  210 1  
   211   78  211 1  
   212   79  212 1  
   213   80  213 1  
   214   81  214 1  
   215   84  215 1  
   216   85  216 1  
   217   86  217 1  
   218   86  218 1  
   219   86  219 1  
   220   87  220 1  
   221   88  221 1  
   222   88  222 1  
   223   91  223 1  
   224   92  224 1  
   225   92  225 1  
   226   95  226 1  
   227   96  227 1  
   228   97  228 1  
   229   97  229 1  
   230   98  230 1  
   231   98  231 1  
   232   99  232 1  
   233   99  233 1  
   234  100  234 1  
   235  100  235 1  
   236  101  236 1  
   237  104  237 1  
   238  105  238 1  
   239  106  239 1  
   240  106  240 1  
   241  106  241 1  
   242  109  242 1  
   243  110  243 1  
   244  113  244 1  
   245  113  245 1  
   246  113  246 1  
   247  115  247 1  
   248  118  248 1  
   249  118  249 1  
   250  119  250 1  
   251  119  251 1  
   252  120  252 1  
   253  120  253 1  
@<TRIPOS>SUBSTRUCTURE
     1 ALA         1

