6oie_ligand
  -I-interpret- 

252252  0  0  0  0  0  0  0  0999 V2000
   99.5000  -17.2530   35.7480 N   0  3  0  0  0
  100.1980  -16.4190   34.7780 C   0  0  0  0  0
   99.9760  -14.9220   35.0240 C   0  0  0  0  0
   98.9840  -14.5250   35.6010 O   0  0  0  0  0
   99.7620  -16.7890   33.3560 C   0  0  0  0  0
  100.9230  -14.1060   34.5740 N   0  0  0  0  0
  100.8230  -12.6570   34.6640 C   0  0  0  0  0
  100.1230  -12.1290   33.4220 C   0  0  0  0  0
  100.3570  -12.6100   32.3090 O   0  0  0  0  0
  102.2070  -12.0190   34.7850 C   0  0  0  0  0
  102.9720  -12.4260   36.0540 C   0  0  0  0  0
  104.2990  -11.6990   36.1710 C   0  0  0  0  0
  105.1050  -11.8810   34.9660 N   0  0  0  0  0
  105.4130  -10.9050   34.1160 C   0  0  0  0  0
  105.0050   -9.6750   34.3630 N   0  0  0  0  0
  106.1550  -11.1560   33.0350 N   0  0  0  0  0
   99.2020  -11.2030   33.6200 N   0  0  0  0  0
   98.5140  -10.6030   32.4920 C   0  0  0  0  0
   98.7200   -9.1020   32.5500 C   0  0  0  0  0
   99.2310   -8.5620   33.5390 O   0  0  0  0  0
   97.0180  -10.9290   32.4920 C   0  0  0  0  0
   96.4110  -10.3710   33.6640 O   0  0  0  0  0
   96.8130  -12.4430   32.4720 C   0  0  0  0  0
   98.2570   -8.4220   31.4960 N   0  0  0  0  0
   98.3280   -6.9670   31.4920 C   0  0  0  0  0
   97.6140   -6.3850   32.6990 C   0  0  0  0  0
   98.0420   -5.3600   33.2420 O   0  0  0  0  0
   97.7240   -6.4130   30.1920 C   0  0  0  0  0
   97.7770   -4.8860   30.0860 C   0  0  0  0  0
   97.3620   -4.3740   28.7050 C   0  0  0  0  0
   98.3400   -4.8220   27.6350 C   0  0  0  0  0
   98.7200   -3.7610   26.6490 N   0  3  0  0  0
   96.5580   -7.0510   33.1590 N   0  0  0  0  0
   95.8090   -6.5890   34.3190 C   0  0  0  0  0
   96.5530   -6.8730   35.6210 C   0  0  0  0  0
   96.6780   -5.9850   36.4710 O   0  0  0  0  0
   94.4140   -7.2150   34.2980 C   0  0  0  0  0
   93.5010   -6.8400   35.4370 C   0  0  0  0  0
   92.0560   -7.0640   35.0500 C   0  0  0  0  0
   91.5360   -6.3740   34.1710 O   0  0  0  0  0
   91.4000   -8.0260   35.6890 N   0  0  0  0  0
   97.0630   -8.0990   35.7990 N   0  0  0  0  0
   97.7670   -8.4170   37.0430 C   0  0  0  0  0
   99.0180   -7.5550   37.2070 C   0  0  0  0  0
   99.3240   -7.0950   38.3140 O   0  0  0  0  0
   98.1350   -9.9080   37.1050 C   0  0  0  0  0
   99.2120  -10.2050   36.2020 O   0  0  0  0  0
   96.9360  -10.7780   36.7450 C   0  0  0  0  0
   99.7530   -7.3250   36.1150 N   0  0  0  0  0
  100.9540   -6.4950   36.1860 C   0  0  0  0  0
  100.6010   -5.0570   36.5490 C   0  0  0  0  0
  101.2370   -4.4480   37.4170 O   0  0  0  0  0
  101.7130   -6.5500   34.8630 C   0  0  0  0  0
   99.5810   -4.4980   35.8840 N   0  0  0  0  0
   99.1600   -3.1230   36.1500 C   0  0  0  0  0
   98.7870   -2.9290   37.6130 C   0  0  0  0  0
   99.1300   -1.9070   38.2180 O   0  0  0  0  0
   97.9740   -2.7670   35.2540 C   0  0  0  0  0
   97.7880   -1.3030   34.9900 C   0  0  0  0  0
   96.4500   -1.0660   34.3250 C   0  0  0  0  0
   96.5140   -1.2020   32.8730 N   0  0  0  0  0
   95.7620   -2.0430   32.1670 C   0  0  0  0  0
   94.8940   -2.8350   32.7830 N   0  0  0  0  0
   95.8760   -2.0940   30.8430 N   0  0  0  0  0
   98.0900   -3.8990   38.2060 N   0  0  0  0  0
   97.7590   -3.7850   39.6220 C   0  0  0  0  0
   98.9650   -4.0760   40.5070 C   0  0  0  0  0
   99.1550   -3.4140   41.5310 O   0  0  0  0  0
   96.6010   -4.7210   39.9710 C   0  0  0  0  0
   95.2510   -4.0160   40.0300 C   0  0  0  0  0
   94.1080   -4.9510   39.6690 C   0  0  0  0  0
   92.8930   -4.1720   39.1810 C   0  0  0  0  0
   93.2650   -3.0990   38.2150 N   0  3  0  0  0
   99.7940   -5.0510   40.1170 N   0  0  0  0  0
  100.9670   -5.4290   40.9050 C   0  0  0  0  0
  101.8750   -4.2370   41.1850 C   0  0  0  0  0
  102.4800   -4.1420   42.2590 O   0  0  0  0  0
  101.7390   -6.5300   40.1750 C   0  0  0  0  0
  103.0270   -6.7080   40.7260 O   0  0  0  0  0
  102.0230   -3.3430   40.2090 N   0  0  0  0  0
  102.8380   -2.1480   40.3760 C   0  0  0  0  0
  102.1290   -1.0440   41.1400 C   0  0  0  0  0
  102.7930   -0.1360   41.6470 O   0  0  0  0  0
  103.2460   -1.5930   39.0140 C   0  0  0  0  0
  102.1110   -0.9630   38.4090 O   0  0  0  0  0
  103.7480   -2.7120   38.1080 C   0  0  0  0  0
  100.8070   -1.0600   41.1820 N   0  0  0  0  0
  100.0760    0.1120   41.6020 C   0  0  0  0  0
  100.1210    1.1520   40.4960 C   0  0  0  0  0
  100.6570    0.9380   39.4100 O   0  0  0  0  0
   99.5580    2.3140   40.7960 N   0  0  0  0  0
   99.4950    3.3720   39.8060 C   0  0  0  0  0
  100.8230    4.0180   39.4540 C   0  0  0  0  0
  101.7810    3.9670   40.2250 O   0  0  0  0  0
  100.8760    4.6070   38.2660 N   0  0  0  0  0
  101.9050    5.5200   37.9220 C   0  0  0  0  0
  101.8080    5.9250   36.4580 C   0  0  0  0  0
  102.0550    4.7350   35.5390 C   0  0  0  0  0
  101.6070    5.0870   34.1200 C   0  0  0  0  0
  101.7770    3.8660   33.2020 C   0  0  0  0  0
  103.1600    3.8300   32.7970 N   0  0  0  0  0
  103.9570    2.6390   32.8240 C   0  0  0  0  0
  103.5030    1.5550   33.1460 O   0  0  0  0  0
  105.4080    2.7620   32.3870 C   0  0  0  0  0
  106.2530    1.7260   32.6000 C   0  0  0  0  0
  107.6940    1.8560   32.1670 C   0  0  0  0  0
  101.7500    6.7300   38.8310 C   0  0  0  0  0
  100.6160    7.0510   39.2650 O   0  0  0  0  0
  102.8390    7.4220   39.1360 N   0  0  0  0  0
  102.7320    8.6440   39.9290 C   0  0  0  0  0
  101.9110    9.7030   39.2030 C   0  0  0  0  0
  102.1010    9.9370   38.0130 O   0  0  0  0  0
  104.1140    9.1910   40.2610 C   0  0  0  0  0
  100.9780   10.3430   39.9160 N   0  0  0  0  0
  100.2520   11.4570   39.2980 C   0  0  0  0  0
  101.0780   12.7460   39.3040 C   0  0  0  0  0
  102.2450   12.7220   39.7130 O   0  0  0  0  0
   99.0080   11.5900   40.1750 C   0  0  0  0  0
   99.4180   11.0510   41.5040 C   0  0  0  0  0
  100.4680   10.0050   41.2560 C   0  0  0  0  0
  100.5700   13.7990   38.9000 O   0  0  0  0  0
   99.7974  -16.9985   36.6899 H   0  0  0  0  0
   98.4943  -17.1089   35.6572 H   0  0  0  0  0
   99.7214  -18.2333   35.5735 H   0  0  0  0  0
  101.2645  -16.6100   34.8974 H   0  0  0  0  0
   98.7042  -16.5580   33.2300 H   0  0  0  0  0
  100.3483  -16.2168   32.6371 H   0  0  0  0  0
   99.9244  -17.8545   33.1932 H   0  0  0  0  0
  101.7555  -14.5125   34.1473 H   0  0  0  0  0
  100.2506  -12.3995   35.5552 H   0  0  0  0  0
  102.0636  -10.9392   34.8254 H   0  0  0  0  0
  102.7945  -12.3552   33.9307 H   0  0  0  0  0
  103.1714  -13.4965   36.0048 H   0  0  0  0  0
  102.3621  -12.1664   36.9193 H   0  0  0  0  0
  104.8460  -12.1053   37.0218 H   0  0  0  0  0
  104.1038  -10.6348   36.3032 H   0  0  0  0  0
  105.4544  -12.8176   34.7632 H   0  0  0  0  0
  104.4575   -9.4778   35.2007 H   0  0  0  0  0
  106.4058  -10.3972   32.4012 H   0  0  0  0  0
  106.4711  -12.1066   32.8429 H   0  0  0  0  0
   98.9735  -10.9086   34.5695 H   0  0  0  0  0
   98.9284  -11.0135   31.5712 H   0  0  0  0  0
   96.5550  -10.5000   31.6034 H   0  0  0  0  0
   95.4729  -10.5748   33.6650 H   0  0  0  0  0
   97.2712  -12.8586   31.5745 H   0  0  0  0  0
   97.2765  -12.8828   33.3551 H   0  0  0  0  0
   95.7456  -12.6639   32.4722 H   0  0  0  0  0
   97.8568   -8.9187   30.7001 H   0  0  0  0  0
   99.3764   -6.6739   31.5474 H   0  0  0  0  0
   96.6736   -6.7035   30.1725 H   0  0  0  0  0
   98.3083   -6.8163   29.3649 H   0  0  0  0  0
   98.8064   -4.5742   30.2626 H   0  0  0  0  0
   97.0809   -4.4758   30.8176 H   0  0  0  0  0
   97.3480   -3.2843   28.7284 H   0  0  0  0  0
   96.3777   -4.7771   28.4666 H   0  0  0  0  0
   97.8513   -5.6172   27.0721 H   0  0  0  0  0
   99.2547   -5.1209   28.1470 H   0  0  0  0  0
   99.3763   -4.1481   25.9709 H   0  0  0  0  0
   97.8840   -3.4326   26.1656 H   0  0  0  0  0
   99.1577   -2.9822   27.1412 H   0  0  0  0  0
   96.2658   -7.9068   32.6871 H   0  0  0  0  0
   95.7026   -5.5054   34.2684 H   0  0  0  0  0
   94.5622   -8.2926   34.3680 H   0  0  0  0  0
   93.9317   -6.8548   33.3893 H   0  0  0  0  0
   93.6454   -5.7863   35.6757 H   0  0  0  0  0
   93.7376   -7.4611   36.3009 H   0  0  0  0  0
   90.4252   -8.2185   35.4586 H   0  0  0  0  0
   91.8710   -8.5723   36.4102 H   0  0  0  0  0
   96.9615   -8.8071   35.0719 H   0  0  0  0  0
   97.0890   -8.1953   37.8672 H   0  0  0  0  0
   98.4467  -10.1254   38.1266 H   0  0  0  0  0
   99.4254  -11.1394   36.2566 H   0  0  0  0  0
   96.1255  -10.5863   37.4481 H   0  0  0  0  0
   96.6058  -10.5391   35.7341 H   0  0  0  0  0
   97.2225  -11.8284   36.7963 H   0  0  0  0  0
   99.4731   -7.7328   35.2229 H   0  0  0  0  0
  101.5989   -6.8886   36.9717 H   0  0  0  0  0
  102.0026   -7.5799   34.6543 H   0  0  0  0  0
  101.0717   -6.1821   34.0621 H   0  0  0  0  0
  102.6049   -5.9271   34.9311 H   0  0  0  0  0
   99.0876   -5.0431   35.1771 H   0  0  0  0  0
   99.9972   -2.4608   35.9296 H   0  0  0  0  0
   97.0776   -3.1072   35.7726 H   0  0  0  0  0
   98.1598   -3.2373   34.2884 H   0  0  0  0  0
   98.5835   -0.9522   34.3326 H   0  0  0  0  0
   97.8213   -0.7601   35.9346 H   0  0  0  0  0
   96.1373   -0.0471   34.5534 H   0  0  0  0  0
   95.7509   -1.8126   34.7017 H   0  0  0  0  0
   97.1774   -0.6150   32.3672 H   0  0  0  0  0
   94.8027   -2.7996   33.7983 H   0  0  0  0  0
   95.2976   -2.7400   30.3058 H   0  0  0  0  0
   96.5419   -1.4872   30.3647 H   0  0  0  0  0
   97.7903   -4.7153   37.6729 H   0  0  0  0  0
   97.4540   -2.7558   39.8110 H   0  0  0  0  0
   96.7993   -5.1352   40.9595 H   0  0  0  0  0
   96.5428   -5.4781   39.1890 H   0  0  0  0  0
   95.2617   -3.1958   39.3122 H   0  0  0  0  0
   95.0943   -3.6616   41.0488 H   0  0  0  0  0
   93.8258   -5.5152   40.5579 H   0  0  0  0  0
   94.4399   -5.6145   38.8704 H   0  0  0  0  0
   92.4208   -3.7032   40.0443 H   0  0  0  0  0
   92.2240   -4.8679   38.6748 H   0  0  0  0  0
   92.4238   -2.6056   37.9162 H   0  0  0  0  0
   93.9030   -2.4434   38.6660 H   0  0  0  0  0
   93.7218   -3.5165   37.4042 H   0  0  0  0  0
   99.6026   -5.5449   39.2453 H   0  0  0  0  0
  100.6212   -5.8008   41.8695 H   0  0  0  0  0
  101.8466   -6.2423   39.1292 H   0  0  0  0  0
  101.1872   -7.4646   40.2755 H   0  0  0  0  0
  103.4850   -7.4033   40.2480 H   0  0  0  0  0
  101.5515   -3.5001   39.3182 H   0  0  0  0  0
  103.7088   -2.4577   40.9538 H   0  0  0  0  0
  104.0498   -0.8695   39.1507 H   0  0  0  0  0
  102.3609   -0.6115   37.5513 H   0  0  0  0  0
  104.6122   -3.1906   38.5686 H   0  0  0  0  0
  102.9557   -3.4473   37.9678 H   0  0  0  0  0
  104.0337   -2.2952   37.1422 H   0  0  0  0  0
  100.3013   -1.9050   40.9162 H   0  0  0  0  0
  100.5276    0.5201   42.5063 H   0  0  0  0  0
   99.0403   -0.1576   41.8086 H   0  0  0  0  0
   99.1678    2.4646   41.7263 H   0  0  0  0  0
   98.8707    4.1579   40.2311 H   0  0  0  0  0
   99.1185    2.9174   38.8896 H   0  0  0  0  0
  100.1531    4.3961   37.5780 H   0  0  0  0  0
  102.8846    5.0610   38.0558 H   0  0  0  0  0
  102.5646    6.6832   36.2561 H   0  0  0  0  0
  100.8052    6.3081   36.2689 H   0  0  0  0  0
  101.4884    3.8753   35.8967 H   0  0  0  0  0
  103.1177    4.4925   35.5354 H   0  0  0  0  0
  102.2162    5.9086   33.7432 H   0  0  0  0  0
  100.5579    5.3822   34.1362 H   0  0  0  0  0
  101.1234    3.9437   32.3332 H   0  0  0  0  0
  101.5054    2.9496   33.7261 H   0  0  0  0  0
  103.5932    4.6955   32.4751 H   0  0  0  0  0
  105.7639    3.6740   31.9076 H   0  0  0  0  0
  105.8988    0.8120   33.0767 H   0  0  0  0  0
  107.7348    2.0264   31.0912 H   0  0  0  0  0
  108.1539    2.6964   32.6870 H   0  0  0  0  0
  108.2297    0.9387   32.4114 H   0  0  0  0  0
  103.7528    7.1006   38.8165 H   0  0  0  0  0
  102.2198    8.3920   40.8576 H   0  0  0  0  0
  104.6704    8.4471   40.8312 H   0  0  0  0  0
  104.6464    9.4149   39.3366 H   0  0  0  0  0
  104.0108   10.1011   40.8520 H   0  0  0  0  0
  100.0204   11.2791   38.2479 H   0  0  0  0  0
   98.1598   11.0451   39.7607 H   0  0  0  0  0
   98.6691   12.6237   40.2438 H   0  0  0  0  0
   98.5623   10.6196   42.0233 H   0  0  0  0  0
   99.8117   11.8472   42.1357 H   0  0  0  0  0
  101.2504   10.0095   42.0149 H   0  0  0  0  0
  100.0698    8.9917   41.3088 H   0  0  0  0  0
   99.6661   13.6314   38.6235 H   0  0  0  0  0
  1  2  1  0  0  0
  2  3  1  0  0  0
  2  5  1  0  0  0
  3  4  2  0  0  0
  3  6  1  0  0  0
  6  7  1  0  0  0
  7  8  1  0  0  0
  7 10  1  0  0  0
  8  9  2  0  0  0
  8 17  1  0  0  0
 10 11  1  0  0  0
 11 12  1  0  0  0
 12 13  1  0  0  0
 13 14  1  0  0  0
 14 15  2  0  0  0
 14 16  1  0  0  0
 17 18  1  0  0  0
 18 19  1  0  0  0
 18 21  1  0  0  0
 19 20  2  0  0  0
 19 24  1  0  0  0
 21 22  1  0  0  0
 21 23  1  0  0  0
 24 25  1  0  0  0
 25 26  1  0  0  0
 25 28  1  0  0  0
 26 27  2  0  0  0
 26 33  1  0  0  0
 28 29  1  0  0  0
 29 30  1  0  0  0
 30 31  1  0  0  0
 31 32  1  0  0  0
 33 34  1  0  0  0
 34 35  1  0  0  0
 34 37  1  0  0  0
 35 36  2  0  0  0
 35 42  1  0  0  0
 37 38  1  0  0  0
 38 39  1  0  0  0
 39 40  2  0  0  0
 39 41  1  0  0  0
 42 43  1  0  0  0
 43 44  1  0  0  0
 43 46  1  0  0  0
 44 45  2  0  0  0
 44 49  1  0  0  0
 46 47  1  0  0  0
 46 48  1  0  0  0
 49 50  1  0  0  0
 50 51  1  0  0  0
 50 53  1  0  0  0
 51 52  2  0  0  0
 51 54  1  0  0  0
 54 55  1  0  0  0
 55 56  1  0  0  0
 55 58  1  0  0  0
 56 57  2  0  0  0
 56 65  1  0  0  0
 58 59  1  0  0  0
 59 60  1  0  0  0
 60 61  1  0  0  0
 61 62  1  0  0  0
 62 63  2  0  0  0
 62 64  1  0  0  0
 65 66  1  0  0  0
 66 67  1  0  0  0
 66 69  1  0  0  0
 67 68  2  0  0  0
 67 74  1  0  0  0
 69 70  1  0  0  0
 70 71  1  0  0  0
 71 72  1  0  0  0
 72 73  1  0  0  0
 74 75  1  0  0  0
 75 76  1  0  0  0
 75 78  1  0  0  0
 76 77  2  0  0  0
 76 80  1  0  0  0
 78 79  1  0  0  0
 80 81  1  0  0  0
 81 82  1  0  0  0
 81 84  1  0  0  0
 82 83  2  0  0  0
 82 87  1  0  0  0
 84 85  1  0  0  0
 84 86  1  0  0  0
 87 88  1  0  0  0
 88 89  1  0  0  0
 89 90  2  0  0  0
 89 91  1  0  0  0
 91 92  1  0  0  0
 92 93  1  0  0  0
 93 94  2  0  0  0
 93 95  1  0  0  0
 95 96  1  0  0  0
 96 97  1  0  0  0
 96107  1  0  0  0
 97 98  1  0  0  0
 98 99  1  0  0  0
 99100  1  0  0  0
100101  1  0  0  0
101102  1  0  0  0
102103  2  0  0  0
102104  1  0  0  0
104105  2  0  0  0
105106  1  0  0  0
107108  2  0  0  0
107109  1  0  0  0
109110  1  0  0  0
110111  1  0  0  0
110113  1  0  0  0
111112  2  0  0  0
111114  1  0  0  0
114115  1  0  0  0
114120  1  0  0  0
115116  1  0  0  0
115118  1  0  0  0
116117  2  0  0  0
116121  1  0  0  0
118119  1  0  0  0
119120  1  0  0  0
  1122  1  0  0  0
  1123  1  0  0  0
  1124  1  0  0  0
  2125  1  0  0  0
  5126  1  0  0  0
  5127  1  0  0  0
  5128  1  0  0  0
  6129  1  0  0  0
  7130  1  0  0  0
 10131  1  0  0  0
 10132  1  0  0  0
 11133  1  0  0  0
 11134  1  0  0  0
 12135  1  0  0  0
 12136  1  0  0  0
 13137  1  0  0  0
 15138  1  0  0  0
 16139  1  0  0  0
 16140  1  0  0  0
 17141  1  0  0  0
 18142  1  0  0  0
 21143  1  0  0  0
 22144  1  0  0  0
 23145  1  0  0  0
 23146  1  0  0  0
 23147  1  0  0  0
 24148  1  0  0  0
 25149  1  0  0  0
 28150  1  0  0  0
 28151  1  0  0  0
 29152  1  0  0  0
 29153  1  0  0  0
 30154  1  0  0  0
 30155  1  0  0  0
 31156  1  0  0  0
 31157  1  0  0  0
 32158  1  0  0  0
 32159  1  0  0  0
 32160  1  0  0  0
 33161  1  0  0  0
 34162  1  0  0  0
 37163  1  0  0  0
 37164  1  0  0  0
 38165  1  0  0  0
 38166  1  0  0  0
 41167  1  0  0  0
 41168  1  0  0  0
 42169  1  0  0  0
 43170  1  0  0  0
 46171  1  0  0  0
 47172  1  0  0  0
 48173  1  0  0  0
 48174  1  0  0  0
 48175  1  0  0  0
 49176  1  0  0  0
 50177  1  0  0  0
 53178  1  0  0  0
 53179  1  0  0  0
 53180  1  0  0  0
 54181  1  0  0  0
 55182  1  0  0  0
 58183  1  0  0  0
 58184  1  0  0  0
 59185  1  0  0  0
 59186  1  0  0  0
 60187  1  0  0  0
 60188  1  0  0  0
 61189  1  0  0  0
 63190  1  0  0  0
 64191  1  0  0  0
 64192  1  0  0  0
 65193  1  0  0  0
 66194  1  0  0  0
 69195  1  0  0  0
 69196  1  0  0  0
 70197  1  0  0  0
 70198  1  0  0  0
 71199  1  0  0  0
 71200  1  0  0  0
 72201  1  0  0  0
 72202  1  0  0  0
 73203  1  0  0  0
 73204  1  0  0  0
 73205  1  0  0  0
 74206  1  0  0  0
 75207  1  0  0  0
 78208  1  0  0  0
 78209  1  0  0  0
 79210  1  0  0  0
 80211  1  0  0  0
 81212  1  0  0  0
 84213  1  0  0  0
 85214  1  0  0  0
 86215  1  0  0  0
 86216  1  0  0  0
 86217  1  0  0  0
 87218  1  0  0  0
 88219  1  0  0  0
 88220  1  0  0  0
 91221  1  0  0  0
 92222  1  0  0  0
 92223  1  0  0  0
 95224  1  0  0  0
 96225  1  0  0  0
 97226  1  0  0  0
 97227  1  0  0  0
 98228  1  0  0  0
 98229  1  0  0  0
 99230  1  0  0  0
 99231  1  0  0  0
100232  1  0  0  0
100233  1  0  0  0
101234  1  0  0  0
104235  1  0  0  0
105236  1  0  0  0
106237  1  0  0  0
106238  1  0  0  0
106239  1  0  0  0
109240  1  0  0  0
110241  1  0  0  0
113242  1  0  0  0
113243  1  0  0  0
113244  1  0  0  0
115245  1  0  0  0
118246  1  0  0  0
118247  1  0  0  0
119248  1  0  0  0
119249  1  0  0  0
120250  1  0  0  0
120251  1  0  0  0
121252  1  0  0  0
M  END
$$$$
