### 
### Created by X-TOOL on Mon Sep 10 21:13:13 2018
### 

@<TRIPOS>MOLECULE
4fgx_ligand
  126   127     1     0     0
SMALL
GAST_HUCK


@<TRIPOS>ATOM
      1 C          21.3800   16.7130    1.1440 C.2       1 2OP         0.2069
      2 O          21.1030   17.0460   -0.0060 O.2       1 2OP        -0.3941
      3 CB         20.9850   14.2350    1.1100 C.3       1 2OP        -0.0214
      4 OHN        22.3600   15.1540    2.7420 O.3       1 2OP        -0.3717
      5 CA         21.9740   15.3340    1.4300 C.3       1 2OP         0.1409
      6 N          21.1310   17.6470    2.2400 N.am      1 VAL        -0.2632
      7 CA         20.5790   18.9320    1.9190 C.3       1 VAL         0.1334
      8 C          21.7130   19.9330    1.8040 C.2       1 VAL         0.2064
      9 O          22.7180   19.8230    2.4970 O.2       1 VAL        -0.3942
     10 CB         19.5480   19.4690    2.9320 C.3       1 VAL        -0.0062
     11 CG1        18.1970   18.8320    2.6850 C.3       1 VAL        -0.0584
     12 CG2        19.9900   19.2380    4.3570 C.3       1 VAL        -0.0584
     13 C1         20.4350   21.1720   -0.0040 C.3       1 GNC         0.0254
     14 NE2        26.3720   21.7000   -1.8180 N.am      1 GNC        -0.3009
     15 OE1        26.9520   20.0950   -0.2050 O.2       1 GNC        -0.3973
     16 O          22.1570   24.0390   -0.4240 O.2       1 GNC        -0.3945
     17 CG         25.0810   21.4830    0.4220 C.3       1 GNC         0.0412
     18 CB         23.7470   21.6240   -0.3160 C.3       1 GNC         0.0047
     19 CD         26.2040   21.0210   -0.5250 C.2       1 GNC         0.1737
     20 C          22.1220   23.3820    0.6110 C.2       1 GNC         0.2025
     21 CA         22.7110   21.9750    0.7490 C.3       1 GNC         0.1353
     22 N          21.6040   21.0200    0.8430 N.am      1 GNC        -0.2527
     23 N          21.4620   23.8820    1.8270 N.am      1 PSA        -0.2774
     24 CA         20.8470   25.2170    1.8550 C.3       1 PSA         0.0795
     25 CB         19.4960   25.1580    2.4810 C.3       1 PSA         0.0065
     26 CG         18.6280   24.1730    1.7100 C.ar      1 PSA        -0.0408
     27 CD1        18.5080   24.2800    0.2380 C.ar      1 PSA        -0.0603
     28 CD2        17.8830   23.0930    2.4430 C.ar      1 PSA        -0.0603
     29 CE1        17.6400   23.3080   -0.5200 C.ar      1 PSA        -0.0686
     30 CE2        17.0150   22.1260    1.6880 C.ar      1 PSA        -0.0686
     31 CZ         16.8960   22.2360    0.2130 C.ar      1 PSA        -0.0687
     32 CH         21.7620   26.0810    2.6930 C.3       1 PSA         0.0965
     33 OH         21.9110   25.6310    4.0110 O.3       1 PSA        -0.3870
     34 CM         23.0290   26.5150    1.9460 C.3       1 PSA         0.0657
     35 C          22.6970   27.6160    0.9120 C.2       1 PSA         0.1808
     36 O          22.4200   27.3400   -0.2410 O.2       1 PSA        -0.3968
     37 N          22.6890   29.0310    1.3460 N.am      1 LEU        -0.2655
     38 CA         22.3740   30.0830    0.3940 C.3       1 LEU         0.1311
     39 C          23.5080   30.1570   -0.6240 C.2       1 LEU         0.2039
     40 O          24.6730   29.9720   -0.2860 O.2       1 LEU        -0.3944
     41 CB         22.1490   31.3490    1.1710 C.3       1 LEU        -0.0101
     42 CG         21.7760   32.5240    0.3020 C.3       1 LEU        -0.0425
     43 CD1        20.3520   32.4160   -0.1380 C.3       1 LEU        -0.0625
     44 CD2        21.9130   33.7770    1.1310 C.3       1 LEU        -0.0625
     45 N          23.1960   30.4400   -2.0180 N.am      1 ALA        -0.2640
     46 CA         24.3150   30.5190   -2.9660 C.3       1 ALA         0.1283
     47 C          25.2030   31.6480   -2.4900 C.2       1 ALA         0.2054
     48 O          24.6940   32.6600   -2.0070 O.2       1 ALA        -0.3942
     49 CB         23.8290   30.8160   -4.3520 C.3       1 ALA        -0.0244
     50 N          26.6890   31.5870   -2.5650 N.am      1 ZAE        -0.2568
     51 CA         27.4080   32.7540   -2.0780 C.3       1 ZAE         0.1063
     52 C          28.4590   32.3220   -1.1340 C.2       1 ZAE         0.0623
     53 O          29.6500   32.6810   -1.3240 O.co2     1 ZAE        -0.5664
     54 OXT        28.1480   31.6080   -0.1320 O.co2     1 ZAE        -0.5664
     55 CB         27.9230   33.5600   -3.2530 C.3       1 ZAE         0.0161
     56 CG         26.7150   33.7330   -4.1990 C.ar      1 ZAE        -0.0392
     57 CD1        25.7080   34.7840   -3.9170 C.ar      1 ZAE        -0.0602
     58 CD2        26.5370   32.8130   -5.3950 C.ar      1 ZAE        -0.0602
     59 CE1        24.5120   34.9520   -4.8190 C.ar      1 ZAE        -0.0686
     60 CE2        25.3490   32.9870   -6.2970 C.ar      1 ZAE        -0.0686
     61 CZ         24.3400   34.0480   -6.0160 C.ar      1 ZAE        -0.0687
     62 C10        27.3950   30.4330   -3.1210 C.3       1 ZAE         0.0249
     63 H1         21.4408   13.2574    1.3257 H         1 2OP         0.0279
     64 H2         20.7124   14.2855    0.0455 H         1 2OP         0.0279
     65 H3         20.0827   14.3628    1.7261 H         1 2OP         0.0279
     66 H4         21.5976   15.2112    3.3059 H         1 2OP         0.2133
     67 H5         22.8595   15.2150    0.7884 H         1 2OP         0.0834
     68 H6         21.3392   17.3979    3.1859 H         1 VAL         0.1883
     69 H7         20.0770   18.8465    0.9440 H         1 VAL         0.0803
     70 H8         19.4518   20.5539    2.7782 H         1 VAL         0.0343
     71 H9         17.4695   19.2216    3.4123 H         1 VAL         0.0234
     72 H10        18.2799   17.7410    2.7978 H         1 VAL         0.0234
     73 H11        17.8599   19.0707    1.6655 H         1 VAL         0.0234
     74 H12        20.9719   19.7074    4.5170 H         1 VAL         0.0234
     75 H13        20.0650   18.1571    4.5470 H         1 VAL         0.0234
     76 H14        19.2553   19.6812    5.0453 H         1 VAL         0.0234
     77 H15        19.7190   20.3651    0.2111 H         1 GNC         0.0488
     78 H16        20.7383   21.1212   -1.0601 H         1 GNC         0.0488
     79 H17        19.9618   22.1448    0.1952 H         1 GNC         0.0488
     80 H18        25.7618   22.4506   -2.0716 H         1 GNC         0.1814
     81 H19        27.0965   21.4113   -2.4439 H         1 GNC         0.1814
     82 H20        24.9669   20.7437    1.2285 H         1 GNC         0.0504
     83 H21        25.3555   22.4569    0.8534 H         1 GNC         0.0504
     84 H22        23.4816   20.6776   -0.8098 H         1 GNC         0.0337
     85 H23        23.8088   22.4249   -1.0674 H         1 GNC         0.0337
     86 H24        23.2453   21.9434    1.7100 H         1 GNC         0.0803
     87 H25        21.4313   23.3068    2.6444 H         1 PSA         0.1857
     88 H26        20.7636   25.6208    0.8352 H         1 PSA         0.0606
     89 H27        19.0337   26.1557    2.4526 H         1 PSA         0.0449
     90 H28        19.5890   24.8265    3.5257 H         1 PSA         0.0449
     91 H29        19.0442   25.0572   -0.2945 H         1 PSA         0.0557
     92 H30        17.9721   23.0112    3.5202 H         1 PSA         0.0557
     93 H31        17.5546   23.3857   -1.5978 H         1 PSA         0.0599
     94 H32        16.4769   21.3497    2.2199 H         1 PSA         0.0599
     95 H33        16.2702   21.5399   -0.3337 H         1 PSA         0.0559
     96 H34        21.2045   27.0218    2.8117 H         1 PSA         0.0643
     97 H35        22.4950   26.2154    4.4799 H         1 PSA         0.2101
     98 H36        23.4576   25.6463    1.4249 H         1 PSA         0.0529
     99 H37        23.7598   26.9060    2.6692 H         1 PSA         0.0529
    100 H38        22.9006   29.2634    2.2953 H         1 LEU         0.1883
    101 H39        21.4454   29.8338   -0.1404 H         1 LEU         0.0800
    102 H40        23.0741   31.5953    1.7128 H         1 LEU         0.0315
    103 H41        21.3366   31.1763    1.8922 H         1 LEU         0.0315
    104 H42        22.4383   32.5683   -0.5752 H         1 LEU         0.0298
    105 H43        20.0970   33.2796   -0.7698 H         1 LEU         0.0232
    106 H44        19.6956   32.4009    0.7446 H         1 LEU         0.0232
    107 H45        20.2151   31.4881   -0.7127 H         1 LEU         0.0232
    108 H46        22.9547   33.8811    1.4687 H         1 LEU         0.0232
    109 H47        21.2488   33.7126    2.0054 H         1 LEU         0.0232
    110 H48        21.6356   34.6509    0.5233 H         1 LEU         0.0232
    111 H49        22.2522   30.5759   -2.3194 H         1 ALA         0.1883
    112 H50        24.8721   29.5705   -2.9698 H         1 ALA         0.0797
    113 H51        24.6873   30.8690   -5.0380 H         1 ALA         0.0277
    114 H52        23.2968   31.7787   -4.3556 H         1 ALA         0.0277
    115 H53        23.1463   30.0183   -4.6800 H         1 ALA         0.0277
    116 H54        26.7039   33.3910   -1.5225 H         1 ZAE         0.0751
    117 H55        28.7352   33.0206   -3.7622 H         1 ZAE         0.0467
    118 H56        28.2895   34.5405   -2.9150 H         1 ZAE         0.0467
    119 H57        25.8323   35.4343   -3.0587 H         1 ZAE         0.0557
    120 H58        27.2641   32.0347   -5.5963 H         1 ZAE         0.0557
    121 H59        23.7768   35.7204   -4.6087 H         1 ZAE         0.0599
    122 H60        25.2245   32.3381   -7.1564 H         1 ZAE         0.0599
    123 H61        23.4842   34.1702   -6.6701 H         1 ZAE         0.0559
    124 H62        26.6650   29.6688   -3.4263 H         1 ZAE         0.0487
    125 H63        28.0684   30.0132   -2.3592 H         1 ZAE         0.0487
    126 H64        27.9824   30.7490   -3.9957 H         1 ZAE         0.0487
@<TRIPOS>BOND
     1    1    2 2  
     2    1    5 1  
     3    6    1 am 
     4    5    3 1  
     5    5    4 1  
     6    7    6 1  
     7    8    7 1  
     8    7   10 1  
     9    8    9 2  
    10   22    8 am 
    11   10   11 1  
    12   10   12 1  
    13   22   13 1  
    14   19   14 am 
    15   19   15 2  
    16   20   16 2  
    17   18   17 1  
    18   17   19 1  
    19   21   18 1  
    20   21   20 1  
    21   20   23 am 
    22   21   22 1  
    23   23   24 1  
    24   24   25 1  
    25   24   32 1  
    26   25   26 1  
    27   26   27 ar 
    28   26   28 ar 
    29   27   29 ar 
    30   28   30 ar 
    31   29   31 ar 
    32   30   31 ar 
    33   32   33 1  
    34   32   34 1  
    35   34   35 1  
    36   35   36 2  
    37   35   37 am 
    38   37   38 1  
    39   38   39 1  
    40   38   41 1  
    41   39   40 2  
    42   39   45 am 
    43   41   42 1  
    44   42   43 1  
    45   42   44 1  
    46   45   46 1  
    47   46   47 1  
    48   46   49 1  
    49   47   48 2  
    50   47   50 am 
    51   50   51 1  
    52   50   62 1  
    53   51   52 1  
    54   51   55 1  
    55   52   53 ar 
    56   52   54 ar 
    57   55   56 1  
    58   56   57 ar 
    59   56   58 ar 
    60   57   59 ar 
    61   58   60 ar 
    62   59   61 ar 
    63   60   61 ar 
    64    3   63 1  
    65    3   64 1  
    66    3   65 1  
    67    4   66 1  
    68    5   67 1  
    69    6   68 1  
    70    7   69 1  
    71   10   70 1  
    72   11   71 1  
    73   11   72 1  
    74   11   73 1  
    75   12   74 1  
    76   12   75 1  
    77   12   76 1  
    78   13   77 1  
    79   13   78 1  
    80   13   79 1  
    81   14   80 1  
    82   14   81 1  
    83   17   82 1  
    84   17   83 1  
    85   18   84 1  
    86   18   85 1  
    87   21   86 1  
    88   23   87 1  
    89   24   88 1  
    90   25   89 1  
    91   25   90 1  
    92   27   91 1  
    93   28   92 1  
    94   29   93 1  
    95   30   94 1  
    96   31   95 1  
    97   32   96 1  
    98   33   97 1  
    99   34   98 1  
   100   34   99 1  
   101   37  100 1  
   102   38  101 1  
   103   41  102 1  
   104   41  103 1  
   105   42  104 1  
   106   43  105 1  
   107   43  106 1  
   108   43  107 1  
   109   44  108 1  
   110   44  109 1  
   111   44  110 1  
   112   45  111 1  
   113   46  112 1  
   114   49  113 1  
   115   49  114 1  
   116   49  115 1  
   117   51  116 1  
   118   55  117 1  
   119   55  118 1  
   120   57  119 1  
   121   58  120 1  
   122   59  121 1  
   123   60  122 1  
   124   61  123 1  
   125   62  124 1  
   126   62  125 1  
   127   62  126 1  
@<TRIPOS>SUBSTRUCTURE
     1 2OP         1

