4fgx_ligand
  -I-interpret- 

127128  0  0  0  0  0  0  0  0999 V2000
   21.3800   16.7130    1.1440 C   0  0  0  0  0
   21.1030   17.0460   -0.0060 O   0  0  0  0  0
   20.9850   14.2350    1.1100 C   0  0  0  0  0
   22.3600   15.1540    2.7420 O   0  0  0  0  0
   21.9740   15.3340    1.4300 C   0  0  0  0  0
   21.1310   17.6470    2.2400 N   0  0  0  0  0
   20.5790   18.9320    1.9190 C   0  0  0  0  0
   21.7130   19.9330    1.8040 C   0  0  0  0  0
   22.7180   19.8230    2.4970 O   0  0  0  0  0
   19.5480   19.4690    2.9320 C   0  0  0  0  0
   18.1970   18.8320    2.6850 C   0  0  0  0  0
   19.9900   19.2380    4.3570 C   0  0  0  0  0
   20.4350   21.1720   -0.0040 C   0  0  0  0  0
   26.3720   21.7000   -1.8180 N   0  0  0  0  0
   26.9520   20.0950   -0.2050 O   0  0  0  0  0
   22.1570   24.0390   -0.4240 O   0  0  0  0  0
   25.0810   21.4830    0.4220 C   0  0  0  0  0
   23.7470   21.6240   -0.3160 C   0  0  0  0  0
   26.2040   21.0210   -0.5250 C   0  0  0  0  0
   22.1220   23.3820    0.6110 C   0  0  0  0  0
   22.7110   21.9750    0.7490 C   0  0  0  0  0
   21.6040   21.0200    0.8430 N   0  0  0  0  0
   21.4620   23.8820    1.8270 N   0  0  0  0  0
   20.8470   25.2170    1.8550 C   0  0  0  0  0
   19.4960   25.1580    2.4810 C   0  0  0  0  0
   18.6280   24.1730    1.7100 C   0  0  0  0  0
   18.5080   24.2800    0.2380 C   0  0  0  0  0
   17.8830   23.0930    2.4430 C   0  0  0  0  0
   17.6400   23.3080   -0.5200 C   0  0  0  0  0
   17.0150   22.1260    1.6880 C   0  0  0  0  0
   16.8960   22.2360    0.2130 C   0  0  0  0  0
   21.7620   26.0810    2.6930 C   0  0  0  0  0
   21.9110   25.6310    4.0110 O   0  0  0  0  0
   23.0290   26.5150    1.9460 C   0  0  0  0  0
   22.6970   27.6160    0.9120 C   0  0  0  0  0
   22.4200   27.3400   -0.2410 O   0  0  0  0  0
   22.6890   29.0310    1.3460 N   0  0  0  0  0
   22.3740   30.0830    0.3940 C   0  0  0  0  0
   23.5080   30.1570   -0.6240 C   0  0  0  0  0
   24.6730   29.9720   -0.2860 O   0  0  0  0  0
   22.1490   31.3490    1.1710 C   0  0  0  0  0
   21.7760   32.5240    0.3020 C   0  0  0  0  0
   20.3520   32.4160   -0.1380 C   0  0  0  0  0
   21.9130   33.7770    1.1310 C   0  0  0  0  0
   23.1960   30.4400   -2.0180 N   0  0  0  0  0
   24.3150   30.5190   -2.9660 C   0  0  0  0  0
   25.2030   31.6480   -2.4900 C   0  0  0  0  0
   24.6940   32.6600   -2.0070 O   0  0  0  0  0
   23.8290   30.8160   -4.3520 C   0  0  0  0  0
   26.6890   31.5870   -2.5650 N   0  0  0  0  0
   27.4080   32.7540   -2.0780 C   0  0  0  0  0
   28.4590   32.3220   -1.1340 C   0  0  0  0  0
   29.6500   32.6810   -1.3240 O   0  0  0  0  0
   28.1480   31.6080   -0.1320 O   0  0  0  0  0
   27.9230   33.5600   -3.2530 C   0  0  0  0  0
   26.7150   33.7330   -4.1990 C   0  0  0  0  0
   25.7080   34.7840   -3.9170 C   0  0  0  0  0
   26.5370   32.8130   -5.3950 C   0  0  0  0  0
   24.5120   34.9520   -4.8190 C   0  0  0  0  0
   25.3490   32.9870   -6.2970 C   0  0  0  0  0
   24.3400   34.0480   -6.0160 C   0  0  0  0  0
   27.3950   30.4330   -3.1210 C   0  0  0  0  0
   21.4654   13.2656    1.2429 H   0  0  0  0  0
   20.1286   14.3123    1.7798 H   0  0  0  0  0
   20.6509   14.3379    0.0776 H   0  0  0  0  0
   22.9911   15.8354    2.9851 H   0  0  0  0  0
   22.8557   15.2817    0.7912 H   0  0  0  0  0
   21.3433   17.3930    3.2048 H   0  0  0  0  0
   20.0389   18.8008    0.9813 H   0  0  0  0  0
   19.4673   20.5464    2.7874 H   0  0  0  0  0
   17.8642   19.0692    1.6745 H   0  0  0  0  0
   18.2805   17.7510    2.7970 H   0  0  0  0  0
   17.4771   19.2188    3.4062 H   0  0  0  0  0
   20.1147   18.1688    4.5286 H   0  0  0  0  0
   20.9378   19.7479    4.5293 H   0  0  0  0  0
   19.2354   19.6310    5.0384 H   0  0  0  0  0
   20.3174   20.2818   -0.6219 H   0  0  0  0  0
   19.5506   21.3025    0.6196 H   0  0  0  0  0
   20.5623   22.0455   -0.6435 H   0  0  0  0  0
   27.1110   21.4055   -2.4565 H   0  0  0  0  0
   25.7496   22.4656   -2.0767 H   0  0  0  0  0
   24.9635   20.7370    1.2080 H   0  0  0  0  0
   25.3533   22.4557    0.8317 H   0  0  0  0  0
   23.4834   20.7019   -0.8340 H   0  0  0  0  0
   23.8006   22.3959   -1.0838 H   0  0  0  0  0
   23.2967   21.9282    1.6671 H   0  0  0  0  0
   21.4307   23.2953    2.6608 H   0  0  0  0  0
   20.7237   25.6139    0.8473 H   0  0  0  0  0
   19.0379   26.1467    2.4550 H   0  0  0  0  0
   19.5873   24.8313    3.5169 H   0  0  0  0  0
   19.0472   25.0615   -0.2975 H   0  0  0  0  0
   17.9726   23.0108    3.5262 H   0  0  0  0  0
   17.5541   23.3861   -1.6038 H   0  0  0  0  0
   16.4739   21.3454    2.2228 H   0  0  0  0  0
   16.2667   21.5360   -0.3367 H   0  0  0  0  0
   21.2517   27.0314    2.8495 H   0  0  0  0  0
   22.5012   26.2216    4.4848 H   0  0  0  0  0
   23.4457   25.6532    1.4246 H   0  0  0  0  0
   23.7469   26.9092    2.6652 H   0  0  0  0  0
   22.9048   29.2681    2.3143 H   0  0  0  0  0
   21.4628   29.8948   -0.1739 H   0  0  0  0  0
   23.0829   31.5960    1.6759 H   0  0  0  0  0
   21.3214   31.1714    1.8578 H   0  0  0  0  0
   22.4241   32.5459   -0.5741 H   0  0  0  0  0
   20.2177   31.4962   -0.7072 H   0  0  0  0  0
   19.7027   32.4011    0.7374 H   0  0  0  0  0
   20.1005   33.2722   -0.7640 H   0  0  0  0  0
   21.2462   33.7168    1.9911 H   0  0  0  0  0
   22.9431   33.8732    1.4743 H   0  0  0  0  0
   21.6484   34.6431    0.5245 H   0  0  0  0  0
   22.2334   30.5786   -2.3255 H   0  0  0  0  0
   24.8478   29.5688   -3.0034 H   0  0  0  0  0
   23.1526   30.0250   -4.6758 H   0  0  0  0  0
   23.3018   31.7700   -4.3542 H   0  0  0  0  0
   24.6803   30.8683   -5.0307 H   0  0  0  0  0
   26.7490   33.4196   -1.5205 H   0  0  0  0  0
   27.2045   31.4313   -0.1469 H   0  0  0  0  0
   28.7501   33.0543   -3.7512 H   0  0  0  0  0
   28.3192   34.5235   -2.9323 H   0  0  0  0  0
   25.8330   35.4379   -3.0539 H   0  0  0  0  0
   27.2682   32.0304   -5.5974 H   0  0  0  0  0
   23.7728   35.7246   -4.6075 H   0  0  0  0  0
   25.2238   32.3346   -7.1611 H   0  0  0  0  0
   23.4795   34.1709   -6.6737 H   0  0  0  0  0
   27.1452   29.5430   -2.5434 H   0  0  0  0  0
   27.0944   30.2903   -4.1590 H   0  0  0  0  0
   28.4697   30.6087   -3.0736 H   0  0  0  0  0
  1  2  2  0  0  0
  1  5  1  0  0  0
  6  1  1  0  0  0
  5  3  1  0  0  0
  5  4  1  0  0  0
  7  6  1  0  0  0
  8  7  1  0  0  0
  7 10  1  0  0  0
  8  9  2  0  0  0
 22  8  1  0  0  0
 10 11  1  0  0  0
 10 12  1  0  0  0
 22 13  1  0  0  0
 19 14  1  0  0  0
 19 15  2  0  0  0
 20 16  2  0  0  0
 18 17  1  0  0  0
 17 19  1  0  0  0
 21 18  1  0  0  0
 21 20  1  0  0  0
 20 23  1  0  0  0
 21 22  1  0  0  0
 23 24  1  0  0  0
 24 25  1  0  0  0
 24 32  1  0  0  0
 25 26  1  0  0  0
 26 27  4  0  0  0
 26 28  4  0  0  0
 27 29  4  0  0  0
 28 30  4  0  0  0
 29 31  4  0  0  0
 30 31  4  0  0  0
 32 33  1  0  0  0
 32 34  1  0  0  0
 34 35  1  0  0  0
 35 36  2  0  0  0
 35 37  1  0  0  0
 37 38  1  0  0  0
 38 39  1  0  0  0
 38 41  1  0  0  0
 39 40  2  0  0  0
 39 45  1  0  0  0
 41 42  1  0  0  0
 42 43  1  0  0  0
 42 44  1  0  0  0
 45 46  1  0  0  0
 46 47  1  0  0  0
 46 49  1  0  0  0
 47 48  2  0  0  0
 47 50  1  0  0  0
 50 51  1  0  0  0
 50 62  1  0  0  0
 51 52  1  0  0  0
 51 55  1  0  0  0
 52 53  2  0  0  0
 52 54  1  0  0  0
 55 56  1  0  0  0
 56 57  4  0  0  0
 56 58  4  0  0  0
 57 59  4  0  0  0
 58 60  4  0  0  0
 59 61  4  0  0  0
 60 61  4  0  0  0
  3 63  1  0  0  0
  3 64  1  0  0  0
  3 65  1  0  0  0
  4 66  1  0  0  0
  5 67  1  0  0  0
  6 68  1  0  0  0
  7 69  1  0  0  0
 10 70  1  0  0  0
 11 71  1  0  0  0
 11 72  1  0  0  0
 11 73  1  0  0  0
 12 74  1  0  0  0
 12 75  1  0  0  0
 12 76  1  0  0  0
 13 77  1  0  0  0
 13 78  1  0  0  0
 13 79  1  0  0  0
 14 80  1  0  0  0
 14 81  1  0  0  0
 17 82  1  0  0  0
 17 83  1  0  0  0
 18 84  1  0  0  0
 18 85  1  0  0  0
 21 86  1  0  0  0
 23 87  1  0  0  0
 24 88  1  0  0  0
 25 89  1  0  0  0
 25 90  1  0  0  0
 27 91  1  0  0  0
 28 92  1  0  0  0
 29 93  1  0  0  0
 30 94  1  0  0  0
 31 95  1  0  0  0
 32 96  1  0  0  0
 33 97  1  0  0  0
 34 98  1  0  0  0
 34 99  1  0  0  0
 37100  1  0  0  0
 38101  1  0  0  0
 41102  1  0  0  0
 41103  1  0  0  0
 42104  1  0  0  0
 43105  1  0  0  0
 43106  1  0  0  0
 43107  1  0  0  0
 44108  1  0  0  0
 44109  1  0  0  0
 44110  1  0  0  0
 45111  1  0  0  0
 46112  1  0  0  0
 49113  1  0  0  0
 49114  1  0  0  0
 49115  1  0  0  0
 51116  1  0  0  0
 54117  1  0  0  0
 55118  1  0  0  0
 55119  1  0  0  0
 57120  1  0  0  0
 58121  1  0  0  0
 59122  1  0  0  0
 60123  1  0  0  0
 61124  1  0  0  0
 62125  1  0  0  0
 62126  1  0  0  0
 62127  1  0  0  0
M  END
$$$$
