2xk7_ligand
  -I-interpret- 

 58 60  0  0  0  0  0  0  0  0999 V2000
  -26.5980   22.7870  -14.3120 C   0  0  0  0  0
  -25.7130   21.7020  -13.6960 C   0  0  0  0  0
  -24.7020   21.0100  -14.6250 C   0  0  0  0  0
  -25.0880   20.7770  -16.0920 C   0  0  0  0  0
  -24.8130   22.0050  -16.8080 N   0  0  0  0  0
  -25.2160   22.2750  -18.2250 C   0  0  0  0  0
  -25.8490   21.2130  -18.9070 N   0  0  0  0  0
  -26.3000   21.3680  -20.2200 C   0  0  0  0  0
  -26.8710   20.2430  -20.8510 C   0  0  0  0  0
  -26.7600   18.9610  -20.1670 C   0  0  0  0  0
  -27.3060   17.7420  -20.8060 C   0  0  0  0  0
  -27.2070   16.4790  -20.1860 O   0  0  0  0  0
  -26.6950   16.3540  -18.8890 C   0  0  0  0  0
  -27.9290   17.8360  -22.1180 C   0  0  0  0  0
  -28.4060   16.6550  -22.7090 O   0  0  0  0  0
  -27.4550   15.7110  -23.1600 C   0  0  0  0  0
  -28.0040   19.1100  -22.8100 C   0  0  0  0  0
  -28.5570   19.1690  -24.0980 O   0  0  0  0  0
  -28.8360   20.4020  -24.6760 C   0  0  0  0  0
  -27.4660   20.3430  -22.1720 C   0  0  0  0  0
  -26.1090   22.6100  -20.9070 C   0  0  0  0  0
  -25.4710   23.6910  -20.2100 N   0  0  0  0  0
  -25.0340   23.5510  -18.8980 C   0  0  0  0  0
  -24.4400   24.6920  -18.2330 N   0  0  0  0  0
  -23.7740   22.9420  -16.3590 C   0  0  0  0  0
  -22.6530   22.2170  -15.5810 C   0  0  0  0  0
  -23.2000   21.3250  -14.4400 C   0  0  0  0  0
  -22.7540   21.5980  -13.0110 C   0  0  0  0  0
  -23.1770   20.9200  -12.1300 O   0  0  0  0  0
  -21.8810   22.6490  -12.7270 O   0  0  0  0  0
  -25.9699   23.5855  -14.7069 H   0  0  0  0  0
  -27.1903   22.3560  -15.1192 H   0  0  0  0  0
  -27.2622   23.1898  -13.5473 H   0  0  0  0  0
  -26.3935   20.9185  -13.3626 H   0  0  0  0  0
  -25.1186   22.2029  -12.9319 H   0  0  0  0  0
  -24.8246   20.0268  -14.1707 H   0  0  0  0  0
  -26.1424   20.5131  -16.1739 H   0  0  0  0  0
  -24.5148   19.9509  -16.5129 H   0  0  0  0  0
  -26.2781   18.8999  -19.1912 H   0  0  0  0  0
  -25.6726   16.7312  -18.8654 H   0  0  0  0  0
  -27.3120   16.9297  -18.1991 H   0  0  0  0  0
  -26.7032   15.3041  -18.5962 H   0  0  0  0  0
  -26.8183   16.1712  -23.9157 H   0  0  0  0  0
  -26.8440   15.3826  -22.3192 H   0  0  0  0  0
  -27.9721   14.8540  -23.5916 H   0  0  0  0  0
  -29.5525   20.9393  -24.0547 H   0  0  0  0  0
  -27.9160   20.9811  -24.7554 H   0  0  0  0  0
  -29.2575   20.2491  -25.6695 H   0  0  0  0  0
  -27.5177   21.3025  -22.6866 H   0  0  0  0  0
  -26.4412   22.7321  -21.9379 H   0  0  0  0  0
  -24.1346   24.6148  -17.2629 H   0  0  0  0  0
  -24.3270   25.5729  -18.7347 H   0  0  0  0  0
  -24.2342   23.6755  -15.6969 H   0  0  0  0  0
  -23.3339   23.4150  -17.2368 H   0  0  0  0  0
  -22.0103   22.9757  -15.1345 H   0  0  0  0  0
  -22.1198   21.5749  -16.2821 H   0  0  0  0  0
  -22.6510   20.3937  -14.5791 H   0  0  0  0  0
  -21.6374   23.0907  -13.5438 H   0  0  0  0  0
  1  2  1  0  0  0
  2  3  1  0  0  0
  3  4  1  0  0  0
  3 27  1  0  0  0
  4  5  1  0  0  0
  5  6  1  0  0  0
  5 25  1  0  0  0
  6  7  4  0  0  0
  6 23  4  0  0  0
  7  8  4  0  0  0
  8  9  1  0  0  0
  8 21  4  0  0  0
  9 10  4  0  0  0
  9 20  4  0  0  0
 10 11  4  0  0  0
 11 12  1  0  0  0
 11 14  4  0  0  0
 12 13  1  0  0  0
 14 15  1  0  0  0
 14 17  4  0  0  0
 15 16  1  0  0  0
 17 18  1  0  0  0
 17 20  4  0  0  0
 18 19  1  0  0  0
 21 22  4  0  0  0
 22 23  4  0  0  0
 23 24  1  0  0  0
 25 26  1  0  0  0
 26 27  1  0  0  0
 27 28  1  0  0  0
 28 29  2  0  0  0
 28 30  1  0  0  0
  1 31  1  0  0  0
  1 32  1  0  0  0
  1 33  1  0  0  0
  2 34  1  0  0  0
  2 35  1  0  0  0
  3 36  1  0  0  0
  4 37  1  0  0  0
  4 38  1  0  0  0
 10 39  1  0  0  0
 13 40  1  0  0  0
 13 41  1  0  0  0
 13 42  1  0  0  0
 16 43  1  0  0  0
 16 44  1  0  0  0
 16 45  1  0  0  0
 19 46  1  0  0  0
 19 47  1  0  0  0
 19 48  1  0  0  0
 20 49  1  0  0  0
 21 50  1  0  0  0
 24 51  1  0  0  0
 24 52  1  0  0  0
 25 53  1  0  0  0
 25 54  1  0  0  0
 26 55  1  0  0  0
 26 56  1  0  0  0
 27 57  1  0  0  0
 30 58  1  0  0  0
M  END
$$$$
