4u7q_ligand
  -I-interpret- 

108112  0  0  0  0  0  0  0  0999 V2000
  -17.3330   -1.5070   -2.7790 C   0  0  0  0  0
  -16.8480   -0.1230   -6.4440 C   0  0  0  0  0
  -18.4700    2.1320  -11.9570 C   0  0  0  0  0
  -17.8570    3.2190  -16.9150 C   0  0  0  0  0
  -18.2340   -0.0640   -4.3000 C   0  0  0  0  0
  -17.2150   -0.5340   -5.0150 C   0  0  0  0  0
  -18.6360   -0.8290   -9.3780 N   0  0  0  0  0
  -18.5980   -0.6420  -10.8350 C   0  0  0  0  0
  -19.5740    1.6390  -11.0340 C   0  0  0  0  0
  -17.6850    1.1670  -14.1040 C   0  0  0  0  0
  -18.0170    1.0190  -15.6200 C   0  0  0  0  0
  -15.6840   12.3560  -18.4320 C   0  0  0  0  0
  -16.2170   12.2030  -19.8450 C   0  0  0  0  0
  -17.4550   11.3840  -19.8640 N   0  0  0  0  0
  -18.4630   11.8880  -18.9150 C   0  0  0  0  0
  -19.6360   12.2820  -19.7860 C   0  0  0  0  0
  -17.2050   10.1020  -19.5430 C   0  0  0  0  0
  -15.9180    9.6300  -19.3170 C   0  0  0  0  0
  -18.2540    9.2090  -19.4360 C   0  0  0  0  0
  -18.0050    7.8860  -19.0490 C   0  0  0  0  0
  -16.7150    7.4110  -18.8260 C   0  0  0  0  0
  -15.6720    8.3130  -18.9740 C   0  0  0  0  0
  -14.3930    7.9190  -18.8040 O   0  0  0  0  0
  -14.1170    6.6320  -18.4800 C   0  0  0  0  0
  -12.9460    6.2900  -18.3010 O   0  0  0  0  0
  -15.1550    5.7040  -18.2950 C   0  0  0  0  0
  -16.4830    6.0860  -18.4470 C   0  0  0  0  0
  -17.5460    5.1900  -18.2720 C   0  0  0  0  0
  -16.9960    4.1330  -17.4580 O   0  0  0  0  0
  -19.0590    3.4520  -16.9010 O   0  0  0  0  0
  -17.3160    2.1090  -16.3380 N   0  0  0  0  0
  -17.4950   -0.3360  -16.1320 C   0  0  0  0  0
  -17.9590   -0.5920  -17.5860 C   0  0  0  0  0
  -17.9210   -1.4840  -15.2120 C   0  0  0  0  0
  -16.6160    0.7300  -13.6190 O   0  0  0  0  0
  -18.6240    1.8150  -13.3850 N   0  0  0  0  0
  -18.5650    3.6410  -11.8770 C   0  0  0  0  0
  -17.3750    3.9300  -11.2860 C   0  0  0  0  0
  -16.4400    4.6820  -11.9790 C   0  0  0  0  0
  -15.2340    4.9770  -11.3920 C   0  0  0  0  0
  -14.9810    4.5460  -10.0960 C   0  0  0  0  0
  -15.9280    3.7980   -9.3990 C   0  0  0  0  0
  -17.1380    3.4860   -9.9900 C   0  0  0  0  0
  -19.8320    0.1650  -11.3020 C   0  0  0  0  0
  -21.0320   -0.1660  -10.5950 O   0  0  0  0  0
  -18.6550   -2.0050  -11.4550 C   0  0  0  0  0
  -17.9040   -2.9200  -10.7000 C   0  0  0  0  0
  -18.4480   -3.4710   -9.5320 C   0  0  0  0  0
  -17.7470   -4.4080   -8.7680 C   0  0  0  0  0
  -16.4830   -4.8470   -9.1630 C   0  0  0  0  0
  -15.9330   -4.3150  -10.3290 C   0  0  0  0  0
  -16.6420   -3.3630  -11.1040 C   0  0  0  0  0
  -17.6000   -0.5720   -8.5640 C   0  0  0  0  0
  -16.5260   -0.1420   -9.0040 O   0  0  0  0  0
  -17.7890   -0.8030   -7.2500 O   0  0  0  0  0
  -16.3740   -1.6010   -4.1370 S   0  0  0  0  0
  -18.3000   -0.6110   -3.0540 N   0  0  0  0  0
  -17.2035   -2.0618   -1.8498 H   0  0  0  0  0
  -15.8211   -0.3861   -6.6979 H   0  0  0  0  0
  -16.8879    0.9570   -6.5855 H   0  0  0  0  0
  -17.5432    1.6578  -11.6341 H   0  0  0  0  0
  -18.9400    0.6788   -4.6713 H   0  0  0  0  0
  -19.5003   -1.1743   -8.9607 H   0  0  0  0  0
  -17.6958   -0.1028  -11.1238 H   0  0  0  0  0
  -20.4851    2.2083  -11.2183 H   0  0  0  0  0
  -19.2691    1.7733   -9.9962 H   0  0  0  0  0
  -19.0935    1.0709  -15.7831 H   0  0  0  0  0
  -16.4357   12.8452  -17.8125 H   0  0  0  0  0
  -15.4577   11.3718  -18.0218 H   0  0  0  0  0
  -14.7772   12.9605  -18.4506 H   0  0  0  0  0
  -15.4602   11.7049  -20.4510 H   0  0  0  0  0
  -16.4476   13.1925  -20.2397 H   0  0  0  0  0
  -18.0892   12.7267  -18.3276 H   0  0  0  0  0
  -18.7376   11.1384  -18.1729 H   0  0  0  0  0
  -19.3207   13.0501  -20.4922 H   0  0  0  0  0
  -19.9910   11.4081  -20.3322 H   0  0  0  0  0
  -20.4383   12.6707  -19.1588 H   0  0  0  0  0
  -15.0777   10.3177  -19.4128 H   0  0  0  0  0
  -19.2720    9.5330  -19.6521 H   0  0  0  0  0
  -18.8475    7.2069  -18.9183 H   0  0  0  0  0
  -14.9169    4.6740  -18.0296 H   0  0  0  0  0
  -17.9276    4.8176  -19.2227 H   0  0  0  0  0
  -18.4067    5.6638  -17.8001 H   0  0  0  0  0
  -16.3026    2.0174  -16.4094 H   0  0  0  0  0
  -16.4058   -0.2945  -16.1245 H   0  0  0  0  0
  -19.0484   -0.5987  -17.6225 H   0  0  0  0  0
  -17.5774    0.1984  -18.2323 H   0  0  0  0  0
  -17.5769   -1.5554  -17.9237 H   0  0  0  0  0
  -17.5210   -1.3143  -14.2123 H   0  0  0  0  0
  -19.0092   -1.5270  -15.1668 H   0  0  0  0  0
  -17.5349   -2.4248  -15.6044 H   0  0  0  0  0
  -19.4836    2.0994  -13.8547 H   0  0  0  0  0
  -19.4353    4.0058  -11.3314 H   0  0  0  0  0
  -18.7170    4.1309  -12.8388 H   0  0  0  0  0
  -16.6607    5.0378  -12.9854 H   0  0  0  0  0
  -14.4813    5.5449  -11.9388 H   0  0  0  0  0
  -14.0328    4.7952   -9.6196 H   0  0  0  0  0
  -15.7141    3.4582   -8.3856 H   0  0  0  0  0
  -17.8883    2.9058   -9.4529 H   0  0  0  0  0
  -19.9724   -0.0701  -12.3570 H   0  0  0  0  0
  -21.7569    0.3666  -10.9303 H   0  0  0  0  0
  -18.2419   -1.9535  -12.4624 H   0  0  0  0  0
  -19.6926   -2.3376  -11.4848 H   0  0  0  0  0
  -19.4426   -3.1611   -9.2114 H   0  0  0  0  0
  -18.1926   -4.8000   -7.8537 H   0  0  0  0  0
  -15.9393   -5.5868   -8.5754 H   0  0  0  0  0
  -14.9420   -4.6364  -10.6496 H   0  0  0  0  0
  -16.1997   -2.9740  -12.0211 H   0  0  0  0  0
 56  1  4  0  0  0
  1 57  4  0  0  0
  2  6  1  0  0  0
 55  2  1  0  0  0
  9  3  1  0  0  0
  3 36  1  0  0  0
  3 37  1  0  0  0
  4 29  1  0  0  0
  4 30  2  0  0  0
 31  4  1  0  0  0
  6  5  4  0  0  0
  5 57  4  0  0  0
  6 56  4  0  0  0
  7  8  1  0  0  0
 53  7  1  0  0  0
  8 44  1  0  0  0
  8 46  1  0  0  0
 44  9  1  0  0  0
 10 11  1  0  0  0
 10 35  2  0  0  0
 36 10  1  0  0  0
 11 31  1  0  0  0
 11 32  1  0  0  0
 13 12  1  0  0  0
 14 13  1  0  0  0
 14 15  1  0  0  0
 17 14  1  0  0  0
 15 16  1  0  0  0
 18 17  4  0  0  0
 19 17  4  0  0  0
 22 18  4  0  0  0
 20 19  4  0  0  0
 21 20  4  0  0  0
 21 22  4  0  0  0
 27 21  1  0  0  0
 22 23  1  0  0  0
 24 23  1  0  0  0
 24 25  2  0  0  0
 26 24  1  0  0  0
 27 26  2  0  0  0
 28 27  1  0  0  0
 29 28  1  0  0  0
 32 33  1  0  0  0
 32 34  1  0  0  0
 37 38  1  0  0  0
 38 39  4  0  0  0
 38 43  4  0  0  0
 39 40  4  0  0  0
 40 41  4  0  0  0
 42 41  4  0  0  0
 43 42  4  0  0  0
 44 45  1  0  0  0
 46 47  1  0  0  0
 47 48  4  0  0  0
 47 52  4  0  0  0
 48 49  4  0  0  0
 49 50  4  0  0  0
 51 50  4  0  0  0
 52 51  4  0  0  0
 53 54  2  0  0  0
 53 55  1  0  0  0
  1 58  1  0  0  0
  2 59  1  0  0  0
  2 60  1  0  0  0
  3 61  1  0  0  0
  5 62  1  0  0  0
  7 63  1  0  0  0
  8 64  1  0  0  0
  9 65  1  0  0  0
  9 66  1  0  0  0
 11 67  1  0  0  0
 12 68  1  0  0  0
 12 69  1  0  0  0
 12 70  1  0  0  0
 13 71  1  0  0  0
 13 72  1  0  0  0
 15 73  1  0  0  0
 15 74  1  0  0  0
 16 75  1  0  0  0
 16 76  1  0  0  0
 16 77  1  0  0  0
 18 78  1  0  0  0
 19 79  1  0  0  0
 20 80  1  0  0  0
 26 81  1  0  0  0
 28 82  1  0  0  0
 28 83  1  0  0  0
 31 84  1  0  0  0
 32 85  1  0  0  0
 33 86  1  0  0  0
 33 87  1  0  0  0
 33 88  1  0  0  0
 34 89  1  0  0  0
 34 90  1  0  0  0
 34 91  1  0  0  0
 36 92  1  0  0  0
 37 93  1  0  0  0
 37 94  1  0  0  0
 39 95  1  0  0  0
 40 96  1  0  0  0
 41 97  1  0  0  0
 42 98  1  0  0  0
 43 99  1  0  0  0
 44100  1  0  0  0
 45101  1  0  0  0
 46102  1  0  0  0
 46103  1  0  0  0
 48104  1  0  0  0
 49105  1  0  0  0
 50106  1  0  0  0
 51107  1  0  0  0
 52108  1  0  0  0
M  END
$$$$
