6pid_ligand
  -I-interpret- 

 31 30  0  0  0  0  0  0  0  0999 V2000
   44.6290   43.0690   23.4790 C   0  0  0  0  0
   44.2420   42.5690   24.9150 C   0  0  0  0  0
   42.9220   41.7110   24.9130 C   0  0  0  0  0
   42.8970   40.5350   25.9400 C   0  0  0  0  0
   43.0560   39.0970   25.3060 C   0  0  0  0  0
   42.5850   37.9180   26.2160 C   0  0  0  0  0
   43.7180   36.9340   26.6070 C   0  0  0  0  0
   43.4590   35.9460   27.7470 C   0  0  0  0  0
   46.0710   43.5930   23.3840 N   0  3  0  0  0
   42.7430   34.7900   27.5950 N   0  0  0  0  0
   42.5870   33.9500   28.7320 O   0  0  0  0  0
   43.9570   36.2580   28.8890 O   0  0  0  0  0
   43.9622   43.8936   23.2271 H   0  0  0  0  0
   44.5422   42.2202   22.8007 H   0  0  0  0  0
   44.0762   43.4434   25.5444 H   0  0  0  0  0
   45.0529   41.9413   25.2846 H   0  0  0  0  0
   42.8384   41.2649   23.9220 H   0  0  0  0  0
   42.1091   42.3840   25.1857 H   0  0  0  0  0
   41.9215   40.5602   26.4257 H   0  0  0  0  0
   43.7453   40.6812   26.6087 H   0  0  0  0  0
   44.1207   38.9489   25.1254 H   0  0  0  0  0
   42.4297   39.0755   24.4142 H   0  0  0  0  0
   41.8432   37.3510   25.6536 H   0  0  0  0  0
   42.2018   38.3539   27.1386 H   0  0  0  0  0
   44.5376   37.5634   26.9536 H   0  0  0  0  0
   43.8792   36.3165   25.7234 H   0  0  0  0  0
   46.2574   43.9008   22.4296 H   0  0  0  0  0
   46.1892   44.3777   24.0248 H   0  0  0  0  0
   46.7198   42.8470   23.6348 H   0  0  0  0  0
   42.3342   34.5387   26.6950 H   0  0  0  0  0
   42.0685   33.1791   28.4902 H   0  0  0  0  0
  1  2  1  0  0  0
  1  9  1  0  0  0
  2  3  1  0  0  0
  3  4  1  0  0  0
  4  5  1  0  0  0
  5  6  1  0  0  0
  6  7  1  0  0  0
  7  8  1  0  0  0
  8 10  1  0  0  0
  8 12  2  0  0  0
 10 11  1  0  0  0
  1 13  1  0  0  0
  1 14  1  0  0  0
  2 15  1  0  0  0
  2 16  1  0  0  0
  3 17  1  0  0  0
  3 18  1  0  0  0
  4 19  1  0  0  0
  4 20  1  0  0  0
  5 21  1  0  0  0
  5 22  1  0  0  0
  6 23  1  0  0  0
  6 24  1  0  0  0
  7 25  1  0  0  0
  7 26  1  0  0  0
  9 27  1  0  0  0
  9 28  1  0  0  0
  9 29  1  0  0  0
 10 30  1  0  0  0
 11 31  1  0  0  0
M  END
$$$$
