3mvl_ligand
  -I-interpret- 

 56 59  0  0  0  0  0  0  0  0999 V2000
   -1.7750   -1.9400   37.3310 N   0  0  0  0  0
   -1.7500   -0.6890   37.5150 N   0  0  0  0  0
   -2.2500    0.1800   36.5750 C   0  0  0  0  0
   -2.8010   -0.2780   35.3960 N   0  0  0  0  0
   -2.8770   -1.6300   35.0990 C   0  0  0  0  0
   -2.3250   -2.5670   36.1360 C   0  0  0  0  0
   -2.2020   -3.9020   36.2480 C   0  0  0  0  0
   -1.5450   -4.1660   37.5710 C   0  0  0  0  0
   -1.2990   -2.9960   38.2000 C   0  0  0  0  0
   -1.1700   -5.4880   38.2030 C   0  0  0  0  0
   -0.9900   -6.4920   37.5130 O   0  0  0  0  0
   -1.0470   -5.4900   39.5610 N   0  0  0  0  0
    0.0070   -6.2580   40.2330 C   0  0  0  0  0
   -0.2600   -6.3140   41.7390 C   0  0  0  0  0
   -1.4400   -7.2210   42.0870 C   0  0  0  0  0
   -2.6070   -5.0050   35.3010 C   0  0  0  0  0
   -3.4470   -1.9540   33.8950 N   0  0  0  0  0
   -3.6210   -1.0130   32.9090 C   0  0  0  0  0
   -4.9180   -0.4780   32.5950 C   0  0  0  0  0
   -5.0170    0.4910   31.5610 C   0  0  0  0  0
   -3.8650    0.9270   30.8470 C   0  0  0  0  0
   -2.5750    0.4000   31.1540 C   0  0  0  0  0
   -2.4820   -0.5610   32.1800 C   0  0  0  0  0
   -1.3060    0.7900   30.4660 C   0  0  0  0  0
   -0.2550    0.1860   30.7050 O   0  0  0  0  0
   -1.3260    1.8300   29.5650 N   0  0  0  0  0
   -0.5850    1.6810   28.3360 C   0  0  0  0  0
    0.0980    3.0220   28.4990 C   0  0  0  0  0
   -0.7810    2.7040   27.3370 C   0  0  0  0  0
   -6.1570   -0.9250   33.3370 C   0  0  0  0  0
   -2.2104    1.2526   36.7648 H   0  0  0  0  0
   -0.8310   -2.8707   39.1764 H   0  0  0  0  0
   -1.7022   -4.9456   40.1220 H   0  0  0  0  0
    0.9680   -5.7743   40.0583 H   0  0  0  0  0
    0.0192   -7.2724   39.8344 H   0  0  0  0  0
   -0.4979   -5.3056   42.0775 H   0  0  0  0  0
    0.6293   -6.7155   42.2249 H   0  0  0  0  0
   -2.3399   -6.8479   41.5982 H   0  0  0  0  0
   -1.2317   -8.2341   41.7431 H   0  0  0  0  0
   -1.5869   -7.2256   43.1670 H   0  0  0  0  0
   -3.6830   -4.9606   35.1324 H   0  0  0  0  0
   -2.0839   -4.8786   34.3531 H   0  0  0  0  0
   -2.3456   -5.9697   35.7359 H   0  0  0  0  0
   -3.7483   -2.9140   33.7276 H   0  0  0  0  0
   -5.9922    0.9081   31.3098 H   0  0  0  0  0
   -3.9696    1.6712   30.0575 H   0  0  0  0  0
   -1.5036   -0.9741   32.4255 H   0  0  0  0  0
   -1.8503    2.6828   29.7607 H   0  0  0  0  0
   -0.4602    0.6113   28.1676 H   0  0  0  0  0
    1.0798    3.4420   28.7177 H   0  0  0  0  0
    0.2505    3.8000   29.2470 H   0  0  0  0  0
   -1.6214    3.1663   26.8193 H   0  0  0  0  0
   -0.7311    2.7819   26.2509 H   0  0  0  0  0
   -6.2912   -1.9985   33.2039 H   0  0  0  0  0
   -6.0446   -0.7003   34.3977 H   0  0  0  0  0
   -7.0254   -0.3974   32.9425 H   0  0  0  0  0
  1  2  4  0  0  0
  1  6  4  0  0  0
  1  9  4  0  0  0
  2  3  4  0  0  0
  3  4  4  0  0  0
  4  5  4  0  0  0
  5  6  4  0  0  0
  5 17  1  0  0  0
  6  7  4  0  0  0
  7  8  4  0  0  0
  7 16  1  0  0  0
  8  9  4  0  0  0
  8 10  1  0  0  0
 10 11  2  0  0  0
 10 12  1  0  0  0
 12 13  1  0  0  0
 13 14  1  0  0  0
 14 15  1  0  0  0
 17 18  1  0  0  0
 18 19  4  0  0  0
 18 23  4  0  0  0
 19 20  4  0  0  0
 19 30  1  0  0  0
 20 21  4  0  0  0
 21 22  4  0  0  0
 22 23  4  0  0  0
 22 24  1  0  0  0
 24 25  2  0  0  0
 24 26  1  0  0  0
 26 27  1  0  0  0
 27 28  1  0  0  0
 27 29  1  0  0  0
 28 29  1  0  0  0
  3 31  1  0  0  0
  9 32  1  0  0  0
 12 33  1  0  0  0
 13 34  1  0  0  0
 13 35  1  0  0  0
 14 36  1  0  0  0
 14 37  1  0  0  0
 15 38  1  0  0  0
 15 39  1  0  0  0
 15 40  1  0  0  0
 16 41  1  0  0  0
 16 42  1  0  0  0
 16 43  1  0  0  0
 17 44  1  0  0  0
 20 45  1  0  0  0
 21 46  1  0  0  0
 23 47  1  0  0  0
 26 48  1  0  0  0
 27 49  1  0  0  0
 28 50  1  0  0  0
 28 51  1  0  0  0
 29 52  1  0  0  0
 29 53  1  0  0  0
 30 54  1  0  0  0
 30 55  1  0  0  0
 30 56  1  0  0  0
M  END
$$$$
