4j03_ligand
  -I-interpret- 

 89 92  0  0  0  0  0  0  0  0999 V2000
   20.6950    8.1010   11.9250 F   0  0  0  0  0
   19.5470    8.2100   12.5080 C   0  0  0  0  0
   19.7410    8.2320   13.7950 F   0  0  0  0  0
   18.7700    7.1230   12.1550 F   0  0  0  0  0
   18.8750    9.5230   12.0650 C   0  0  0  0  0
   18.7340    9.4830   10.7490 F   0  0  0  0  0
   19.6540   10.5430   12.4230 F   0  0  0  0  0
   17.4960    9.6940   12.6750 C   0  0  0  0  0
   17.6630   10.7150   13.7930 C   0  0  0  0  0
   16.2720   10.8330   14.4660 C   0  0  0  0  0
   16.5910   11.3090   16.3280 S   0  0  0  0  0
   17.1260   10.0160   16.9300 O   0  0  0  0  0
   14.8130   11.4720   17.0650 C   0  0  0  0  0
   15.2740   12.2480   18.3010 C   0  0  0  0  0
   14.2980   12.2020   19.4840 C   0  0  0  0  0
   12.8470   12.1800   19.0390 C   0  0  0  0  0
   12.5170   10.7330   18.6470 C   0  0  0  0  0
   11.2430   10.2770   19.3450 C   0  0  0  0  0
   11.6370   10.1520   20.7930 C   0  0  0  0  0
   10.6950    9.1110   21.3860 C   0  0  0  0  0
   11.4950    8.4970   22.5320 C   0  0  0  0  0
   10.8960    9.0750   23.8200 C   0  0  0  0  0
    9.4320    8.6430   24.2910 C   0  0  0  0  0
    8.7900    7.2980   23.8060 C   0  0  0  0  0
    8.7070    6.9700   22.3000 C   0  0  0  0  0
    7.5620    5.9560   22.1930 C   0  0  0  0  0
    6.8520    5.9890   23.5530 C   0  0  0  0  0
    5.4270    5.9160   23.3600 O   0  0  0  0  0
    7.2890    7.3250   24.1770 C   0  0  0  0  0
    6.4930    8.4940   23.5390 C   0  0  0  0  0
    7.0980    7.3100   25.6690 C   0  0  0  0  0
    7.9200    8.4720   26.3290 C   0  0  0  0  0
    9.3930    8.5300   25.8470 C   0  0  0  0  0
   10.1740    9.5710   26.4150 C   0  0  0  0  0
    9.7340   10.4480   27.4110 C   0  0  0  0  0
   10.6010   11.4310   27.8890 C   0  0  0  0  0
   11.8980   11.5520   27.3890 C   0  0  0  0  0
   12.7370   12.5090   27.8490 O   0  0  0  0  0
   12.3440   10.6900   26.4050 C   0  0  0  0  0
   11.4840    9.7010   25.9440 C   0  0  0  0  0
   11.8940    8.8410   24.9490 C   0  0  0  0  0
   17.1096    8.7483   13.0550 H   0  0  0  0  0
   16.7725   10.0319   11.9331 H   0  0  0  0  0
   17.9996   11.6766   13.4056 H   0  0  0  0  0
   18.4243   10.4010   14.5071 H   0  0  0  0  0
   15.7240    9.8936   14.3933 H   0  0  0  0  0
   15.6632   11.5891   13.9703 H   0  0  0  0  0
   17.3159   10.1524   17.8611 H   0  0  0  0  0
   14.2475   10.5543   17.2269 H   0  0  0  0  0
   14.0468   11.9290   16.4387 H   0  0  0  0  0
   15.3662   13.2929   18.0048 H   0  0  0  0  0
   16.2035   11.7884   18.6371 H   0  0  0  0  0
   14.4527   13.0994   20.0831 H   0  0  0  0  0
   14.4919   11.2877   20.0449 H   0  0  0  0  0
   12.6933   12.8520   18.1946 H   0  0  0  0  0
   12.1931   12.5197   19.8421 H   0  0  0  0  0
   13.3403   10.0851   18.9479 H   0  0  0  0  0
   12.3714   10.6799   17.5681 H   0  0  0  0  0
   10.8663    9.3380   18.9395 H   0  0  0  0  0
   10.4224   10.9801   19.2021 H   0  0  0  0  0
   11.5534   11.1066   21.3124 H   0  0  0  0  0
   12.6795    9.8514   20.8976 H   0  0  0  0  0
   10.3881    8.3663   20.6516 H   0  0  0  0  0
    9.7569    9.5496   21.7262 H   0  0  0  0  0
   12.5551    8.7359   22.4468 H   0  0  0  0  0
   11.4319    7.4089   22.5200 H   0  0  0  0  0
   10.7280   10.1213   23.5648 H   0  0  0  0  0
    8.8528    9.4365   23.8189 H   0  0  0  0  0
    9.4603    6.5750   24.2708 H   0  0  0  0  0
    9.6453    6.5700   21.9158 H   0  0  0  0  0
    8.5241    7.8593   21.6968 H   0  0  0  0  0
    7.9344    4.9579   21.9624 H   0  0  0  0  0
    6.8799    6.2098   21.3815 H   0  0  0  0  0
    7.1078    5.1501   24.2003 H   0  0  0  0  0
    4.9881    5.9370   24.2135 H   0  0  0  0  0
    6.9193    9.4427   23.8651 H   0  0  0  0  0
    6.5519    8.4219   22.4530 H   0  0  0  0  0
    5.4506    8.4357   23.8523 H   0  0  0  0  0
    7.4460    6.3559   26.0648 H   0  0  0  0  0
    6.0406    7.4460   25.8958 H   0  0  0  0  0
    7.9315    8.2982   27.4050 H   0  0  0  0  0
    7.4443    9.4123   26.0503 H   0  0  0  0  0
    9.8462    7.6011   26.1932 H   0  0  0  0  0
    8.7232   10.3645   27.8103 H   0  0  0  0  0
   10.2597   12.1155   28.6656 H   0  0  0  0  0
   13.5792   12.4406   27.3933 H   0  0  0  0  0
   13.3510   10.7843   25.9985 H   0  0  0  0  0
   12.9209    9.0316   24.6371 H   0  0  0  0  0
   11.9049    7.8027   25.2806 H   0  0  0  0  0
  1  2  1  0  0  0
  2  3  1  0  0  0
  2  4  1  0  0  0
  2  5  1  0  0  0
  5  6  1  0  0  0
  5  7  1  0  0  0
  5  8  1  0  0  0
  8  9  1  0  0  0
  9 10  1  0  0  0
 10 11  1  0  0  0
 11 12  1  0  0  0
 11 13  1  0  0  0
 13 14  1  0  0  0
 14 15  1  0  0  0
 15 16  1  0  0  0
 16 17  1  0  0  0
 17 18  1  0  0  0
 18 19  1  0  0  0
 19 20  1  0  0  0
 20 21  1  0  0  0
 21 22  1  0  0  0
 22 23  1  0  0  0
 22 41  1  0  0  0
 23 24  1  0  0  0
 23 33  1  0  0  0
 24 25  1  0  0  0
 24 29  1  0  0  0
 25 26  1  0  0  0
 26 27  1  0  0  0
 27 28  1  0  0  0
 27 29  1  0  0  0
 29 30  1  0  0  0
 29 31  1  0  0  0
 31 32  1  0  0  0
 32 33  1  0  0  0
 33 34  1  0  0  0
 34 35  4  0  0  0
 34 40  4  0  0  0
 35 36  4  0  0  0
 36 37  4  0  0  0
 37 38  1  0  0  0
 37 39  4  0  0  0
 39 40  4  0  0  0
 40 41  1  0  0  0
  8 42  1  0  0  0
  8 43  1  0  0  0
  9 44  1  0  0  0
  9 45  1  0  0  0
 10 46  1  0  0  0
 10 47  1  0  0  0
 12 48  1  0  0  0
 13 49  1  0  0  0
 13 50  1  0  0  0
 14 51  1  0  0  0
 14 52  1  0  0  0
 15 53  1  0  0  0
 15 54  1  0  0  0
 16 55  1  0  0  0
 16 56  1  0  0  0
 17 57  1  0  0  0
 17 58  1  0  0  0
 18 59  1  0  0  0
 18 60  1  0  0  0
 19 61  1  0  0  0
 19 62  1  0  0  0
 20 63  1  0  0  0
 20 64  1  0  0  0
 21 65  1  0  0  0
 21 66  1  0  0  0
 22 67  1  0  0  0
 23 68  1  0  0  0
 24 69  1  0  0  0
 25 70  1  0  0  0
 25 71  1  0  0  0
 26 72  1  0  0  0
 26 73  1  0  0  0
 27 74  1  0  0  0
 28 75  1  0  0  0
 30 76  1  0  0  0
 30 77  1  0  0  0
 30 78  1  0  0  0
 31 79  1  0  0  0
 31 80  1  0  0  0
 32 81  1  0  0  0
 32 82  1  0  0  0
 33 83  1  0  0  0
 35 84  1  0  0  0
 36 85  1  0  0  0
 38 86  1  0  0  0
 39 87  1  0  0  0
 41 88  1  0  0  0
 41 89  1  0  0  0
M  END
$$$$
