4abf_ligand
  -I-interpret- 

 21 22  0  0  0  0  0  0  0  0999 V2000
    0.9810  -15.5260   15.8640 C   0  0  0  0  0
    1.8490  -16.5190   18.4420 N   0  3  0  0  0
    0.7620  -14.8110   14.3430 S   0  0  0  0  0
    1.7230  -13.4470   14.7930 C   0  0  0  0  0
    2.1670  -13.6180   16.0920 C   0  0  0  0  0
    1.7370  -14.7830   16.7440 C   0  0  0  0  0
    2.0660  -12.3240   14.0160 C   0  0  0  0  0
    2.9030  -11.4010   14.6110 C   0  0  0  0  0
    2.1430  -15.1370   18.1290 C   0  0  0  0  0
    3.3910  -11.5850   15.8910 C   0  0  0  0  0
    3.0200  -12.6890   16.7170 C   0  0  0  0  0
    4.5770  -10.2760   16.5270 Br  0  0  0  0  0
    0.5576  -16.4959   16.1250 H   0  0  0  0  0
    2.1422  -16.7196   19.3981 H   0  0  0  0  0
    0.8460  -16.6809   18.3517 H   0  0  0  0  0
    2.3523  -17.1271   17.7960 H   0  0  0  0  0
    1.6915  -12.1907   13.0011 H   0  0  0  0  0
    3.1858  -10.5054   14.0578 H   0  0  0  0  0
    3.2191  -14.9883   18.2179 H   0  0  0  0  0
    1.5861  -14.5045   18.8203 H   0  0  0  0  0
    3.3676  -12.8027   17.7438 H   0  0  0  0  0
  1  3  4  0  0  0
  6  1  4  0  0  0
  9  2  1  0  0  0
  4  3  4  0  0  0
  5  4  4  0  0  0
  4  7  4  0  0  0
  6  5  4  0  0  0
  5 11  4  0  0  0
  6  9  1  0  0  0
  7  8  4  0  0  0
  8 10  4  0  0  0
 10 11  4  0  0  0
 10 12  1  0  0  0
  1 13  1  0  0  0
  2 14  1  0  0  0
  2 15  1  0  0  0
  2 16  1  0  0  0
  7 17  1  0  0  0
  8 18  1  0  0  0
  9 19  1  0  0  0
  9 20  1  0  0  0
 11 21  1  0  0  0
M  END
$$$$
