4u43_ligand
  -I-interpret- 

 25 27  0  0  0  0  0  0  0  0999 V2000
   25.0710   22.6070   -9.1960 C   0  0  0  0  0
   26.4660   21.4850  -11.0030 C   0  0  0  0  0
   25.8870   27.4620   -4.4660 C   0  0  0  0  0
   26.9030   25.3840   -7.3590 C   0  0  0  0  0
   26.6490   26.2640   -6.2760 C   0  0  0  0  0
   25.6120   26.3830   -5.3580 C   0  0  0  0  0
   27.1430   27.9560   -4.9220 C   0  0  0  0  0
   26.1910   23.4660   -8.8860 C   0  0  0  0  0
   27.6050   22.2820  -10.7170 C   0  0  0  0  0
   27.4660   23.2800   -9.6810 C   0  0  0  0  0
   25.2560   21.6720  -10.2570 N   0  0  0  0  0
   25.9600   24.3930   -7.8030 N   0  0  0  0  0
   27.5910   27.2880   -5.9520 N   0  0  0  0  0
   28.7940   27.4700   -6.6940 N   0  0  0  0  0
   29.0720   26.6790   -7.7510 C   0  0  0  0  0
   28.1590   25.6100   -8.0460 N   0  0  0  0  0
   24.1318   22.6705   -8.6464 H   0  0  0  0  0
   26.5111   20.7313  -11.7892 H   0  0  0  0  0
   25.2811   27.8222   -3.6346 H   0  0  0  0  0
   24.7255   25.7497   -5.3248 H   0  0  0  0  0
   27.6693   28.7939   -4.4648 H   0  0  0  0  0
   28.5433   22.1473  -11.2551 H   0  0  0  0  0
   28.3158   23.9267   -9.4625 H   0  0  0  0  0
   25.0640   24.3412   -7.3183 H   0  0  0  0  0
   29.9599   26.8456   -8.3609 H   0  0  0  0  0
  8  1  4  0  0  0
  1 11  4  0  0  0
  2  9  4  0  0  0
 11  2  4  0  0  0
  6  3  4  0  0  0
  7  3  4  0  0  0
  4  5  4  0  0  0
 12  4  1  0  0  0
  4 16  4  0  0  0
  5  6  4  0  0  0
  5 13  4  0  0  0
 13  7  4  0  0  0
  8 10  4  0  0  0
  8 12  1  0  0  0
  9 10  4  0  0  0
 13 14  4  0  0  0
 14 15  4  0  0  0
 15 16  4  0  0  0
  1 17  1  0  0  0
  2 18  1  0  0  0
  3 19  1  0  0  0
  6 20  1  0  0  0
  7 21  1  0  0  0
  9 22  1  0  0  0
 10 23  1  0  0  0
 12 24  1  0  0  0
 15 25  1  0  0  0
M  END
$$$$
