3h89_ligand
  -I-interpret- 

151156  0  0  0  0  0  0  0  0999 V2000
   30.5470   -3.6070  -10.1640 C   0  0  0  0  0
   29.5170   -3.8940   -9.2920 C   0  0  0  0  0
   28.9320   -3.0160   -8.7110 O   0  0  0  0  0
   28.4970   -3.8070  -14.2010 C   0  0  0  0  0
   29.2850   -2.5480  -13.7070 C   0  0  0  0  0
   29.9200   -2.5200  -12.4070 C   0  0  0  0  0
   29.8290   -3.7460  -11.4950 C   0  0  0  0  0
   29.0310   -5.0550  -11.9270 C   0  0  0  0  0
   28.3900   -5.0250  -13.2810 C   0  0  0  0  0
   26.7810   -3.3810  -18.3810 C   0  0  0  0  0
   26.9570   -4.8920  -16.1250 C   0  0  0  0  0
   27.8700   -3.7740  -15.5490 C   0  0  0  0  0
   26.4450   -4.6200  -17.5520 C   0  0  0  0  0
   28.2390   -2.4420  -16.4230 C   0  0  0  0  0
   27.6940   -2.2800  -17.7760 C   0  0  0  0  0
   29.2390   -5.3290   -9.1710 N   0  0  0  0  0
   28.2860   -5.9600   -8.3720 C   0  0  0  0  0
   29.1650   -7.0890   -7.9310 C   0  0  0  0  0
   30.2060   -7.5130   -8.6260 O   0  0  0  0  0
   27.2100   -6.4620   -9.2520 C   0  0  0  0  0
   23.5710   -7.6070  -14.9110 C   0  0  0  0  0
   23.6050   -7.1340  -16.1600 C   0  0  0  0  0
   23.2990   -5.6850  -16.4750 C   0  0  0  0  0
   23.9170   -8.0610  -17.3400 C   0  0  0  0  0
   23.3170   -5.0980  -17.8360 C   0  0  0  0  0
   23.9340   -7.4930  -18.7410 C   0  0  0  0  0
   23.6050   -5.9670  -19.0290 C   0  0  0  0  0
   28.7530   -7.6320   -6.6120 N   0  0  0  0  0
   29.4490   -8.6840   -5.9570 C   0  0  0  0  0
   29.3680  -10.0990   -6.8160 C   0  0  0  0  0
   28.0570  -10.5490   -7.6210 C   0  0  0  0  0
   27.7370  -12.0690   -7.5510 C   0  0  0  0  0
   26.5490  -12.6270   -8.2440 N   0  0  0  0  0
   25.2480  -12.8340   -7.5640 C   0  0  0  0  0
   25.1290  -13.1080   -6.2180 N   0  0  0  0  0
   24.0320  -12.7690   -8.2170 N   0  0  0  0  0
   28.8890   -9.0670   -4.6820 C   0  0  0  0  0
   29.6660   -9.5080   -3.7900 O   0  0  0  0  0
   27.5720   -8.9400   -4.5820 N   0  0  0  0  0
   26.8100   -9.3010   -3.4310 C   0  0  0  0  0
   26.5650  -10.8380   -3.6560 C   0  0  0  0  0
   26.1400  -11.2590   -4.7180 O   0  0  0  0  0
   25.4250   -8.5790   -3.3250 C   0  0  0  0  0
   24.7130   -9.1140   -2.0270 C   0  0  0  0  0
   25.0760   -8.5480   -0.6630 C   0  0  0  0  0
   23.6130  -10.2780   -2.1430 C   0  0  0  0  0
   24.3940   -9.0940    0.5700 C   0  0  0  0  0
   22.9660  -10.7870   -0.9140 C   0  0  0  0  0
   23.3370  -10.2220    0.4280 C   0  0  0  0  0
   22.7490  -10.7000    1.4990 O   0  0  0  0  0
   29.0780  -13.8470   -2.2000 C   0  0  0  0  0
   29.0100  -14.2380   -0.6250 C   0  0  0  0  0
   30.3490  -14.2830    0.1350 C   0  0  0  0  0
   31.6370  -13.9730   -0.5920 C   0  0  0  0  0
   31.6570  -13.6150   -2.0590 C   0  0  0  0  0
   30.3920  -13.5460   -2.8770 C   0  0  0  0  0
   27.9170  -13.7670   -3.0290 C   0  0  0  0  0
   26.6500  -13.1950   -2.6130 C   0  0  0  0  0
   26.8780  -11.6780   -2.4820 N   0  0  0  0  0
   23.6150   -5.3550  -20.3260 C   0  0  0  0  0
   23.3270   -3.8300  -20.5120 C   0  0  0  0  0
   23.8640   -6.1440  -21.6250 C   0  0  0  0  0
   23.3220   -3.1830  -21.8960 C   0  0  0  0  0
   23.8490   -5.4890  -22.9580 C   0  0  0  0  0
   23.5860   -4.0340  -23.0890 C   0  0  0  0  0
   24.4630   -7.2990  -13.8830 C   0  0  0  0  0
   25.7620   -5.9570   -9.3450 C   0  0  0  0  0
   24.9620   -5.9330  -10.3590 C   0  0  0  0  0
   25.2720   -6.4360  -11.7830 C   0  0  0  0  0
   24.1210   -6.6540  -12.8130 N   0  0  0  0  0
   25.4660   -7.7030  -14.1310 O   0  0  0  0  0
   31.4162   -4.2559  -10.0564 H   0  0  0  0  0
   31.0069   -2.6316  -10.0052 H   0  0  0  0  0
   28.1206   -4.7757  -14.5296 H   0  0  0  0  0
   29.3569   -1.6747  -14.3553 H   0  0  0  0  0
   30.4597   -1.6315  -12.0793 H   0  0  0  0  0
   29.3916   -4.7357  -11.6266 H   0  0  0  0  0
   28.2185   -5.1661  -11.2089 H   0  0  0  0  0
   29.7636   -5.8615  -11.9558 H   0  0  0  0  0
   28.9133   -5.8079  -13.8300 H   0  0  0  0  0
   27.3242   -5.0879  -13.0617 H   0  0  0  0  0
   25.8224   -2.8877  -18.5418 H   0  0  0  0  0
   27.3384   -3.7633  -19.2361 H   0  0  0  0  0
   26.0825   -4.9572  -15.4776 H   0  0  0  0  0
   27.5534   -5.8034  -16.1666 H   0  0  0  0  0
   27.1790   -4.6168  -15.5653 H   0  0  0  0  0
   26.9167   -5.4184  -18.1248 H   0  0  0  0  0
   25.3713   -4.5128  -17.3977 H   0  0  0  0  0
   28.8890   -1.6754  -16.0012 H   0  0  0  0  0
   27.9298   -1.3876  -18.3558 H   0  0  0  0  0
   29.8164   -5.9439   -9.7445 H   0  0  0  0  0
   27.7982   -5.3833   -7.5861 H   0  0  0  0  0
   27.0597   -7.4650   -8.8525 H   0  0  0  0  0
   27.5940   -6.1876  -10.2345 H   0  0  0  0  0
   23.7740   -8.6660  -15.0700 H   0  0  0  0  0
   22.6435   -7.1744  -14.5359 H   0  0  0  0  0
   23.0479   -5.0275  -15.6427 H   0  0  0  0  0
   24.1243   -9.1177  -17.1710 H   0  0  0  0  0
   23.1211   -4.0344  -17.9723 H   0  0  0  0  0
   24.1789   -8.1493  -19.5761 H   0  0  0  0  0
   27.9334   -7.2320   -6.1552 H   0  0  0  0  0
   30.4532   -8.2733   -5.8525 H   0  0  0  0  0
   29.4652  -10.8652   -6.0468 H   0  0  0  0  0
   30.1090   -9.9575   -7.6027 H   0  0  0  0  0
   28.2331  -10.3111   -8.6700 H   0  0  0  0  0
   27.2137  -10.0274   -7.1684 H   0  0  0  0  0
   27.5392  -12.2512   -6.4947 H   0  0  0  0  0
   28.5829  -12.5425   -8.0493 H   0  0  0  0  0
   26.6311  -12.8785   -9.2291 H   0  0  0  0  0
   25.9637  -13.1775   -5.6359 H   0  0  0  0  0
   23.1662  -12.9182   -7.6988 H   0  0  0  0  0
   24.0002  -12.5718   -9.2172 H   0  0  0  0  0
   27.0697   -8.5579   -5.3833 H   0  0  0  0  0
   27.3354   -9.0280   -2.5159 H   0  0  0  0  0
   24.8180   -8.7859   -4.2064 H   0  0  0  0  0
   25.5607   -7.4989   -3.2686 H   0  0  0  0  0
   24.2546   -8.1251   -2.0368 H   0  0  0  0  0
   24.7748   -7.5014   -0.7070 H   0  0  0  0  0
   26.1293   -8.7951   -0.5307 H   0  0  0  0  0
   23.3460  -10.6886   -3.1167 H   0  0  0  0  0
   23.8401   -8.2474    0.9757 H   0  0  0  0  0
   25.1982   -9.5424    1.1534 H   0  0  0  0  0
   22.2166  -11.5756   -0.9822 H   0  0  0  0  0
   28.7914  -14.1016   -1.1796 H   0  0  0  0  0
   28.6073  -15.2501   -0.5840 H   0  0  0  0  0
   28.4195  -13.4565   -0.1468 H   0  0  0  0  0
   30.4530  -15.3228    0.4451 H   0  0  0  0  0
   30.2635  -13.4987    0.8871 H   0  0  0  0  0
   32.1898  -14.9114   -0.5482 H   0  0  0  0  0
   31.9988  -13.0694   -0.1013 H   0  0  0  0  0
   32.2157  -14.4317   -2.5162 H   0  0  0  0  0
   32.0271  -12.5898   -2.0693 H   0  0  0  0  0
   30.3160  -12.5065   -3.1961 H   0  0  0  0  0
   30.5031  -14.3181   -3.6383 H   0  0  0  0  0
   27.6639  -14.8158   -3.1842 H   0  0  0  0  0
   28.2361  -13.0869   -3.8187 H   0  0  0  0  0
   26.3201  -13.6235   -1.6666 H   0  0  0  0  0
   25.8667  -13.4108   -3.3397 H   0  0  0  0  0
   27.2318  -11.2686   -1.6173 H   0  0  0  0  0
   24.0458   -5.8889  -19.4790 H   0  0  0  0  0
   24.1571   -3.3435  -19.9997 H   0  0  0  0  0
   22.2997   -3.7146  -20.1665 H   0  0  0  0  0
   24.0570   -7.2151  -21.5643 H   0  0  0  0  0
   23.1284   -2.1162  -22.0082 H   0  0  0  0  0
   24.0336   -6.0847  -23.8520 H   0  0  0  0  0
   23.5861   -3.5789  -24.0794 H   0  0  0  0  0
   25.3484   -5.5601   -8.4179 H   0  0  0  0  0
   23.9692   -5.5157  -10.1911 H   0  0  0  0  0
   25.6889   -7.4316  -11.6314 H   0  0  0  0  0
   25.8785   -5.6437  -12.2217 H   0  0  0  0  0
   23.1720   -6.3147  -12.6560 H   0  0  0  0  0
  2  1  1  0  0  0
  1  7  1  0  0  0
  2  3  2  0  0  0
 16  2  1  0  0  0
  5  4  1  0  0  0
  9  4  1  0  0  0
  4 12  1  0  0  0
  6  5  2  0  0  0
  7  6  1  0  0  0
  7  8  1  0  0  0
  8  9  1  0  0  0
 13 10  1  0  0  0
 15 10  1  0  0  0
 12 11  1  0  0  0
 11 13  1  0  0  0
 12 14  1  0  0  0
 14 15  2  0  0  0
 17 16  1  0  0  0
 17 18  1  0  0  0
 20 17  1  0  0  0
 18 19  2  0  0  0
 18 28  1  0  0  0
 67 20  1  0  0  0
 21 22  1  0  0  0
 66 21  1  0  0  0
 22 23  4  0  0  0
 22 24  4  0  0  0
 23 25  4  0  0  0
 24 26  4  0  0  0
 25 27  4  0  0  0
 26 27  4  0  0  0
 27 60  1  0  0  0
 28 29  1  0  0  0
 29 30  1  0  0  0
 29 37  1  0  0  0
 30 31  1  0  0  0
 31 32  1  0  0  0
 32 33  1  0  0  0
 33 34  1  0  0  0
 34 35  2  0  0  0
 34 36  1  0  0  0
 37 38  2  0  0  0
 37 39  1  0  0  0
 39 40  1  0  0  0
 40 41  1  0  0  0
 40 43  1  0  0  0
 41 42  2  0  0  0
 41 59  1  0  0  0
 43 44  1  0  0  0
 44 45  1  0  0  0
 44 46  1  0  0  0
 45 47  1  0  0  0
 46 48  2  0  0  0
 47 49  1  0  0  0
 48 49  1  0  0  0
 49 50  2  0  0  0
 51 52  1  0  0  0
 51 56  1  0  0  0
 57 51  1  0  0  0
 52 53  1  0  0  0
 53 54  1  0  0  0
 55 54  1  0  0  0
 56 55  1  0  0  0
 58 57  1  0  0  0
 59 58  1  0  0  0
 60 61  1  0  0  0
 60 62  1  0  0  0
 61 63  1  0  0  0
 62 64  2  0  0  0
 63 65  2  0  0  0
 64 65  1  0  0  0
 70 66  1  0  0  0
 66 71  2  0  0  0
 68 67  2  0  0  0
 69 68  1  0  0  0
 69 70  1  0  0  0
  1 72  1  0  0  0
  1 73  1  0  0  0
  4 74  1  0  0  0
  5 75  1  0  0  0
  6 76  1  0  0  0
  7 77  1  0  0  0
  8 78  1  0  0  0
  8 79  1  0  0  0
  9 80  1  0  0  0
  9 81  1  0  0  0
 10 82  1  0  0  0
 10 83  1  0  0  0
 11 84  1  0  0  0
 11 85  1  0  0  0
 12 86  1  0  0  0
 13 87  1  0  0  0
 13 88  1  0  0  0
 14 89  1  0  0  0
 15 90  1  0  0  0
 16 91  1  0  0  0
 17 92  1  0  0  0
 20 93  1  0  0  0
 20 94  1  0  0  0
 21 95  1  0  0  0
 21 96  1  0  0  0
 23 97  1  0  0  0
 24 98  1  0  0  0
 25 99  1  0  0  0
 26100  1  0  0  0
 28101  1  0  0  0
 29102  1  0  0  0
 30103  1  0  0  0
 30104  1  0  0  0
 31105  1  0  0  0
 31106  1  0  0  0
 32107  1  0  0  0
 32108  1  0  0  0
 33109  1  0  0  0
 35110  1  0  0  0
 36111  1  0  0  0
 36112  1  0  0  0
 39113  1  0  0  0
 40114  1  0  0  0
 43115  1  0  0  0
 43116  1  0  0  0
 44117  1  0  0  0
 45118  1  0  0  0
 45119  1  0  0  0
 46120  1  0  0  0
 47121  1  0  0  0
 47122  1  0  0  0
 48123  1  0  0  0
 51124  1  0  0  0
 52125  1  0  0  0
 52126  1  0  0  0
 53127  1  0  0  0
 53128  1  0  0  0
 54129  1  0  0  0
 54130  1  0  0  0
 55131  1  0  0  0
 55132  1  0  0  0
 56133  1  0  0  0
 56134  1  0  0  0
 57135  1  0  0  0
 57136  1  0  0  0
 58137  1  0  0  0
 58138  1  0  0  0
 59139  1  0  0  0
 60140  1  0  0  0
 61141  1  0  0  0
 61142  1  0  0  0
 62143  1  0  0  0
 63144  1  0  0  0
 64145  1  0  0  0
 65146  1  0  0  0
 67147  1  0  0  0
 68148  1  0  0  0
 69149  1  0  0  0
 69150  1  0  0  0
 70151  1  0  0  0
M  END
$$$$
