4nj3_ligand
  -I-interpret- 

 57 60  0  0  0  0  0  0  0  0999 V2000
   -3.8170   32.4050   12.3680 N   0  0  0  0  0
   -4.5550   31.2920   12.4300 C   0  0  0  0  0
   -5.7630   31.2880   13.1290 C   0  0  0  0  0
   -6.2020   32.4490   13.7750 C   0  0  0  0  0
   -5.4080   33.6150   13.6870 C   0  0  0  0  0
   -4.2050   33.5480   12.9520 C   0  0  0  0  0
   -5.7640   34.8420   14.2700 C   0  0  0  0  0
   -4.9420   35.9900   14.1380 C   0  0  0  0  0
   -3.7370   35.8790   13.4200 C   0  0  0  0  0
   -3.3830   34.6770   12.8340 C   0  0  0  0  0
   -4.0220   30.0540   11.7790 C   0  0  0  0  0
   -7.5260   32.3920   14.5090 C   0  0  0  0  0
   -5.3150   37.2960   14.7440 C   0  0  0  0  0
   -4.8140   29.1960   11.4040 O   0  0  0  0  0
   -2.6870   29.9530   11.6380 N   0  0  0  0  0
   -2.0560   28.8000   11.0320 C   0  0  0  0  0
   -2.1320   28.9050    9.4720 C   0  0  0  0  0
   -1.2490   30.0780    8.9610 C   0  0  0  0  0
   -0.6160   28.7390   11.4830 C   0  0  0  0  0
   -0.1650   29.5720   12.2610 O   0  0  0  0  0
    0.0940   27.7150   10.9900 O   0  0  0  0  0
    1.4690   27.6560   11.4390 C   0  0  0  0  0
   -8.5390   31.9560   13.9000 O   0  0  0  0  0
   -7.6050   32.8010   15.6990 O   0  0  0  0  0
   -5.9130   37.3470   16.0130 C   0  0  0  0  0
   -6.2530   38.5830   16.5920 C   0  0  0  0  0
   -5.9900   39.7810   15.9070 C   0  0  0  0  0
   -5.3900   39.7360   14.6530 C   0  0  0  0  0
   -5.0530   38.5010   14.0740 C   0  0  0  0  0
   -1.7300   31.4050    9.0220 C   0  0  0  0  0
   -0.9190   32.4740    8.5800 C   0  0  0  0  0
    0.3300   32.2190    7.9860 C   0  0  0  0  0
    0.7630   30.8880    7.8280 C   0  0  0  0  0
    0.0140   29.8290    8.3710 C   0  0  0  0  0
   -6.9790   38.6250   18.1800 Cl  0  0  0  0  0
    1.1370   33.2990    7.5910 O   0  0  0  0  0
   -6.3647   30.3801   13.1717 H   0  0  0  0  0
   -6.6925   34.9135   14.8364 H   0  0  0  0  0
   -3.0799   36.7435   13.3252 H   0  0  0  0  0
   -2.4514   34.6069   12.2724 H   0  0  0  0  0
   -2.0986   30.7170   11.9704 H   0  0  0  0  0
   -2.5735   27.8915   11.3401 H   0  0  0  0  0
   -3.1661   29.0870    9.1795 H   0  0  0  0  0
   -1.7699   27.9737    9.0365 H   0  0  0  0  0
    1.9861   28.5686   11.1426 H   0  0  0  0  0
    1.4916   27.5603   12.5246 H   0  0  0  0  0
    1.9609   26.7948   10.9868 H   0  0  0  0  0
   -6.7393   33.0929   15.9940 H   0  0  0  0  0
   -6.1153   36.4223   16.5535 H   0  0  0  0  0
   -6.2542   40.7389   16.3550 H   0  0  0  0  0
   -5.1805   40.6620   14.1176 H   0  0  0  0  0
   -4.5818   38.4785   13.0914 H   0  0  0  0  0
   -2.7286   31.6044    9.4108 H   0  0  0  0  0
   -1.2630   33.5013    8.6999 H   0  0  0  0  0
    1.6829   30.6779    7.2823 H   0  0  0  0  0
    0.4070   28.8129    8.3376 H   0  0  0  0  0
    1.9504   32.9651    7.2057 H   0  0  0  0  0
  1  2  4  0  0  0
  1  6  4  0  0  0
  2  3  4  0  0  0
  2 11  1  0  0  0
  3  4  4  0  0  0
  4  5  4  0  0  0
  4 12  1  0  0  0
  5  6  4  0  0  0
  5  7  4  0  0  0
  6 10  4  0  0  0
  7  8  4  0  0  0
  8  9  4  0  0  0
  8 13  1  0  0  0
  9 10  4  0  0  0
 11 14  2  0  0  0
 11 15  1  0  0  0
 12 23  2  0  0  0
 12 24  1  0  0  0
 13 25  4  0  0  0
 13 29  4  0  0  0
 15 16  1  0  0  0
 16 17  1  0  0  0
 16 19  1  0  0  0
 17 18  1  0  0  0
 18 30  4  0  0  0
 18 34  4  0  0  0
 19 20  2  0  0  0
 19 21  1  0  0  0
 21 22  1  0  0  0
 25 26  4  0  0  0
 26 27  4  0  0  0
 26 35  1  0  0  0
 27 28  4  0  0  0
 28 29  4  0  0  0
 30 31  4  0  0  0
 31 32  4  0  0  0
 32 33  4  0  0  0
 32 36  1  0  0  0
 33 34  4  0  0  0
  3 37  1  0  0  0
  7 38  1  0  0  0
  9 39  1  0  0  0
 10 40  1  0  0  0
 15 41  1  0  0  0
 16 42  1  0  0  0
 17 43  1  0  0  0
 17 44  1  0  0  0
 22 45  1  0  0  0
 22 46  1  0  0  0
 22 47  1  0  0  0
 24 48  1  0  0  0
 25 49  1  0  0  0
 27 50  1  0  0  0
 28 51  1  0  0  0
 29 52  1  0  0  0
 30 53  1  0  0  0
 31 54  1  0  0  0
 33 55  1  0  0  0
 34 56  1  0  0  0
 36 57  1  0  0  0
M  END
$$$$
