### 
### Created by X-TOOL on Mon Sep 10 21:13:04 2018
### 

@<TRIPOS>MOLECULE
2x7o_ligand
   71    75     1     0     0
SMALL
GAST_HUCK


@<TRIPOS>ATOM
      1 CAJ        92.3130   50.3580   48.3520 C.3       1 ZOP        -0.1106
      2 CAL        91.4290   50.5400   47.1010 C.3       1 ZOP        -0.0716
      3 CAW        90.5540   49.2900   46.8640 C.3       1 ZOP        -0.0567
      4 CAV        89.7580   48.9180   48.1330 C.3       1 ZOP        -0.0716
      5 CAK        90.6940   48.7960   49.3520 C.3       1 ZOP        -0.1106
      6 NAI        91.4760   50.0410   49.5280 N.4       1 ZOP         0.4071
      7 CAH        92.2620   50.0300   50.7760 C.3       1 ZOP        -0.0815
      8 CAG        91.5000   50.7740   51.8470 C.ar      1 ZOP        -0.0735
      9 CAS        91.2090   52.1380   51.6770 C.ar      1 ZOP        -0.0706
     10 CAR        90.4950   52.8320   52.6630 C.ar      1 ZOP        -0.0432
     11 CAF        91.0740   50.1060   53.0100 C.ar      1 ZOP        -0.0706
     12 CAE        90.3600   50.8030   54.0000 C.ar      1 ZOP        -0.0432
     13 CAQ        90.0790   52.1820   53.8500 C.ar      1 ZOP         0.0605
     14 NAP        89.3350   52.8070   54.8770 N.pl3     1 ZOP        -0.2628
     15 CAO        89.2850   54.1250   55.3260 C.2       1 ZOP         0.0949
     16 CAN        89.8770   55.2570   54.5750 C.ar      1 ZOP         0.0236
     17 CAM        89.1560   55.8210   53.4890 C.ar      1 ZOP        -0.0446
     18 CAC        89.6870   56.8960   52.7660 C.ar      1 ZOP        -0.0564
     19 CAA        90.9380   57.4250   53.1170 C.ar      1 ZOP        -0.0576
     20 CAB        91.6560   56.8780   54.1950 C.ar      1 ZOP        -0.0564
     21 CAD        91.1390   55.8000   54.9280 C.ar      1 ZOP        -0.0446
     22 CBD        88.6100   54.3810   56.5460 C.2       1 ZOP         0.0670
     23 CBC        88.3990   55.6850   57.2440 C.ar      1 ZOP        -0.0066
     24 CBB        88.7600   57.0400   56.9920 C.ar      1 ZOP        -0.0733
     25 CBJ        87.9640   53.4130   57.3890 C.2       1 ZOP         0.2031
     26 OBK        87.8920   52.2160   57.1780 O.2       1 ZOP        -0.3967
     27 NBI        87.4100   54.0160   58.4420 N.am      1 ZOP        -0.2430
     28 CBH        87.6490   55.3750   58.4150 C.ar      1 ZOP         0.0676
     29 CBG        87.2690   56.4010   59.2870 C.ar      1 ZOP        -0.0296
     30 CBF        87.6550   57.7390   59.0280 C.ar      1 ZOP         0.0281
     31 CBA        88.3980   58.0510   57.8660 C.ar      1 ZOP        -0.0655
     32 OBE        86.4700   59.6500   59.5290 O.2       1 ZOP        -0.3887
     33 CAX        86.2990   59.3850   63.1620 C.3       1 ZOP        -0.0447
     34 CAT        87.3000   59.9470   62.1500 C.3       1 ZOP         0.0300
     35 C21        87.2530   58.8130   59.9600 C.2       1 ZOP         0.1974
     36 N25        87.7240   58.8750   61.2500 N.am      1 ZOP        -0.2772
     37 C29        88.6650   57.8920   61.8100 C.3       1 ZOP         0.0218
     38 H          92.8577   51.2830   48.5411 H         1 ZOP         0.0020
     39 H          93.0103   49.5382   48.1794 H         1 ZOP         0.0020
     40 H          92.0723   50.6892   46.2338 H         1 ZOP         0.0246
     41 H          90.7787   51.4017   47.2515 H         1 ZOP         0.0246
     42 H          91.2037   48.4546   46.6032 H         1 ZOP         0.0264
     43 H          89.8488   49.5058   46.0614 H         1 ZOP         0.0264
     44 H          89.2666   47.9587   47.9704 H         1 ZOP         0.0246
     45 H          89.0255   49.7008   48.3299 H         1 ZOP         0.0246
     46 H          91.3806   47.9649   49.1910 H         1 ZOP         0.0020
     47 H          90.0935   48.6244   50.2453 H         1 ZOP         0.0020
     48 H          93.2241   50.5138   50.6075 H         1 ZOP         0.0162
     49 H          92.4307   49.0011   51.0939 H         1 ZOP         0.0162
     50 H          91.5390   52.6570   50.7771 H         1 ZOP         0.0530
     51 H          90.2569   53.8852   52.5143 H         1 ZOP         0.0526
     52 H          91.2978   49.0476   53.1432 H         1 ZOP         0.0530
     53 H          90.0195   50.2765   54.8916 H         1 ZOP         0.0526
     54 H          88.7183   52.1732   55.3853 H         1 ZOP         0.2191
     55 H          88.1823   55.4140   53.2165 H         1 ZOP         0.0667
     56 H          89.1292   57.3212   51.9317 H         1 ZOP         0.0629
     57 H          91.3536   58.2605   52.5537 H         1 ZOP         0.0652
     58 H          92.6257   57.2967   54.4641 H         1 ZOP         0.0629
     59 H          91.7025   55.3826   55.7625 H         1 ZOP         0.0667
     60 H          89.3307   57.2848   56.0962 H         1 ZOP         0.0519
     61 H          86.8804   53.5366   59.1701 H         1 ZOP         0.2232
     62 H          86.6731   56.1696   60.1699 H         1 ZOP         0.0527
     63 H          88.6843   59.0822   57.6594 H         1 ZOP         0.0521
     64 H          85.4337   58.9865   62.6323 H         1 ZOP         0.0249
     65 H          86.7731   58.5892   63.7365 H         1 ZOP         0.0249
     66 H          85.9797   60.1804   63.8354 H         1 ZOP         0.0249
     67 H          88.1664   60.3485   62.6756 H         1 ZOP         0.0518
     68 H          86.8306   60.7447   61.5744 H         1 ZOP         0.0518
     69 H          89.5764   58.4011   62.1235 H         1 ZOP         0.0485
     70 H          88.2075   57.4015   62.6691 H         1 ZOP         0.0485
     71 H          88.9057   57.1479   61.0507 H         1 ZOP         0.0485
@<TRIPOS>BOND
     1    1    2 1  
     2    6    1 1  
     3    2    3 1  
     4    4    3 1  
     5    5    4 1  
     6    6    5 1  
     7    7    6 1  
     8    8    7 1  
     9    9    8 ar 
    10   11    8 ar 
    11   10    9 ar 
    12   13   10 ar 
    13   12   11 ar 
    14   13   12 ar 
    15   14   13 1  
    16   15   14 1  
    17   15   16 1  
    18   22   15 2  
    19   16   17 ar 
    20   16   21 ar 
    21   17   18 ar 
    22   18   19 ar 
    23   20   19 ar 
    24   21   20 ar 
    25   23   22 1  
    26   22   25 1  
    27   24   23 ar 
    28   28   23 ar 
    29   31   24 ar 
    30   25   26 2  
    31   27   25 am 
    32   28   27 1  
    33   29   28 ar 
    34   30   29 ar 
    35   30   31 ar 
    36   35   30 1  
    37   35   32 2  
    38   34   33 1  
    39   36   34 1  
    40   35   36 am 
    41   36   37 1  
    42    1   38 1  
    43    1   39 1  
    44    2   40 1  
    45    2   41 1  
    46    3   42 1  
    47    3   43 1  
    48    4   44 1  
    49    4   45 1  
    50    5   46 1  
    51    5   47 1  
    52    7   48 1  
    53    7   49 1  
    54    9   50 1  
    55   10   51 1  
    56   11   52 1  
    57   12   53 1  
    58   14   54 1  
    59   17   55 1  
    60   18   56 1  
    61   19   57 1  
    62   20   58 1  
    63   21   59 1  
    64   24   60 1  
    65   27   61 1  
    66   29   62 1  
    67   31   63 1  
    68   33   64 1  
    69   33   65 1  
    70   33   66 1  
    71   34   67 1  
    72   34   68 1  
    73   37   69 1  
    74   37   70 1  
    75   37   71 1  
@<TRIPOS>SUBSTRUCTURE
     1 ZOP         1

