2x7o_ligand
  -I-interpret- 

 72 76  0  0  0  0  0  0  0  0999 V2000
   92.3130   50.3580   48.3520 C   0  0  0  0  0
   91.4290   50.5400   47.1010 C   0  0  0  0  0
   90.5540   49.2900   46.8640 C   0  0  0  0  0
   89.7580   48.9180   48.1330 C   0  0  0  0  0
   90.6940   48.7960   49.3520 C   0  0  0  0  0
   91.4760   50.0410   49.5280 N   0  3  0  0  0
   92.2620   50.0300   50.7760 C   0  0  0  0  0
   91.5000   50.7740   51.8470 C   0  0  0  0  0
   91.2090   52.1380   51.6770 C   0  0  0  0  0
   90.4950   52.8320   52.6630 C   0  0  0  0  0
   91.0740   50.1060   53.0100 C   0  0  0  0  0
   90.3600   50.8030   54.0000 C   0  0  0  0  0
   90.0790   52.1820   53.8500 C   0  0  0  0  0
   89.3350   52.8070   54.8770 N   0  0  0  0  0
   89.2850   54.1250   55.3260 C   0  0  0  0  0
   89.8770   55.2570   54.5750 C   0  0  0  0  0
   89.1560   55.8210   53.4890 C   0  0  0  0  0
   89.6870   56.8960   52.7660 C   0  0  0  0  0
   90.9380   57.4250   53.1170 C   0  0  0  0  0
   91.6560   56.8780   54.1950 C   0  0  0  0  0
   91.1390   55.8000   54.9280 C   0  0  0  0  0
   88.6100   54.3810   56.5460 C   0  0  0  0  0
   88.3990   55.6850   57.2440 C   0  0  0  0  0
   88.7600   57.0400   56.9920 C   0  0  0  0  0
   87.9640   53.4130   57.3890 C   0  0  0  0  0
   87.8920   52.2160   57.1780 O   0  0  0  0  0
   87.4100   54.0160   58.4420 N   0  0  0  0  0
   87.6490   55.3750   58.4150 C   0  0  0  0  0
   87.2690   56.4010   59.2870 C   0  0  0  0  0
   87.6550   57.7390   59.0280 C   0  0  0  0  0
   88.3980   58.0510   57.8660 C   0  0  0  0  0
   86.4700   59.6500   59.5290 O   0  0  0  0  0
   86.2990   59.3850   63.1620 C   0  0  0  0  0
   87.3000   59.9470   62.1500 C   0  0  0  0  0
   87.2530   58.8130   59.9600 C   0  0  0  0  0
   87.7240   58.8750   61.2500 N   0  0  0  0  0
   88.6650   57.8920   61.8100 C   0  0  0  0  0
   92.8577   51.2830   48.5411 H   0  0  0  0  0
   93.0103   49.5382   48.1794 H   0  0  0  0  0
   92.0723   50.6892   46.2338 H   0  0  0  0  0
   90.7787   51.4017   47.2515 H   0  0  0  0  0
   91.2037   48.4546   46.6032 H   0  0  0  0  0
   89.8488   49.5058   46.0614 H   0  0  0  0  0
   89.2666   47.9587   47.9704 H   0  0  0  0  0
   89.0255   49.7008   48.3299 H   0  0  0  0  0
   91.3806   47.9649   49.1910 H   0  0  0  0  0
   90.0935   48.6244   50.2453 H   0  0  0  0  0
   90.7953   50.7963   49.6096 H   0  0  0  0  0
   93.2241   50.5138   50.6075 H   0  0  0  0  0
   92.4307   49.0011   51.0939 H   0  0  0  0  0
   91.5390   52.6570   50.7771 H   0  0  0  0  0
   90.2569   53.8852   52.5143 H   0  0  0  0  0
   91.2978   49.0476   53.1432 H   0  0  0  0  0
   90.0195   50.2765   54.8916 H   0  0  0  0  0
   88.7183   52.1732   55.3853 H   0  0  0  0  0
   88.1823   55.4140   53.2165 H   0  0  0  0  0
   89.1292   57.3212   51.9317 H   0  0  0  0  0
   91.3536   58.2605   52.5537 H   0  0  0  0  0
   92.6257   57.2967   54.4641 H   0  0  0  0  0
   91.7025   55.3826   55.7625 H   0  0  0  0  0
   89.3307   57.2848   56.0962 H   0  0  0  0  0
   86.8804   53.5366   59.1701 H   0  0  0  0  0
   86.6731   56.1696   60.1699 H   0  0  0  0  0
   88.6843   59.0822   57.6594 H   0  0  0  0  0
   85.4337   58.9865   62.6323 H   0  0  0  0  0
   86.7731   58.5892   63.7365 H   0  0  0  0  0
   85.9797   60.1804   63.8354 H   0  0  0  0  0
   88.1664   60.3485   62.6756 H   0  0  0  0  0
   86.8306   60.7447   61.5744 H   0  0  0  0  0
   89.5764   58.4011   62.1235 H   0  0  0  0  0
   88.2075   57.4015   62.6691 H   0  0  0  0  0
   88.9057   57.1479   61.0507 H   0  0  0  0  0
  1  2  1  0  0  0
  6  1  1  0  0  0
  2  3  1  0  0  0
  4  3  1  0  0  0
  5  4  1  0  0  0
  6  5  1  0  0  0
  7  6  1  0  0  0
  8  7  1  0  0  0
  9  8  4  0  0  0
 11  8  4  0  0  0
 10  9  4  0  0  0
 13 10  4  0  0  0
 12 11  4  0  0  0
 13 12  4  0  0  0
 14 13  1  0  0  0
 15 14  1  0  0  0
 15 16  1  0  0  0
 22 15  2  0  0  0
 16 17  4  0  0  0
 16 21  4  0  0  0
 17 18  4  0  0  0
 18 19  4  0  0  0
 20 19  4  0  0  0
 21 20  4  0  0  0
 23 22  1  0  0  0
 22 25  1  0  0  0
 24 23  4  0  0  0
 28 23  4  0  0  0
 31 24  4  0  0  0
 25 26  2  0  0  0
 27 25  1  0  0  0
 28 27  1  0  0  0
 29 28  4  0  0  0
 30 29  4  0  0  0
 30 31  4  0  0  0
 35 30  1  0  0  0
 35 32  2  0  0  0
 34 33  1  0  0  0
 36 34  1  0  0  0
 35 36  1  0  0  0
 36 37  1  0  0  0
  1 38  1  0  0  0
  1 39  1  0  0  0
  2 40  1  0  0  0
  2 41  1  0  0  0
  3 42  1  0  0  0
  3 43  1  0  0  0
  4 44  1  0  0  0
  4 45  1  0  0  0
  5 46  1  0  0  0
  5 47  1  0  0  0
  6 48  1  0  0  0
  7 49  1  0  0  0
  7 50  1  0  0  0
  9 51  1  0  0  0
 10 52  1  0  0  0
 11 53  1  0  0  0
 12 54  1  0  0  0
 14 55  1  0  0  0
 17 56  1  0  0  0
 18 57  1  0  0  0
 19 58  1  0  0  0
 20 59  1  0  0  0
 21 60  1  0  0  0
 24 61  1  0  0  0
 27 62  1  0  0  0
 29 63  1  0  0  0
 31 64  1  0  0  0
 33 65  1  0  0  0
 33 66  1  0  0  0
 33 67  1  0  0  0
 34 68  1  0  0  0
 34 69  1  0  0  0
 37 70  1  0  0  0
 37 71  1  0  0  0
 37 72  1  0  0  0
M  END
$$$$
