6mu1_ligand
  -I-interpret- 

 68 71  0  0  0  0  0  0  0  0999 V2000
  181.5150  139.4820   87.8010 C   0  0  0  0  0
  181.7750  140.8190   87.6720 N   0  0  0  0  0
  180.8260  141.6960   88.0100 C   0  0  0  0  0
  179.5730  141.2570   88.5020 C   0  0  0  0  0
  179.3620  139.9240   88.6180 C   0  0  0  0  0
  180.3210  139.0660   88.2860 N   0  0  0  0  0
  178.1420  139.4350   89.2620 N   0  0  0  0  0
  178.6760  142.5120   88.5750 N   0  0  0  0  0
  179.5280  143.5010   88.1240 C   0  0  0  0  0
  180.6630  142.9500   87.8400 N   0  0  0  0  0
  181.5240  143.6230   86.8920 C   0  0  0  0  0
  181.5400  145.0850   87.1790 C   0  0  0  0  0
  182.9150  145.4750   87.4530 C   0  0  0  0  0
  183.7680  144.2560   87.3530 C   0  0  0  0  0
  182.8990  143.1110   87.0180 O   0  0  0  0  0
  184.4500  144.0050   88.6670 C   0  0  0  0  0
  185.0600  142.7230   88.6460 O   0  0  0  0  0
  183.0070  146.0310   88.8010 O   0  0  0  0  0
  182.9800  147.4550   88.7330 C   0  0  0  0  0
  184.2600  148.0100   89.3290 C   0  0  0  0  0
  184.0250  148.3940   90.8070 C   0  0  0  0  0
  182.9850  149.5030   90.8920 C   0  0  0  0  0
  181.9290  149.2970   89.8120 C   0  0  0  0  0
  181.8790  147.9330   89.4490 O   0  0  0  0  0
  180.5580  149.7300   90.3500 C   0  0  0  0  0
  180.2720  151.0300   89.9130 O   0  0  0  0  0
  183.6130  150.7460   90.7010 O   0  0  0  0  0
  183.5040  151.8890   91.9210 P   0  0  0  0  0
  183.3240  151.1930   93.2490 O   0  0  0  0  0
  182.3170  152.7930   91.6620 O   0  0  0  0  0
  184.7710  152.7170   91.9530 O   0  0  0  0  0
  185.2210  148.8410   91.3640 O   0  0  0  0  0
  185.3160  148.9910   93.0060 P   0  0  0  0  0
  185.9700  147.7610   93.5860 O   0  0  0  0  0
  183.9300  149.1410   93.5800 O   0  0  0  0  0
  186.1390  150.2120   93.3540 O   0  0  0  0  0
  184.6500  149.1420   88.6140 O   0  0  0  0  0
  181.0410  145.8230   86.0180 O   0  0  0  0  0
  182.1020  146.8170   85.1860 P   0  0  0  0  0
  183.1100  147.4040   86.1510 O   0  0  0  0  0
  182.8250  146.0120   84.1310 O   0  0  0  0  0
  181.3250  147.9400   84.5210 O   0  0  0  0  0
  182.2700  138.7505   87.5130 H   0  0  0  0  0
  177.4545  140.0972   89.6215 H   0  0  0  0  0
  177.9793  138.4320   89.3513 H   0  0  0  0  0
  179.2864  144.5593   88.0249 H   0  0  0  0  0
  181.1473  143.4415   85.8854 H   0  0  0  0  0
  180.9035  145.3092   88.0350 H   0  0  0  0  0
  183.2465  146.2291   86.7392 H   0  0  0  0  0
  184.5282  144.3910   86.5836 H   0  0  0  0  0
  183.7154  144.0448   89.4712 H   0  0  0  0  0
  185.2114  144.7671   88.8327 H   0  0  0  0  0
  185.4957  142.5634   89.4864 H   0  0  0  0  0
  182.8983  147.7723   87.6934 H   0  0  0  0  0
  185.0415  147.2522   89.2733 H   0  0  0  0  0
  183.6677  147.5210   91.3532 H   0  0  0  0  0
  182.5090  149.4803   91.8723 H   0  0  0  0  0
  182.1861  149.8951   88.9377 H   0  0  0  0  0
  180.5730  149.7089   91.4397 H   0  0  0  0  0
  179.7921  149.0472   89.9823 H   0  0  0  0  0
  179.4144  151.2985   90.2506 H   0  0  0  0  0
  182.4314  153.2355   90.8178 H   0  0  0  0  0
  184.8845  153.1590   91.1084 H   0  0  0  0  0
  186.8524  147.6664   93.2199 H   0  0  0  0  0
  187.0215  150.1165   92.9885 H   0  0  0  0  0
  185.4600  149.4937   88.9907 H   0  0  0  0  0
  182.6500  147.9152   86.8208 H   0  0  0  0  0
  180.8660  148.4509   85.1917 H   0  0  0  0  0
  1  2  4  0  0  0
  1  6  4  0  0  0
  2  3  4  0  0  0
  3  4  4  0  0  0
  3 10  4  0  0  0
  4  5  4  0  0  0
  4  8  4  0  0  0
  5  6  4  0  0  0
  5  7  1  0  0  0
  8  9  4  0  0  0
  9 10  4  0  0  0
 10 11  1  0  0  0
 11 12  1  0  0  0
 11 15  1  0  0  0
 12 13  1  0  0  0
 12 38  1  0  0  0
 13 14  1  0  0  0
 13 18  1  0  0  0
 14 15  1  0  0  0
 14 16  1  0  0  0
 16 17  1  0  0  0
 18 19  1  0  0  0
 19 20  1  0  0  0
 19 24  1  0  0  0
 20 21  1  0  0  0
 20 37  1  0  0  0
 21 22  1  0  0  0
 21 32  1  0  0  0
 22 23  1  0  0  0
 22 27  1  0  0  0
 23 24  1  0  0  0
 23 25  1  0  0  0
 25 26  1  0  0  0
 27 28  1  0  0  0
 28 29  2  0  0  0
 28 30  1  0  0  0
 28 31  1  0  0  0
 32 33  1  0  0  0
 33 34  1  0  0  0
 33 35  2  0  0  0
 33 36  1  0  0  0
 38 39  1  0  0  0
 39 40  1  0  0  0
 39 41  2  0  0  0
 39 42  1  0  0  0
  1 43  1  0  0  0
  7 44  1  0  0  0
  7 45  1  0  0  0
  9 46  1  0  0  0
 11 47  1  0  0  0
 12 48  1  0  0  0
 13 49  1  0  0  0
 14 50  1  0  0  0
 16 51  1  0  0  0
 16 52  1  0  0  0
 17 53  1  0  0  0
 19 54  1  0  0  0
 20 55  1  0  0  0
 21 56  1  0  0  0
 22 57  1  0  0  0
 23 58  1  0  0  0
 25 59  1  0  0  0
 25 60  1  0  0  0
 26 61  1  0  0  0
 30 62  1  0  0  0
 31 63  1  0  0  0
 34 64  1  0  0  0
 36 65  1  0  0  0
 37 66  1  0  0  0
 40 67  1  0  0  0
 42 68  1  0  0  0
M  END
$$$$
