### 
### Created by X-TOOL on Wed Jan  1 15:39:38 2020
### 

@<TRIPOS>MOLECULE
6mu1_ligand
   62    65     1     0     0
SMALL
GAST_HUCK


@<TRIPOS>ATOM
      1 C1        181.5150  139.4820   87.8010 C.ar      1 JYP         0.0533
      2 N1        181.7750  140.8190   87.6720 N.ar      1 JYP        -0.2714
      3 C2        180.8260  141.6960   88.0100 C.ar      1 JYP         0.1613
      4 C3        179.5730  141.2570   88.5020 C.ar      1 JYP         0.1045
      5 C4        179.3620  139.9240   88.6180 C.ar      1 JYP         0.1298
      6 N2        180.3210  139.0660   88.2860 N.ar      1 JYP        -0.2698
      7 N3        178.1420  139.4350   89.2620 N.pl3     1 JYP        -0.3152
      8 N4        178.6760  142.5120   88.5750 N.2       1 JYP        -0.2958
      9 C5        179.5280  143.5010   88.1240 C.2       1 JYP         0.1123
     10 N5        180.6630  142.9500   87.8400 N.pl3     1 JYP        -0.1916
     11 C6        181.5240  143.6230   86.8920 C.3       1 JYP         0.2057
     12 C7        181.5400  145.0850   87.1790 C.3       1 JYP         0.1726
     13 C8        182.9150  145.4750   87.4530 C.3       1 JYP         0.1258
     14 C9        183.7680  144.2560   87.3530 C.3       1 JYP         0.1142
     15 O1        182.8990  143.1110   87.0180 O.3       1 JYP        -0.3365
     16 C10       184.4500  144.0050   88.6670 C.3       1 JYP         0.0731
     17 O2        185.0600  142.7230   88.6460 O.3       1 JYP        -0.3924
     18 O3        183.0070  146.0310   88.8010 O.3       1 JYP        -0.3397
     19 C11       182.9800  147.4550   88.7330 C.3       1 JYP         0.1888
     20 C12       184.2600  148.0100   89.3290 C.3       1 JYP         0.1391
     21 C13       184.0250  148.3940   90.8070 C.3       1 JYP         0.1525
     22 C14       182.9850  149.5030   90.8920 C.3       1 JYP         0.1504
     23 C15       181.9290  149.2970   89.8120 C.3       1 JYP         0.1180
     24 O4        181.8790  147.9330   89.4490 O.3       1 JYP        -0.3401
     25 C16       180.5580  149.7300   90.3500 C.3       1 JYP         0.0734
     26 O5        180.2720  151.0300   89.9130 O.3       1 JYP        -0.3924
     27 O6        183.6130  150.7460   90.7010 O.3       1 JYP        -0.2672
     28 P1        183.5040  151.8890   91.9210 P.3       1 JYP         0.2013
     29 O7        183.3240  151.1930   93.2490 O.co2     1 JYP        -0.5537
     30 O8        182.3170  152.7930   91.6620 O.co2     1 JYP        -0.5537
     31 O9        184.7710  152.7170   91.9530 O.co2     1 JYP        -0.5537
     32 O10       185.2210  148.8410   91.3640 O.3       1 JYP        -0.2671
     33 P2        185.3160  148.9910   93.0060 P.3       1 JYP         0.2013
     34 O11       185.9700  147.7610   93.5860 O.co2     1 JYP        -0.5537
     35 O12       183.9300  149.1410   93.5800 O.co2     1 JYP        -0.5537
     36 O13       186.1390  150.2120   93.3540 O.co2     1 JYP        -0.5537
     37 O14       184.6500  149.1420   88.6140 O.3       1 JYP        -0.3837
     38 O15       181.0410  145.8230   86.0180 O.3       1 JYP        -0.2647
     39 P3        182.1020  146.8170   85.1860 P.3       1 JYP         0.2015
     40 O16       183.1100  147.4040   86.1510 O.co2     1 JYP        -0.5537
     41 O17       182.8250  146.0120   84.1310 O.co2     1 JYP        -0.5537
     42 O18       181.3250  147.9400   84.5210 O.co2     1 JYP        -0.5537
     43 H1        182.2659  138.7546   87.5145 H         1 JYP         0.0996
     44 H2        177.9777  138.4222   89.3522 H         1 JYP         0.1820
     45 H3        177.4477  140.1037   89.6250 H         1 JYP         0.1820
     46 H4        179.2866  144.5583   88.0250 H         1 JYP         0.1349
     47 H5        181.1539  143.4479   85.8710 H         1 JYP         0.1000
     48 H6        180.9079  145.3018   88.0527 H         1 JYP         0.0732
     49 H7        183.2458  146.2258   86.7202 H         1 JYP         0.0655
     50 H8        184.5244  144.3934   86.5663 H         1 JYP         0.0647
     51 H9        183.7086  144.0450   89.4786 H         1 JYP         0.0584
     52 H10       185.2185  144.7740   88.8341 H         1 JYP         0.0584
     53 H11       184.3954  142.0597   88.5016 H         1 JYP         0.2095
     54 H12       182.8982  147.7711   87.6826 H         1 JYP         0.0938
     55 H13       185.0512  147.2480   89.2704 H         1 JYP         0.0675
     56 H14       183.6677  147.5137   91.3614 H         1 JYP         0.0707
     57 H15       182.5059  149.4817   91.8820 H         1 JYP         0.0706
     58 H16       182.1850  149.9018   88.9296 H         1 JYP         0.0650
     59 H17       180.5725  149.7082   91.4497 H         1 JYP         0.0584
     60 H18       179.7848  149.0407   89.9797 H         1 JYP         0.0584
     61 H19       180.9400  151.6247   90.2334 H         1 JYP         0.2095
     62 H20       185.4534  149.4880   88.9845 H         1 JYP         0.2101
@<TRIPOS>BOND
     1    1    2 ar 
     2    1    6 ar 
     3    2    3 ar 
     4    3    4 ar 
     5    3   10 1  
     6    4    5 ar 
     7    4    8 1  
     8    5    6 ar 
     9    5    7 1  
    10    8    9 2  
    11    9   10 1  
    12   10   11 1  
    13   11   12 1  
    14   11   15 1  
    15   12   13 1  
    16   12   38 1  
    17   13   14 1  
    18   13   18 1  
    19   14   15 1  
    20   14   16 1  
    21   16   17 1  
    22   18   19 1  
    23   19   20 1  
    24   19   24 1  
    25   20   21 1  
    26   20   37 1  
    27   21   22 1  
    28   21   32 1  
    29   22   23 1  
    30   22   27 1  
    31   23   24 1  
    32   23   25 1  
    33   25   26 1  
    34   27   28 1  
    35   28   29 ar 
    36   28   30 ar 
    37   28   31 ar 
    38   32   33 1  
    39   33   34 ar 
    40   33   35 ar 
    41   33   36 ar 
    42   38   39 1  
    43   39   40 ar 
    44   39   41 ar 
    45   39   42 ar 
    46    1   43 1  
    47    7   44 1  
    48    7   45 1  
    49    9   46 1  
    50   11   47 1  
    51   12   48 1  
    52   13   49 1  
    53   14   50 1  
    54   16   51 1  
    55   16   52 1  
    56   17   53 1  
    57   19   54 1  
    58   20   55 1  
    59   21   56 1  
    60   22   57 1  
    61   23   58 1  
    62   25   59 1  
    63   25   60 1  
    64   26   61 1  
    65   37   62 1  
@<TRIPOS>SUBSTRUCTURE
     1 JYP         1

