4gtv_ligand
  -I-interpret- 

 84 88  0  0  0  0  0  0  0  0999 V2000
    6.5450   22.1670   18.4190 C   0  0  0  0  0
    6.2470   23.5660   18.9910 C   0  0  0  0  0
    7.3770   23.9830   19.8430 N   0  0  0  0  0
    8.4670   24.7490   19.2110 C   0  0  0  0  0
    7.9660   26.1600   18.8980 C   0  0  0  0  0
    7.4190   23.6660   21.1360 C   0  0  0  0  0
    8.3540   23.9930   21.8630 O   0  0  0  0  0
    6.3690   22.9620   21.6590 O   0  0  0  0  0
    6.6000   22.1530   22.7340 C   0  0  0  0  0
    6.5560   20.7720   22.5740 C   0  0  0  0  0
    6.7780   19.9300   23.6590 C   0  0  0  0  0
    6.8510   22.6930   23.9960 C   0  0  0  0  0
    7.0750   21.8500   25.0820 C   0  0  0  0  0
    7.0370   20.4670   24.9160 C   0  0  0  0  0
    7.2680   19.5340   26.1030 C   0  0  0  0  0
    6.0720   19.5580   27.0750 C   0  0  0  0  0
    4.7750   19.1130   26.3700 C   0  0  0  0  0
    3.7510   18.8530   27.3850 N   0  0  0  0  0
    3.5280   17.4580   27.7900 C   0  0  0  0  0
    2.5410   16.7790   26.8250 C   0  0  0  0  0
    1.9200   17.3150   25.7750 C   0  0  0  0  0
    1.1460   16.3780   25.2160 N   0  0  0  0  0
    1.2810   15.2520   25.9140 C   0  0  0  0  0
    2.1340   15.5170   26.9000 N   0  0  0  0  0
    2.5760   14.5480   27.9340 C   0  0  0  0  0
    3.0310   19.8300   27.9230 C   0  0  0  0  0
    1.7920   19.4580   28.4650 C   0  0  0  0  0
    0.9570   20.4290   29.0420 C   0  0  0  0  0
    1.3720   21.7610   29.0790 C   0  0  0  0  0
    0.5520   22.7780   29.6620 C   0  0  0  0  0
   -0.0820   23.5990   30.1250 N   0  0  0  0  0
    2.6080   22.1180   28.5430 C   0  0  0  0  0
    3.4370   21.1520   27.9690 C   0  0  0  0  0
    4.7540   21.7300   27.4280 C   0  0  0  0  0
    5.9950   20.9220   27.6720 N   0  0  0  0  0
    6.5570   20.8960   29.2660 S   0  0  0  0  0
    7.9140   20.2660   29.3100 O   0  0  0  0  0
    6.6850   22.3050   29.7510 O   0  0  0  0  0
    5.4880   20.0090   30.3330 C   0  0  0  0  0
    4.4790   20.6900   31.0080 C   0  0  0  0  0
    3.6200   20.0030   31.8580 C   0  0  0  0  0
    3.7650   18.6250   32.0340 C   0  0  0  0  0
    2.9300   17.9420   32.8710 O   0  0  0  0  0
    1.5470   18.2900   32.6470 C   0  0  0  0  0
    4.7770   17.9460   31.3590 C   0  0  0  0  0
    5.6400   18.6350   30.5100 C   0  0  0  0  0
    7.4596   22.2051   17.8273 H   0  0  0  0  0
    6.6703   21.4598   19.2389 H   0  0  0  0  0
    5.7151   21.8498   17.7875 H   0  0  0  0  0
    5.3312   23.5359   19.5814 H   0  0  0  0  0
    6.1171   24.2779   18.1759 H   0  0  0  0  0
    8.7772   24.2559   18.2898 H   0  0  0  0  0
    9.3195   24.8029   19.8881 H   0  0  0  0  0
    7.1157   26.0999   18.2187 H   0  0  0  0  0
    7.6600   26.6490   19.8228 H   0  0  0  0  0
    8.7666   26.7330   18.4302 H   0  0  0  0  0
    6.3463   20.3469   21.5925 H   0  0  0  0  0
    6.7490   18.8488   23.5241 H   0  0  0  0  0
    6.8718   23.7743   24.1319 H   0  0  0  0  0
    7.2807   22.2736   26.0650 H   0  0  0  0  0
    8.1571   19.8672   26.6384 H   0  0  0  0  0
    7.3896   18.5180   25.7273 H   0  0  0  0  0
    6.2095   18.8399   27.8834 H   0  0  0  0  0
    4.9607   18.2075   25.7923 H   0  0  0  0  0
    4.4343   19.8973   25.6941 H   0  0  0  0  0
    3.1129   17.4400   28.7977 H   0  0  0  0  0
    4.4771   16.9225   27.7665 H   0  0  0  0  0
    2.0250   18.3435   25.4297 H   0  0  0  0  0
    0.7890   14.2997   25.7162 H   0  0  0  0  0
    3.6574   14.4243   27.8756 H   0  0  0  0  0
    2.3046   14.9227   28.9209 H   0  0  0  0  0
    2.0894   13.5879   27.7620 H   0  0  0  0  0
    1.4769   18.4149   28.4384 H   0  0  0  0  0
   -0.0092   20.1439   29.4583 H   0  0  0  0  0
    2.9299   23.1590   28.5721 H   0  0  0  0  0
    4.9038   22.6753   27.9495 H   0  0  0  0  0
    4.6371   21.7815   26.3455 H   0  0  0  0  0
    4.3621   21.7649   30.8697 H   0  0  0  0  0
    2.8329   20.5399   32.3874 H   0  0  0  0  0
    1.4096   19.3573   32.8204 H   0  0  0  0  0
    1.2751   18.0496   31.6192 H   0  0  0  0  0
    0.9158   17.7249   33.3328 H   0  0  0  0  0
    4.8940   16.8710   31.4958 H   0  0  0  0  0
    6.4322   18.1009   29.9854 H   0  0  0  0  0
  1  2  1  0  0  0
  2  3  1  0  0  0
  3  4  1  0  0  0
  3  6  1  0  0  0
  4  5  1  0  0  0
  6  7  2  0  0  0
  6  8  1  0  0  0
  8  9  1  0  0  0
  9 10  4  0  0  0
  9 12  4  0  0  0
 10 11  4  0  0  0
 11 14  4  0  0  0
 12 13  4  0  0  0
 13 14  4  0  0  0
 14 15  1  0  0  0
 15 16  1  0  0  0
 16 17  1  0  0  0
 16 35  1  0  0  0
 17 18  1  0  0  0
 18 19  1  0  0  0
 18 26  1  0  0  0
 19 20  1  0  0  0
 20 21  4  0  0  0
 20 24  4  0  0  0
 21 22  4  0  0  0
 22 23  4  0  0  0
 23 24  4  0  0  0
 24 25  1  0  0  0
 26 27  4  0  0  0
 26 33  4  0  0  0
 27 28  4  0  0  0
 28 29  4  0  0  0
 29 30  1  0  0  0
 29 32  4  0  0  0
 30 31  3  0  0  0
 32 33  4  0  0  0
 33 34  1  0  0  0
 34 35  1  0  0  0
 35 36  1  0  0  0
 36 37  2  0  0  0
 36 38  2  0  0  0
 36 39  1  0  0  0
 39 40  4  0  0  0
 39 46  4  0  0  0
 40 41  4  0  0  0
 41 42  4  0  0  0
 42 43  1  0  0  0
 42 45  4  0  0  0
 43 44  1  0  0  0
 45 46  4  0  0  0
  1 47  1  0  0  0
  1 48  1  0  0  0
  1 49  1  0  0  0
  2 50  1  0  0  0
  2 51  1  0  0  0
  4 52  1  0  0  0
  4 53  1  0  0  0
  5 54  1  0  0  0
  5 55  1  0  0  0
  5 56  1  0  0  0
 10 57  1  0  0  0
 11 58  1  0  0  0
 12 59  1  0  0  0
 13 60  1  0  0  0
 15 61  1  0  0  0
 15 62  1  0  0  0
 16 63  1  0  0  0
 17 64  1  0  0  0
 17 65  1  0  0  0
 19 66  1  0  0  0
 19 67  1  0  0  0
 21 68  1  0  0  0
 23 69  1  0  0  0
 25 70  1  0  0  0
 25 71  1  0  0  0
 25 72  1  0  0  0
 27 73  1  0  0  0
 28 74  1  0  0  0
 32 75  1  0  0  0
 34 76  1  0  0  0
 34 77  1  0  0  0
 40 78  1  0  0  0
 41 79  1  0  0  0
 44 80  1  0  0  0
 44 81  1  0  0  0
 44 82  1  0  0  0
 45 83  1  0  0  0
 46 84  1  0  0  0
M  END
$$$$
