1uz8_ligand
  -I-interpret- 

 74 76  0  0  0  0  0  0  0  0999 V2000
    3.7450   18.8730   20.3630 C   0  0  0  0  0
    2.3090   19.3940   20.4620 C   0  0  0  0  0
    1.4510   19.1240   19.2320 C   0  0  0  0  0
    2.2380   19.3440   17.9460 C   0  0  0  0  0
    3.5480   18.5690   18.0430 C   0  0  0  0  0
    4.3490   18.6230   16.7480 C   0  0  0  0  0
    1.7470   19.2360   22.8160 C   0  0  0  0  0
    1.3500   18.3040   23.9220 C   0  0  0  0  0
    1.6580   18.7490   21.5860 N   0  0  0  0  0
    4.5190   19.5360   21.3430 O   0  0  0  0  0
    0.2900   19.9270   19.2290 O   0  0  0  0  0
    1.4580   18.8710   16.8690 O   0  0  0  0  0
    4.3270   19.0990   19.0930 O   0  0  0  0  0
    4.7940   19.9420   16.5280 O   0  0  0  0  0
    2.1430   20.3750   23.0470 O   0  0  0  0  0
    5.8280   19.0590   21.6280 C   0  0  0  0  0
   -0.8750   19.2240   19.6950 C   0  0  0  0  0
   -1.8760   20.2430   20.2160 C   0  0  0  0  0
   -2.3420   21.1100   19.0540 C   0  0  0  0  0
   -2.9840   20.2340   17.9900 C   0  0  0  0  0
   -2.0420   19.1000   17.5960 C   0  0  0  0  0
   -2.7430   18.1080   16.6690 C   0  0  0  0  0
   -1.2570   21.0010   21.2320 O   0  0  0  0  0
   -3.2630   22.0920   19.4740 O   0  0  0  0  0
   -4.2070   19.7070   18.4510 O   0  0  0  0  0
   -1.5300   18.4250   18.7300 O   0  0  0  0  0
    1.3190   19.8570   15.8280 C   0  0  0  0  0
    0.6340   19.2030   14.6300 C   0  0  0  0  0
    0.3530   20.2150   13.5260 C   0  0  0  0  0
   -0.3920   21.3930   14.1230 C   0  0  0  0  0
    0.3980   21.9610   15.2940 C   0  0  0  0  0
   -0.2990   23.1690   15.9060 C   0  0  0  0  0
    1.4510   18.1910   14.1010 O   0  0  0  0  0
   -0.4270   19.6390   12.4980 O   0  0  0  0  0
   -1.6670   20.9540   14.5310 O   0  0  0  0  0
    0.5640   20.9600   16.2710 O   0  0  0  0  0
    0.4940   23.6320   16.9750 O   0  0  0  0  0
    3.7221   17.7944   20.5184 H   0  0  0  0  0
    2.3920   20.4754   20.5708 H   0  0  0  0  0
    1.1489   18.0777   19.2778 H   0  0  0  0  0
    2.4626   20.3994   17.7915 H   0  0  0  0  0
    3.2994   17.5253   18.2352 H   0  0  0  0  0
    3.7186   18.3079   15.9165 H   0  0  0  0  0
    5.2083   17.9566   16.8232 H   0  0  0  0  0
    2.2020   18.1420   24.5823 H   0  0  0  0  0
    0.5284   18.7430   24.4880 H   0  0  0  0  0
    1.0321   17.3521   23.4967 H   0  0  0  0  0
    1.1177   17.8987   21.4262 H   0  0  0  0  0
    5.2987   19.9763   15.7121 H   0  0  0  0  0
    5.7697   18.0280   21.9768 H   0  0  0  0  0
    6.4347   19.1041   20.7236 H   0  0  0  0  0
    6.2795   19.6806   22.4013 H   0  0  0  0  0
   -0.5150   18.5381   20.4619 H   0  0  0  0  0
   -2.7538   19.7587   20.6437 H   0  0  0  0  0
   -1.4696   21.6194   18.6446 H   0  0  0  0  0
   -3.1799   20.8511   17.1131 H   0  0  0  0  0
   -1.2032   19.5496   17.0646 H   0  0  0  0  0
   -3.6083   17.6850   17.1793 H   0  0  0  0  0
   -3.0686   18.6243   15.7660 H   0  0  0  0  0
   -2.0503   17.3096   16.4028 H   0  0  0  0  0
   -1.8791   21.6492   21.5702 H   0  0  0  0  0
   -3.5346   22.6184   18.7185 H   0  0  0  0  0
   -4.5959   19.1579   17.7663 H   0  0  0  0  0
    2.3064   20.2232   15.5470 H   0  0  0  0  0
   -0.3100   18.7883   14.9835 H   0  0  0  0  0
    1.3000   20.5401   13.0951 H   0  0  0  0  0
   -0.5087   22.1868   13.3852 H   0  0  0  0  0
    1.3695   22.2897   14.9248 H   0  0  0  0  0
   -1.2902   22.8911   16.2644 H   0  0  0  0  0
   -0.4200   23.9533   15.1588 H   0  0  0  0  0
    1.0116   17.7868   13.3492 H   0  0  0  0  0
   -0.5901   20.2947   11.8161 H   0  0  0  0  0
   -2.1511   21.6904   14.9117 H   0  0  0  0  0
    0.0730   24.3954   17.3770 H   0  0  0  0  0
  2  1  1  0  0  0
  1 10  1  0  0  0
  1 13  1  0  0  0
  2  3  1  0  0  0
  9  2  1  0  0  0
  3  4  1  0  0  0
  3 11  1  0  0  0
  4  5  1  0  0  0
  4 12  1  0  0  0
  5  6  1  0  0  0
 13  5  1  0  0  0
  6 14  1  0  0  0
  7  8  1  0  0  0
  7  9  1  0  0  0
  7 15  2  0  0  0
 10 16  1  0  0  0
 11 17  1  0  0  0
 12 27  1  0  0  0
 17 18  1  0  0  0
 17 26  1  0  0  0
 18 19  1  0  0  0
 18 23  1  0  0  0
 19 20  1  0  0  0
 19 24  1  0  0  0
 20 21  1  0  0  0
 20 25  1  0  0  0
 21 22  1  0  0  0
 21 26  1  0  0  0
 27 28  1  0  0  0
 27 36  1  0  0  0
 28 29  1  0  0  0
 28 33  1  0  0  0
 29 30  1  0  0  0
 29 34  1  0  0  0
 30 31  1  0  0  0
 30 35  1  0  0  0
 31 32  1  0  0  0
 31 36  1  0  0  0
 32 37  1  0  0  0
  1 38  1  0  0  0
  2 39  1  0  0  0
  3 40  1  0  0  0
  4 41  1  0  0  0
  5 42  1  0  0  0
  6 43  1  0  0  0
  6 44  1  0  0  0
  8 45  1  0  0  0
  8 46  1  0  0  0
  8 47  1  0  0  0
  9 48  1  0  0  0
 14 49  1  0  0  0
 16 50  1  0  0  0
 16 51  1  0  0  0
 16 52  1  0  0  0
 17 53  1  0  0  0
 18 54  1  0  0  0
 19 55  1  0  0  0
 20 56  1  0  0  0
 21 57  1  0  0  0
 22 58  1  0  0  0
 22 59  1  0  0  0
 22 60  1  0  0  0
 23 61  1  0  0  0
 24 62  1  0  0  0
 25 63  1  0  0  0
 27 64  1  0  0  0
 28 65  1  0  0  0
 29 66  1  0  0  0
 30 67  1  0  0  0
 31 68  1  0  0  0
 32 69  1  0  0  0
 32 70  1  0  0  0
 33 71  1  0  0  0
 34 72  1  0  0  0
 35 73  1  0  0  0
 37 74  1  0  0  0
M  END
$$$$
