6jz0_ligand
  -I-interpret- 

 74 78  0  0  0  0  0  0  0  0999 V2000
  -21.8050  -52.3780    0.4150 C   0  0  0  0  0
  -21.1350  -53.2560    1.1750 C   0  0  0  0  0
  -21.7360  -54.2990    1.7600 N   0  0  0  0  0
  -23.0990  -54.5090    1.5880 C   0  0  0  0  0
  -23.7830  -53.5970    0.7960 N   0  0  0  0  0
  -23.1290  -52.5690    0.2340 C   0  0  0  0  0
  -20.8840  -51.4810   -0.0090 C   0  0  0  0  0
  -19.6970  -51.8330    0.5210 C   0  0  0  0  0
  -18.4720  -51.2890    0.4330 C   0  0  0  0  0
  -21.1160  -50.4100   -0.7900 C   0  0  0  0  0
  -25.2100  -51.8330   -0.9450 C   0  0  0  0  0
  -26.1660  -51.9740    0.0870 C   0  0  0  0  0
  -25.5710  -50.5790   -1.7450 C   0  0  0  0  0
  -18.0960  -50.2930   -0.4660 C   0  0  0  0  0
  -16.7900  -49.8080   -0.4680 C   0  0  0  0  0
  -15.8430  -50.3050    0.4210 C   0  0  0  0  0
  -16.2060  -51.2980    1.3190 C   0  0  0  0  0
  -17.5110  -51.7800    1.3170 C   0  0  0  0  0
  -21.6180  -49.2680   -0.1810 C   0  0  0  0  0
  -21.8680  -48.1260   -0.9260 C   0  0  0  0  0
  -21.6130  -48.1250   -2.2890 C   0  0  0  0  0
  -21.1140  -49.2550   -2.9260 C   0  0  0  0  0
  -20.8520  -50.4050   -2.1710 C   0  0  0  0  0
  -19.9830  -49.8170   -4.9290 C   0  0  0  0  0
  -19.8760  -49.3680   -6.3910 C   0  0  0  0  0
  -18.9220  -50.0910   -7.3640 C   0  0  0  0  0
  -18.8550  -49.5360   -8.8100 C   0  0  0  0  0
  -17.6620  -47.5810   -7.8630 C   0  0  0  0  0
  -19.8630  -47.2540   -8.7790 C   0  0  0  0  0
  -27.4340  -52.4420   -0.2480 C   0  0  0  0  0
  -28.4260  -52.5950    0.7150 C   0  0  0  0  0
  -28.1610  -52.2720    2.0390 C   0  0  0  0  0
  -26.9010  -51.7990    2.3870 C   0  0  0  0  0
  -25.9110  -51.6440    1.4180 C   0  0  0  0  0
  -23.7970  -51.6880   -0.5130 N   0  0  0  0  0
  -20.8950  -49.1050   -4.2400 N   0  0  0  0  0
  -18.6310  -48.0610   -8.8590 N   0  3  0  0  0
  -19.8710  -52.9020    1.2220 O   0  0  0  0  0
  -26.2280  -50.9420   -2.9600 O   0  0  0  0  0
  -19.3080  -50.7420   -4.4840 O   0  0  0  0  0
  -23.6083  -55.3524    2.0543 H   0  0  0  0  0
  -25.2552  -52.7629   -1.5119 H   0  0  0  0  0
  -24.6586  -50.0319   -1.9822 H   0  0  0  0  0
  -26.2391  -49.9561   -1.1502 H   0  0  0  0  0
  -18.8257  -49.8922   -1.1696 H   0  0  0  0  0
  -16.5067  -49.0288   -1.1756 H   0  0  0  0  0
  -14.8242  -49.9176    0.4122 H   0  0  0  0  0
  -15.4742  -51.6977    2.0210 H   0  0  0  0  0
  -17.7897  -52.5612    2.0242 H   0  0  0  0  0
  -21.8170  -49.2693    0.8907 H   0  0  0  0  0
  -22.2633  -47.2327   -0.4425 H   0  0  0  0  0
  -21.8070  -47.2235   -2.8702 H   0  0  0  0  0
  -20.4445  -51.2938   -2.6527 H   0  0  0  0  0
  -19.4813  -48.3537   -6.3321 H   0  0  0  0  0
  -20.8687  -49.5522   -6.8018 H   0  0  0  0  0
  -19.2958  -51.1113   -7.4500 H   0  0  0  0  0
  -17.9212  -49.9718   -6.9489 H   0  0  0  0  0
  -19.8118  -49.7426   -9.2896 H   0  0  0  0  0
  -18.0147  -50.0162   -9.3113 H   0  0  0  0  0
  -18.0205  -47.8240   -6.8627 H   0  0  0  0  0
  -16.6994  -48.0635   -8.0326 H   0  0  0  0  0
  -17.5502  -46.5009   -7.9579 H   0  0  0  0  0
  -20.5151  -47.5049   -9.6156 H   0  0  0  0  0
  -20.3752  -47.4672   -7.8407 H   0  0  0  0  0
  -19.6059  -46.1956   -8.8218 H   0  0  0  0  0
  -27.6536  -52.6935   -1.2856 H   0  0  0  0  0
  -29.4099  -52.9679    0.4306 H   0  0  0  0  0
  -28.9339  -52.3882    2.7987 H   0  0  0  0  0
  -26.6855  -51.5474    3.4254 H   0  0  0  0  0
  -24.9305  -51.2622    1.7025 H   0  0  0  0  0
  -23.2980  -50.8496   -0.8104 H   0  0  0  0  0
  -21.4494  -48.4139   -4.7455 H   0  0  0  0  0
  -18.2344  -47.9218   -9.7884 H   0  0  0  0  0
  -26.4491  -50.1481   -3.4524 H   0  0  0  0  0
  1  2  4  0  0  0
  1  6  4  0  0  0
  7  1  4  0  0  0
  2  3  4  0  0  0
 38  2  4  0  0  0
  3  4  4  0  0  0
  5  4  4  0  0  0
  6  5  4  0  0  0
  6 35  1  0  0  0
  7  8  4  0  0  0
 10  7  1  0  0  0
  8  9  1  0  0  0
  8 38  4  0  0  0
  9 14  4  0  0  0
  9 18  4  0  0  0
 10 19  4  0  0  0
 23 10  4  0  0  0
 11 12  1  0  0  0
 11 13  1  0  0  0
 35 11  1  0  0  0
 12 30  4  0  0  0
 12 34  4  0  0  0
 13 39  1  0  0  0
 14 15  4  0  0  0
 15 16  4  0  0  0
 17 16  4  0  0  0
 18 17  4  0  0  0
 20 19  4  0  0  0
 21 20  4  0  0  0
 22 21  4  0  0  0
 22 23  4  0  0  0
 36 22  1  0  0  0
 24 25  1  0  0  0
 24 36  1  0  0  0
 24 40  2  0  0  0
 25 26  1  0  0  0
 26 27  1  0  0  0
 27 37  1  0  0  0
 37 28  1  0  0  0
 37 29  1  0  0  0
 30 31  4  0  0  0
 31 32  4  0  0  0
 32 33  4  0  0  0
 33 34  4  0  0  0
  4 41  1  0  0  0
 11 42  1  0  0  0
 13 43  1  0  0  0
 13 44  1  0  0  0
 14 45  1  0  0  0
 15 46  1  0  0  0
 16 47  1  0  0  0
 17 48  1  0  0  0
 18 49  1  0  0  0
 19 50  1  0  0  0
 20 51  1  0  0  0
 21 52  1  0  0  0
 23 53  1  0  0  0
 25 54  1  0  0  0
 25 55  1  0  0  0
 26 56  1  0  0  0
 26 57  1  0  0  0
 27 58  1  0  0  0
 27 59  1  0  0  0
 28 60  1  0  0  0
 28 61  1  0  0  0
 28 62  1  0  0  0
 29 63  1  0  0  0
 29 64  1  0  0  0
 29 65  1  0  0  0
 30 66  1  0  0  0
 31 67  1  0  0  0
 32 68  1  0  0  0
 33 69  1  0  0  0
 34 70  1  0  0  0
 35 71  1  0  0  0
 36 72  1  0  0  0
 37 73  1  0  0  0
 39 74  1  0  0  0
M  END
$$$$
