5tyo_ligand
  -I-interpret- 

 31 32  0  0  0  0  0  0  0  0999 V2000
  -14.0600   -7.9360  -18.7530 C   0  0  0  0  0
  -15.2060   -8.3050  -19.7110 C   0  0  0  0  0
  -15.7070   -7.2890  -20.5940 C   0  0  0  0  0
  -15.1280   -5.9800  -20.5320 O   0  0  0  0  0
  -15.2600   -5.2430  -21.6980 C   0  0  0  0  0
  -14.5980   -3.8610  -21.3850 C   0  0  0  0  0
  -15.1910   -2.6460  -21.9140 C   0  0  0  0  0
  -14.5980   -1.4230  -21.6390 C   0  0  0  0  0
  -13.4690   -1.3630  -20.8640 C   0  0  0  0  0
  -12.8940   -2.5640  -20.3340 C   0  0  0  0  0
  -13.4970   -3.8140  -20.6200 C   0  0  0  0  0
  -16.7130   -7.5650  -21.4780 C   0  0  0  0  0
  -17.2820   -8.9220  -21.5120 C   0  0  0  0  0
  -18.5230   -9.2520  -22.6020 B   0  0  0  0  0
  -19.4680   -8.2650  -22.9460 O   0  0  0  0  0
  -16.8050   -9.9010  -20.6680 C   0  0  0  0  0
  -15.7470   -9.5990  -19.7380 C   0  0  0  0  0
  -13.1942   -7.6135  -19.3314 H   0  0  0  0  0
  -14.3824   -7.1270  -18.0975 H   0  0  0  0  0
  -13.7944   -8.8069  -18.1538 H   0  0  0  0  0
  -16.3048   -5.1324  -21.9883 H   0  0  0  0  0
  -14.7804   -5.7370  -22.5430 H   0  0  0  0  0
  -16.0944   -2.6947  -22.5220 H   0  0  0  0  0
  -15.0309   -0.5067  -22.0403 H   0  0  0  0  0
  -13.0072   -0.3991  -20.6502 H   0  0  0  0  0
  -11.9983   -2.5162  -19.7147 H   0  0  0  0  0
  -13.0683   -4.7330  -20.2203 H   0  0  0  0  0
  -17.0881   -6.7912  -22.1478 H   0  0  0  0  0
  -20.0954   -8.6295  -23.5746 H   0  0  0  0  0
  -17.2284  -10.9047  -20.7040 H   0  0  0  0  0
  -15.3710  -10.3676  -19.0627 H   0  0  0  0  0
  1  2  1  0  0  0
  2  3  4  0  0  0
  2 17  4  0  0  0
  3  4  1  0  0  0
  3 12  4  0  0  0
  4  5  1  0  0  0
  5  6  1  0  0  0
  6  7  4  0  0  0
  6 11  4  0  0  0
  7  8  4  0  0  0
  8  9  4  0  0  0
  9 10  4  0  0  0
 10 11  4  0  0  0
 12 13  4  0  0  0
 13 14  1  0  0  0
 13 16  4  0  0  0
 14 15  1  0  0  0
 16 17  4  0  0  0
  1 18  1  0  0  0
  1 19  1  0  0  0
  1 20  1  0  0  0
  5 21  1  0  0  0
  5 22  1  0  0  0
  7 23  1  0  0  0
  8 24  1  0  0  0
  9 25  1  0  0  0
 10 26  1  0  0  0
 11 27  1  0  0  0
 12 28  1  0  0  0
 15 29  1  0  0  0
 16 30  1  0  0  0
 17 31  1  0  0  0
M  END
$$$$
