### 
### Created by X-TOOL on Fri Nov  2 10:14:02 2018
### 

@<TRIPOS>MOLECULE
5tyo_ligand
   31    32     1     0     0
SMALL
GAST_HUCK


@<TRIPOS>ATOM
      1 C01       -14.0600   -7.9360  -18.7530 C.3       1 7NM        -0.0330
      2 C02       -15.2060   -8.3050  -19.7110 C.ar      1 7NM        -0.0165
      3 C03       -15.7070   -7.2890  -20.5940 C.ar      1 7NM         0.0953
      4 O04       -15.1280   -5.9800  -20.5320 O.3       1 7NM        -0.3092
      5 C05       -15.2600   -5.2430  -21.6980 C.3       1 7NM         0.1027
      6 C06       -14.5980   -3.8610  -21.3850 C.ar      1 7NM        -0.0131
      7 C07       -15.1910   -2.6460  -21.9140 C.ar      1 7NM        -0.0578
      8 C08       -14.5980   -1.4230  -21.6390 C.ar      1 7NM        -0.0685
      9 C09       -13.4690   -1.3630  -20.8640 C.ar      1 7NM        -0.0687
     10 C10       -12.8940   -2.5640  -20.3340 C.ar      1 7NM        -0.0685
     11 C11       -13.4970   -3.8140  -20.6200 C.ar      1 7NM        -0.0578
     12 C12       -16.7130   -7.5650  -21.4780 C.ar      1 7NM        -0.0394
     13 C13       -17.2820   -8.9220  -21.5120 C.ar      1 7NM        -0.0776
     14 B14       -18.5230   -9.2520  -22.6020 B         1 7NM         2.0000
     15 O15       -19.4680   -8.2650  -22.9460 O.3       1 7NM        -0.4105
     16 C17       -16.8050   -9.9010  -20.6680 C.ar      1 7NM        -0.0797
     17 C18       -15.7470   -9.5990  -19.7380 C.ar      1 7NM        -0.0691
     18 H1        -13.7910   -8.8142  -18.1477 H         1 7NM         0.0368
     19 H2        -14.3841   -7.1197  -18.0908 H         1 7NM         0.0368
     20 H3        -13.1856   -7.6104  -19.3355 H         1 7NM         0.0368
     21 H4        -16.3218   -5.1131  -21.9544 H         1 7NM         0.0776
     22 H5        -14.7400   -5.7404  -22.5300 H         1 7NM         0.0776
     23 H6        -16.0894   -2.6944  -22.5186 H         1 7NM         0.0557
     24 H7        -15.0286   -0.5117  -22.0381 H         1 7NM         0.0599
     25 H8        -13.0097   -0.4044  -20.6514 H         1 7NM         0.0559
     26 H9        -12.0032   -2.5165  -19.7181 H         1 7NM         0.0599
     27 H10       -13.0706   -4.7279  -20.2225 H         1 7NM         0.0557
     28 H11       -17.0861   -6.7955  -22.1441 H         1 7NM         0.0521
     29 H14       -20.0888   -8.6257  -23.5680 H         1 7NM         0.2052
     30 H15       -17.2261  -10.8992  -20.7038 H         1 7NM         0.0505
     31 H16       -15.3731  -10.3633  -19.0664 H         1 7NM         0.0526
@<TRIPOS>BOND
     1    1    2 1  
     2    2    3 ar 
     3    2   17 ar 
     4    3    4 1  
     5    3   12 ar 
     6    4    5 1  
     7    5    6 1  
     8    6    7 ar 
     9    6   11 ar 
    10    7    8 ar 
    11    8    9 ar 
    12    9   10 ar 
    13   10   11 ar 
    14   12   13 ar 
    15   13   14 1  
    16   13   16 ar 
    17   14   15 1  
    18   16   17 ar 
    19    1   18 1  
    20    1   19 1  
    21    1   20 1  
    22    5   21 1  
    23    5   22 1  
    24    7   23 1  
    25    8   24 1  
    26    9   25 1  
    27   10   26 1  
    28   11   27 1  
    29   12   28 1  
    30   15   29 1  
    31   16   30 1  
    32   17   31 1  
@<TRIPOS>SUBSTRUCTURE
     1 7NM         1

