### 
### Created by X-TOOL on Mon Sep 10 21:12:46 2018
### 

@<TRIPOS>MOLECULE
1bjr_ligand
  116   115     1     0     0
SMALL
GAST_HUCK


@<TRIPOS>ATOM
      1 N           7.0510   -8.3090   16.2430 N.4       1 VAL         0.2381
      2 CA          6.3720   -9.0950   15.2230 C.3       1 VAL         0.0673
      3 C           5.1310   -9.8360   15.7520 C.2       1 VAL         0.2269
      4 O           4.1710   -9.2030   16.2240 O.2       1 VAL        -0.3907
      5 CB          7.1920  -10.1470   14.5500 C.3       1 VAL         0.0139
      6 CG1         6.9650  -10.2060   13.0380 C.3       1 VAL        -0.0553
      7 CG2         8.6970   -9.9410   14.7350 C.3       1 VAL        -0.0553
      8 N           5.1670  -11.1850   15.6720 N.am      1 ALA        -0.2613
      9 CA          3.9570  -11.9790   15.9840 C.3       1 ALA         0.1283
     10 C           4.0350  -13.1460   17.0400 C.2       1 ALA         0.2036
     11 O           4.4890  -12.9700   18.1760 O.2       1 ALA        -0.3944
     12 CB          3.3800  -12.6160   14.7300 C.3       1 ALA        -0.0244
     13 N           3.5940  -14.3280   16.5500 N.am      1 GLN        -0.2636
     14 CA          3.0040  -15.4230   17.4000 C.3       1 GLN         0.1330
     15 C           2.8270  -15.0320   18.8510 C.2       1 GLN         0.2038
     16 O           3.3770  -14.0440   19.3210 O.2       1 GLN        -0.3944
     17 CB          3.5010  -16.8910   17.4000 C.3       1 GLN         0.0045
     18 CG          2.2330  -17.8280   17.1680 C.3       1 GLN         0.0412
     19 CD          1.8760  -18.9260   18.2370 C.2       1 GLN         0.1737
     20 OE1         0.8730  -19.6530   18.0690 O.2       1 GLN        -0.3973
     21 NE2         2.6440  -19.1460   19.2820 N.am      1 GLN        -0.3009
     22 N           2.0040  -15.8660   19.4210 N.am      1 GLY        -0.2664
     23 CA          1.5090  -15.8410   20.8080 C.3       1 GLY         0.1201
     24 C           1.9530  -14.6560   21.7060 C.2       1 GLY         0.2005
     25 O           2.9770  -14.7330   22.3960 O.2       1 GLY        -0.3947
     26 N           1.1250  -13.6080   21.6960 N.am      1 GLY        -0.2666
     27 CA          1.2340  -12.4240   22.6080 C.3       1 GLY         0.1201
     28 C           2.4670  -11.5160   22.3770 C.2       1 GLY         0.2007
     29 O           2.3290  -10.3370   22.0240 O.2       1 GLY        -0.3947
     30 N           3.6360  -12.0890   22.6260 N.am      1 ALA        -0.2642
     31 CA          4.9660  -11.4080   22.5130 C.3       1 ALA         0.1282
     32 C           4.8860  -10.0240   21.8080 C.2       1 ALA         0.2036
     33 O           3.8220   -9.3910   21.7630 O.2       1 ALA        -0.3944
     34 CB          5.9330  -12.2880   21.7270 C.3       1 ALA        -0.0244
     35 N           6.0540   -9.5840   21.2660 N.am      1 ALA        -0.2640
     36 CA          6.2080   -8.2520   20.5710 C.3       1 ALA         0.1282
     37 C           7.3620   -8.2560   19.5180 C.2       1 ALA         0.2034
     38 O           7.8650   -9.3160   19.1140 O.2       1 ALA        -0.3944
     39 CB          6.5200   -7.1640   21.5950 C.3       1 ALA        -0.0244
     40 N           7.7910   -7.0390   19.0650 N.am      1 GLY        -0.2664
     41 CA          8.8680   -6.9430   18.0300 C.3       1 GLY         0.1201
     42 C           9.3050   -5.5030   17.5910 C.2       1 GLY         0.2007
     43 O           9.4460   -4.5790   18.4170 O.2       1 GLY        -0.3947
     44 N           9.4970   -5.4150   16.2490 N.am      1 LEU        -0.2640
     45 CA         10.0890   -4.2450   15.5470 C.3       1 LEU         0.1312
     46 C          11.5770   -4.5170   15.5150 C.2       1 LEU         0.2040
     47 O          12.3900   -3.7820   14.9700 O.2       1 LEU        -0.3944
     48 CB          9.8450   -2.9760   16.3420 C.3       1 LEU        -0.0101
     49 CG          9.7060   -1.7420   15.4620 C.3       1 LEU        -0.0425
     50 CD1         8.3910   -1.7310   14.6860 C.3       1 LEU        -0.0625
     51 CD2         9.7360   -0.4410   16.2640 C.3       1 LEU        -0.0625
     52 N          11.8280   -5.5820   16.1350 N.am      1 ALA        -0.2653
     53 CA         13.1170   -6.1080   16.3410 C.3       1 ALA         0.1100
     54 C          12.8610   -7.1500   17.4520 C.2       1 ALA         0.1242
     55 O          11.6780   -7.1840   17.8570 O.2       1 ALA        -0.3725
     56 CB         14.0870   -5.0080   16.7760 C.3       1 ALA        -0.0257
     57 H1          6.4098   -7.6338   16.6290 H         1 VAL         0.2015
     58 H2          7.8359   -7.8295   15.8306 H         1 VAL         0.2015
     59 H3          7.3774   -8.9194   16.9757 H         1 VAL         0.2015
     60 H4          6.0459   -8.3806   14.4528 H         1 VAL         0.1101
     61 H5          6.9097  -11.1152   14.9893 H         1 VAL         0.0376
     62 H6          7.5944  -10.9965   12.6033 H         1 VAL         0.0236
     63 H7          7.2308   -9.2375   12.5892 H         1 VAL         0.0236
     64 H8          5.9067  -10.4264   12.8344 H         1 VAL         0.0236
     65 H9          8.9307   -9.8893   15.8086 H         1 VAL         0.0236
     66 H10         9.0013   -9.0028   14.2480 H         1 VAL         0.0236
     67 H11         9.2408  -10.7828   14.2815 H         1 VAL         0.0236
     68 H12         6.0117  -11.6470   15.4018 H         1 ALA         0.1884
     69 H13         3.2250  -11.2552   16.3716 H         1 ALA         0.0797
     70 H14         2.4843  -13.1978   14.9932 H         1 ALA         0.0277
     71 H15         4.1302  -13.2819   14.2785 H         1 ALA         0.0277
     72 H16         3.1079  -11.8293   14.0110 H         1 ALA         0.0277
     73 H17         3.6640  -14.4839   15.5647 H         1 GLN         0.1883
     74 H18         1.9853  -15.5026   16.9927 H         1 GLN         0.0801
     75 H19         3.9710  -17.1281   18.3658 H         1 GLN         0.0337
     76 H20         4.2308  -17.0401   16.5906 H         1 GLN         0.0337
     77 H21         2.3915  -18.3506   16.2131 H         1 GLN         0.0504
     78 H22         1.3578  -17.1671   17.0835 H         1 GLN         0.0504
     79 H23         2.3942  -19.8500   19.9468 H         1 GLN         0.1814
     80 H24         3.4777  -18.6092   19.4117 H         1 GLN         0.1814
     81 H25         1.6679  -16.6132   18.8476 H         1 GLY         0.1881
     82 H26         1.8464  -16.7678   21.2950 H         1 GLY         0.0763
     83 H27         0.4099  -15.8283   20.7654 H         1 GLY         0.0763
     84 H28         0.3778  -13.6139   21.0314 H         1 GLY         0.1881
     85 H29         1.2759  -12.7957   23.6424 H         1 GLY         0.0763
     86 H30         0.3312  -11.8097   22.4753 H         1 GLY         0.0763
     87 H31         3.6299  -13.0476   22.9106 H         1 ALA         0.1883
     88 H32         5.3607  -11.2583   23.5288 H         1 ALA         0.0797
     89 H33         6.9068  -11.7827   21.6477 H         1 ALA         0.0277
     90 H34         5.5297  -12.4669   20.7194 H         1 ALA         0.0277
     91 H35         6.0599  -13.2489   22.2472 H         1 ALA         0.0277
     92 H36         6.8567  -10.1768   21.3316 H         1 ALA         0.1883
     93 H37         5.2624   -8.0141   20.0618 H         1 ALA         0.0797
     94 H38         6.6306   -6.1977   21.0811 H         1 ALA         0.0277
     95 H39         7.4558   -7.4103   22.1181 H         1 ALA         0.0277
     96 H40         5.6985   -7.0998   22.3237 H         1 ALA         0.0277
     97 H41         7.3803   -6.2033   19.4296 H         1 GLY         0.1881
     98 H42         8.5138   -7.4707   17.1322 H         1 GLY         0.0763
     99 H43         9.7576   -7.4531   18.4281 H         1 GLY         0.0763
    100 H44         9.2191   -6.1966   15.6905 H         1 LEU         0.1883
    101 H45         9.6780   -4.1445   14.5316 H         1 LEU         0.0800
    102 H46        10.6911   -2.8239   17.0283 H         1 LEU         0.0315
    103 H47         8.9190   -3.0986   16.9230 H         1 LEU         0.0315
    104 H48        10.5437   -1.7419   14.7491 H         1 LEU         0.0298
    105 H49         8.3380   -0.8230   14.0673 H         1 LEU         0.0232
    106 H50         7.5481   -1.7429   15.3927 H         1 LEU         0.0232
    107 H51         8.3396   -2.6191   14.0390 H         1 LEU         0.0232
    108 H52        10.6670   -0.3916   16.8478 H         1 LEU         0.0232
    109 H53         8.8735   -0.4107   16.9460 H         1 LEU         0.0232
    110 H54         9.6892    0.4155   15.5753 H         1 LEU         0.0232
    111 H55        11.0542   -6.0930   16.5094 H         1 ALA         0.1884
    112 H56        13.5024   -6.5908   15.4309 H         1 ALA         0.0787
    113 H57        13.6416   -7.7980   17.8478 H         1 ALA         0.1373
    114 H58        15.0864   -5.4407   16.9311 H         1 ALA         0.0278
    115 H59        13.7330   -4.5571   17.7148 H         1 ALA         0.0278
    116 H60        14.1392   -4.2352   15.9949 H         1 ALA         0.0278
@<TRIPOS>BOND
     1    1    2 1  
     2    2    3 1  
     3    2    5 1  
     4    3    4 2  
     5    3    8 am 
     6    5    6 1  
     7    5    7 1  
     8    8    9 1  
     9    9   10 1  
    10    9   12 1  
    11   10   11 2  
    12   10   13 am 
    13   13   14 1  
    14   14   15 1  
    15   14   17 1  
    16   15   16 2  
    17   15   22 am 
    18   17   18 1  
    19   18   19 1  
    20   19   20 2  
    21   19   21 am 
    22   22   23 1  
    23   23   24 1  
    24   24   25 2  
    25   24   26 am 
    26   26   27 1  
    27   27   28 1  
    28   28   29 2  
    29   28   30 am 
    30   30   31 1  
    31   31   32 1  
    32   31   34 1  
    33   32   33 2  
    34   32   35 am 
    35   35   36 1  
    36   36   37 1  
    37   36   39 1  
    38   37   38 2  
    39   37   40 am 
    40   40   41 1  
    41   41   42 1  
    42   42   43 2  
    43   42   44 am 
    44   44   45 1  
    45   45   46 1  
    46   45   48 1  
    47   46   47 2  
    48   46   52 am 
    49   48   49 1  
    50   49   50 1  
    51   49   51 1  
    52   52   53 1  
    53   53   54 1  
    54   53   56 1  
    55   54   55 2  
    56    1   57 1  
    57    1   58 1  
    58    1   59 1  
    59    2   60 1  
    60    5   61 1  
    61    6   62 1  
    62    6   63 1  
    63    6   64 1  
    64    7   65 1  
    65    7   66 1  
    66    7   67 1  
    67    8   68 1  
    68    9   69 1  
    69   12   70 1  
    70   12   71 1  
    71   12   72 1  
    72   13   73 1  
    73   14   74 1  
    74   17   75 1  
    75   17   76 1  
    76   18   77 1  
    77   18   78 1  
    78   21   79 1  
    79   21   80 1  
    80   22   81 1  
    81   23   82 1  
    82   23   83 1  
    83   26   84 1  
    84   27   85 1  
    85   27   86 1  
    86   30   87 1  
    87   31   88 1  
    88   34   89 1  
    89   34   90 1  
    90   34   91 1  
    91   35   92 1  
    92   36   93 1  
    93   39   94 1  
    94   39   95 1  
    95   39   96 1  
    96   40   97 1  
    97   41   98 1  
    98   41   99 1  
    99   44  100 1  
   100   45  101 1  
   101   48  102 1  
   102   48  103 1  
   103   49  104 1  
   104   50  105 1  
   105   50  106 1  
   106   50  107 1  
   107   51  108 1  
   108   51  109 1  
   109   51  110 1  
   110   52  111 1  
   111   53  112 1  
   112   54  113 1  
   113   56  114 1  
   114   56  115 1  
   115   56  116 1  
@<TRIPOS>SUBSTRUCTURE
     1 VAL         1

