1bjr_ligand
  -I-interpret- 

116115  0  0  0  0  0  0  0  0999 V2000
    7.0510   -8.3090   16.2430 N   0  3  0  0  0
    6.3720   -9.0950   15.2230 C   0  0  0  0  0
    5.1310   -9.8360   15.7520 C   0  0  0  0  0
    4.1710   -9.2030   16.2240 O   0  0  0  0  0
    7.1920  -10.1470   14.5500 C   0  0  0  0  0
    6.9650  -10.2060   13.0380 C   0  0  0  0  0
    8.6970   -9.9410   14.7350 C   0  0  0  0  0
    5.1670  -11.1850   15.6720 N   0  0  0  0  0
    3.9570  -11.9790   15.9840 C   0  0  0  0  0
    4.0350  -13.1460   17.0400 C   0  0  0  0  0
    4.4890  -12.9700   18.1760 O   0  0  0  0  0
    3.3800  -12.6160   14.7300 C   0  0  0  0  0
    3.5940  -14.3280   16.5500 N   0  0  0  0  0
    3.0040  -15.4230   17.4000 C   0  0  0  0  0
    2.8270  -15.0320   18.8510 C   0  0  0  0  0
    3.3770  -14.0440   19.3210 O   0  0  0  0  0
    3.5010  -16.8910   17.4000 C   0  0  0  0  0
    2.2330  -17.8280   17.1680 C   0  0  0  0  0
    1.8760  -18.9260   18.2370 C   0  0  0  0  0
    0.8730  -19.6530   18.0690 O   0  0  0  0  0
    2.6440  -19.1460   19.2820 N   0  0  0  0  0
    2.0040  -15.8660   19.4210 N   0  0  0  0  0
    1.5090  -15.8410   20.8080 C   0  0  0  0  0
    1.9530  -14.6560   21.7060 C   0  0  0  0  0
    2.9770  -14.7330   22.3960 O   0  0  0  0  0
    1.1250  -13.6080   21.6960 N   0  0  0  0  0
    1.2340  -12.4240   22.6080 C   0  0  0  0  0
    2.4670  -11.5160   22.3770 C   0  0  0  0  0
    2.3290  -10.3370   22.0240 O   0  0  0  0  0
    3.6360  -12.0890   22.6260 N   0  0  0  0  0
    4.9660  -11.4080   22.5130 C   0  0  0  0  0
    4.8860  -10.0240   21.8080 C   0  0  0  0  0
    3.8220   -9.3910   21.7630 O   0  0  0  0  0
    5.9330  -12.2880   21.7270 C   0  0  0  0  0
    6.0540   -9.5840   21.2660 N   0  0  0  0  0
    6.2080   -8.2520   20.5710 C   0  0  0  0  0
    7.3620   -8.2560   19.5180 C   0  0  0  0  0
    7.8650   -9.3160   19.1140 O   0  0  0  0  0
    6.5200   -7.1640   21.5950 C   0  0  0  0  0
    7.7910   -7.0390   19.0650 N   0  0  0  0  0
    8.8680   -6.9430   18.0300 C   0  0  0  0  0
    9.3050   -5.5030   17.5910 C   0  0  0  0  0
    9.4460   -4.5790   18.4170 O   0  0  0  0  0
    9.4970   -5.4150   16.2490 N   0  0  0  0  0
   10.0890   -4.2450   15.5470 C   0  0  0  0  0
   11.5770   -4.5170   15.5150 C   0  0  0  0  0
   12.3900   -3.7820   14.9700 O   0  0  0  0  0
    9.8450   -2.9760   16.3420 C   0  0  0  0  0
    9.7060   -1.7420   15.4620 C   0  0  0  0  0
    8.3910   -1.7310   14.6860 C   0  0  0  0  0
    9.7360   -0.4410   16.2640 C   0  0  0  0  0
   11.8280   -5.5820   16.1350 N   0  0  0  0  0
   13.1170   -6.1080   16.3410 C   0  0  0  0  0
   12.8610   -7.1500   17.4520 C   0  0  0  0  0
   11.6780   -7.1840   17.8570 O   0  0  0  0  0
   14.0870   -5.0080   16.7760 C   0  0  0  0  0
    6.4013   -7.6261   16.6328 H   0  0  0  0  0
    7.3808   -8.9277   16.9838 H   0  0  0  0  0
    7.8450   -7.8243   15.8245 H   0  0  0  0  0
    6.1194   -8.3146   14.5052 H   0  0  0  0  0
    6.8624  -11.0684   15.0300 H   0  0  0  0  0
    7.2963   -9.2714   12.5854 H   0  0  0  0  0
    7.5337  -11.0359   12.6186 H   0  0  0  0  0
    5.9038  -10.3526   12.8366 H   0  0  0  0  0
    9.2347  -10.7757   14.2852 H   0  0  0  0  0
    8.9972   -9.0111   14.2520 H   0  0  0  0  0
    8.9273   -9.8900   15.7992 H   0  0  0  0  0
    6.0286  -11.6563   15.3964 H   0  0  0  0  0
    3.3476  -11.1994   16.4411 H   0  0  0  0  0
    3.1109  -11.8354   14.0184 H   0  0  0  0  0
    4.1243  -13.2755   14.2836 H   0  0  0  0  0
    2.4926  -13.1922   14.9921 H   0  0  0  0  0
    3.6654  -14.4870   15.5450 H   0  0  0  0  0
    2.0968  -15.4810   16.7985 H   0  0  0  0  0
    3.9822  -17.1298   18.3484 H   0  0  0  0  0
    4.2366  -17.0437   16.6103 H   0  0  0  0  0
    2.4648  -18.3884   16.2623 H   0  0  0  0  0
    1.3812  -17.1479   17.1745 H   0  0  0  0  0
    2.4155  -19.8965   19.9339 H   0  0  0  0  0
    3.4680  -18.5661   19.4405 H   0  0  0  0  0
    1.6612  -16.6281   18.8361 H   0  0  0  0  0
    1.9151  -16.7354   21.2805 H   0  0  0  0  0
    0.4247  -15.7605   20.7311 H   0  0  0  0  0
    0.3629  -13.6140   21.0181 H   0  0  0  0  0
    1.3245  -12.8189   23.6199 H   0  0  0  0  0
    0.3549  -11.8070   22.4221 H   0  0  0  0  0
    3.6298  -13.0668   22.9163 H   0  0  0  0  0
    5.3145  -11.2465   23.5331 H   0  0  0  0  0
    6.0578  -13.2398   22.2434 H   0  0  0  0  0
    5.5322  -12.4646   20.7289 H   0  0  0  0  0
    6.8975  -11.7862   21.6491 H   0  0  0  0  0
    6.8727  -10.1886   21.3330 H   0  0  0  0  0
    5.2653   -8.0596   20.0588 H   0  0  0  0  0
    5.7053   -7.1015   22.3164 H   0  0  0  0  0
    7.4474   -7.4092   22.1126 H   0  0  0  0  0
    6.6293   -6.2071   21.0846 H   0  0  0  0  0
    7.3720   -6.1866   19.4369 H   0  0  0  0  0
    8.4649   -7.4178   17.1355 H   0  0  0  0  0
    9.7516   -7.3996   18.4761 H   0  0  0  0  0
    9.2135   -6.2122   15.6793 H   0  0  0  0  0
    9.6569   -4.1127   14.5551 H   0  0  0  0  0
   10.7035   -2.8231   16.9960 H   0  0  0  0  0
    8.9107   -3.1010   16.8894 H   0  0  0  0  0
   10.5592   -1.7960   14.7858 H   0  0  0  0  0
    8.3413   -2.6114   14.0453 H   0  0  0  0  0
    7.5566   -1.7428   15.3873 H   0  0  0  0  0
    8.3396   -0.8309   14.0734 H   0  0  0  0  0
    8.9131   -0.4373   16.9788 H   0  0  0  0  0
   10.6833   -0.3667   16.7981 H   0  0  0  0  0
    9.6330    0.4054   15.5849 H   0  0  0  0  0
   11.0388   -6.1032   16.5169 H   0  0  0  0  0
   13.5800   -6.5406   15.4541 H   0  0  0  0  0
   13.6423   -7.7986   17.8482 H   0  0  0  0  0
   14.1378   -4.2429   16.0013 H   0  0  0  0  0
   13.7351   -4.5621   17.7063 H   0  0  0  0  0
   15.0768   -5.4380   16.9293 H   0  0  0  0  0
  1  2  1  0  0  0
  2  3  1  0  0  0
  2  5  1  0  0  0
  3  4  2  0  0  0
  3  8  1  0  0  0
  5  6  1  0  0  0
  5  7  1  0  0  0
  8  9  1  0  0  0
  9 10  1  0  0  0
  9 12  1  0  0  0
 10 11  2  0  0  0
 10 13  1  0  0  0
 13 14  1  0  0  0
 14 15  1  0  0  0
 14 17  1  0  0  0
 15 16  2  0  0  0
 15 22  1  0  0  0
 17 18  1  0  0  0
 18 19  1  0  0  0
 19 20  2  0  0  0
 19 21  1  0  0  0
 22 23  1  0  0  0
 23 24  1  0  0  0
 24 25  2  0  0  0
 24 26  1  0  0  0
 26 27  1  0  0  0
 27 28  1  0  0  0
 28 29  2  0  0  0
 28 30  1  0  0  0
 30 31  1  0  0  0
 31 32  1  0  0  0
 31 34  1  0  0  0
 32 33  2  0  0  0
 32 35  1  0  0  0
 35 36  1  0  0  0
 36 37  1  0  0  0
 36 39  1  0  0  0
 37 38  2  0  0  0
 37 40  1  0  0  0
 40 41  1  0  0  0
 41 42  1  0  0  0
 42 43  2  0  0  0
 42 44  1  0  0  0
 44 45  1  0  0  0
 45 46  1  0  0  0
 45 48  1  0  0  0
 46 47  2  0  0  0
 46 52  1  0  0  0
 48 49  1  0  0  0
 49 50  1  0  0  0
 49 51  1  0  0  0
 52 53  1  0  0  0
 53 54  1  0  0  0
 53 56  1  0  0  0
 54 55  2  0  0  0
  1 57  1  0  0  0
  1 58  1  0  0  0
  1 59  1  0  0  0
  2 60  1  0  0  0
  5 61  1  0  0  0
  6 62  1  0  0  0
  6 63  1  0  0  0
  6 64  1  0  0  0
  7 65  1  0  0  0
  7 66  1  0  0  0
  7 67  1  0  0  0
  8 68  1  0  0  0
  9 69  1  0  0  0
 12 70  1  0  0  0
 12 71  1  0  0  0
 12 72  1  0  0  0
 13 73  1  0  0  0
 14 74  1  0  0  0
 17 75  1  0  0  0
 17 76  1  0  0  0
 18 77  1  0  0  0
 18 78  1  0  0  0
 21 79  1  0  0  0
 21 80  1  0  0  0
 22 81  1  0  0  0
 23 82  1  0  0  0
 23 83  1  0  0  0
 26 84  1  0  0  0
 27 85  1  0  0  0
 27 86  1  0  0  0
 30 87  1  0  0  0
 31 88  1  0  0  0
 34 89  1  0  0  0
 34 90  1  0  0  0
 34 91  1  0  0  0
 35 92  1  0  0  0
 36 93  1  0  0  0
 39 94  1  0  0  0
 39 95  1  0  0  0
 39 96  1  0  0  0
 40 97  1  0  0  0
 41 98  1  0  0  0
 41 99  1  0  0  0
 44100  1  0  0  0
 45101  1  0  0  0
 48102  1  0  0  0
 48103  1  0  0  0
 49104  1  0  0  0
 50105  1  0  0  0
 50106  1  0  0  0
 50107  1  0  0  0
 51108  1  0  0  0
 51109  1  0  0  0
 51110  1  0  0  0
 52111  1  0  0  0
 53112  1  0  0  0
 54113  1  0  0  0
 56114  1  0  0  0
 56115  1  0  0  0
 56116  1  0  0  0
M  END
$$$$
