4f1l_ligand
  -I-interpret- 

 27 27  0  0  0  0  0  0  0  0999 V2000
    2.9760   12.6890    4.9760 O   0  0  0  0  0
    4.0580   13.3230    5.0630 C   0  0  0  0  0
    4.3450   14.0160    6.0680 O   0  0  0  0  0
    4.9460   13.4410    3.9650 C   0  0  0  0  0
    4.9780   12.8210    2.6970 C   0  0  0  0  0
    4.1440   11.8390    2.1070 C   0  0  0  0  0
    4.5280   11.4050    1.0260 O   0  0  0  0  0
    3.0000   11.4660    2.6950 N   0  0  0  0  0
    2.2330   10.4190    2.3690 C   0  0  0  0  0
    1.8680    9.9630    1.0950 C   0  0  0  0  0
    1.8260    9.6850    3.4890 C   0  0  0  0  0
    1.0970    8.5320    3.3150 C   0  0  0  0  0
    0.7310    8.0890    2.0380 C   0  0  0  0  0
    1.1050    8.7990    0.9140 C   0  0  0  0  0
    0.6680    8.2480   -0.4920 C   0  0  0  0  0
   -0.4720    7.7990   -0.6400 O   0  0  0  0  0
    1.4870    8.4400   -1.5180 N   0  0  0  0  0
    2.9455   12.2239    4.1367 H   0  0  0  0  0
    5.7607   14.1457    4.1313 H   0  0  0  0  0
    5.7919   13.1590    2.0555 H   0  0  0  0  0
    2.6793   12.0410    3.4740 H   0  0  0  0  0
    2.1859   10.5288    0.2193 H   0  0  0  0  0
    2.0849   10.0247    4.4918 H   0  0  0  0  0
    0.7983    7.9517    4.1880 H   0  0  0  0  0
    0.1458    7.1758    1.9302 H   0  0  0  0  0
    1.1804    8.2147   -2.4644 H   0  0  0  0  0
    2.4232    8.8129   -1.3604 H   0  0  0  0  0
  1  2  1  0  0  0
  2  3  2  0  0  0
  2  4  1  0  0  0
  4  5  2  0  0  0
  5  6  1  0  0  0
  6  7  2  0  0  0
  6  8  1  0  0  0
  8  9  1  0  0  0
  9 10  4  0  0  0
  9 11  4  0  0  0
 10 14  4  0  0  0
 11 12  4  0  0  0
 12 13  4  0  0  0
 13 14  4  0  0  0
 14 15  1  0  0  0
 15 16  2  0  0  0
 15 17  1  0  0  0
  1 18  1  0  0  0
  4 19  1  0  0  0
  5 20  1  0  0  0
  8 21  1  0  0  0
 10 22  1  0  0  0
 11 23  1  0  0  0
 12 24  1  0  0  0
 13 25  1  0  0  0
 17 26  1  0  0  0
 17 27  1  0  0  0
M  END
$$$$
