3r01_ligand
  -I-interpret- 

 22 23  0  0  0  0  0  0  0  0999 V2000
   22.2000   33.4440    0.6570 O   0  0  0  0  0
   22.6210   33.1260    1.9110 C   0  0  0  0  0
   23.1870   34.2310    2.5160 C   0  0  0  0  0
   23.1240   35.2700    1.5600 C   0  0  0  0  0
   22.5240   34.7710    0.4300 C   0  0  0  0  0
   22.2890   35.5080   -0.7240 C   0  0  0  0  0
   22.6670   36.8490   -0.7020 C   0  0  0  0  0
   23.2910   37.3540    0.4540 C   0  0  0  0  0
   23.5590   36.6820    1.6080 C   0  0  0  0  0
   23.7680   39.1750    0.1570 Br  0  0  0  0  0
   21.6800   34.9840   -1.8390 O   0  0  0  0  0
   21.6890   35.7180   -3.0250 C   0  0  0  0  0
   22.4320   31.7800    2.4330 C   0  0  0  0  0
   21.8660   30.9710    1.6980 O   0  0  0  0  0
   22.8940   31.5170    3.6890 O   0  0  0  0  0
   23.5979   34.2897    3.5239 H   0  0  0  0  0
   22.4833   37.4932   -1.5619 H   0  0  0  0  0
   24.0419   37.1362    2.4732 H   0  0  0  0  0
   21.1884   36.6727   -2.8637 H   0  0  0  0  0
   22.7193   35.8941   -3.3340 H   0  0  0  0  0
   21.1662   35.1587   -3.8009 H   0  0  0  0  0
   23.2949   32.3094    4.0537 H   0  0  0  0  0
  1  2  4  0  0  0
  1  5  4  0  0  0
  2  3  4  0  0  0
  2 13  1  0  0  0
  3  4  4  0  0  0
  4  5  4  0  0  0
  4  9  4  0  0  0
  5  6  4  0  0  0
  6  7  4  0  0  0
  6 11  1  0  0  0
  7  8  4  0  0  0
  8  9  4  0  0  0
  8 10  1  0  0  0
 11 12  1  0  0  0
 13 14  2  0  0  0
 13 15  1  0  0  0
  3 16  1  0  0  0
  7 17  1  0  0  0
  9 18  1  0  0  0
 12 19  1  0  0  0
 12 20  1  0  0  0
 12 21  1  0  0  0
 15 22  1  0  0  0
M  END
$$$$
