5jjr_ligand
  -I-interpret- 

 54 57  0  0  0  0  0  0  0  0999 V2000
   29.4510  175.6650   19.3440 C   0  0  0  0  0
   29.4670  174.3570   19.8100 C   0  0  0  0  0
   28.4810  173.4490   19.4840 C   0  0  0  0  0
   28.5140  184.3580   18.6350 O   0  0  0  0  0
   25.2610  173.2360   18.5060 O   0  0  0  0  0
   24.3940  171.4860   16.6930 O   0  0  0  0  0
   28.5620  179.7290   17.3870 C   0  0  0  0  0
   28.8270  181.1250   17.4010 C   0  0  0  0  0
   29.1200  182.2990   17.5740 C   0  0  0  0  0
   29.5270  183.7070   17.8760 C   0  0  0  0  0
   26.4260  172.9780   18.2130 C   0  0  0  0  0
   25.3110  169.7340   18.5380 C   0  0  0  0  0
   24.0330  169.7900   19.1130 C   0  0  0  0  0
   23.7330  169.0370   20.2500 C   0  0  0  0  0
   24.7310  168.2620   20.8430 C   0  0  0  0  0
   26.0280  168.2350   20.3080 C   0  0  0  0  0
   27.0310  167.4850   20.9310 C   0  0  0  0  0
   28.3280  167.4670   20.4020 C   0  0  0  0  0
   28.6170  168.2250   19.2650 C   0  0  0  0  0
   26.3310  168.9850   19.1570 C   0  0  0  0  0
   26.1560  169.8820   15.9410 O   0  0  0  0  0
   25.6570  170.7170   17.1230 S   0  0  0  0  0
   27.5920  168.9790   18.6590 N   0  0  0  0  0
   26.8180  171.8390   17.6020 N   0  0  0  0  0
   27.4530  173.8480   18.5990 C   0  0  0  0  0
   28.6070  172.1490   20.0290 C   0  0  0  0  0
   27.4440  175.1590   18.1020 C   0  0  0  0  0
   28.4180  176.1100   18.4820 C   0  0  0  0  0
   30.4040  176.5680   19.7200 O   0  0  0  0  0
   31.3140  176.2160   20.7740 C   0  0  0  0  0
   28.3870  177.3610   17.9570 C   0  0  0  0  0
   28.9020  178.7220   18.6620 S   0  0  0  0  0
   28.0520  178.9930   16.4050 C   0  0  0  0  0
   27.9230  177.6860   16.7410 C   0  0  0  0  0
   30.2857  174.0372   20.4547 H   0  0  0  0  0
   28.7858  185.2594   18.8226 H   0  0  0  0  0
   30.4528  183.6958   18.4512 H   0  0  0  0  0
   29.6734  184.2453   16.9396 H   0  0  0  0  0
   23.2677  170.4265   18.6687 H   0  0  0  0  0
   22.7277  169.0543   20.6710 H   0  0  0  0  0
   24.5007  167.6721   21.7302 H   0  0  0  0  0
   26.8028  166.9131   21.8304 H   0  0  0  0  0
   29.1055  166.8662   20.8739 H   0  0  0  0  0
   29.6251  168.2333   18.8505 H   0  0  0  0  0
   27.8077  171.6601   17.4323 H   0  0  0  0  0
   29.5429  171.7039   19.6912 H   0  0  0  0  0
   28.6046  172.2108   21.1172 H   0  0  0  0  0
   27.7702  171.5345   19.6969 H   0  0  0  0  0
   26.6625  175.4536   17.4016 H   0  0  0  0  0
   30.7515  176.0131   21.6853 H   0  0  0  0  0
   31.8749  175.3268   20.4862 H   0  0  0  0  0
   32.0038  177.0419   20.9476 H   0  0  0  0  0
   27.7678  179.3970   15.4333 H   0  0  0  0  0
   27.4746  176.9521   16.0714 H   0  0  0  0  0
  1  2  4  0  0  0
 28  1  4  0  0  0
  1 29  1  0  0  0
  2  3  4  0  0  0
 25  3  4  0  0  0
  3 26  1  0  0  0
 10  4  1  0  0  0
 11  5  2  0  0  0
 22  6  2  0  0  0
  7  8  1  0  0  0
 32  7  4  0  0  0
  7 33  4  0  0  0
  8  9  3  0  0  0
  9 10  1  0  0  0
 11 24  1  0  0  0
 25 11  1  0  0  0
 12 13  4  0  0  0
 12 20  4  0  0  0
 22 12  1  0  0  0
 13 14  4  0  0  0
 14 15  4  0  0  0
 16 15  4  0  0  0
 16 17  4  0  0  0
 20 16  4  0  0  0
 17 18  4  0  0  0
 19 18  4  0  0  0
 23 19  4  0  0  0
 20 23  4  0  0  0
 22 21  2  0  0  0
 24 22  1  0  0  0
 27 25  4  0  0  0
 28 27  4  0  0  0
 31 28  1  0  0  0
 29 30  1  0  0  0
 31 32  4  0  0  0
 31 34  4  0  0  0
 33 34  4  0  0  0
  2 35  1  0  0  0
  4 36  1  0  0  0
 10 37  1  0  0  0
 10 38  1  0  0  0
 13 39  1  0  0  0
 14 40  1  0  0  0
 15 41  1  0  0  0
 17 42  1  0  0  0
 18 43  1  0  0  0
 19 44  1  0  0  0
 24 45  1  0  0  0
 26 46  1  0  0  0
 26 47  1  0  0  0
 26 48  1  0  0  0
 27 49  1  0  0  0
 30 50  1  0  0  0
 30 51  1  0  0  0
 30 52  1  0  0  0
 33 53  1  0  0  0
 34 54  1  0  0  0
M  END
$$$$
