5oah_ligand
  -I-interpret- 

 52 53  0  0  0  0  0  0  0  0999 V2000
   -7.5390    4.5260    2.9400 O   0  0  0  0  0
   -6.7180    5.4870    2.4280 C   0  0  0  0  0
   -5.4830    5.0440    1.9600 C   0  0  0  0  0
   -5.2940    3.6940    2.0690 O   0  0  0  0  0
   -4.5680    5.9490    1.4350 C   0  0  0  0  0
   -4.8870    7.3060    1.3720 C   0  0  0  0  0
   -6.0950    7.7450    1.8300 C   0  0  0  0  0
   -7.0390    6.8580    2.3740 C   0  0  0  0  0
   -8.3730    7.3410    2.8370 C   0  0  0  0  0
   -8.5290    8.5080    3.1930 O   0  0  0  0  0
   -9.3660    6.4410    2.8100 N   0  0  0  0  0
  -10.7650    6.7260    3.1160 C   0  0  0  0  0
  -10.9110    6.6420    4.6500 C   0  0  0  0  0
  -11.5500    5.6800    5.1460 O   0  0  0  0  0
  -10.3000    7.5150    5.3080 O   0  0  0  0  0
  -11.7010    5.7850    2.2940 C   0  0  0  0  0
  -11.0550    4.4500    1.8770 C   0  0  0  0  0
  -11.9770    3.4270    1.2610 C   0  0  0  0  0
  -11.3760    2.7440    0.0520 C   0  0  0  0  0
  -10.0980    2.1000    0.3420 N   0  0  0  0  0
   -9.6360    1.0960   -0.4140 C   0  0  0  0  0
  -10.2620    0.7040   -1.3990 O   0  0  0  0  0
   -8.3610    0.4260   -0.0320 C   0  0  0  0  0
   -7.9120   -0.7250   -0.6910 C   0  0  0  0  0
   -6.7340   -1.3160   -0.3430 C   0  0  0  0  0
   -5.9820   -0.8310    0.7340 C   0  0  0  0  0
   -6.4120    0.2860    1.4240 C   0  0  0  0  0
   -5.7720    0.8490    2.5000 O   0  0  0  0  0
   -7.5900    0.9050    1.0370 C   0  0  0  0  0
   -7.9320    1.9970    1.7440 O   0  0  0  0  0
   -8.3590    4.9302    3.2331 H   0  0  0  0  0
   -4.4261    3.4650    1.7285 H   0  0  0  0  0
   -3.6015    5.5988    1.0726 H   0  0  0  0  0
   -4.1711    8.0154    0.9569 H   0  0  0  0  0
   -6.3328    8.8072    1.7726 H   0  0  0  0  0
   -9.1257    5.4828    2.5560 H   0  0  0  0  0
  -11.0748    7.7263    2.8133 H   0  0  0  0  0
  -11.9288    5.1511    4.4401 H   0  0  0  0  0
  -11.9613    6.3143    1.3774 H   0  0  0  0  0
  -12.5513    5.5433    2.9318 H   0  0  0  0  0
  -10.6691    4.0000    2.7917 H   0  0  0  0  0
  -10.3177    4.6946    1.1123 H   0  0  0  0  0
  -12.8792    3.9452    0.9361 H   0  0  0  0  0
  -12.1739    2.6617    2.0118 H   0  0  0  0  0
  -11.2010    3.5051   -0.7084 H   0  0  0  0  0
  -12.0721    1.9716   -0.2751 H   0  0  0  0  0
   -9.5457    2.4216    1.1370 H   0  0  0  0  0
   -8.5125   -1.1542   -1.4930 H   0  0  0  0  0
   -6.3737   -2.1750   -0.9090 H   0  0  0  0  0
   -5.0601   -1.3332    1.0271 H   0  0  0  0  0
   -6.2677    1.6139    2.8014 H   0  0  0  0  0
   -7.2754    2.1534    2.4267 H   0  0  0  0  0
  1  2  1  0  0  0
  2  3  4  0  0  0
  2  8  4  0  0  0
  3  4  1  0  0  0
  3  5  4  0  0  0
  5  6  4  0  0  0
  6  7  4  0  0  0
  7  8  4  0  0  0
  8  9  1  0  0  0
  9 10  2  0  0  0
  9 11  1  0  0  0
 11 12  1  0  0  0
 12 13  1  0  0  0
 12 16  1  0  0  0
 13 14  1  0  0  0
 13 15  2  0  0  0
 16 17  1  0  0  0
 17 18  1  0  0  0
 18 19  1  0  0  0
 19 20  1  0  0  0
 20 21  1  0  0  0
 21 22  2  0  0  0
 21 23  1  0  0  0
 23 24  4  0  0  0
 23 29  4  0  0  0
 24 25  4  0  0  0
 25 26  4  0  0  0
 26 27  4  0  0  0
 27 28  1  0  0  0
 27 29  4  0  0  0
 29 30  1  0  0  0
  1 31  1  0  0  0
  4 32  1  0  0  0
  5 33  1  0  0  0
  6 34  1  0  0  0
  7 35  1  0  0  0
 11 36  1  0  0  0
 12 37  1  0  0  0
 14 38  1  0  0  0
 16 39  1  0  0  0
 16 40  1  0  0  0
 17 41  1  0  0  0
 17 42  1  0  0  0
 18 43  1  0  0  0
 18 44  1  0  0  0
 19 45  1  0  0  0
 19 46  1  0  0  0
 20 47  1  0  0  0
 24 48  1  0  0  0
 25 49  1  0  0  0
 26 50  1  0  0  0
 28 51  1  0  0  0
 30 52  1  0  0  0
M  END
$$$$
