4xip_ligand
  -I-interpret- 

 42 44  0  0  0  0  0  0  0  0999 V2000
   -1.6190  -10.6030  -26.2250 N   0  0  0  0  0
    6.5070  -11.9690  -24.0840 C   0  0  0  0  0
    7.5940  -12.9300  -24.3300 C   0  0  0  0  0
    7.2210  -14.3390  -24.7380 C   0  0  0  0  0
    5.9390  -14.4600  -25.5800 C   0  0  0  0  0
    4.8090  -13.7260  -24.8500 C   0  0  0  0  0
    6.1620  -13.8500  -26.9680 C   0  0  0  0  0
    1.0350  -10.1620  -25.2280 C   0  0  0  0  0
    0.7500  -12.2470  -24.0470 C   0  0  0  0  0
   -1.2620  -11.1680  -25.1030 C   0  0  0  0  0
   -2.0830  -11.7030  -24.3180 O   0  0  0  0  0
    0.1960  -11.1910  -24.7790 C   0  0  0  0  0
    2.3960  -10.1930  -24.9700 C   0  0  0  0  0
    2.1080  -12.2800  -23.7770 C   0  0  0  0  0
    2.9420  -11.2580  -24.2510 C   0  0  0  0  0
    4.3630  -11.3160  -24.0220 N   0  0  0  0  0
    5.1450  -10.2480  -23.6190 C   0  0  0  0  0
    5.2070  -12.3810  -24.3160 C   0  0  0  0  0
    5.5580  -15.9280  -25.7510 C   0  0  0  0  0
    8.7710  -12.5920  -24.2680 O   0  0  0  0  0
    6.4570  -10.6010  -23.6410 C   0  0  0  0  0
    7.6050   -9.6950  -23.2800 C   0  0  0  0  0
   -2.6021  -10.5835  -26.4960 H   0  0  0  0  0
   -0.9147  -10.1812  -26.8303 H   0  0  0  0  0
    7.0441  -14.8948  -23.8172 H   0  0  0  0  0
    8.0376  -14.7122  -25.3561 H   0  0  0  0  0
    4.5185  -14.3411  -23.9983 H   0  0  0  0  0
    4.0067  -13.5656  -25.5703 H   0  0  0  0  0
    6.9644  -14.3864  -27.4746 H   0  0  0  0  0
    5.2445  -13.9311  -27.5508 H   0  0  0  0  0
    6.4352  -12.8001  -26.8624 H   0  0  0  0  0
    0.6118   -9.3273  -25.7869 H   0  0  0  0  0
    0.1075  -13.0502  -23.6863 H   0  0  0  0  0
    3.0385   -9.3883  -25.3273 H   0  0  0  0  0
    2.5283  -13.1008  -23.1958 H   0  0  0  0  0
    4.7650   -9.2689  -23.3272 H   0  0  0  0  0
    4.6436  -15.9985  -26.3400 H   0  0  0  0  0
    6.3635  -16.4537  -26.2638 H   0  0  0  0  0
    5.3958  -16.3765  -24.7709 H   0  0  0  0  0
    8.1642  -10.1314  -22.4524 H   0  0  0  0  0
    8.2610   -9.5804  -24.1429 H   0  0  0  0  0
    7.2176   -8.7200  -22.9844 H   0  0  0  0  0
 10  1  1  0  0  0
  2  3  1  0  0  0
 18  2  4  0  0  0
  2 21  4  0  0  0
  3  4  1  0  0  0
  3 20  2  0  0  0
  5  4  1  0  0  0
  6  5  1  0  0  0
  5  7  1  0  0  0
  5 19  1  0  0  0
 18  6  1  0  0  0
  8 12  4  0  0  0
 13  8  4  0  0  0
  9 12  4  0  0  0
 14  9  4  0  0  0
 10 11  2  0  0  0
 12 10  1  0  0  0
 15 13  4  0  0  0
 15 14  4  0  0  0
 16 15  1  0  0  0
 16 17  4  0  0  0
 16 18  4  0  0  0
 17 21  4  0  0  0
 21 22  1  0  0  0
  1 23  1  0  0  0
  1 24  1  0  0  0
  4 25  1  0  0  0
  4 26  1  0  0  0
  6 27  1  0  0  0
  6 28  1  0  0  0
  7 29  1  0  0  0
  7 30  1  0  0  0
  7 31  1  0  0  0
  8 32  1  0  0  0
  9 33  1  0  0  0
 13 34  1  0  0  0
 14 35  1  0  0  0
 17 36  1  0  0  0
 19 37  1  0  0  0
 19 38  1  0  0  0
 19 39  1  0  0  0
 22 40  1  0  0  0
 22 41  1  0  0  0
 22 42  1  0  0  0
M  END
$$$$
