### 
### Created by X-TOOL on Mon Sep 10 21:12:47 2018
### 

@<TRIPOS>MOLECULE
1bux_ligand
   43    45     1     0     0
SMALL
GAST_HUCK


@<TRIPOS>ATOM
      1 S2         64.4620   31.8270   -4.9270 S.o2      1 PPS         0.2361
      2 OS1        63.4630   30.8240   -4.4800 O.3       1 PPS        -0.2275
      3 OS2        64.5460   31.9960   -6.3970 O.2       1 PPS        -0.1135
      4 OS3        64.4110   33.0890   -4.1860 O.2       1 PPS        -0.1135
      5 O6P        65.8810   31.1630   -4.5200 O.3       1 PPS        -0.0805
      6 P2         66.1600   30.0620   -3.3690 P.3       1 PPS         0.2920
      7 O4P        65.0080   30.1890   -2.4640 O.co2     1 PPS        -0.6162
      8 O5P        66.4880   28.7610   -4.0030 O.co2     1 PPS        -0.6162
      9 O5         67.4730   30.6040   -2.6090 O.3       1 PPS        -0.2497
     10 C5         67.8820   31.8910   -2.6870 C.3       1 PPS         0.1128
     11 C4         68.7900   32.1000   -1.5790 C.3       1 PPS         0.1235
     12 O4         68.8780   33.5340   -1.5560 O.3       1 PPS        -0.3360
     13 C1         67.8500   34.1180   -0.7090 C.3       1 PPS         0.2013
     14 N9         66.9980   34.9130   -1.5320 N.pl3     1 PPS        -0.1919
     15 C4         66.7830   36.2510   -1.4840 C.ar      1 PPS         0.1613
     16 N3         67.4520   37.1230   -0.6970 N.ar      1 PPS        -0.2714
     17 C2         66.9180   38.2970   -0.9720 C.ar      1 PPS         0.0533
     18 N1         65.9440   38.6950   -1.8470 N.ar      1 PPS        -0.2698
     19 C6         65.3080   37.8040   -2.6120 C.ar      1 PPS         0.1298
     20 N6         64.2650   38.1200   -3.4060 N.pl3     1 PPS        -0.3152
     21 C5         65.7680   36.5080   -2.4140 C.ar      1 PPS         0.1045
     22 N7         65.3500   35.3550   -3.0020 N.2       1 PPS        -0.2958
     23 C8         66.1200   34.4670   -2.4500 C.2       1 PPS         0.1123
     24 C2         67.0910   32.8950   -0.1870 C.3       1 PPS         0.1432
     25 O2         66.5500   33.0530    1.1330 O.3       1 PPS        -0.3832
     26 C3         68.1600   31.7600   -0.2230 C.3       1 PPS         0.1487
     27 O3         69.0870   31.9080    0.9300 O.3       1 PPS        -0.2674
     28 P1         69.3600   30.6950    1.9750 P.3       1 PPS         0.2013
     29 O1P        70.0190   31.3830    3.1250 O.co2     1 PPS        -0.5537
     30 O2P        68.0080   30.1210    2.2090 O.co2     1 PPS        -0.5537
     31 O3P        70.2490   29.7790    1.2460 O.co2     1 PPS        -0.5537
     32 H1         63.4690   30.7738   -3.5314 H         1 PPS         0.2473
     33 H2         67.0201   32.5696   -2.6055 H         1 PPS         0.0647
     34 H3         68.3994   32.0684   -3.6413 H         1 PPS         0.0647
     35 H4         69.7529   31.5885   -1.7246 H         1 PPS         0.0654
     36 H5         68.2743   34.7169    0.1102 H         1 PPS         0.0996
     37 H6         67.3340   39.1098   -0.3877 H         1 PPS         0.0996
     38 H7         63.8119   37.3911   -3.9754 H         1 PPS         0.1820
     39 H8         63.9214   39.0903   -3.4431 H         1 PPS         0.1820
     40 H9         66.0586   33.4129   -2.7166 H         1 PPS         0.1349
     41 H10        66.2617   32.6578   -0.8696 H         1 PPS         0.0680
     42 H11        67.2561   33.2240    1.7450 H         1 PPS         0.2101
     43 H12        67.7165   30.7534   -0.2161 H         1 PPS         0.0704
@<TRIPOS>BOND
     1    1    2 1  
     2    1    3 2  
     3    1    4 2  
     4    1    5 1  
     5    5    6 1  
     6    6    7 ar 
     7    6    8 ar 
     8    6    9 1  
     9    9   10 1  
    10   10   11 1  
    11   11   12 1  
    12   11   26 1  
    13   12   13 1  
    14   13   14 1  
    15   13   24 1  
    16   14   15 1  
    17   14   23 1  
    18   15   16 ar 
    19   15   21 ar 
    20   16   17 ar 
    21   17   18 ar 
    22   18   19 ar 
    23   19   20 1  
    24   19   21 ar 
    25   21   22 1  
    26   22   23 2  
    27   24   25 1  
    28   24   26 1  
    29   26   27 1  
    30   27   28 1  
    31   28   29 ar 
    32   28   30 ar 
    33   28   31 ar 
    34    2   32 1  
    35   10   33 1  
    36   10   34 1  
    37   11   35 1  
    38   13   36 1  
    39   17   37 1  
    40   20   38 1  
    41   20   39 1  
    42   23   40 1  
    43   24   41 1  
    44   25   42 1  
    45   26   43 1  
@<TRIPOS>SUBSTRUCTURE
     1 PPS         1

