1bux_ligand
  -I-interpret- 

 46 48  0  0  0  0  0  0  0  0999 V2000
   64.4620   31.8270   -4.9270 S   0  0  0  0  0
   63.4630   30.8240   -4.4800 O   0  0  0  0  0
   64.5460   31.9960   -6.3970 O   0  0  0  0  0
   64.4110   33.0890   -4.1860 O   0  0  0  0  0
   65.8810   31.1630   -4.5200 O   0  0  0  0  0
   66.1600   30.0620   -3.3690 P   0  0  0  0  0
   65.0080   30.1890   -2.4640 O   0  0  0  0  0
   66.4880   28.7610   -4.0030 O   0  0  0  0  0
   67.4730   30.6040   -2.6090 O   0  0  0  0  0
   67.8820   31.8910   -2.6870 C   0  0  0  0  0
   68.7900   32.1000   -1.5790 C   0  0  0  0  0
   68.8780   33.5340   -1.5560 O   0  0  0  0  0
   67.8500   34.1180   -0.7090 C   0  0  0  0  0
   66.9980   34.9130   -1.5320 N   0  0  0  0  0
   66.7830   36.2510   -1.4840 C   0  0  0  0  0
   67.4520   37.1230   -0.6970 N   0  0  0  0  0
   66.9180   38.2970   -0.9720 C   0  0  0  0  0
   65.9440   38.6950   -1.8470 N   0  0  0  0  0
   65.3080   37.8040   -2.6120 C   0  0  0  0  0
   64.2650   38.1200   -3.4060 N   0  0  0  0  0
   65.7680   36.5080   -2.4140 C   0  0  0  0  0
   65.3500   35.3550   -3.0020 N   0  0  0  0  0
   66.1200   34.4670   -2.4500 C   0  0  0  0  0
   67.0910   32.8950   -0.1870 C   0  0  0  0  0
   66.5500   33.0530    1.1330 O   0  0  0  0  0
   68.1600   31.7600   -0.2230 C   0  0  0  0  0
   69.0870   31.9080    0.9300 O   0  0  0  0  0
   69.3600   30.6950    1.9750 P   0  0  0  0  0
   70.0190   31.3830    3.1250 O   0  0  0  0  0
   68.0080   30.1210    2.2090 O   0  0  0  0  0
   70.2490   29.7790    1.2460 O   0  0  0  0  0
   63.4690   30.7732   -3.5214 H   0  0  0  0  0
   67.2650   28.8634   -4.5575 H   0  0  0  0  0
   67.0346   32.5744   -2.6321 H   0  0  0  0  0
   68.3753   32.0873   -3.6390 H   0  0  0  0  0
   69.6991   31.5119   -1.7046 H   0  0  0  0  0
   68.2291   34.7494    0.0945 H   0  0  0  0  0
   67.3363   39.1143   -0.3845 H   0  0  0  0  0
   63.9248   39.0809   -3.4427 H   0  0  0  0  0
   63.8163   37.3982   -3.9699 H   0  0  0  0  0
   66.0585   33.4120   -2.7169 H   0  0  0  0  0
   66.2092   32.6965   -0.7962 H   0  0  0  0  0
   66.0916   32.2490    1.3881 H   0  0  0  0  0
   67.8170   30.7288   -0.1387 H   0  0  0  0  0
   69.3861   31.9630    3.5548 H   0  0  0  0  0
   67.4699   30.7567    2.6864 H   0  0  0  0  0
  1  2  1  0  0  0
  1  3  2  0  0  0
  1  4  2  0  0  0
  1  5  1  0  0  0
  5  6  1  0  0  0
  6  7  2  0  0  0
  6  8  1  0  0  0
  6  9  1  0  0  0
  9 10  1  0  0  0
 10 11  1  0  0  0
 11 12  1  0  0  0
 11 26  1  0  0  0
 12 13  1  0  0  0
 13 14  1  0  0  0
 13 24  1  0  0  0
 14 15  4  0  0  0
 14 23  4  0  0  0
 15 16  4  0  0  0
 15 21  4  0  0  0
 16 17  4  0  0  0
 17 18  4  0  0  0
 18 19  4  0  0  0
 19 20  1  0  0  0
 19 21  4  0  0  0
 21 22  4  0  0  0
 22 23  4  0  0  0
 24 25  1  0  0  0
 24 26  1  0  0  0
 26 27  1  0  0  0
 27 28  1  0  0  0
 28 29  1  0  0  0
 28 30  1  0  0  0
 28 31  2  0  0  0
  2 32  1  0  0  0
  8 33  1  0  0  0
 10 34  1  0  0  0
 10 35  1  0  0  0
 11 36  1  0  0  0
 13 37  1  0  0  0
 17 38  1  0  0  0
 20 39  1  0  0  0
 20 40  1  0  0  0
 23 41  1  0  0  0
 24 42  1  0  0  0
 25 43  1  0  0  0
 26 44  1  0  0  0
 29 45  1  0  0  0
 30 46  1  0  0  0
M  END
$$$$
