5ew3_ligand
  -I-interpret- 

 43 45  0  0  0  0  0  0  0  0999 V2000
   17.1990   12.2780   12.8290 C   0  0  0  0  0
   16.0610   11.7210   13.4340 C   0  0  0  0  0
   16.0600   10.3730   13.8160 C   0  0  0  0  0
   22.0620    9.3980   12.2390 C   0  0  0  0  0
   22.2670    8.2810   11.4040 C   0  0  0  0  0
   23.5680    7.7720   11.2180 C   0  0  0  0  0
   24.6620    8.3700   11.8720 C   0  0  0  0  0
   24.4720    9.4860   12.6930 C   0  0  0  0  0
   23.1710    9.9770   12.8750 C   0  0  0  0  0
   16.0040    7.5220   14.5690 C   0  0  0  0  0
   14.8740    7.1600   13.5790 C   0  0  0  0  0
   15.0320    7.2820   12.1760 C   0  0  0  0  0
   13.9760    6.9350   11.3200 C   0  0  0  0  0
   12.6150    6.3280   13.1940 C   0  0  0  0  0
   13.6470    6.6710   14.0890 C   0  0  0  0  0
   23.7460    6.5270   10.3600 C   0  0  0  0  0
   17.1910    9.5420   13.6080 C   0  0  0  0  0
   18.3390   10.1040   12.9620 C   0  0  0  0  0
   18.3210   11.4690   12.5990 C   0  0  0  0  0
   19.6220    9.3210   12.6930 C   0  0  0  0  0
   17.1540    8.2210   13.9790 N   0  0  0  0  0
   20.7900    9.9840   12.4730 N   0  0  0  0  0
   19.5570    8.1040   12.6540 O   0  0  0  0  0
   12.8070    6.4710   11.8500 N   0  0  0  0  0
   24.9960    6.3780    9.8700 F   0  0  0  0  0
   23.5080    5.4500   11.1320 F   0  0  0  0  0
   22.8600    6.5390    9.3480 F   0  0  0  0  0
   17.2102   13.3292   12.5409 H   0  0  0  0  0
   15.1785   12.3371   13.6065 H   0  0  0  0  0
   15.1696    9.9530   14.2839 H   0  0  0  0  0
   21.4205    7.8116   10.9029 H   0  0  0  0  0
   25.6632    7.9606   11.7376 H   0  0  0  0  0
   25.3196    9.9655   13.1826 H   0  0  0  0  0
   23.0165   10.8343   13.5302 H   0  0  0  0  0
   16.3819    6.5813   14.9695 H   0  0  0  0  0
   15.5701    8.1995   15.3044 H   0  0  0  0  0
   15.9729    7.6450   11.7624 H   0  0  0  0  0
   14.0883    7.0352   10.2404 H   0  0  0  0  0
   11.6658    5.9495   13.5733 H   0  0  0  0  0
   13.5025    6.5611   15.1638 H   0  0  0  0  0
   19.2021   11.9047   12.1279 H   0  0  0  0  0
   18.0025    7.6745   13.8316 H   0  0  0  0  0
   20.7474   11.0031   12.4766 H   0  0  0  0  0
  1  2  4  0  0  0
 19  1  4  0  0  0
  3  2  4  0  0  0
 17  3  4  0  0  0
  4  5  4  0  0  0
  4  9  4  0  0  0
 22  4  1  0  0  0
  5  6  4  0  0  0
  6  7  4  0  0  0
  6 16  1  0  0  0
  8  7  4  0  0  0
  9  8  4  0  0  0
 10 11  1  0  0  0
 21 10  1  0  0  0
 11 12  4  0  0  0
 11 15  4  0  0  0
 12 13  4  0  0  0
 13 24  4  0  0  0
 15 14  4  0  0  0
 14 24  4  0  0  0
 16 25  1  0  0  0
 16 26  1  0  0  0
 16 27  1  0  0  0
 18 17  4  0  0  0
 17 21  1  0  0  0
 18 19  4  0  0  0
 20 18  1  0  0  0
 20 22  1  0  0  0
 20 23  2  0  0  0
  1 28  1  0  0  0
  2 29  1  0  0  0
  3 30  1  0  0  0
  5 31  1  0  0  0
  7 32  1  0  0  0
  8 33  1  0  0  0
  9 34  1  0  0  0
 10 35  1  0  0  0
 10 36  1  0  0  0
 12 37  1  0  0  0
 13 38  1  0  0  0
 14 39  1  0  0  0
 15 40  1  0  0  0
 19 41  1  0  0  0
 21 42  1  0  0  0
 22 43  1  0  0  0
M  END
$$$$
