3t3d_ligand
  -I-interpret- 

 33 34  0  0  0  0  0  0  0  0999 V2000
   34.2160   23.4570   28.6970 N   0  0  0  0  0
   32.4240   24.1830   29.9280 O   0  0  0  0  0
   33.6310   24.1580   29.7470 C   0  0  0  0  0
   34.4330   24.8720   30.6190 N   0  0  0  0  0
   35.8140   24.8820   30.4440 C   0  0  0  0  0
   36.4180   25.5650   31.2620 O   0  0  0  0  0
   36.4450   24.1850   29.4000 C   0  0  0  0  0
   35.6360   23.4910   28.5160 C   0  0  0  0  0
   33.3180   22.7340   27.7870 C   0  0  0  0  0
   33.2840   21.3050   28.0060 O   0  0  0  0  0
   32.1950   20.7060   27.3030 C   0  0  0  0  0
   32.2430   19.2710   27.8060 C   0  0  0  0  0
   33.2610   18.5140   27.1470 O   0  0  0  0  0
   32.4560   20.8860   25.7680 C   0  0  0  0  0
   31.4070   20.2670   24.9980 O   0  0  0  0  0
   32.6280   22.3660   25.3840 C   0  0  0  0  0
   33.0300   22.4610   24.0630 O   0  0  0  0  0
   33.7050   23.0060   26.3090 C   0  0  0  0  0
   33.8950   24.4130   26.0910 O   0  0  0  0  0
   34.0127   25.3910   31.3900 H   0  0  0  0  0
   37.5294   24.1903   29.2901 H   0  0  0  0  0
   36.0849   22.9650   27.6734 H   0  0  0  0  0
   32.3203   23.1161   28.0031 H   0  0  0  0  0
   31.2031   21.1282   27.4644 H   0  0  0  0  0
   31.2801   18.8029   27.6016 H   0  0  0  0  0
   32.4641   19.2882   28.8732 H   0  0  0  0  0
   33.2624   17.6167   27.4882 H   0  0  0  0  0
   33.3952   20.3850   25.5335 H   0  0  0  0  0
   31.5845   20.3878   24.0623 H   0  0  0  0  0
   31.6805   22.8911   25.5047 H   0  0  0  0  0
   33.1361   23.3856   23.8277 H   0  0  0  0  0
   34.6603   22.5414   26.0649 H   0  0  0  0  0
   34.1335   24.5642   25.1735 H   0  0  0  0  0
  1  3  1  0  0  0
  1  8  1  0  0  0
  1  9  1  0  0  0
  3  2  2  0  0  0
  3  4  1  0  0  0
  4  5  1  0  0  0
  5  6  2  0  0  0
  5  7  1  0  0  0
  7  8  2  0  0  0
  9 10  1  0  0  0
  9 18  1  0  0  0
 10 11  1  0  0  0
 11 12  1  0  0  0
 11 14  1  0  0  0
 12 13  1  0  0  0
 14 15  1  0  0  0
 14 16  1  0  0  0
 16 17  1  0  0  0
 16 18  1  0  0  0
 18 19  1  0  0  0
  4 20  1  0  0  0
  7 21  1  0  0  0
  8 22  1  0  0  0
  9 23  1  0  0  0
 11 24  1  0  0  0
 12 25  1  0  0  0
 12 26  1  0  0  0
 13 27  1  0  0  0
 14 28  1  0  0  0
 15 29  1  0  0  0
 16 30  1  0  0  0
 17 31  1  0  0  0
 18 32  1  0  0  0
 19 33  1  0  0  0
M  END
$$$$
