5of0_ligand
  -I-interpret- 

 53 53  0  0  0  0  0  0  0  0999 V2000
   13.8050   48.7310   40.7520 O   0  0  0  0  0
   13.8750   47.5040   40.4980 C   0  0  0  0  0
   13.0620   46.9090   39.7410 O   0  0  0  0  0
   15.0530   46.7620   41.1180 C   0  0  0  0  0
   14.8530   45.2620   41.3030 C   0  0  0  0  0
   16.1960   44.5490   41.6300 C   0  0  0  0  0
   17.0950   44.6260   40.4250 C   0  0  0  0  0
   17.9890   45.5280   40.3010 O   0  0  0  0  0
   16.9110   43.7700   39.5460 O   0  0  0  0  0
   16.8880   45.2220   42.7040 N   0  0  0  0  0
   18.1050   44.8080   43.1100 C   0  0  0  0  0
   18.4990   43.7340   42.6930 O   0  0  0  0  0
   18.7270   45.5880   43.9550 N   0  0  0  0  0
   19.9790   45.1810   44.6080 C   0  0  0  0  0
   20.0700   45.8830   45.9450 C   0  0  0  0  0
   20.5950   45.1620   46.8050 O   0  0  0  0  0
   19.6580   47.0470   46.1240 O   0  0  0  0  0
   21.1700   45.4220   43.6730 C   0  0  0  0  0
   22.2730   46.3300   44.2220 C   0  0  0  0  0
   22.4590   47.5560   43.3590 C   0  0  0  0  0
   23.1630   48.7280   44.0120 C   0  0  0  0  0
   23.6740   49.5110   43.2490 O   0  0  0  0  0
   23.1900   48.8830   45.3390 N   0  0  0  0  0
   23.7100   49.8550   45.9790 C   0  0  0  0  0
   23.6380   49.8390   47.4620 C   0  0  0  0  0
   24.1490   50.8690   48.2230 C   0  0  0  0  0
   24.0800   50.8240   49.6210 C   0  0  0  0  0
   23.4750   49.7600   50.2860 C   0  0  0  0  0
   23.3690   49.6940   51.6370 F   0  0  0  0  0
   22.9690   48.7300   49.5150 C   0  0  0  0  0
   23.0430   48.7610   48.1270 C   0  0  0  0  0
   13.2986   45.9802   39.6861 H   0  0  0  0  0
   15.1984   47.1827   42.1130 H   0  0  0  0  0
   15.8932   46.8830   40.4342 H   0  0  0  0  0
   14.4570   44.8478   40.3758 H   0  0  0  0  0
   14.1648   45.1035   42.1333 H   0  0  0  0  0
   15.9715   43.5202   41.9115 H   0  0  0  0  0
   17.9809   46.0937   41.0765 H   0  0  0  0  0
   16.4500   46.0215   43.1616 H   0  0  0  0  0
   18.3323   46.5044   44.1669 H   0  0  0  0  0
   19.9969   44.1102   44.8111 H   0  0  0  0  0
   19.2950   47.3866   45.3027 H   0  0  0  0  0
   20.7721   45.9202   42.7890 H   0  0  0  0  0
   21.6291   44.4484   43.5013 H   0  0  0  0  0
   23.2081   45.7701   44.2337 H   0  0  0  0  0
   21.9892   46.6520   45.2239 H   0  0  0  0  0
   21.4585   47.9043   43.1027 H   0  0  0  0  0
   23.0873   47.2490   42.5228 H   0  0  0  0  0
   24.1948   50.6764   45.4514 H   0  0  0  0  0
   24.6107   51.7258   47.7322 H   0  0  0  0  0
   24.5095   51.6401   50.2020 H   0  0  0  0  0
   22.5023   47.8758   50.0056 H   0  0  0  0  0
   22.6317   47.9338   47.5485 H   0  0  0  0  0
  1  2  2  0  0  0
  2  3  1  0  0  0
  2  4  1  0  0  0
  4  5  1  0  0  0
  5  6  1  0  0  0
  6  7  1  0  0  0
  6 10  1  0  0  0
  7  8  1  0  0  0
  7  9  2  0  0  0
 10 11  1  0  0  0
 11 12  2  0  0  0
 11 13  1  0  0  0
 13 14  1  0  0  0
 14 15  1  0  0  0
 14 18  1  0  0  0
 15 16  2  0  0  0
 15 17  1  0  0  0
 18 19  1  0  0  0
 19 20  1  0  0  0
 20 21  1  0  0  0
 21 22  2  0  0  0
 21 23  1  0  0  0
 23 24  2  0  0  0
 24 25  1  0  0  0
 25 26  4  0  0  0
 25 31  4  0  0  0
 26 27  4  0  0  0
 27 28  4  0  0  0
 28 29  1  0  0  0
 28 30  4  0  0  0
 30 31  4  0  0  0
  3 32  1  0  0  0
  4 33  1  0  0  0
  4 34  1  0  0  0
  5 35  1  0  0  0
  5 36  1  0  0  0
  6 37  1  0  0  0
  8 38  1  0  0  0
 10 39  1  0  0  0
 13 40  1  0  0  0
 14 41  1  0  0  0
 17 42  1  0  0  0
 18 43  1  0  0  0
 18 44  1  0  0  0
 19 45  1  0  0  0
 19 46  1  0  0  0
 20 47  1  0  0  0
 20 48  1  0  0  0
 24 49  1  0  0  0
 26 50  1  0  0  0
 27 51  1  0  0  0
 30 52  1  0  0  0
 31 53  1  0  0  0
M  END
$$$$
