2vt3_ligand
  -I-interpret- 

 47 49  0  0  0  0  0  0  0  0999 V2000
   16.9100    7.4790  -34.1450 P   0  0  0  0  0
   15.4530    7.2910  -34.5290 O   0  0  0  0  0
   17.7200    8.3600  -35.0790 O   0  0  0  0  0
   17.5560    6.1910  -33.7250 O   0  0  0  0  0
   17.7470    9.0430  -31.7640 P   0  0  0  0  0
   16.8600    9.6000  -30.6750 O   0  0  0  0  0
   18.8010    8.0740  -31.2800 O   0  0  0  0  0
   16.7040    8.2930  -32.7560 O   0  0  0  0  0
   19.3350   11.4060  -32.2720 P   0  0  0  0  0
   19.4560   11.4330  -30.7710 O   0  0  0  0  0
   20.6030   11.4560  -33.0560 O   0  0  0  0  0
   18.3690   10.1860  -32.7220 O   0  0  0  0  0
   18.4860   12.7040  -32.6870 O   0  0  0  0  0
   17.1930   12.8630  -32.1230 C   0  0  0  0  0
   16.2380   13.1700  -33.2640 C   0  0  0  0  0
   16.5880   14.4700  -33.6960 O   0  0  0  0  0
   16.2820   12.2670  -34.5140 C   0  0  0  0  0
   14.9550   12.0050  -35.0170 O   0  0  0  0  0
   17.0160   13.0880  -35.5380 C   0  0  0  0  0
   16.6580   12.8160  -36.8860 O   0  0  0  0  0
   16.6080   14.4980  -35.1300 C   0  0  0  0  0
   17.5270   15.5320  -35.5880 N   0  0  0  0  0
   18.8650   15.4650  -35.6030 C   0  0  0  0  0
   19.3650   16.6220  -36.0580 N   0  0  0  0  0
   18.3430   17.4460  -36.3350 C   0  0  0  0  0
   18.1680   18.8080  -36.8660 C   0  0  0  0  0
   19.2300   19.5700  -37.1930 N   0  0  0  0  0
   16.9220   19.2930  -36.9830 N   0  0  0  0  0
   15.8450   18.5590  -36.6700 C   0  0  0  0  0
   15.9360   17.3100  -36.2150 N   0  0  0  0  0
   17.1280   16.7150  -36.0350 C   0  0  0  0  0
   15.0804    8.1364  -34.7899 H   0  0  0  0  0
   17.2189    9.1528  -35.2841 H   0  0  0  0  0
   19.3196    7.7674  -32.0274 H   0  0  0  0  0
   18.5801   11.3963  -30.3798 H   0  0  0  0  0
   17.1903   13.6722  -31.3927 H   0  0  0  0  0
   16.8881   11.9556  -31.6016 H   0  0  0  0  0
   15.2362   13.0238  -32.8600 H   0  0  0  0  0
   16.7472   11.3065  -34.2923 H   0  0  0  0  0
   15.0133   11.4423  -35.7926 H   0  0  0  0  0
   18.0875   12.8880  -35.5381 H   0  0  0  0  0
   17.1694   13.3791  -37.4716 H   0  0  0  0  0
   15.6497   14.7531  -35.5824 H   0  0  0  0  0
   19.4555   14.6028  -35.2931 H   0  0  0  0  0
   20.1752   19.2055  -37.0741 H   0  0  0  0  0
   19.0888   20.5114  -37.5595 H   0  0  0  0  0
   14.8562   19.0011  -36.7925 H   0  0  0  0  0
  1  2  1  0  0  0
  1  3  1  0  0  0
  1  4  2  0  0  0
  8  1  1  0  0  0
  5  6  2  0  0  0
  5  7  1  0  0  0
  5  8  1  0  0  0
 12  5  1  0  0  0
  9 10  1  0  0  0
  9 11  2  0  0  0
  9 12  1  0  0  0
  9 13  1  0  0  0
 13 14  1  0  0  0
 14 15  1  0  0  0
 15 16  1  0  0  0
 15 17  1  0  0  0
 16 21  1  0  0  0
 17 18  1  0  0  0
 17 19  1  0  0  0
 19 20  1  0  0  0
 19 21  1  0  0  0
 21 22  1  0  0  0
 22 23  4  0  0  0
 22 31  4  0  0  0
 23 24  4  0  0  0
 24 25  4  0  0  0
 25 26  4  0  0  0
 25 31  4  0  0  0
 26 27  1  0  0  0
 26 28  4  0  0  0
 28 29  4  0  0  0
 29 30  4  0  0  0
 30 31  4  0  0  0
  2 32  1  0  0  0
  3 33  1  0  0  0
  7 34  1  0  0  0
 10 35  1  0  0  0
 14 36  1  0  0  0
 14 37  1  0  0  0
 15 38  1  0  0  0
 17 39  1  0  0  0
 18 40  1  0  0  0
 19 41  1  0  0  0
 20 42  1  0  0  0
 21 43  1  0  0  0
 23 44  1  0  0  0
 27 45  1  0  0  0
 27 46  1  0  0  0
 29 47  1  0  0  0
M  END
$$$$
