6nem_ligand
  -I-interpret- 

 46 50  0  0  0  0  0  0  0  0999 V2000
   10.3950   18.1910  -18.3230 C   0  0  0  0  0
    9.2110   18.7760  -18.0150 C   0  0  0  0  0
    9.0100   19.3560  -16.7260 C   0  0  0  0  0
    8.8410   19.4950   -9.0720 O   0  0  0  0  0
    9.4980   20.1000  -10.0440 C   0  0  0  0  0
    9.8050   19.5840  -11.2750 C   0  0  0  0  0
   10.5370   20.4150  -12.1890 C   0  0  0  0  0
   10.8960   19.8910  -13.4920 C   0  0  0  0  0
    9.8070   19.9010  -14.5150 C   0  0  0  0  0
   10.0260   19.3340  -15.7680 C   0  0  0  0  0
   11.2420   18.7310  -16.1200 C   0  0  0  0  0
   11.4230   18.1760  -17.3640 C   0  0  0  0  0
    7.7510   19.9540  -16.4140 C   0  0  0  0  0
    7.5580   20.5160  -15.1890 C   0  0  0  0  0
    8.5980   20.4840  -14.2300 C   0  0  0  0  0
   10.8550   21.6900  -11.7760 C   0  0  0  0  0
   11.6010   22.7080  -12.5240 C   0  0  0  0  0
   11.2200   23.0930  -13.8330 C   0  0  0  0  0
   11.9490   24.0790  -14.5040 C   0  0  0  0  0
   13.0630   24.6900  -13.8440 C   0  0  0  0  0
   13.8060   25.7430  -14.5450 C   0  0  0  0  0
   13.5640   26.1540  -15.8630 N   0  0  0  0  0
   14.4430   27.1790  -16.1550 N   0  0  0  0  0
   15.1550   27.3790  -15.1060 N   0  0  0  0  0
   14.7990   26.5390  -14.0730 N   0  0  0  0  0
   13.4190   24.3090  -12.5150 C   0  0  0  0  0
   12.6890   23.3270  -11.8690 C   0  0  0  0  0
   10.5380   22.1860  -10.5390 N   0  0  0  0  0
    9.8450   21.4530   -9.6000 C   0  0  0  0  0
    9.5850   21.9790   -8.5300 O   0  0  0  0  0
   10.5479   17.7378  -19.3024 H   0  0  0  0  0
    8.4102   18.8035  -18.7539 H   0  0  0  0  0
    8.7671   20.0874   -8.3202 H   0  0  0  0  0
    9.5031   18.5740  -11.5522 H   0  0  0  0  0
   11.1688   18.8466  -13.3409 H   0  0  0  0  0
   11.6876   20.5341  -13.8766 H   0  0  0  0  0
   12.0561   18.7020  -15.3958 H   0  0  0  0  0
   12.3798   17.7163  -17.6115 H   0  0  0  0  0
    6.9493   19.9604  -17.1524 H   0  0  0  0  0
    6.6059   20.9888  -14.9479 H   0  0  0  0  0
    8.4360   20.9299  -13.2486 H   0  0  0  0  0
   10.3627   22.6227  -14.3145 H   0  0  0  0  0
   11.6733   24.3784  -15.5152 H   0  0  0  0  0
   14.2596   24.7881  -12.0130 H   0  0  0  0  0
   12.9536   23.0308  -10.8539 H   0  0  0  0  0
   10.8264   23.1356  -10.3036 H   0  0  0  0  0
  2  1  4  0  0  0
  1 12  4  0  0  0
  3  2  4  0  0  0
 10  3  4  0  0  0
  3 13  4  0  0  0
  5  4  1  0  0  0
  6  5  2  0  0  0
  5 29  1  0  0  0
  7  6  1  0  0  0
  8  7  1  0  0  0
  7 16  2  0  0  0
  9  8  1  0  0  0
  9 10  4  0  0  0
  9 15  4  0  0  0
 10 11  4  0  0  0
 11 12  4  0  0  0
 13 14  4  0  0  0
 14 15  4  0  0  0
 16 17  1  0  0  0
 16 28  1  0  0  0
 17 18  4  0  0  0
 17 27  4  0  0  0
 18 19  4  0  0  0
 19 20  4  0  0  0
 20 21  1  0  0  0
 20 26  4  0  0  0
 21 22  4  0  0  0
 21 25  4  0  0  0
 22 23  4  0  0  0
 23 24  4  0  0  0
 24 25  4  0  0  0
 26 27  4  0  0  0
 28 29  1  0  0  0
 29 30  2  0  0  0
  1 31  1  0  0  0
  2 32  1  0  0  0
  4 33  1  0  0  0
  6 34  1  0  0  0
  8 35  1  0  0  0
  8 36  1  0  0  0
 11 37  1  0  0  0
 12 38  1  0  0  0
 13 39  1  0  0  0
 14 40  1  0  0  0
 15 41  1  0  0  0
 18 42  1  0  0  0
 19 43  1  0  0  0
 26 44  1  0  0  0
 27 45  1  0  0  0
 28 46  1  0  0  0
M  END
$$$$
