### 
### Created by X-TOOL on Mon Sep 10 21:13:07 2018
### 

@<TRIPOS>MOLECULE
3ubx_ligand
  137   137     1     0     0
SMALL
GAST_HUCK


@<TRIPOS>ATOM
      1 CAR       -46.6610  -75.6700   45.1370 C.3       1 09N        -0.0653
      2 CAQ       -47.5460  -74.7120   44.3200 C.3       1 09N        -0.0559
      3 CAP       -48.8210  -75.3850   43.7940 C.3       1 09N        -0.0533
      4 CAO       -48.9270  -75.2100   42.2790 C.3       1 09N        -0.0531
      5 CAN       -50.3700  -74.9460   41.8310 C.3       1 09N        -0.0531
      6 CAM       -51.0200  -76.2100   41.2480 C.3       1 09N        -0.0531
      7 CAL       -51.0920  -76.1620   39.7160 C.3       1 09N        -0.0531
      8 CAK       -52.3410  -76.8770   39.1810 C.3       1 09N        -0.0531
      9 CAJ       -52.1480  -78.3960   39.0970 C.3       1 09N        -0.0531
     10 CAI       -51.9020  -78.8680   37.6600 C.3       1 09N        -0.0531
     11 CAH       -52.2490  -80.3580   37.5070 C.3       1 09N        -0.0531
     12 CAG       -51.3540  -81.0820   36.4860 C.3       1 09N        -0.0530
     13 CAF       -49.9770  -81.4590   37.0670 C.3       1 09N        -0.0506
     14 CAE       -49.3610  -82.6530   36.3350 C.3       1 09N        -0.0243
     15 CAD       -48.6830  -82.2470   35.0130 C.3       1 09N         0.0833
     16 OAX       -47.8870  -81.0910   35.2220 O.3       1 09N        -0.3892
     17 CAC       -47.7650  -83.3360   34.4260 C.3       1 09N         0.1059
     18 OAV       -46.8160  -83.7660   35.4080 O.3       1 09N        -0.3869
     19 CAB       -48.5170  -84.5630   33.8880 C.3       1 09N         0.0936
     20 CAA       -47.5520  -85.4580   33.1130 C.3       1 09N         0.0762
     21 O1        -46.9680  -84.7270   32.0290 O.3       1 09N        -0.3463
     22 C1        -46.2780  -85.6180   31.1250 C.3       1 09N         0.1880
     23 O5        -47.1860  -86.6000   30.5010 O.3       1 09N        -0.3405
     24 C5        -48.1030  -86.0970   29.4900 C.3       1 09N         0.1130
     25 C6        -48.8500  -87.2860   28.8910 C.3       1 09N         0.0730
     26 O6        -50.2460  -87.0230   28.9270 O.3       1 09N        -0.3924
     27 C4        -47.3500  -85.3210   28.4040 C.3       1 09N         0.1119
     28 O4        -46.5150  -86.2130   27.6390 O.3       1 09N        -0.3865
     29 C3        -46.5220  -84.2150   29.0680 C.3       1 09N         0.1141
     30 O3        -45.7930  -83.4780   28.1070 O.3       1 09N        -0.3864
     31 C2        -45.5320  -84.8090   30.0520 C.3       1 09N         0.1341
     32 O2        -44.7770  -83.7500   30.6290 O.3       1 09N        -0.3841
     33 NAS       -49.6520  -84.1540   33.0410 N.am      1 09N        -0.2791
     34 CAT       -50.6720  -84.9540   32.7370 C.2       1 09N         0.1764
     35 OAW       -50.7570  -86.1310   33.0810 O.2       1 09N        -0.3971
     36 CAU       -51.7680  -84.3140   31.8800 C.3       1 09N         0.0372
     37 CAY       -53.1690  -84.6830   32.3870 C.3       1 09N        -0.0361
     38 CAZ       -53.6610  -83.6990   33.4410 C.3       1 09N        -0.0510
     39 CBA       -55.0720  -84.0670   33.9120 C.3       1 09N        -0.0529
     40 CBB       -55.5110  -83.1880   35.0970 C.3       1 09N        -0.0530
     41 CBC       -57.0330  -83.1710   35.2840 C.3       1 09N        -0.0529
     42 CBD       -57.4660  -84.0120   36.4890 C.3       1 09N        -0.0515
     43 CBE       -58.5300  -83.2930   37.3440 C.3       1 09N        -0.0463
     44 CBF       -58.6530  -83.9230   38.7480 C.3       1 09N        -0.0360
     45 CBG       -59.8910  -84.5420   38.9490 C.2       1 09N        -0.0967
     46 CBJ       -60.0920  -85.9310   39.0030 C.2       1 09N        -0.0910
     47 CBH       -59.1000  -86.9040   38.8300 C.3       1 09N        -0.0204
     48 CBI       -59.5010  -88.1260   39.3910 C.2       1 09N        -0.0910
     49 CBP       -60.3790  -89.0640   38.8120 C.2       1 09N        -0.0967
     50 CBK       -61.0050  -88.9140   37.5730 C.3       1 09N        -0.0360
     51 CBL       -61.8220  -90.1510   37.1710 C.3       1 09N        -0.0463
     52 CBM       -63.0920  -89.7340   36.4100 C.3       1 09N        -0.0517
     53 CBN       -63.4180  -90.6430   35.2170 C.3       1 09N        -0.0558
     54 CBO       -63.7430  -89.8100   33.9630 C.3       1 09N        -0.0653
     55 H1        -45.7660  -75.1343   45.4862 H         1 09N         0.0230
     56 H2        -46.3577  -76.5178   44.5051 H         1 09N         0.0230
     57 H3        -47.2267  -76.0426   46.0037 H         1 09N         0.0230
     58 H4        -46.9649  -74.3412   43.4628 H         1 09N         0.0263
     59 H5        -47.8339  -73.8660   44.9614 H         1 09N         0.0263
     60 H6        -49.6980  -74.9266   44.2744 H         1 09N         0.0265
     61 H7        -48.7904  -76.4580   44.0340 H         1 09N         0.0265
     62 H8        -48.5651  -76.1261   41.7894 H         1 09N         0.0265
     63 H9        -48.2995  -74.3593   41.9749 H         1 09N         0.0265
     64 H10       -50.3672  -74.1589   41.0626 H         1 09N         0.0265
     65 H11       -50.9574  -74.6098   42.6981 H         1 09N         0.0265
     66 H12       -52.0400  -76.3027   41.6491 H         1 09N         0.0265
     67 H13       -50.4267  -77.0861   41.5488 H         1 09N         0.0265
     68 H14       -50.1975  -76.6504   39.3021 H         1 09N         0.0265
     69 H15       -51.1181  -75.1107   39.3936 H         1 09N         0.0265
     70 H16       -52.5658  -76.4924   38.1752 H         1 09N         0.0265
     71 H17       -53.1859  -76.6640   39.8523 H         1 09N         0.0265
     72 H18       -53.0519  -78.8901   39.4826 H         1 09N         0.0265
     73 H19       -51.2835  -78.6783   39.7158 H         1 09N         0.0265
     74 H20       -50.8421  -78.7170   37.4074 H         1 09N         0.0265
     75 H21       -52.5298  -78.2795   36.9748 H         1 09N         0.0265
     76 H22       -53.2952  -80.4423   37.1779 H         1 09N         0.0265
     77 H23       -52.1317  -80.8475   38.4851 H         1 09N         0.0265
     78 H24       -51.2019  -80.4213   35.6198 H         1 09N         0.0265
     79 H25       -51.8629  -82.0014   36.1610 H         1 09N         0.0265
     80 H26       -50.0968  -81.7158   38.1299 H         1 09N         0.0266
     81 H27       -49.3017  -80.5959   36.9722 H         1 09N         0.0266
     82 H28       -50.1561  -83.3806   36.1150 H         1 09N         0.0291
     83 H29       -48.6088  -83.1183   36.9890 H         1 09N         0.0291
     84 H30       -49.4710  -82.0206   34.2797 H         1 09N         0.0620
     85 H31       -47.2220  -81.2794   35.8737 H         1 09N         0.2099
     86 H32       -47.2160  -82.8861   33.5857 H         1 09N         0.0643
     87 H33       -46.2863  -83.0259   35.6802 H         1 09N         0.2100
     88 H34       -48.9121  -85.1327   34.7420 H         1 09N         0.0605
     89 H35       -48.0996  -86.3247   32.7144 H         1 09N         0.0585
     90 H36       -46.7562  -85.8059   33.7880 H         1 09N         0.0585
     91 H37       -45.5331  -86.1777   31.7096 H         1 09N         0.0937
     92 H38       -48.8271  -85.4195   29.9660 H         1 09N         0.0647
     93 H39       -48.6305  -88.1916   29.4756 H         1 09N         0.0584
     94 H40       -48.5300  -87.4354   27.8493 H         1 09N         0.0584
     95 H41       -50.7157  -87.7603   28.5552 H         1 09N         0.2095
     96 H42       -48.0800  -84.8572   27.7243 H         1 09N         0.0647
     97 H43       -46.0550  -85.7190   26.9705 H         1 09N         0.2100
     98 H44       -47.2037  -83.5372   29.6025 H         1 09N         0.0648
     99 H45       -45.2899  -82.8009   28.5438 H         1 09N         0.2100
    100 H46       -44.8483  -85.4833   29.5154 H         1 09N         0.0671
    101 H47       -45.3634  -83.1532   31.0790 H         1 09N         0.2101
    102 H48       -49.6561  -83.2237   32.6742 H         1 09N         0.1856
    103 H49       -51.6601  -84.6639   30.8427 H         1 09N         0.0502
    104 H50       -51.6533  -83.2205   31.9120 H         1 09N         0.0502
    105 H51       -53.1355  -85.6905   32.8272 H         1 09N         0.0290
    106 H52       -53.8689  -84.6767   31.5384 H         1 09N         0.0290
    107 H53       -53.6771  -82.6870   33.0101 H         1 09N         0.0267
    108 H54       -52.9765  -83.7202   34.3018 H         1 09N         0.0267
    109 H55       -55.0822  -85.1216   34.2246 H         1 09N         0.0265
    110 H56       -55.7766  -83.9245   33.0794 H         1 09N         0.0265
    111 H57       -55.1660  -82.1587   34.9195 H         1 09N         0.0265
    112 H58       -55.0472  -83.5769   36.0155 H         1 09N         0.0265
    113 H59       -57.5079  -83.5756   34.3780 H         1 09N         0.0265
    114 H60       -57.3616  -82.1326   35.4377 H         1 09N         0.0265
    115 H61       -56.5849  -84.2147   37.1155 H         1 09N         0.0267
    116 H62       -57.8848  -84.9624   36.1266 H         1 09N         0.0267
    117 H63       -59.5029  -83.3623   36.8354 H         1 09N         0.0285
    118 H64       -58.2467  -82.2355   37.4511 H         1 09N         0.0285
    119 H65       -58.5271  -83.1322   39.5021 H         1 09N         0.0390
    120 H66       -57.8588  -84.6745   38.8686 H         1 09N         0.0390
    121 H67       -60.7623  -83.9005   39.0726 H         1 09N         0.0458
    122 H68       -61.1051  -86.2809   39.1957 H         1 09N         0.0463
    123 H69       -58.1748  -86.5677   39.3208 H         1 09N         0.0511
    124 H70       -58.9148  -87.0438   37.7548 H         1 09N         0.0511
    125 H71       -59.0937  -88.3739   40.3701 H         1 09N         0.0463
    126 H72       -60.5847  -89.9743   39.3732 H         1 09N         0.0458
    127 H73       -60.2346  -88.7367   36.8081 H         1 09N         0.0390
    128 H74       -61.6798  -88.0467   37.6218 H         1 09N         0.0390
    129 H75       -62.1085  -90.7056   38.0767 H         1 09N         0.0285
    130 H76       -61.2083  -90.7959   36.5249 H         1 09N         0.0285
    131 H77       -62.9539  -88.7080   36.0382 H         1 09N         0.0267
    132 H78       -63.9409  -89.7595   37.1091 H         1 09N         0.0267
    133 H79       -64.2868  -91.2691   35.4683 H         1 09N         0.0263
    134 H80       -62.5508  -91.2863   35.0070 H         1 09N         0.0263
    135 H81       -63.9725  -90.4840   33.1245 H         1 09N         0.0230
    136 H82       -62.8763  -89.1842   33.7037 H         1 09N         0.0230
    137 H83       -64.6123  -89.1670   34.1651 H         1 09N         0.0230
@<TRIPOS>BOND
     1    1    2 1  
     2    2    3 1  
     3    3    4 1  
     4    4    5 1  
     5    5    6 1  
     6    6    7 1  
     7    7    8 1  
     8    8    9 1  
     9    9   10 1  
    10   10   11 1  
    11   11   12 1  
    12   12   13 1  
    13   13   14 1  
    14   14   15 1  
    15   15   16 1  
    16   15   17 1  
    17   17   18 1  
    18   17   19 1  
    19   19   20 1  
    20   19   33 1  
    21   20   21 1  
    22   21   22 1  
    23   22   23 1  
    24   22   31 1  
    25   23   24 1  
    26   24   25 1  
    27   24   27 1  
    28   25   26 1  
    29   27   28 1  
    30   27   29 1  
    31   29   30 1  
    32   29   31 1  
    33   31   32 1  
    34   33   34 am 
    35   34   35 2  
    36   34   36 1  
    37   36   37 1  
    38   37   38 1  
    39   38   39 1  
    40   39   40 1  
    41   40   41 1  
    42   41   42 1  
    43   42   43 1  
    44   43   44 1  
    45   44   45 1  
    46   45   46 2  
    47   46   47 1  
    48   47   48 1  
    49   48   49 2  
    50   49   50 1  
    51   50   51 1  
    52   51   52 1  
    53   52   53 1  
    54   53   54 1  
    55    1   55 1  
    56    1   56 1  
    57    1   57 1  
    58    2   58 1  
    59    2   59 1  
    60    3   60 1  
    61    3   61 1  
    62    4   62 1  
    63    4   63 1  
    64    5   64 1  
    65    5   65 1  
    66    6   66 1  
    67    6   67 1  
    68    7   68 1  
    69    7   69 1  
    70    8   70 1  
    71    8   71 1  
    72    9   72 1  
    73    9   73 1  
    74   10   74 1  
    75   10   75 1  
    76   11   76 1  
    77   11   77 1  
    78   12   78 1  
    79   12   79 1  
    80   13   80 1  
    81   13   81 1  
    82   14   82 1  
    83   14   83 1  
    84   15   84 1  
    85   16   85 1  
    86   17   86 1  
    87   18   87 1  
    88   19   88 1  
    89   20   89 1  
    90   20   90 1  
    91   22   91 1  
    92   24   92 1  
    93   25   93 1  
    94   25   94 1  
    95   26   95 1  
    96   27   96 1  
    97   28   97 1  
    98   29   98 1  
    99   30   99 1  
   100   31  100 1  
   101   32  101 1  
   102   33  102 1  
   103   36  103 1  
   104   36  104 1  
   105   37  105 1  
   106   37  106 1  
   107   38  107 1  
   108   38  108 1  
   109   39  109 1  
   110   39  110 1  
   111   40  111 1  
   112   40  112 1  
   113   41  113 1  
   114   41  114 1  
   115   42  115 1  
   116   42  116 1  
   117   43  117 1  
   118   43  118 1  
   119   44  119 1  
   120   44  120 1  
   121   45  121 1  
   122   46  122 1  
   123   47  123 1  
   124   47  124 1  
   125   48  125 1  
   126   49  126 1  
   127   50  127 1  
   128   50  128 1  
   129   51  129 1  
   130   51  130 1  
   131   52  131 1  
   132   52  132 1  
   133   53  133 1  
   134   53  134 1  
   135   54  135 1  
   136   54  136 1  
   137   54  137 1  
@<TRIPOS>SUBSTRUCTURE
     1 09N         1

