3ubx_ligand
  -I-interpret- 

137137  0  0  0  0  0  0  0  0999 V2000
  -46.6610  -75.6700   45.1370 C   0  0  0  0  0
  -47.5460  -74.7120   44.3200 C   0  0  0  0  0
  -48.8210  -75.3850   43.7940 C   0  0  0  0  0
  -48.9270  -75.2100   42.2790 C   0  0  0  0  0
  -50.3700  -74.9460   41.8310 C   0  0  0  0  0
  -51.0200  -76.2100   41.2480 C   0  0  0  0  0
  -51.0920  -76.1620   39.7160 C   0  0  0  0  0
  -52.3410  -76.8770   39.1810 C   0  0  0  0  0
  -52.1480  -78.3960   39.0970 C   0  0  0  0  0
  -51.9020  -78.8680   37.6600 C   0  0  0  0  0
  -52.2490  -80.3580   37.5070 C   0  0  0  0  0
  -51.3540  -81.0820   36.4860 C   0  0  0  0  0
  -49.9770  -81.4590   37.0670 C   0  0  0  0  0
  -49.3610  -82.6530   36.3350 C   0  0  0  0  0
  -48.6830  -82.2470   35.0130 C   0  0  0  0  0
  -47.8870  -81.0910   35.2220 O   0  0  0  0  0
  -47.7650  -83.3360   34.4260 C   0  0  0  0  0
  -46.8160  -83.7660   35.4080 O   0  0  0  0  0
  -48.5170  -84.5630   33.8880 C   0  0  0  0  0
  -47.5520  -85.4580   33.1130 C   0  0  0  0  0
  -46.9680  -84.7270   32.0290 O   0  0  0  0  0
  -46.2780  -85.6180   31.1250 C   0  0  0  0  0
  -47.1860  -86.6000   30.5010 O   0  0  0  0  0
  -48.1030  -86.0970   29.4900 C   0  0  0  0  0
  -48.8500  -87.2860   28.8910 C   0  0  0  0  0
  -50.2460  -87.0230   28.9270 O   0  0  0  0  0
  -47.3500  -85.3210   28.4040 C   0  0  0  0  0
  -46.5150  -86.2130   27.6390 O   0  0  0  0  0
  -46.5220  -84.2150   29.0680 C   0  0  0  0  0
  -45.7930  -83.4780   28.1070 O   0  0  0  0  0
  -45.5320  -84.8090   30.0520 C   0  0  0  0  0
  -44.7770  -83.7500   30.6290 O   0  0  0  0  0
  -49.6520  -84.1540   33.0410 N   0  0  0  0  0
  -50.6720  -84.9540   32.7370 C   0  0  0  0  0
  -50.7570  -86.1310   33.0810 O   0  0  0  0  0
  -51.7680  -84.3140   31.8800 C   0  0  0  0  0
  -53.1690  -84.6830   32.3870 C   0  0  0  0  0
  -53.6610  -83.6990   33.4410 C   0  0  0  0  0
  -55.0720  -84.0670   33.9120 C   0  0  0  0  0
  -55.5110  -83.1880   35.0970 C   0  0  0  0  0
  -57.0330  -83.1710   35.2840 C   0  0  0  0  0
  -57.4660  -84.0120   36.4890 C   0  0  0  0  0
  -58.5300  -83.2930   37.3440 C   0  0  0  0  0
  -58.6530  -83.9230   38.7480 C   0  0  0  0  0
  -59.8910  -84.5420   38.9490 C   0  0  0  0  0
  -60.0920  -85.9310   39.0030 C   0  0  0  0  0
  -59.1000  -86.9040   38.8300 C   0  0  0  0  0
  -59.5010  -88.1260   39.3910 C   0  0  0  0  0
  -60.3790  -89.0640   38.8120 C   0  0  0  0  0
  -61.0050  -88.9140   37.5730 C   0  0  0  0  0
  -61.8220  -90.1510   37.1710 C   0  0  0  0  0
  -63.0920  -89.7340   36.4100 C   0  0  0  0  0
  -63.4180  -90.6430   35.2170 C   0  0  0  0  0
  -63.7430  -89.8100   33.9630 C   0  0  0  0  0
  -47.2227  -76.0385   45.9954 H   0  0  0  0  0
  -46.3612  -76.5095   44.5098 H   0  0  0  0  0
  -45.7745  -75.1381   45.4824 H   0  0  0  0  0
  -46.9675  -74.3738   43.4603 H   0  0  0  0  0
  -47.8457  -73.8937   44.9747 H   0  0  0  0  0
  -49.6879  -74.9237   44.2670 H   0  0  0  0  0
  -48.7840  -76.4490   44.0276 H   0  0  0  0  0
  -48.5857  -76.1302   41.8048 H   0  0  0  0  0
  -48.3184  -74.3527   41.9914 H   0  0  0  0  0
  -50.3560  -74.1776   41.0581 H   0  0  0  0  0
  -50.9483  -74.6300   42.6992 H   0  0  0  0  0
  -52.0362  -76.2816   41.6358 H   0  0  0  0  0
  -50.4139  -77.0693   41.5348 H   0  0  0  0  0
  -50.2116  -76.6649   39.3158 H   0  0  0  0  0
  -51.1368  -75.1175   39.4078 H   0  0  0  0  0
  -52.5406  -76.5046   38.1762 H   0  0  0  0  0
  -53.1653  -76.6774   39.8657 H   0  0  0  0  0
  -53.0572  -78.8746   39.4608 H   0  0  0  0  0
  -51.2766  -78.6613   39.6956 H   0  0  0  0  0
  -50.8484  -78.7262   37.4193 H   0  0  0  0  0
  -52.5346  -78.2892   36.9871 H   0  0  0  0  0
  -53.2777  -80.4247   37.1529 H   0  0  0  0  0
  -52.1003  -80.8348   38.4759 H   0  0  0  0  0
  -51.1902  -80.4073   35.6457 H   0  0  0  0  0
  -51.8576  -82.0030   36.1922 H   0  0  0  0  0
  -50.1089  -81.7295   38.1146 H   0  0  0  0  0
  -49.3102  -80.6045   36.9517 H   0  0  0  0  0
  -50.1620  -83.3543   36.1011 H   0  0  0  0  0
  -48.6010  -83.0896   36.9830 H   0  0  0  0  0
  -49.4939  -82.0706   34.3063 H   0  0  0  0  0
  -47.4658  -80.8404   34.3966 H   0  0  0  0  0
  -47.2643  -82.8714   33.5766 H   0  0  0  0  0
  -46.2508  -84.4437   35.0300 H   0  0  0  0  0
  -48.9208  -85.1264   34.7292 H   0  0  0  0  0
  -48.0979  -86.3135   32.7152 H   0  0  0  0  0
  -46.7620  -85.7976   33.7828 H   0  0  0  0  0
  -45.5566  -86.1853   31.7131 H   0  0  0  0  0
  -48.8113  -85.4045   29.9447 H   0  0  0  0  0
  -48.6309  -88.1850   29.4671 H   0  0  0  0  0
  -48.5316  -87.4376   27.8596 H   0  0  0  0  0
  -50.7206  -87.7681   28.5512 H   0  0  0  0  0
  -48.0595  -84.8650   27.7135 H   0  0  0  0  0
  -46.0501  -85.7138   26.9635 H   0  0  0  0  0
  -47.2207  -83.5569   29.5845 H   0  0  0  0  0
  -45.2846  -82.7937   28.5484 H   0  0  0  0  0
  -44.8519  -85.4916   29.5425 H   0  0  0  0  0
  -44.3246  -83.2657   29.9345 H   0  0  0  0  0
  -49.6562  -83.2051   32.6669 H   0  0  0  0  0
  -51.6640  -84.6796   30.8584 H   0  0  0  0  0
  -51.6572  -83.2309   31.9316 H   0  0  0  0  0
  -53.1224  -85.6748   32.8368 H   0  0  0  0  0
  -53.8585  -84.6572   31.5432 H   0  0  0  0  0
  -53.6851  -82.7001   33.0054 H   0  0  0  0  0
  -52.9852  -83.7322   34.2956 H   0  0  0  0  0
  -55.0706  -85.1085   34.2334 H   0  0  0  0  0
  -55.7662  -83.9097   33.0865 H   0  0  0  0  0
  -55.1855  -82.1671   34.8970 H   0  0  0  0  0
  -55.0656  -83.5985   36.0032 H   0  0  0  0  0
  -57.4933  -83.5906   34.3895 H   0  0  0  0  0
  -57.3464  -82.1410   35.4540 H   0  0  0  0  0
  -56.5901  -84.1890   37.1132 H   0  0  0  0  0
  -57.8982  -84.9414   36.1181 H   0  0  0  0  0
  -59.4930  -83.3822   36.8413 H   0  0  0  0  0
  -58.2319  -82.2509   37.4594 H   0  0  0  0  0
  -58.5511  -83.1263   39.4849 H   0  0  0  0  0
  -57.8769  -84.6821   38.8458 H   0  0  0  0  0
  -60.7631  -83.8999   39.0727 H   0  0  0  0  0
  -61.1060  -86.2812   39.1959 H   0  0  0  0  0
  -58.1887  -86.5704   39.3264 H   0  0  0  0  0
  -58.9275  -87.0457   37.7631 H   0  0  0  0  0
  -59.0933  -88.3742   40.3710 H   0  0  0  0  0
  -60.5849  -89.9752   39.3737 H   0  0  0  0  0
  -60.2299  -88.7649   36.8213 H   0  0  0  0  0
  -61.6890  -88.0682   37.6428 H   0  0  0  0  0
  -62.1108  -90.6927   38.0717 H   0  0  0  0  0
  -61.2130  -90.7827   36.5243 H   0  0  0  0  0
  -62.9253  -88.7297   36.0204 H   0  0  0  0  0
  -63.9272  -89.7972   37.1075 H   0  0  0  0  0
  -64.2866  -91.2520   35.4677 H   0  0  0  0  0
  -62.5509  -91.2691   35.0065 H   0  0  0  0  0
  -64.6045  -89.1733   34.1645 H   0  0  0  0  0
  -62.8835  -89.1903   33.7072 H   0  0  0  0  0
  -63.9702  -90.4789   33.1329 H   0  0  0  0  0
  1  2  1  0  0  0
  2  3  1  0  0  0
  3  4  1  0  0  0
  4  5  1  0  0  0
  5  6  1  0  0  0
  6  7  1  0  0  0
  7  8  1  0  0  0
  8  9  1  0  0  0
  9 10  1  0  0  0
 10 11  1  0  0  0
 11 12  1  0  0  0
 12 13  1  0  0  0
 13 14  1  0  0  0
 14 15  1  0  0  0
 15 16  1  0  0  0
 15 17  1  0  0  0
 17 18  1  0  0  0
 17 19  1  0  0  0
 19 20  1  0  0  0
 19 33  1  0  0  0
 20 21  1  0  0  0
 21 22  1  0  0  0
 22 23  1  0  0  0
 22 31  1  0  0  0
 23 24  1  0  0  0
 24 25  1  0  0  0
 24 27  1  0  0  0
 25 26  1  0  0  0
 27 28  1  0  0  0
 27 29  1  0  0  0
 29 30  1  0  0  0
 29 31  1  0  0  0
 31 32  1  0  0  0
 33 34  1  0  0  0
 34 35  2  0  0  0
 34 36  1  0  0  0
 36 37  1  0  0  0
 37 38  1  0  0  0
 38 39  1  0  0  0
 39 40  1  0  0  0
 40 41  1  0  0  0
 41 42  1  0  0  0
 42 43  1  0  0  0
 43 44  1  0  0  0
 44 45  1  0  0  0
 45 46  2  0  0  0
 46 47  1  0  0  0
 47 48  1  0  0  0
 48 49  2  0  0  0
 49 50  1  0  0  0
 50 51  1  0  0  0
 51 52  1  0  0  0
 52 53  1  0  0  0
 53 54  1  0  0  0
  1 55  1  0  0  0
  1 56  1  0  0  0
  1 57  1  0  0  0
  2 58  1  0  0  0
  2 59  1  0  0  0
  3 60  1  0  0  0
  3 61  1  0  0  0
  4 62  1  0  0  0
  4 63  1  0  0  0
  5 64  1  0  0  0
  5 65  1  0  0  0
  6 66  1  0  0  0
  6 67  1  0  0  0
  7 68  1  0  0  0
  7 69  1  0  0  0
  8 70  1  0  0  0
  8 71  1  0  0  0
  9 72  1  0  0  0
  9 73  1  0  0  0
 10 74  1  0  0  0
 10 75  1  0  0  0
 11 76  1  0  0  0
 11 77  1  0  0  0
 12 78  1  0  0  0
 12 79  1  0  0  0
 13 80  1  0  0  0
 13 81  1  0  0  0
 14 82  1  0  0  0
 14 83  1  0  0  0
 15 84  1  0  0  0
 16 85  1  0  0  0
 17 86  1  0  0  0
 18 87  1  0  0  0
 19 88  1  0  0  0
 20 89  1  0  0  0
 20 90  1  0  0  0
 22 91  1  0  0  0
 24 92  1  0  0  0
 25 93  1  0  0  0
 25 94  1  0  0  0
 26 95  1  0  0  0
 27 96  1  0  0  0
 28 97  1  0  0  0
 29 98  1  0  0  0
 30 99  1  0  0  0
 31100  1  0  0  0
 32101  1  0  0  0
 33102  1  0  0  0
 36103  1  0  0  0
 36104  1  0  0  0
 37105  1  0  0  0
 37106  1  0  0  0
 38107  1  0  0  0
 38108  1  0  0  0
 39109  1  0  0  0
 39110  1  0  0  0
 40111  1  0  0  0
 40112  1  0  0  0
 41113  1  0  0  0
 41114  1  0  0  0
 42115  1  0  0  0
 42116  1  0  0  0
 43117  1  0  0  0
 43118  1  0  0  0
 44119  1  0  0  0
 44120  1  0  0  0
 45121  1  0  0  0
 46122  1  0  0  0
 47123  1  0  0  0
 47124  1  0  0  0
 48125  1  0  0  0
 49126  1  0  0  0
 50127  1  0  0  0
 50128  1  0  0  0
 51129  1  0  0  0
 51130  1  0  0  0
 52131  1  0  0  0
 52132  1  0  0  0
 53133  1  0  0  0
 53134  1  0  0  0
 54135  1  0  0  0
 54136  1  0  0  0
 54137  1  0  0  0
M  END
$$$$
