### 
### Created by X-TOOL on Wed Jan  1 15:39:36 2020
### 

@<TRIPOS>MOLECULE
6c4g_ligand
  107   109     1     0     0
SMALL
GAST_HUCK


@<TRIPOS>ATOM
      1 C42        10.2140    8.9910  -10.5260 C.2       1 EQG         0.3239
      2 O51         9.6050    8.2410   -9.7840 O.2       1 EQG        -0.3773
      3 O43        10.9110   10.0730  -10.1200 O.3       1 EQG        -0.2506
      4 C44        10.8540   10.3960   -8.7250 C.3       1 EQG         0.1113
      5 C45         9.5760   11.1140   -8.4320 C.ar      1 EQG        -0.0130
      6 C46         9.2150   11.3720   -7.1060 C.ar      1 EQG        -0.0578
      7 C47         8.0290   12.0380   -6.8280 C.ar      1 EQG        -0.0685
      8 C48         7.2050   12.4460   -7.8630 C.ar      1 EQG        -0.0687
      9 C49         7.5660   12.1970   -9.1990 C.ar      1 EQG        -0.0685
     10 C50         8.7450   11.5360   -9.4850 C.ar      1 EQG        -0.0578
     11 N41        10.2080    8.7630  -11.8670 N.am      1 EQG        -0.2409
     12 C33         9.5080    7.6650  -12.3620 C.3       1 EQG         0.1365
     13 C34         9.0120    7.9300  -13.7890 C.3       1 EQG         0.0318
     14 C35         7.7910    8.8500  -13.9430 C.3       1 EQG         0.1678
     15 C02        10.5100    6.5370  -12.5590 C.2       1 EQG         0.2040
     16 O36         6.7550    8.6110  -12.9720 O.3       1 EQG        -0.0919
     17 N37         5.9490    7.5170  -13.2320 N.pl3     1 EQG        -0.0565
     18 C38         4.6790    7.5910  -13.9830 C.cat     1 EQG         0.2785
     19 N39         4.3770    8.8390  -14.4480 N.pl3     1 EQG        -0.3215
     20 N40         3.8730    6.6190  -14.2310 N.pl3     1 EQG        -0.3215
     21 O01        11.6790    6.7690  -12.8550 O.2       1 EQG        -0.3944
     22 N03        10.0450    5.2610  -12.3520 N.am      1 EQG        -0.2635
     23 C04        10.9090    4.1500  -12.6040 C.3       1 EQG         0.1336
     24 C11        10.0590    3.0600  -13.2370 C.2       1 EQG         0.2022
     25 O32         9.4060    2.2410  -12.5970 O.2       1 EQG        -0.3945
     26 C05        11.9610    3.6800  -11.4870 C.3       1 EQG        -0.0006
     27 C10        12.1690    2.2020  -11.3930 C.3       1 EQG        -0.0460
     28 C09        13.3690    1.8830  -10.4740 C.3       1 EQG        -0.0526
     29 C08        13.3170    2.6080   -9.1150 C.3       1 EQG        -0.0530
     30 C07        12.9640    4.0730   -9.2980 C.3       1 EQG        -0.0526
     31 C06        11.6980    4.2320  -10.1520 C.3       1 EQG        -0.0460
     32 N12        10.0440    3.1270  -14.6060 N.am      1 EQG        -0.2793
     33 C13         9.3340    2.2320  -15.4550 C.3       1 EQG         0.0703
     34 C28         8.4050    3.0740  -16.4090 C.3       1 EQG        -0.0250
     35 C29         7.5870    4.2080  -15.7130 C.3       1 EQG        -0.0446
     36 C30         7.0350    5.2140  -16.7140 C.3       1 EQG        -0.0626
     37 C31         6.4200    3.6680  -14.9590 C.3       1 EQG        -0.0626
     38 C14        10.3390    1.3640  -16.3100 C.3       1 EQG         0.0946
     39 O15        11.2180    2.1690  -17.0120 O.3       1 EQG        -0.3872
     40 C16        10.9650    0.2520  -15.4660 C.3       1 EQG         0.0654
     41 C17         9.9700   -0.8410  -15.1850 C.2       1 EQG         0.1787
     42 O27         9.3410   -0.8870  -14.1310 O.2       1 EQG        -0.3970
     43 C21        10.7800   -4.4920  -15.5260 C.ar      1 EQG        -0.0411
     44 C22        10.8360   -5.2410  -14.3460 C.ar      1 EQG        -0.0603
     45 C23        12.0440   -5.4050  -13.6640 C.ar      1 EQG        -0.0686
     46 C24        13.2100   -4.8180  -14.1450 C.ar      1 EQG        -0.0687
     47 C25        13.1670   -4.0750  -15.3250 C.ar      1 EQG        -0.0686
     48 C26        11.9670   -3.9150  -16.0120 C.ar      1 EQG        -0.0603
     49 C20         9.4870   -4.3340  -16.2760 C.3       1 EQG         0.0011
     50 C19         8.7730   -2.9600  -16.1060 C.3       1 EQG         0.0404
     51 N18         9.6800   -1.8300  -16.1420 N.am      1 EQG        -0.2849
     52 H1         11.7055   11.0412   -8.4628 H         1 EQG         0.0776
     53 H2         10.8989    9.4706   -8.1321 H         1 EQG         0.0776
     54 H3          9.8605   11.0523   -6.2959 H         1 EQG         0.0557
     55 H4          7.7481   12.2386   -5.8004 H         1 EQG         0.0599
     56 H5          6.2766   12.9602   -7.6423 H         1 EQG         0.0559
     57 H6          6.9189   12.5238  -10.0049 H         1 EQG         0.0599
     58 H7          9.0275   11.3440  -10.5138 H         1 EQG         0.0557
     59 H8         10.6986    9.3743  -12.4880 H         1 EQG         0.1899
     60 H9          8.6851    7.3865  -11.6873 H         1 EQG         0.0800
     61 H10         8.7543    6.9588  -14.2366 H         1 EQG         0.0352
     62 H11         9.8422    8.3837  -14.3501 H         1 EQG         0.0352
     63 H12         7.3670    8.6980  -14.9465 H         1 EQG         0.0814
     64 H13         8.1275    9.8923  -13.8411 H         1 EQG         0.0814
     65 H14         6.2521    6.5971  -12.8815 H         1 EQG         0.3886
     66 H15         3.5112    8.9933  -14.9842 H         1 EQG         0.1855
     67 H16         5.0150    9.6260  -14.2626 H         1 EQG         0.1855
     68 H17         4.0870    5.6720  -13.8870 H         1 EQG         0.1855
     69 H18         3.0139    6.7880  -14.7735 H         1 EQG         0.1855
     70 H19         9.1109    5.1106  -12.0281 H         1 EQG         0.1883
     71 H20        11.5666    4.4999  -13.4134 H         1 EQG         0.0803
     72 H21        12.9259    4.1003  -11.8069 H         1 EQG         0.0348
     73 H22        12.3651    1.7992  -12.3976 H         1 EQG         0.0270
     74 H23        11.2628    1.7342  -10.9808 H         1 EQG         0.0270
     75 H24        14.2924    2.1815  -10.9919 H         1 EQG         0.0265
     76 H25        13.3864    0.7988  -10.2890 H         1 EQG         0.0265
     77 H26        14.3005    2.5323   -8.6281 H         1 EQG         0.0265
     78 H27        12.5559    2.1304   -8.4805 H         1 EQG         0.0265
     79 H28        13.8004    4.5850   -9.7962 H         1 EQG         0.0265
     80 H29        12.7915    4.5273   -8.3112 H         1 EQG         0.0265
     81 H30        10.8644    3.6881   -9.6837 H         1 EQG         0.0270
     82 H31        11.4392    5.2978  -10.2361 H         1 EQG         0.0270
     83 H32        10.5704    3.8581  -15.0400 H         1 EQG         0.1856
     84 H33         8.7151    1.5620  -14.8402 H         1 EQG         0.0583
     85 H34         7.6926    2.3844  -16.8854 H         1 EQG         0.0291
     86 H35         9.0391    3.5364  -17.1798 H         1 EQG         0.0291
     87 H36         8.2565    4.7295  -15.0132 H         1 EQG         0.0296
     88 H37         6.4686    5.9905  -16.1790 H         1 EQG         0.0232
     89 H38         6.3706    4.6987  -17.4233 H         1 EQG         0.0232
     90 H39         7.8669    5.6795  -17.2627 H         1 EQG         0.0232
     91 H40         6.7698    2.9327  -14.2194 H         1 EQG         0.0232
     92 H41         5.7245    3.1817  -15.6588 H         1 EQG         0.0232
     93 H42         5.9046    4.4910  -14.4423 H         1 EQG         0.0232
     94 H43         9.7370    0.8497  -17.0736 H         1 EQG         0.0642
     95 H44        11.8103    1.6242  -17.5169 H         1 EQG         0.2101
     96 H45        11.3109    0.6766  -14.5121 H         1 EQG         0.0529
     97 H46        11.8213   -0.1731  -16.0101 H         1 EQG         0.0529
     98 H47         9.9335   -5.6985  -13.9571 H         1 EQG         0.0557
     99 H48        12.0731   -5.9935  -12.7541 H         1 EQG         0.0599
    100 H49        14.1439   -4.9369  -13.6076 H         1 EQG         0.0559
    101 H50        14.0729   -3.6199  -15.7089 H         1 EQG         0.0599
    102 H51        11.9472   -3.3400  -16.9307 H         1 EQG         0.0557
    103 H52         8.7976   -5.1185  -15.9307 H         1 EQG         0.0446
    104 H53         9.6973   -4.4758  -17.3464 H         1 EQG         0.0446
    105 H54         8.2502   -2.9564  -15.1382 H         1 EQG         0.0542
    106 H55         8.0407   -2.8450  -16.9187 H         1 EQG         0.0542
    107 H56        10.1891   -1.7373  -16.9977 H         1 EQG         0.1852
@<TRIPOS>BOND
     1    1    2 2  
     2    1    3 1  
     3   11    1 am 
     4    3    4 1  
     5    4    5 1  
     6    5    6 ar 
     7    5   10 ar 
     8    6    7 ar 
     9    7    8 ar 
    10    9    8 ar 
    11   10    9 ar 
    12   12   11 1  
    13   12   13 1  
    14   15   12 1  
    15   13   14 1  
    16   14   16 1  
    17   15   21 2  
    18   22   15 am 
    19   16   17 1  
    20   17   18 ar 
    21   18   19 ar 
    22   18   20 ar 
    23   23   22 1  
    24   24   23 1  
    25   23   26 1  
    26   24   25 2  
    27   32   24 am 
    28   26   27 1  
    29   26   31 1  
    30   27   28 1  
    31   28   29 1  
    32   30   29 1  
    33   31   30 1  
    34   33   32 1  
    35   33   34 1  
    36   38   33 1  
    37   34   35 1  
    38   35   36 1  
    39   35   37 1  
    40   38   39 1  
    41   40   38 1  
    42   41   40 1  
    43   41   42 2  
    44   51   41 am 
    45   43   44 ar 
    46   43   48 ar 
    47   49   43 1  
    48   44   45 ar 
    49   45   46 ar 
    50   47   46 ar 
    51   48   47 ar 
    52   50   49 1  
    53   50   51 1  
    54    4   52 1  
    55    4   53 1  
    56    6   54 1  
    57    7   55 1  
    58    8   56 1  
    59    9   57 1  
    60   10   58 1  
    61   11   59 1  
    62   12   60 1  
    63   13   61 1  
    64   13   62 1  
    65   14   63 1  
    66   14   64 1  
    67   17   65 1  
    68   19   66 1  
    69   19   67 1  
    70   20   68 1  
    71   20   69 1  
    72   22   70 1  
    73   23   71 1  
    74   26   72 1  
    75   27   73 1  
    76   27   74 1  
    77   28   75 1  
    78   28   76 1  
    79   29   77 1  
    80   29   78 1  
    81   30   79 1  
    82   30   80 1  
    83   31   81 1  
    84   31   82 1  
    85   32   83 1  
    86   33   84 1  
    87   34   85 1  
    88   34   86 1  
    89   35   87 1  
    90   36   88 1  
    91   36   89 1  
    92   36   90 1  
    93   37   91 1  
    94   37   92 1  
    95   37   93 1  
    96   38   94 1  
    97   39   95 1  
    98   40   96 1  
    99   40   97 1  
   100   44   98 1  
   101   45   99 1  
   102   46  100 1  
   103   47  101 1  
   104   48  102 1  
   105   49  103 1  
   106   49  104 1  
   107   50  105 1  
   108   50  106 1  
   109   51  107 1  
@<TRIPOS>SUBSTRUCTURE
     1 EQG         1

