6c4g_ligand
  -I-interpret- 

106108  0  0  0  0  0  0  0  0999 V2000
   10.2140    8.9910  -10.5260 C   0  0  0  0  0
    9.6050    8.2410   -9.7840 O   0  0  0  0  0
   10.9110   10.0730  -10.1200 O   0  0  0  0  0
   10.8540   10.3960   -8.7250 C   0  0  0  0  0
    9.5760   11.1140   -8.4320 C   0  0  0  0  0
    9.2150   11.3720   -7.1060 C   0  0  0  0  0
    8.0290   12.0380   -6.8280 C   0  0  0  0  0
    7.2050   12.4460   -7.8630 C   0  0  0  0  0
    7.5660   12.1970   -9.1990 C   0  0  0  0  0
    8.7450   11.5360   -9.4850 C   0  0  0  0  0
   10.2080    8.7630  -11.8670 N   0  0  0  0  0
    9.5080    7.6650  -12.3620 C   0  0  0  0  0
    9.0120    7.9300  -13.7890 C   0  0  0  0  0
    7.7910    8.8500  -13.9430 C   0  0  0  0  0
   10.5100    6.5370  -12.5590 C   0  0  0  0  0
    6.7550    8.6110  -12.9720 O   0  0  0  0  0
    5.9490    7.5170  -13.2320 N   0  0  0  0  0
    4.6790    7.5910  -13.9830 C   0  0  0  0  0
    4.3770    8.8390  -14.4480 N   0  0  0  0  0
    3.8730    6.6190  -14.2310 N   0  0  0  0  0
   11.6790    6.7690  -12.8550 O   0  0  0  0  0
   10.0450    5.2610  -12.3520 N   0  0  0  0  0
   10.9090    4.1500  -12.6040 C   0  0  0  0  0
   10.0590    3.0600  -13.2370 C   0  0  0  0  0
    9.4060    2.2410  -12.5970 O   0  0  0  0  0
   11.9610    3.6800  -11.4870 C   0  0  0  0  0
   12.1690    2.2020  -11.3930 C   0  0  0  0  0
   13.3690    1.8830  -10.4740 C   0  0  0  0  0
   13.3170    2.6080   -9.1150 C   0  0  0  0  0
   12.9640    4.0730   -9.2980 C   0  0  0  0  0
   11.6980    4.2320  -10.1520 C   0  0  0  0  0
   10.0440    3.1270  -14.6060 N   0  0  0  0  0
    9.3340    2.2320  -15.4550 C   0  0  0  0  0
    8.4050    3.0740  -16.4090 C   0  0  0  0  0
    7.5870    4.2080  -15.7130 C   0  0  0  0  0
    7.0350    5.2140  -16.7140 C   0  0  0  0  0
    6.4200    3.6680  -14.9590 C   0  0  0  0  0
   10.3390    1.3640  -16.3100 C   0  0  0  0  0
   11.2180    2.1690  -17.0120 O   0  0  0  0  0
   10.9650    0.2520  -15.4660 C   0  0  0  0  0
    9.9700   -0.8410  -15.1850 C   0  0  0  0  0
    9.3410   -0.8870  -14.1310 O   0  0  0  0  0
   10.7800   -4.4920  -15.5260 C   0  0  0  0  0
   10.8360   -5.2410  -14.3460 C   0  0  0  0  0
   12.0440   -5.4050  -13.6640 C   0  0  0  0  0
   13.2100   -4.8180  -14.1450 C   0  0  0  0  0
   13.1670   -4.0750  -15.3250 C   0  0  0  0  0
   11.9670   -3.9150  -16.0120 C   0  0  0  0  0
    9.4870   -4.3340  -16.2760 C   0  0  0  0  0
    8.7730   -2.9600  -16.1060 C   0  0  0  0  0
    9.6800   -1.8300  -16.1420 N   0  0  0  0  0
   11.6978   11.0352   -8.4651 H   0  0  0  0  0
   10.8987    9.4790   -8.1375 H   0  0  0  0  0
    9.8641   11.0506   -6.2914 H   0  0  0  0  0
    7.7466   12.2397   -5.7947 H   0  0  0  0  0
    6.2714   12.9630   -7.6411 H   0  0  0  0  0
    6.9153   12.5256  -10.0094 H   0  0  0  0  0
    9.0290   11.3430  -10.5195 H   0  0  0  0  0
   10.7084    9.3865  -12.5005 H   0  0  0  0  0
    8.6901    7.4506  -11.6741 H   0  0  0  0  0
    8.7060    6.9607  -14.1827 H   0  0  0  0  0
    9.8317    8.4350  -14.3002 H   0  0  0  0  0
    7.3633    8.6594  -14.9273 H   0  0  0  0  0
    8.1368    9.8742  -13.8030 H   0  0  0  0  0
    6.2492    6.6061  -12.8849 H   0  0  0  0  0
    3.5224    8.9906  -14.9838 H   0  0  0  0  0
    5.0060    9.6195  -14.2595 H   0  0  0  0  0
    4.0881    5.6799  -13.8959 H   0  0  0  0  0
    9.0923    5.1076  -12.0216 H   0  0  0  0  0
   11.6766    4.5019  -13.2932 H   0  0  0  0  0
   12.8928    4.1080  -11.8567 H   0  0  0  0  0
   12.3709    1.8083  -12.3892 H   0  0  0  0  0
   11.2720    1.7435  -10.9768 H   0  0  0  0  0
   14.2709    2.2164  -10.9874 H   0  0  0  0  0
   13.3506    0.8118  -10.2733 H   0  0  0  0  0
   14.2968    2.5392   -8.6425 H   0  0  0  0  0
   12.5539    2.1376   -8.4950 H   0  0  0  0  0
   13.7913    4.5714   -9.8033 H   0  0  0  0  0
   12.7820    4.5137   -8.3178 H   0  0  0  0  0
   10.8678    3.7001   -9.6874 H   0  0  0  0  0
   11.4342    5.2866  -10.2318 H   0  0  0  0  0
   10.5809    3.8728  -15.0487 H   0  0  0  0  0
    8.7325    1.5553  -14.8481 H   0  0  0  0  0
    7.6789    2.3791  -16.8310 H   0  0  0  0  0
    9.0592    3.5600  -17.1328 H   0  0  0  0  0
    8.2912    4.6924  -15.0366 H   0  0  0  0  0
    7.8603    5.6745  -17.2571 H   0  0  0  0  0
    6.3769    4.7022  -17.4162 H   0  0  0  0  0
    6.4740    5.9829  -16.1827 H   0  0  0  0  0
    5.7580    3.1405  -15.6457 H   0  0  0  0  0
    6.7724    2.9794  -14.1910 H   0  0  0  0  0
    5.8793    4.4906  -14.4909 H   0  0  0  0  0
    9.7966    0.8264  -17.0878 H   0  0  0  0  0
   11.8165    1.6185  -17.5222 H   0  0  0  0  0
   11.2930    0.6771  -14.5174 H   0  0  0  0  0
   11.8038   -0.1734  -16.0169 H   0  0  0  0  0
    9.9285   -5.7010  -13.9550 H   0  0  0  0  0
   12.0733   -5.9967  -12.7491 H   0  0  0  0  0
   14.1490   -4.9376  -13.6046 H   0  0  0  0  0
   14.0779   -3.6174  -15.7110 H   0  0  0  0  0
   11.9471   -3.3368  -16.9358 H   0  0  0  0  0
    8.8059   -5.0875  -15.8804 H   0  0  0  0  0
    9.7300   -4.4274  -17.3345 H   0  0  0  0  0
    8.2884   -2.9607  -15.1296 H   0  0  0  0  0
    8.0759   -2.8476  -16.9363 H   0  0  0  0  0
   10.1992   -1.7354  -17.0148 H   0  0  0  0  0
  1  2  2  0  0  0
  1  3  1  0  0  0
 11  1  1  0  0  0
  3  4  1  0  0  0
  4  5  1  0  0  0
  5  6  4  0  0  0
  5 10  4  0  0  0
  6  7  4  0  0  0
  7  8  4  0  0  0
  9  8  4  0  0  0
 10  9  4  0  0  0
 12 11  1  0  0  0
 12 13  1  0  0  0
 15 12  1  0  0  0
 13 14  1  0  0  0
 14 16  1  0  0  0
 15 21  2  0  0  0
 22 15  1  0  0  0
 16 17  1  0  0  0
 17 18  1  0  0  0
 18 19  1  0  0  0
 18 20  2  0  0  0
 23 22  1  0  0  0
 24 23  1  0  0  0
 23 26  1  0  0  0
 24 25  2  0  0  0
 32 24  1  0  0  0
 26 27  1  0  0  0
 26 31  1  0  0  0
 27 28  1  0  0  0
 28 29  1  0  0  0
 30 29  1  0  0  0
 31 30  1  0  0  0
 33 32  1  0  0  0
 33 34  1  0  0  0
 38 33  1  0  0  0
 34 35  1  0  0  0
 35 36  1  0  0  0
 35 37  1  0  0  0
 38 39  1  0  0  0
 40 38  1  0  0  0
 41 40  1  0  0  0
 41 42  2  0  0  0
 51 41  1  0  0  0
 43 44  4  0  0  0
 43 48  4  0  0  0
 49 43  1  0  0  0
 44 45  4  0  0  0
 45 46  4  0  0  0
 47 46  4  0  0  0
 48 47  4  0  0  0
 50 49  1  0  0  0
 50 51  1  0  0  0
  4 52  1  0  0  0
  4 53  1  0  0  0
  6 54  1  0  0  0
  7 55  1  0  0  0
  8 56  1  0  0  0
  9 57  1  0  0  0
 10 58  1  0  0  0
 11 59  1  0  0  0
 12 60  1  0  0  0
 13 61  1  0  0  0
 13 62  1  0  0  0
 14 63  1  0  0  0
 14 64  1  0  0  0
 17 65  1  0  0  0
 19 66  1  0  0  0
 19 67  1  0  0  0
 20 68  1  0  0  0
 22 69  1  0  0  0
 23 70  1  0  0  0
 26 71  1  0  0  0
 27 72  1  0  0  0
 27 73  1  0  0  0
 28 74  1  0  0  0
 28 75  1  0  0  0
 29 76  1  0  0  0
 29 77  1  0  0  0
 30 78  1  0  0  0
 30 79  1  0  0  0
 31 80  1  0  0  0
 31 81  1  0  0  0
 32 82  1  0  0  0
 33 83  1  0  0  0
 34 84  1  0  0  0
 34 85  1  0  0  0
 35 86  1  0  0  0
 36 87  1  0  0  0
 36 88  1  0  0  0
 36 89  1  0  0  0
 37 90  1  0  0  0
 37 91  1  0  0  0
 37 92  1  0  0  0
 38 93  1  0  0  0
 39 94  1  0  0  0
 40 95  1  0  0  0
 40 96  1  0  0  0
 44 97  1  0  0  0
 45 98  1  0  0  0
 46 99  1  0  0  0
 47100  1  0  0  0
 48101  1  0  0  0
 49102  1  0  0  0
 49103  1  0  0  0
 50104  1  0  0  0
 50105  1  0  0  0
 51106  1  0  0  0
M  END
$$$$
