4mrh_ligand
  -I-interpret- 

 19 19  0  0  0  0  0  0  0  0999 V2000
    2.5940    4.5330  -11.1050 N   0  0  0  0  0
    1.8070    4.1300  -10.1030 C   0  0  0  0  0
    1.3590    4.9950   -9.0800 C   0  0  0  0  0
    0.5530    4.5210   -8.0170 C   0  0  0  0  0
    0.0670    5.3960   -6.9750 C   0  0  0  0  0
    0.2380    3.1510   -8.0030 C   0  0  0  0  0
   -0.7030    2.4790   -6.7070 Cl  0  0  0  0  0
    0.6950    2.2840   -9.0050 C   0  0  0  0  0
    1.4800    2.7590  -10.0570 C   0  0  0  0  0
    1.9260    1.9390  -11.0410 N   0  0  0  0  0
    2.8985    5.5052  -11.1550 H   0  0  0  0  0
    2.8903    3.8684  -11.8198 H   0  0  0  0  0
    1.6393    6.0479   -9.1096 H   0  0  0  0  0
    0.9134    5.8470   -6.4569 H   0  0  0  0  0
   -0.5488    6.1789   -7.4176 H   0  0  0  0  0
   -0.5289    4.8199   -6.2671 H   0  0  0  0  0
    0.4344    1.2265   -8.9623 H   0  0  0  0  0
    2.4907    2.3160  -11.8022 H   0  0  0  0  0
    1.6967    0.9453  -11.0198 H   0  0  0  0  0
  1  2  1  0  0  0
  2  3  4  0  0  0
  2  9  4  0  0  0
  3  4  4  0  0  0
  4  5  1  0  0  0
  4  6  4  0  0  0
  6  7  1  0  0  0
  6  8  4  0  0  0
  8  9  4  0  0  0
  9 10  1  0  0  0
  1 11  1  0  0  0
  1 12  1  0  0  0
  3 13  1  0  0  0
  5 14  1  0  0  0
  5 15  1  0  0  0
  5 16  1  0  0  0
  8 17  1  0  0  0
 10 18  1  0  0  0
 10 19  1  0  0  0
M  END
$$$$
