2oah_ligand
  -I-interpret- 

 72 74  0  0  0  0  0  0  0  0999 V2000
   30.1940   43.6350    1.6580 C   0  0  0  0  0
   30.7200   42.3120    1.5090 C   0  0  0  0  0
   29.8290   41.3050    1.0130 C   0  0  0  0  0
   28.4860   41.5920    0.6540 C   0  0  0  0  0
   27.9940   42.9310    0.8210 C   0  0  0  0  0
   28.8720   43.8650    1.3240 N   0  0  0  0  0
   26.6740   43.2650    0.5240 N   0  0  0  0  0
   25.9510   44.6060    1.1380 S   0  0  0  0  0
   24.5700   44.4920    0.7610 O   0  0  0  0  0
   25.9500   42.5710   -0.5630 C   0  0  0  0  0
   30.2780   39.9190    0.8510 C   0  0  0  0  0
   30.8860   39.4010    1.9370 N   0  0  0  0  0
   31.7120   38.1890    1.9370 C   0  0  0  0  0
   31.0430   37.1520    2.8740 C   0  0  0  0  0
   33.1150   38.5520    2.4460 C   0  0  0  0  0
   30.1170   39.2800   -0.1710 O   0  0  0  0  0
   26.6280   46.0610    0.3270 C   0  0  0  0  0
   26.2800   44.6880    2.5140 O   0  0  0  0  0
   34.0190   39.7650    0.2360 C   0  0  0  0  0
   33.7700   39.7160    1.6800 C   0  0  0  0  0
   34.1750   40.9760    2.2850 C   0  0  0  0  0
   34.8070   42.0190    1.0610 S   0  0  0  0  0
   34.5650   40.9450   -0.2380 C   0  0  0  0  0
   29.6730   36.7230    2.3350 C   0  0  0  0  0
   30.7930   37.8100    4.1610 N   0  3  0  0  0
   29.7320   35.9020    1.0580 C   0  0  0  0  0
   28.3310   35.3670    0.7450 C   0  0  0  0  0
   28.4240   34.3050   -0.3370 C   0  0  0  0  0
   30.9880   44.7510    2.0730 N   0  0  0  0  0
   32.4190   44.6250    2.4680 C   0  0  0  0  0
   33.8230   44.0170    4.5130 C   0  0  0  0  0
   32.6220   44.7900    5.0440 C   0  0  0  0  0
   32.5040   43.9550    3.8010 C   0  0  0  0  0
   32.0480   44.2910    6.3270 C   0  0  0  0  0
   31.7546   42.0803    1.7621 H   0  0  0  0  0
   27.8389   40.8093    0.2582 H   0  0  0  0  0
   24.9748   42.2472   -0.1994 H   0  0  0  0  0
   25.8179   43.2529   -1.4030 H   0  0  0  0  0
   26.5256   41.7032   -0.8849 H   0  0  0  0  0
   30.7624   39.8881    2.8246 H   0  0  0  0  0
   31.7992   37.7680    0.9354 H   0  0  0  0  0
   31.6975   36.2842    2.9557 H   0  0  0  0  0
   33.7480   37.6752    2.3095 H   0  0  0  0  0
   33.0140   38.8624    3.4860 H   0  0  0  0  0
   26.5397   45.9473   -0.7534 H   0  0  0  0  0
   26.0751   46.9441    0.6471 H   0  0  0  0  0
   27.6782   46.1705    0.5975 H   0  0  0  0  0
   33.7890   38.9266   -0.4214 H   0  0  0  0  0
   34.0926   41.2229    3.3435 H   0  0  0  0  0
   34.8031   41.1544   -1.2809 H   0  0  0  0  0
   29.1195   37.6335    2.1054 H   0  0  0  0  0
   29.2104   36.0966    3.0977 H   0  0  0  0  0
   30.3516   37.1484    4.7996 H   0  0  0  0  0
   31.6779   38.1276    4.5567 H   0  0  0  0  0
   30.1764   38.6099    4.0184 H   0  0  0  0  0
   30.4233   35.0693    1.1876 H   0  0  0  0  0
   30.0798   36.5263    0.2350 H   0  0  0  0  0
   27.6992   36.1846    0.3980 H   0  0  0  0  0
   27.8992   34.9308    1.6458 H   0  0  0  0  0
   28.8560   34.7422   -1.2372 H   0  0  0  0  0
   29.0560   33.4880    0.0110 H   0  0  0  0  0
   27.4265   33.9255   -0.5585 H   0  0  0  0  0
   30.5548   45.6740    2.0995 H   0  0  0  0  0
   32.8706   45.6153    2.5270 H   0  0  0  0  0
   32.9523   44.0312    1.7256 H   0  0  0  0  0
   34.5896   43.3358    4.8823 H   0  0  0  0  0
   34.8739   44.1903    4.2812 H   0  0  0  0  0
   32.3811   45.8269    5.2783 H   0  0  0  0  0
   31.8220   43.1634    3.4905 H   0  0  0  0  0
   31.7168   43.2605    6.1989 H   0  0  0  0  0
   32.8094   44.3351    7.1057 H   0  0  0  0  0
   31.1998   44.9140    6.6107 H   0  0  0  0  0
  1  2  4  0  0  0
  1  6  4  0  0  0
 29  1  1  0  0  0
  2  3  4  0  0  0
  3  4  4  0  0  0
  3 11  1  0  0  0
  5  4  4  0  0  0
  6  5  4  0  0  0
  5  7  1  0  0  0
  7  8  1  0  0  0
  7 10  1  0  0  0
  8  9  2  0  0  0
  8 17  1  0  0  0
  8 18  2  0  0  0
 11 12  1  0  0  0
 11 16  2  0  0  0
 12 13  1  0  0  0
 13 14  1  0  0  0
 13 15  1  0  0  0
 14 24  1  0  0  0
 14 25  1  0  0  0
 15 20  1  0  0  0
 20 19  4  0  0  0
 19 23  4  0  0  0
 20 21  4  0  0  0
 21 22  4  0  0  0
 22 23  4  0  0  0
 24 26  1  0  0  0
 26 27  1  0  0  0
 27 28  1  0  0  0
 30 29  1  0  0  0
 33 30  1  0  0  0
 31 32  1  0  0  0
 31 33  1  0  0  0
 32 33  1  0  0  0
 32 34  1  0  0  0
  2 35  1  0  0  0
  4 36  1  0  0  0
 10 37  1  0  0  0
 10 38  1  0  0  0
 10 39  1  0  0  0
 12 40  1  0  0  0
 13 41  1  0  0  0
 14 42  1  0  0  0
 15 43  1  0  0  0
 15 44  1  0  0  0
 17 45  1  0  0  0
 17 46  1  0  0  0
 17 47  1  0  0  0
 19 48  1  0  0  0
 21 49  1  0  0  0
 23 50  1  0  0  0
 24 51  1  0  0  0
 24 52  1  0  0  0
 25 53  1  0  0  0
 25 54  1  0  0  0
 25 55  1  0  0  0
 26 56  1  0  0  0
 26 57  1  0  0  0
 27 58  1  0  0  0
 27 59  1  0  0  0
 28 60  1  0  0  0
 28 61  1  0  0  0
 28 62  1  0  0  0
 29 63  1  0  0  0
 30 64  1  0  0  0
 30 65  1  0  0  0
 31 66  1  0  0  0
 31 67  1  0  0  0
 32 68  1  0  0  0
 33 69  1  0  0  0
 34 70  1  0  0  0
 34 71  1  0  0  0
 34 72  1  0  0  0
M  END
$$$$
