2yhy_ligand
  -I-interpret- 

 30 30  0  0  0  0  0  0  0  0999 V2000
  -11.2590   30.9810   17.2800 C   0  0  0  0  0
  -12.3060   30.4620   18.0610 O   0  0  0  0  0
  -10.6400   29.9510   16.3990 C   0  0  0  0  0
   -9.7360   30.6600   15.4690 N   0  0  0  0  0
   -9.7350   30.5080   14.1000 C   0  0  0  0  0
  -10.4080   29.6140   13.5110 O   0  0  0  0  0
   -8.7430   31.4540   13.4030 C   0  0  0  0  0
   -9.9750   28.9240   17.2250 C   0  0  0  0  0
   -9.3980   27.9910   16.3220 O   0  0  0  0  0
   -9.0070   29.5240   18.1660 C   0  0  0  0  0
   -8.4230   28.4830   18.9810 O   0  0  0  0  0
   -9.6070   30.6120   19.0190 C   0  0  0  0  0
   -8.6450   31.3310   19.9440 C   0  0  0  0  0
   -7.6520   31.9840   19.1760 O   0  0  0  0  0
  -10.2560   31.5520   18.1420 O   0  0  0  0  0
  -11.6822   31.7473   16.6306 H   0  0  0  0  0
  -12.9742   30.0816   17.4862 H   0  0  0  0  0
  -11.3764   29.4098   15.8050 H   0  0  0  0  0
   -9.0619   31.3111   15.8715 H   0  0  0  0  0
   -7.9571   30.8677   12.9268 H   0  0  0  0  0
   -9.2694   32.0388   12.6487 H   0  0  0  0  0
   -8.3018   32.1237   14.1412 H   0  0  0  0  0
  -10.6836   28.4075   17.8725 H   0  0  0  0  0
  -10.0806   27.6430   15.7436 H   0  0  0  0  0
   -8.2293   30.0085   17.5756 H   0  0  0  0  0
   -7.7938   28.8722   19.5928 H   0  0  0  0  0
  -10.3068   30.1249   19.6981 H   0  0  0  0  0
   -8.1729   30.6088   20.6101 H   0  0  0  0  0
   -9.1903   32.0672   20.5346 H   0  0  0  0  0
   -7.0432   32.4390   19.7625 H   0  0  0  0  0
  1  2  1  0  0  0
  1  3  1  0  0  0
  1 15  1  0  0  0
  3  4  1  0  0  0
  3  8  1  0  0  0
  4  5  1  0  0  0
  5  6  2  0  0  0
  5  7  1  0  0  0
  8  9  1  0  0  0
  8 10  1  0  0  0
 10 11  1  0  0  0
 10 12  1  0  0  0
 12 13  1  0  0  0
 12 15  1  0  0  0
 13 14  1  0  0  0
  1 16  1  0  0  0
  2 17  1  0  0  0
  3 18  1  0  0  0
  4 19  1  0  0  0
  7 20  1  0  0  0
  7 21  1  0  0  0
  7 22  1  0  0  0
  8 23  1  0  0  0
  9 24  1  0  0  0
 10 25  1  0  0  0
 11 26  1  0  0  0
 12 27  1  0  0  0
 13 28  1  0  0  0
 13 29  1  0  0  0
 14 30  1  0  0  0
M  END
$$$$
