4exg_ligand
  -I-interpret- 

 71 73  0  0  0  0  0  0  0  0999 V2000
    7.3340    2.3220  -18.3080 O   0  0  0  0  0
    6.4180    1.6320  -17.8900 C   0  0  0  0  0
    6.7000    0.6360  -16.7630 C   0  0  0  0  0
    5.1800    1.6990  -18.4330 N   0  0  0  0  0
    4.9170    2.6490  -19.5630 C   0  0  0  0  0
    4.1880    1.7900  -20.5780 C   0  0  0  0  0
    4.9930    0.5970  -21.0730 C   0  0  0  0  0
    4.3290   -0.6260  -21.2780 C   0  0  0  0  0
    5.0650   -1.7310  -21.7440 C   0  0  0  0  0
    6.4440   -1.6530  -21.9750 C   0  0  0  0  0
    7.1070   -0.4380  -21.7280 C   0  0  0  0  0
    6.3850    0.6940  -21.2930 C   0  0  0  0  0
    4.0200    3.7910  -19.0140 C   0  0  0  0  0
    3.6260    4.7010  -20.0540 O   0  0  0  0  0
    4.8010    4.6050  -17.9820 C   0  0  0  0  0
    3.9550    5.6850  -17.5260 N   0  3  0  0  0
    4.5870    6.9280  -17.0110 C   0  0  0  0  0
    5.3230    6.5480  -15.7140 C   0  0  0  0  0
    6.3220    7.6450  -15.2470 C   0  0  0  0  0
    6.9700    7.1250  -13.9510 C   0  0  0  0  0
    5.6110    9.0150  -15.1020 C   0  0  0  0  0
    5.6250    7.4140  -17.9440 C   0  0  0  0  0
    5.3720    7.5350  -19.3720 C   0  0  0  0  0
    6.5850    7.9970  -19.9910 C   0  0  0  0  0
    7.9130    8.2310  -18.8370 S   0  0  0  0  0
    6.9700    7.7880  -17.5310 C   0  0  0  0  0
    7.3760    7.7630  -16.2290 O   0  0  0  0  0
    6.8860    8.3020  -21.4460 C   0  0  0  0  0
    6.5530    9.7440  -21.8420 C   0  0  0  0  0
    7.4150   10.7820  -21.0870 C   0  0  0  0  0
    5.1020   10.0610  -21.5220 C   0  0  0  0  0
    6.7540    9.9560  -23.3370 C   0  0  0  0  0
    7.4556   -0.0777  -17.0912 H   0  0  0  0  0
    7.0625    1.1737  -15.8869 H   0  0  0  0  0
    5.7820    0.1051  -16.5109 H   0  0  0  0  0
    4.4304    1.1068  -18.0757 H   0  0  0  0  0
    5.8004    3.1136  -20.0010 H   0  0  0  0  0
    3.9786    2.4195  -21.4428 H   0  0  0  0  0
    3.2969    1.3974  -20.0882 H   0  0  0  0  0
    3.2611   -0.7163  -21.0790 H   0  0  0  0  0
    4.5482   -2.6725  -21.9301 H   0  0  0  0  0
    6.9944   -2.5200  -22.3403 H   0  0  0  0  0
    8.1851   -0.3699  -21.8733 H   0  0  0  0  0
    6.9000    1.6403  -21.1273 H   0  0  0  0  0
    3.1368    3.3246  -18.5776 H   0  0  0  0  0
    3.1307    4.2243  -20.7241 H   0  0  0  0  0
    5.7108    5.0047  -18.4300 H   0  0  0  0  0
    5.0859    3.9714  -17.1421 H   0  0  0  0  0
    3.4447    5.3010  -16.7307 H   0  0  0  0  0
    3.4348    5.9781  -18.3529 H   0  0  0  0  0
    3.8217    7.6921  -16.8743 H   0  0  0  0  0
    5.8912    5.6379  -15.9061 H   0  0  0  0  0
    4.5760    6.4203  -14.9305 H   0  0  0  0  0
    6.1966    6.9577  -13.2014 H   0  0  0  0  0
    7.4880    6.1881  -14.1558 H   0  0  0  0  0
    7.6826    7.8623  -13.5814 H   0  0  0  0  0
    5.1915    9.3088  -16.0642 H   0  0  0  0  0
    4.8115    8.9319  -14.3658 H   0  0  0  0  0
    6.3318    9.7641  -14.7744 H   0  0  0  0  0
    4.4332    7.3153  -19.8803 H   0  0  0  0  0
    6.2701    7.6414  -22.0562 H   0  0  0  0  0
    7.9552    8.1559  -21.5997 H   0  0  0  0  0
    7.2466   10.6813  -20.0148 H   0  0  0  0  0
    8.4680   10.6080  -21.3086 H   0  0  0  0  0
    7.1360   11.7859  -21.4072 H   0  0  0  0  0
    4.4527    9.3820  -22.0747 H   0  0  0  0  0
    4.9320    9.9382  -20.4524 H   0  0  0  0  0
    4.8840   11.0894  -21.8102 H   0  0  0  0  0
    7.7931    9.7516  -23.5952 H   0  0  0  0  0
    6.1013    9.2801  -23.8895 H   0  0  0  0  0
    6.5110   10.9874  -23.5923 H   0  0  0  0  0
  1  2  2  0  0  0
  2  3  1  0  0  0
  2  4  1  0  0  0
  4  5  1  0  0  0
  5  6  1  0  0  0
  5 13  1  0  0  0
  6  7  1  0  0  0
  7  8  4  0  0  0
  7 12  4  0  0  0
  8  9  4  0  0  0
  9 10  4  0  0  0
 10 11  4  0  0  0
 11 12  4  0  0  0
 13 14  1  0  0  0
 13 15  1  0  0  0
 15 16  1  0  0  0
 16 17  1  0  0  0
 17 18  1  0  0  0
 17 22  1  0  0  0
 18 19  1  0  0  0
 19 20  1  0  0  0
 19 21  1  0  0  0
 19 27  1  0  0  0
 22 23  4  0  0  0
 22 26  4  0  0  0
 23 24  4  0  0  0
 24 25  4  0  0  0
 24 28  1  0  0  0
 25 26  4  0  0  0
 26 27  1  0  0  0
 28 29  1  0  0  0
 29 30  1  0  0  0
 29 31  1  0  0  0
 29 32  1  0  0  0
  3 33  1  0  0  0
  3 34  1  0  0  0
  3 35  1  0  0  0
  4 36  1  0  0  0
  5 37  1  0  0  0
  6 38  1  0  0  0
  6 39  1  0  0  0
  8 40  1  0  0  0
  9 41  1  0  0  0
 10 42  1  0  0  0
 11 43  1  0  0  0
 12 44  1  0  0  0
 13 45  1  0  0  0
 14 46  1  0  0  0
 15 47  1  0  0  0
 15 48  1  0  0  0
 16 49  1  0  0  0
 16 50  1  0  0  0
 17 51  1  0  0  0
 18 52  1  0  0  0
 18 53  1  0  0  0
 20 54  1  0  0  0
 20 55  1  0  0  0
 20 56  1  0  0  0
 21 57  1  0  0  0
 21 58  1  0  0  0
 21 59  1  0  0  0
 23 60  1  0  0  0
 28 61  1  0  0  0
 28 62  1  0  0  0
 30 63  1  0  0  0
 30 64  1  0  0  0
 30 65  1  0  0  0
 31 66  1  0  0  0
 31 67  1  0  0  0
 31 68  1  0  0  0
 32 69  1  0  0  0
 32 70  1  0  0  0
 32 71  1  0  0  0
M  END
$$$$
