1cx9_ligand
  -I-interpret- 

 32 32  0  0  0  0  0  0  0  0999 V2000
   49.2940   24.2980   15.4810 C   0  0  0  0  0
   49.6810   25.6430   15.5410 C   0  0  0  0  0
   51.0000   26.0310   15.1670 C   0  0  0  0  0
   51.9090   25.0420   14.7490 C   0  0  0  0  0
   51.5190   23.6980   14.6950 C   0  0  0  0  0
   50.2160   23.3310   15.0610 C   0  0  0  0  0
   51.4280   27.3930   15.2090 N   0  0  0  0  0
   48.5390   26.8890   16.0770 S   0  0  0  0  0
   47.6900   27.6830   14.7040 C   0  0  0  0  0
   48.6740   28.0430   13.5890 C   0  0  0  0  0
   47.9300   28.7080   12.4380 C   0  0  0  0  0
   48.8770   29.3840   11.4430 C   0  0  0  0  0
   48.2520   29.4710    9.8280 P   0  0  0  0  0
   49.0680   30.3190    8.9180 O   0  0  0  0  0
   46.8430   30.0480    9.7120 O   0  0  0  0  0
   48.1770   28.1410    9.0890 O   0  0  0  0  0
   48.2815   24.0058   15.7595 H   0  0  0  0  0
   52.9231   25.3235   14.4654 H   0  0  0  0  0
   52.2282   22.9373   14.3685 H   0  0  0  0  0
   49.9180   22.2834   15.0182 H   0  0  0  0  0
   50.7821   28.1214   15.5135 H   0  0  0  0  0
   52.3795   27.6373   14.9345 H   0  0  0  0  0
   47.2188   28.5973   15.0646 H   0  0  0  0  0
   46.9458   26.9933   14.3058 H   0  0  0  0  0
   49.1576   27.1351   13.2285 H   0  0  0  0  0
   49.4237   28.7315   13.9788 H   0  0  0  0  0
   47.2778   29.4745   12.8565 H   0  0  0  0  0
   47.3756   27.9360   11.9043 H   0  0  0  0  0
   49.7888   28.7878   11.4064 H   0  0  0  0  0
   49.0324   30.4068   11.7864 H   0  0  0  0  0
   46.2470   29.5500   10.2763 H   0  0  0  0  0
   47.6616   27.5176    9.6060 H   0  0  0  0  0
  1  2  4  0  0  0
  1  6  4  0  0  0
  2  3  4  0  0  0
  2  8  1  0  0  0
  3  4  4  0  0  0
  3  7  1  0  0  0
  4  5  4  0  0  0
  5  6  4  0  0  0
  8  9  1  0  0  0
  9 10  1  0  0  0
 10 11  1  0  0  0
 11 12  1  0  0  0
 12 13  1  0  0  0
 13 14  2  0  0  0
 13 15  1  0  0  0
 13 16  1  0  0  0
  1 17  1  0  0  0
  4 18  1  0  0  0
  5 19  1  0  0  0
  6 20  1  0  0  0
  7 21  1  0  0  0
  7 22  1  0  0  0
  9 23  1  0  0  0
  9 24  1  0  0  0
 10 25  1  0  0  0
 10 26  1  0  0  0
 11 27  1  0  0  0
 11 28  1  0  0  0
 12 29  1  0  0  0
 12 30  1  0  0  0
 15 31  1  0  0  0
 16 32  1  0  0  0
M  END
$$$$
