### 
### Created by X-TOOL on Mon Sep 10 21:12:47 2018
### 

@<TRIPOS>MOLECULE
1cx9_ligand
   30    30     1     0     0
SMALL
GAST_HUCK


@<TRIPOS>ATOM
      1 C1         49.2940   24.2980   15.4810 C.ar      1 NHP        -0.0613
      2 C2         49.6810   25.6430   15.5410 C.ar      1 NHP         0.0329
      3 C3         51.0000   26.0310   15.1670 C.ar      1 NHP         0.0482
      4 C4         51.9090   25.0420   14.7490 C.ar      1 NHP        -0.0503
      5 C5         51.5190   23.6980   14.6950 C.ar      1 NHP        -0.0806
      6 C6         50.2160   23.3310   15.0610 C.ar      1 NHP        -0.0812
      7 N1         51.4280   27.3930   15.2090 N.pl3     1 NHP        -0.3394
      8 S1         48.5390   26.8890   16.0770 S.3       1 NHP        -0.1094
      9 C7         47.6900   27.6830   14.7040 C.3       1 NHP         0.0048
     10 C8         48.6740   28.0430   13.5890 C.3       1 NHP        -0.0409
     11 C9         47.9300   28.7080   12.4380 C.3       1 NHP        -0.0371
     12 C10        48.8770   29.3840   11.4430 C.3       1 NHP         0.0196
     13 P1         48.2520   29.4710    9.8280 P.3       1 NHP         0.0579
     14 O1         49.0680   30.3190    8.9180 O.co2     1 NHP        -0.5623
     15 O2         46.8430   30.0480    9.7120 O.co2     1 NHP        -0.5623
     16 O3         48.1770   28.1410    9.0890 O.co2     1 NHP        -0.5623
     17 H1         48.2871   24.0074   15.7580 H         1 NHP         0.0527
     18 H2         52.9175   25.3220   14.4670 H         1 NHP         0.0493
     19 H3         52.2243   22.9415   14.3703 H         1 NHP         0.0525
     20 H4         49.9196   22.2892   15.0185 H         1 NHP         0.0487
     21 H5         50.7746   28.1290   15.5127 H         1 NHP         0.1698
     22 H6         52.3900   27.6392   14.9355 H         1 NHP         0.1698
     23 H7         47.2024   28.6008   15.0643 H         1 NHP         0.0398
     24 H8         46.9292   26.9959   14.3051 H         1 NHP         0.0398
     25 H9         49.1651   27.1281   13.2260 H         1 NHP         0.0275
     26 H10        49.4331   28.7356   13.9816 H         1 NHP         0.0275
     27 H11        47.2493   29.4678   12.8496 H         1 NHP         0.0279
     28 H12        47.3463   27.9425   11.9057 H         1 NHP         0.0279
     29 H13        49.8186   28.8159   11.4200 H         1 NHP         0.0451
     30 H14        49.0748   30.4077   11.7936 H         1 NHP         0.0451
@<TRIPOS>BOND
     1    1    2 ar 
     2    1    6 ar 
     3    2    3 ar 
     4    2    8 1  
     5    3    4 ar 
     6    3    7 1  
     7    4    5 ar 
     8    5    6 ar 
     9    8    9 1  
    10    9   10 1  
    11   10   11 1  
    12   11   12 1  
    13   12   13 1  
    14   13   14 ar 
    15   13   15 ar 
    16   13   16 ar 
    17    1   17 1  
    18    4   18 1  
    19    5   19 1  
    20    6   20 1  
    21    7   21 1  
    22    7   22 1  
    23    9   23 1  
    24    9   24 1  
    25   10   25 1  
    26   10   26 1  
    27   11   27 1  
    28   11   28 1  
    29   12   29 1  
    30   12   30 1  
@<TRIPOS>SUBSTRUCTURE
     1 NHP         1

