1s50_ligand
  -I-interpret- 

 20 19  0  0  0  0  0  0  0  0999 V2000
   11.2350    2.0370   -1.4510 N   0  3  0  0  0
   11.2960    3.4810   -1.8360 C   0  0  0  0  0
   12.6620    3.8100   -2.4330 C   0  0  0  0  0
   13.3860    2.8550   -2.8120 O   0  0  0  0  0
   11.0320    4.3670   -0.6100 C   0  0  0  0  0
    9.5570    4.5100   -0.2210 C   0  0  0  0  0
    8.7420    5.2660   -1.2640 C   0  0  0  0  0
    9.3340    6.0960   -1.9860 O   0  0  0  0  0
    7.5140    5.0450   -1.3470 O   0  0  0  0  0
   12.9950    5.0120   -2.5170 O   0  0  0  0  0
   11.4118    1.4595   -2.2729 H   0  0  0  0  0
   11.9419    1.8455   -0.7410 H   0  0  0  0  0
   10.3099    1.8248   -1.0774 H   0  0  0  0  0
   10.5280    3.6757   -2.5846 H   0  0  0  0  0
   12.9296    2.0258   -2.6518 H   0  0  0  0  0
   11.3900    5.3657   -0.8602 H   0  0  0  0  0
   11.5360    3.8955    0.2337 H   0  0  0  0  0
    9.5106    5.0729    0.7113 H   0  0  0  0  0
    9.1368    3.5083   -0.1307 H   0  0  0  0  0
    7.2664    4.3753   -0.7053 H   0  0  0  0  0
  1  2  1  0  0  0
  2  3  1  0  0  0
  2  5  1  0  0  0
  3  4  1  0  0  0
  3 10  2  0  0  0
  5  6  1  0  0  0
  6  7  1  0  0  0
  7  8  2  0  0  0
  7  9  1  0  0  0
  1 11  1  0  0  0
  1 12  1  0  0  0
  1 13  1  0  0  0
  2 14  1  0  0  0
  4 15  1  0  0  0
  5 16  1  0  0  0
  5 17  1  0  0  0
  6 18  1  0  0  0
  6 19  1  0  0  0
  9 20  1  0  0  0
M  END
$$$$
