3vfa_ligand
  -I-interpret- 

 81 85  0  0  0  0  0  0  0  0999 V2000
   21.7070   29.0210   14.6010 O   0  0  0  0  0
   23.0980   28.7120   14.7520 C   0  0  0  0  0
   20.9740   27.8870   14.8060 C   0  0  0  0  0
   21.5520   26.7560   15.3940 C   0  0  0  0  0
   20.7770   25.6310   15.6430 C   0  0  0  0  0
   19.4240   25.6390   15.3270 C   0  0  0  0  0
   18.8700   26.7590   14.7400 C   0  0  0  0  0
   19.6350   27.8760   14.4500 C   0  0  0  0  0
   18.3970   24.2640   15.7110 S   0  0  0  0  0
   17.3610   24.0920   14.6690 O   0  0  0  0  0
   19.3320   23.1160   15.9280 O   0  0  0  0  0
   17.7180   24.4800   17.1740 N   0  0  0  0  0
   18.6790   24.8310   18.2070 C   0  0  0  0  0
   18.0880   24.5120   19.5820 C   0  0  0  0  0
   18.0650   23.0230   19.8540 C   0  0  0  0  0
   19.0130   25.0900   20.5690 N   0  0  0  0  0
   19.7760   24.1650   21.0940 C   0  0  0  0  0
   20.6630   24.4150   21.8860 O   0  0  0  0  0
   19.3920   22.7810   20.5960 C   0  0  0  0  0
   16.4900   25.2440   17.2520 C   0  0  0  0  0
   15.3610   24.3450   17.7440 C   0  0  0  0  0
   14.1850   25.0620   18.0660 O   0  0  0  0  0
   15.0110   23.2280   16.7770 C   0  0  0  0  0
   14.1150   22.2800   17.4510 N   0  0  0  0  0
   14.4390   21.0990   17.9620 C   0  0  0  0  0
   15.5870   20.6170   17.9740 O   0  0  0  0  0
   13.3900   20.4240   18.5290 O   0  0  0  0  0
   13.6970   18.2050   17.5390 C   0  0  0  0  0
   13.7100   19.0490   18.8250 C   0  0  0  0  0
   12.5230   18.5190   19.6260 C   0  0  0  0  0
   11.4840   18.2120   18.5630 C   0  0  0  0  0
   10.6830   19.3320   18.2040 O   0  0  0  0  0
   10.6790   19.5450   16.7970 C   0  0  0  0  0
   11.5250   18.4550   16.1740 C   0  0  0  0  0
   12.2570   17.7850   17.3360 C   0  0  0  0  0
   14.4120   23.7000   15.4500 C   0  0  0  0  0
   12.7160   22.1810   14.2770 C   0  0  0  0  0
   12.3520   21.0390   13.5580 C   0  0  0  0  0
   13.3520   20.3130   12.9310 C   0  0  0  0  0
   14.6890   20.6350   13.1700 C   0  0  0  0  0
   15.0280   21.7320   13.9770 C   0  0  0  0  0
   14.0370   22.5090   14.5580 C   0  0  0  0  0
   23.2779   28.3347   15.7587 H   0  0  0  0  0
   23.3817   27.9536   14.0223 H   0  0  0  0  0
   23.6888   29.6134   14.5895 H   0  0  0  0  0
   22.6100   26.7583   15.6563 H   0  0  0  0  0
   21.2292   24.7434   16.0855 H   0  0  0  0  0
   17.8069   26.7640   14.4995 H   0  0  0  0  0
   19.1898   28.7352   13.9483 H   0  0  0  0  0
   18.9053   25.8955   18.1466 H   0  0  0  0  0
   19.5942   24.2568   18.0625 H   0  0  0  0  0
   17.0709   24.9008   19.6307 H   0  0  0  0  0
   17.9781   22.4303   18.9434 H   0  0  0  0  0
   17.1958   22.7149   20.4351 H   0  0  0  0  0
   19.0543   26.0798   20.8119 H   0  0  0  0  0
   20.1555   22.3405   19.9548 H   0  0  0  0  0
   19.2927   22.0578   21.4055 H   0  0  0  0  0
   16.2407   25.6321   16.2644 H   0  0  0  0  0
   16.6222   26.0736   17.9466 H   0  0  0  0  0
   15.7605   23.8966   18.6536 H   0  0  0  0  0
   13.5107   24.4493   18.3686 H   0  0  0  0  0
   15.9474   22.7442   16.4990 H   0  0  0  0  0
   13.1377   22.5595   17.5356 H   0  0  0  0  0
   14.3540   17.3396   17.6260 H   0  0  0  0  0
   14.0678   18.7748   16.6870 H   0  0  0  0  0
   14.6787   18.9937   19.3216 H   0  0  0  0  0
   12.1647   19.2363   20.3644 H   0  0  0  0  0
   12.7801   17.6439   20.2228 H   0  0  0  0  0
   10.8050   17.4537   18.9530 H   0  0  0  0  0
   11.0842   20.5281   16.5575 H   0  0  0  0  0
    9.6616   19.5098   16.4074 H   0  0  0  0  0
   12.2254   18.8629   15.4452 H   0  0  0  0  0
   10.9116   17.7402   15.6254 H   0  0  0  0  0
   12.2989   16.7141   17.1372 H   0  0  0  0  0
   15.1531   24.3061   14.9289 H   0  0  0  0  0
   13.5107   24.2760   15.6596 H   0  0  0  0  0
   11.9281   22.8445   14.6335 H   0  0  0  0  0
   11.3094   20.7278   13.4922 H   0  0  0  0  0
   13.0964   19.4963   12.2560 H   0  0  0  0  0
   15.4778   20.0282   12.7253 H   0  0  0  0  0
   16.0767   21.9748   14.1482 H   0  0  0  0  0
  1  2  1  0  0  0
  3  1  1  0  0  0
  4  3  4  0  0  0
  8  3  4  0  0  0
  5  4  4  0  0  0
  6  5  4  0  0  0
  6  7  4  0  0  0
  9  6  1  0  0  0
  7  8  4  0  0  0
  9 10  2  0  0  0
  9 11  2  0  0  0
 12  9  1  0  0  0
 12 13  1  0  0  0
 20 12  1  0  0  0
 13 14  1  0  0  0
 14 15  1  0  0  0
 14 16  1  0  0  0
 15 19  1  0  0  0
 16 17  1  0  0  0
 17 18  2  0  0  0
 17 19  1  0  0  0
 21 20  1  0  0  0
 21 22  1  0  0  0
 23 21  1  0  0  0
 23 24  1  0  0  0
 36 23  1  0  0  0
 24 25  1  0  0  0
 25 26  2  0  0  0
 25 27  1  0  0  0
 27 29  1  0  0  0
 29 28  1  0  0  0
 28 35  1  0  0  0
 29 30  1  0  0  0
 30 31  1  0  0  0
 31 32  1  0  0  0
 31 35  1  0  0  0
 32 33  1  0  0  0
 34 33  1  0  0  0
 35 34  1  0  0  0
 42 36  1  0  0  0
 37 38  4  0  0  0
 37 42  4  0  0  0
 38 39  4  0  0  0
 39 40  4  0  0  0
 40 41  4  0  0  0
 41 42  4  0  0  0
  2 43  1  0  0  0
  2 44  1  0  0  0
  2 45  1  0  0  0
  4 46  1  0  0  0
  5 47  1  0  0  0
  7 48  1  0  0  0
  8 49  1  0  0  0
 13 50  1  0  0  0
 13 51  1  0  0  0
 14 52  1  0  0  0
 15 53  1  0  0  0
 15 54  1  0  0  0
 16 55  1  0  0  0
 19 56  1  0  0  0
 19 57  1  0  0  0
 20 58  1  0  0  0
 20 59  1  0  0  0
 21 60  1  0  0  0
 22 61  1  0  0  0
 23 62  1  0  0  0
 24 63  1  0  0  0
 28 64  1  0  0  0
 28 65  1  0  0  0
 29 66  1  0  0  0
 30 67  1  0  0  0
 30 68  1  0  0  0
 31 69  1  0  0  0
 33 70  1  0  0  0
 33 71  1  0  0  0
 34 72  1  0  0  0
 34 73  1  0  0  0
 35 74  1  0  0  0
 36 75  1  0  0  0
 36 76  1  0  0  0
 37 77  1  0  0  0
 38 78  1  0  0  0
 39 79  1  0  0  0
 40 80  1  0  0  0
 41 81  1  0  0  0
M  END
$$$$
