### 
### Created by X-TOOL on Mon Sep 10 21:13:15 2018
### 

@<TRIPOS>MOLECULE
4fxf_ligand
   30    30     1     0     0
SMALL
GAST_HUCK


@<TRIPOS>ATOM
      1 P1         33.8990   23.7430  122.8860 P.3       1 FBP         0.2009
      2 O1P        35.3200   24.2570  122.9390 O.co2     1 FBP        -0.5537
      3 O2P        33.7760   22.5160  123.7590 O.co2     1 FBP        -0.5537
      4 O3P        32.9410   24.8120  123.3590 O.co2     1 FBP        -0.5537
      5 O1         33.5430   23.3730  121.3620 O.3       1 FBP        -0.2706
      6 C1         34.0960   22.2340  120.7420 C.3       1 FBP         0.1347
      7 C2         33.1250   21.6970  119.6970 C.3       1 FBP         0.2253
      8 O2         33.7290   20.5530  119.0360 O.3       1 FBP        -0.3606
      9 C3         32.7330   22.7640  118.6750 C.3       1 FBP         0.1396
     10 O3         33.5150   22.7120  117.5070 O.3       1 FBP        -0.3837
     11 C4         31.2780   22.4680  118.3850 C.3       1 FBP         0.1148
     12 O4         30.5630   23.6280  118.0340 O.3       1 FBP        -0.3864
     13 C5         30.8020   21.9240  119.7180 C.3       1 FBP         0.1181
     14 O5         31.9180   21.2890  120.3210 O.3       1 FBP        -0.3358
     15 C6         29.6330   20.9700  119.5540 C.3       1 FBP         0.1071
     16 O6         28.6570   21.3360  120.4980 O.3       1 FBP        -0.2734
     17 P2         27.1210   21.4870  120.0660 P.3       1 FBP         0.2008
     18 O4P        27.0320   22.3710  118.8470 O.co2     1 FBP        -0.5537
     19 O5P        26.3470   22.1090  121.2010 O.co2     1 FBP        -0.5537
     20 O6P        26.5630   20.1250  119.7450 O.co2     1 FBP        -0.5537
     21 H1         34.2828   21.4592  121.5001 H         1 FBP         0.0667
     22 H2         35.0438   22.5065  120.2548 H         1 FBP         0.0667
     23 H3         34.5380   20.8217  118.6165 H         1 FBP         0.2129
     24 H4         32.8361   23.7653  119.1187 H         1 FBP         0.0675
     25 H5         33.4110   21.8623  117.0952 H         1 FBP         0.2101
     26 H6         31.1760   21.7195  117.5854 H         1 FBP         0.0648
     27 H7         30.6022   24.2515  118.7497 H         1 FBP         0.2100
     28 H8         30.4753   22.7604  120.3533 H         1 FBP         0.0650
     29 H9         29.9627   19.9364  119.7353 H         1 FBP         0.0639
     30 H10        29.2215   21.0506  118.5371 H         1 FBP         0.0639
@<TRIPOS>BOND
     1    1    2 ar 
     2    1    3 ar 
     3    1    4 ar 
     4    1    5 1  
     5    5    6 1  
     6    6    7 1  
     7    7    8 1  
     8    7    9 1  
     9    7   14 1  
    10    9   10 1  
    11    9   11 1  
    12   11   12 1  
    13   11   13 1  
    14   13   14 1  
    15   13   15 1  
    16   15   16 1  
    17   16   17 1  
    18   17   18 ar 
    19   17   19 ar 
    20   17   20 ar 
    21    6   21 1  
    22    6   22 1  
    23    8   23 1  
    24    9   24 1  
    25   10   25 1  
    26   11   26 1  
    27   12   27 1  
    28   13   28 1  
    29   15   29 1  
    30   15   30 1  
@<TRIPOS>SUBSTRUCTURE
     1 FBP         1

