4fxf_ligand
  -I-interpret- 

 34 34  0  0  0  0  0  0  0  0999 V2000
   33.8990   23.7430  122.8860 P   0  0  0  0  0
   35.3200   24.2570  122.9390 O   0  0  0  0  0
   33.7760   22.5160  123.7590 O   0  0  0  0  0
   32.9410   24.8120  123.3590 O   0  0  0  0  0
   33.5430   23.3730  121.3620 O   0  0  0  0  0
   34.0960   22.2340  120.7420 C   0  0  0  0  0
   33.1250   21.6970  119.6970 C   0  0  0  0  0
   33.7290   20.5530  119.0360 O   0  0  0  0  0
   32.7330   22.7640  118.6750 C   0  0  0  0  0
   33.5150   22.7120  117.5070 O   0  0  0  0  0
   31.2780   22.4680  118.3850 C   0  0  0  0  0
   30.5630   23.6280  118.0340 O   0  0  0  0  0
   30.8020   21.9240  119.7180 C   0  0  0  0  0
   31.9180   21.2890  120.3210 O   0  0  0  0  0
   29.6330   20.9700  119.5540 C   0  0  0  0  0
   28.6570   21.3360  120.4980 O   0  0  0  0  0
   27.1210   21.4870  120.0660 P   0  0  0  0  0
   27.0320   22.3710  118.8470 O   0  0  0  0  0
   26.3470   22.1090  121.2010 O   0  0  0  0  0
   26.5630   20.1250  119.7450 O   0  0  0  0  0
   35.3980   25.0366  122.3843 H   0  0  0  0  0
   33.0262   25.5870  122.7989 H   0  0  0  0  0
   34.2795   21.4662  121.4936 H   0  0  0  0  0
   35.0344   22.5052  120.2583 H   0  0  0  0  0
   33.9681   19.8948  119.6927 H   0  0  0  0  0
   32.8947   23.7717  119.0578 H   0  0  0  0  0
   33.2293   23.3997  116.9011 H   0  0  0  0  0
   31.1348   21.7903  117.5433 H   0  0  0  0  0
   29.6477   23.3976  117.8586 H   0  0  0  0  0
   30.4305   22.7307  120.3499 H   0  0  0  0  0
   29.9539   19.9408  119.7151 H   0  0  0  0  0
   29.2291   21.0304  118.5434 H   0  0  0  0  0
   27.3883   23.2378  119.0550 H   0  0  0  0  0
   26.7102   22.9757  121.3974 H   0  0  0  0  0
  1  2  1  0  0  0
  1  3  2  0  0  0
  1  4  1  0  0  0
  1  5  1  0  0  0
  5  6  1  0  0  0
  6  7  1  0  0  0
  7  8  1  0  0  0
  7  9  1  0  0  0
  7 14  1  0  0  0
  9 10  1  0  0  0
  9 11  1  0  0  0
 11 12  1  0  0  0
 11 13  1  0  0  0
 13 14  1  0  0  0
 13 15  1  0  0  0
 15 16  1  0  0  0
 16 17  1  0  0  0
 17 18  1  0  0  0
 17 19  1  0  0  0
 17 20  2  0  0  0
  2 21  1  0  0  0
  4 22  1  0  0  0
  6 23  1  0  0  0
  6 24  1  0  0  0
  8 25  1  0  0  0
  9 26  1  0  0  0
 10 27  1  0  0  0
 11 28  1  0  0  0
 12 29  1  0  0  0
 13 30  1  0  0  0
 15 31  1  0  0  0
 15 32  1  0  0  0
 18 33  1  0  0  0
 19 34  1  0  0  0
M  END
$$$$
