4ze6_ligand
  -I-interpret- 

 26 25  0  0  0  0  0  0  0  0999 V2000
   -1.3070    3.9970   10.3530 C   0  0  0  0  0
   -1.3080    2.4810   10.3120 C   0  0  0  0  0
   -5.0470    0.2330   10.7120 O   0  0  0  0  0
    0.0860    4.6050   10.3200 C   0  0  0  0  0
   -2.6540    1.8590   10.6310 C   0  0  0  0  0
    0.8460    4.3060    9.0410 C   0  0  0  0  0
   -2.6820    0.3630   10.3700 C   0  0  0  0  0
    2.2140    4.8410    9.0640 N   0  3  0  0  0
   -3.9620   -0.3110   10.7630 C   0  0  0  0  0
   -3.7860   -1.5390   11.1730 O   0  0  0  0  0
   -1.7737    4.2992   11.2906 H   0  0  0  0  0
   -1.8384    4.3485    9.4686 H   0  0  0  0  0
   -0.6036    2.1356   11.0687 H   0  0  0  0  0
   -1.0458    2.1838    9.2966 H   0  0  0  0  0
    0.6516    4.1737   11.1459 H   0  0  0  0  0
   -0.0268    5.6869   10.3891 H   0  0  0  0  0
   -3.4003    2.3259    9.9882 H   0  0  0  0  0
   -2.8549    2.0187   11.6903 H   0  0  0  0  0
    0.3137    4.7769    8.2146 H   0  0  0  0  0
    0.9092    3.2233    8.9317 H   0  0  0  0  0
   -1.8890   -0.0813   10.9716 H   0  0  0  0  0
   -2.5643    0.2238    9.2953 H   0  0  0  0  0
    2.6811    4.6148    8.1859 H   0  0  0  0  0
    2.1798    5.8537    9.1812 H   0  0  0  0  0
    2.7276    4.4247    9.8408 H   0  0  0  0  0
   -2.8526   -1.7590   11.1295 H   0  0  0  0  0
  2  1  1  0  0  0
  1  4  1  0  0  0
  5  2  1  0  0  0
  9  3  2  0  0  0
  4  6  1  0  0  0
  7  5  1  0  0  0
  6  8  1  0  0  0
  7  9  1  0  0  0
  9 10  1  0  0  0
  1 11  1  0  0  0
  1 12  1  0  0  0
  2 13  1  0  0  0
  2 14  1  0  0  0
  4 15  1  0  0  0
  4 16  1  0  0  0
  5 17  1  0  0  0
  5 18  1  0  0  0
  6 19  1  0  0  0
  6 20  1  0  0  0
  7 21  1  0  0  0
  7 22  1  0  0  0
  8 23  1  0  0  0
  8 24  1  0  0  0
  8 25  1  0  0  0
 10 26  1  0  0  0
M  END
$$$$
