5owf_ligand
  -I-interpret- 

 21 20  0  0  0  0  0  0  0  0999 V2000
   18.3020   57.2030   45.4230 N   0  3  0  0  0
   18.4850   56.5740   46.6900 C   0  0  0  0  0
   17.8060   57.2880   47.8190 C   0  0  0  0  0
   17.4770   58.3630   47.6610 O   0  0  0  0  0
   19.9690   56.3900   47.0460 C   0  0  0  0  0
   20.7760   57.6520   47.2040 C   0  0  0  0  0
   22.2760   57.3940   47.4690 C   0  0  0  0  0
   22.6570   56.2880   47.7120 O   0  0  0  0  0
   23.0690   58.3940   47.4500 N   0  0  0  0  0
   17.5610   56.7830   48.8330 O   0  0  0  0  0
   17.3044   57.3015   45.2346 H   0  0  0  0  0
   18.7394   58.1244   45.4358 H   0  0  0  0  0
   18.7318   56.6314   44.6957 H   0  0  0  0  0
   18.0151   55.5977   46.5716 H   0  0  0  0  0
   20.4162   55.8446   46.2149 H   0  0  0  0  0
   19.9901   55.8917   48.0152 H   0  0  0  0  0
   20.3786   58.1897   48.0648 H   0  0  0  0  0
   20.6990   58.2095   46.2705 H   0  0  0  0  0
   24.0612   58.2619   47.6461 H   0  0  0  0  0
   22.7105   59.3253   47.2387 H   0  0  0  0  0
   17.8942   55.8827   48.8296 H   0  0  0  0  0
  1  2  1  0  0  0
  2  3  1  0  0  0
  2  5  1  0  0  0
  3  4  2  0  0  0
  3 10  1  0  0  0
  5  6  1  0  0  0
  6  7  1  0  0  0
  7  8  2  0  0  0
  7  9  1  0  0  0
  1 11  1  0  0  0
  1 12  1  0  0  0
  1 13  1  0  0  0
  2 14  1  0  0  0
  5 15  1  0  0  0
  5 16  1  0  0  0
  6 17  1  0  0  0
  6 18  1  0  0  0
  9 19  1  0  0  0
  9 20  1  0  0  0
 10 21  1  0  0  0
M  END
$$$$
