6uwp_ligand
  -I-interpret- 

 53 57  0  0  0  0  0  0  0  0999 V2000
  -15.1820  -11.4570    1.6480 C   0  0  0  0  0
  -17.5420  -18.2970    1.4450 C   0  0  0  0  0
  -14.7370  -25.6110    0.1470 C   0  0  0  0  0
  -16.8220  -23.9480    0.9410 N   0  0  0  0  0
  -16.1130  -16.2700    2.1410 C   0  0  0  0  0
  -14.5880  -19.3190   -1.1070 C   0  0  0  0  0
  -15.4820  -23.5770    0.9150 C   0  0  0  0  0
  -17.0790  -25.1940    0.4900 C   0  0  0  0  0
  -16.4880  -16.2820    3.3180 O   0  0  0  0  0
  -15.5090  -15.2000    1.5560 N   0  0  0  0  0
  -15.3340  -13.9550    2.2980 C   0  0  0  0  0
  -14.8530  -12.8830    1.3310 C   0  0  0  0  0
  -15.8770  -12.1750    0.4780 C   0  0  0  0  0
  -15.5260  -11.7860   -0.9340 C   0  0  0  0  0
  -16.2690  -17.4400    1.2670 C   0  0  0  0  0
  -16.1920  -18.8430    1.8750 C   0  0  0  0  0
  -15.5090  -19.9770    1.1100 C   0  0  0  0  0
  -15.5730  -19.7500   -0.3360 N   0  0  0  0  0
  -14.0850  -20.2500    1.6520 C   0  0  0  0  0
  -13.0360  -19.2500    1.1780 C   0  0  0  0  0
  -12.9360  -19.0220   -0.6170 S   0  0  0  0  0
  -14.7980  -19.0760   -2.4280 N   0  0  0  0  0
  -16.2550  -21.2970    1.4520 C   0  0  0  0  0
  -15.2170  -22.2730    1.2110 N   0  0  0  0  0
  -13.8560  -21.7180    1.2020 C   0  0  0  0  0
  -14.4150  -24.3310    0.5600 N   0  0  0  0  0
  -16.0500  -26.0410    0.0750 C   0  0  0  0  0
  -14.6628  -10.5187    1.8433 H   0  0  0  0  0
  -15.4483  -10.8486    2.5123 H   0  0  0  0  0
  -18.4029  -18.6146    0.8567 H   0  0  0  0  0
  -18.5484  -18.1921    1.8502 H   0  0  0  0  0
  -13.9367  -26.2979   -0.1285 H   0  0  0  0  0
  -18.1099  -25.5456    0.4491 H   0  0  0  0  0
  -15.1768  -15.2682    0.5940 H   0  0  0  0  0
  -14.6024  -14.0948    3.0938 H   0  0  0  0  0
  -16.2795  -13.6535    2.7489 H   0  0  0  0  0
  -13.9326  -13.4264    1.1173 H   0  0  0  0  0
  -16.9087  -12.3686    0.1843 H   0  0  0  0  0
  -14.6721  -11.1086   -0.9213 H   0  0  0  0  0
  -15.2736  -12.6803   -1.5038 H   0  0  0  0  0
  -16.3792  -11.2886   -1.3952 H   0  0  0  0  0
  -15.7701  -16.9359    0.4393 H   0  0  0  0  0
  -15.8047  -19.2631    2.8032 H   0  0  0  0  0
  -16.4642  -19.9432   -0.7930 H   0  0  0  0  0
  -13.9892  -20.1214    2.7301 H   0  0  0  0  0
  -12.0688  -19.6383    1.4971 H   0  0  0  0  0
  -13.3135  -18.2840    1.5998 H   0  0  0  0  0
  -15.7219  -19.2258   -2.8335 H   0  0  0  0  0
  -17.1570  -21.4586    0.8617 H   0  0  0  0  0
  -16.6592  -21.3248    2.4639 H   0  0  0  0  0
  -13.1705  -22.2608    1.8528 H   0  0  0  0  0
  -13.3715  -21.7943    0.2286 H   0  0  0  0  0
  -16.2799  -27.0367   -0.3041 H   0  0  0  0  0
 12  1  1  0  0  0
 13  1  1  0  0  0
 15  2  1  0  0  0
 16  2  1  0  0  0
 26  3  4  0  0  0
  3 27  4  0  0  0
  7  4  4  0  0  0
  4  8  4  0  0  0
  5  9  2  0  0  0
  5 10  1  0  0  0
 15  5  1  0  0  0
 18  6  1  0  0  0
  6 21  1  0  0  0
  6 22  2  0  0  0
 24  7  1  0  0  0
  7 26  4  0  0  0
  8 27  4  0  0  0
 10 11  1  0  0  0
 11 12  1  0  0  0
 12 13  1  0  0  0
 13 14  1  0  0  0
 16 15  1  0  0  0
 17 16  1  0  0  0
 17 18  1  0  0  0
 17 19  1  0  0  0
 23 17  1  0  0  0
 19 20  1  0  0  0
 19 25  1  0  0  0
 20 21  1  0  0  0
 23 24  1  0  0  0
 24 25  1  0  0  0
  1 28  1  0  0  0
  1 29  1  0  0  0
  2 30  1  0  0  0
  2 31  1  0  0  0
  3 32  1  0  0  0
  8 33  1  0  0  0
 10 34  1  0  0  0
 11 35  1  0  0  0
 11 36  1  0  0  0
 12 37  1  0  0  0
 13 38  1  0  0  0
 14 39  1  0  0  0
 14 40  1  0  0  0
 14 41  1  0  0  0
 15 42  1  0  0  0
 16 43  1  0  0  0
 18 44  1  0  0  0
 19 45  1  0  0  0
 20 46  1  0  0  0
 20 47  1  0  0  0
 22 48  1  0  0  0
 23 49  1  0  0  0
 23 50  1  0  0  0
 25 51  1  0  0  0
 25 52  1  0  0  0
 27 53  1  0  0  0
M  END
$$$$
