### 
### Created by X-TOOL on Mon Sep 10 21:13:24 2018
### 

@<TRIPOS>MOLECULE
4uxh_ligand
   80    84     1     0     0
SMALL
GAST_HUCK


@<TRIPOS>ATOM
      1 N1B        13.6260  -24.7590    7.0960 N.am      1 T5A        -0.1736
      2 C6B        13.3550  -23.9490    8.1350 C.2       1 T5A         0.0524
      3 C2B        13.0010  -26.0130    6.9600 C.2       1 T5A         0.3265
      4 O2B        13.2800  -26.7450    5.9760 O.2       1 T5A        -0.3843
      5 N3B        12.1080  -26.3960    7.8860 N.am      1 T5A        -0.1859
      6 C4B        11.7770  -25.6100    8.9330 C.2       1 T5A         0.1930
      7 O4B        10.9370  -25.9540    9.7720 O.2       1 T5A        -0.4079
      8 C5B        12.4340  -24.3150    9.0910 C.2       1 T5A         0.0225
      9 C7B        12.1130  -23.4080   10.2550 C.3       1 T5A        -0.0437
     10 C5E        17.1260  -22.4030    7.2100 C.3       1 T5A         0.1127
     11 C4E        16.6750  -23.3490    6.1250 C.3       1 T5A         0.1163
     12 O4E        15.9540  -24.4700    6.6450 O.3       1 T5A        -0.3395
     13 C1E        14.6280  -24.3810    6.1020 C.3       1 T5A         0.1757
     14 C2E        14.4160  -22.9660    5.5830 C.3       1 T5A         0.0308
     15 C3E        15.8060  -22.6380    5.1130 C.3       1 T5A         0.0889
     16 O3E        16.0380  -23.2180    3.8180 O.3       1 T5A        -0.3890
     17 PA         19.1960  -22.0890    8.8110 P.3       1 T5A         0.2978
     18 O1A        19.9060  -23.1510    9.5520 O.co2     1 T5A        -0.6127
     19 O2A        18.3050  -21.1050    9.5600 O.co2     1 T5A        -0.6127
     20 O5E        18.1850  -23.0270    7.9660 O.3       1 T5A        -0.2476
     21 O3A        19.9940  -21.4710    7.5950 O.3       1 T5A        -0.1265
     22 PB         20.8530  -20.1540    7.4960 P.3       1 T5A         0.3361
     23 O1B        20.5320  -19.2750    6.3400 O.co2     1 T5A        -0.6079
     24 O2X        22.2300  -20.7410    7.5740 O.co2     1 T5A        -0.6079
     25 O3B        20.6280  -19.3830    8.9030 O.3       1 T5A        -0.1210
     26 PC         21.1420  -17.8950    9.2490 P.3       1 T5A         0.3367
     27 O1C        20.7450  -17.7920   10.7060 O.co2     1 T5A        -0.6078
     28 O2C        22.5900  -17.7700    8.8320 O.co2     1 T5A        -0.6078
     29 O3C        20.1900  -17.0480    8.2920 O.3       1 T5A        -0.1210
     30 PD         20.1360  -15.4850    8.0930 P.3       1 T5A         0.3361
     31 O1D        20.1970  -14.7530    9.4220 O.co2     1 T5A        -0.6079
     32 O2D        18.9320  -15.2280    7.3080 O.co2     1 T5A        -0.6079
     33 O3D        21.4980  -15.2760    7.2940 O.3       1 T5A        -0.1265
     34 PE         21.8110  -13.8680    6.5760 P.3       1 T5A         0.2978
     35 O1E        23.1810  -13.4380    6.8950 O.co2     1 T5A        -0.6127
     36 O2E        20.6540  -12.9900    6.9190 O.co2     1 T5A        -0.6127
     37 O5F        21.5710  -14.2690    5.0180 O.3       1 T5A        -0.2476
     38 C5F        22.5030  -14.4260    3.9660 C.3       1 T5A         0.1128
     39 C4F        22.6710  -15.8890    3.5530 C.3       1 T5A         0.1189
     40 O4F        24.0310  -15.9760    3.1290 O.3       1 T5A        -0.3364
     41 C1F        24.8170  -16.8640    3.9090 C.3       1 T5A         0.2010
     42 C2F        23.8880  -17.4540    4.9310 C.3       1 T5A         0.1385
     43 O2F        23.9650  -18.8590    4.7590 O.3       1 T5A        -0.3836
     44 C3F        22.5010  -16.9330    4.6430 C.3       1 T5A         0.1149
     45 O3F        21.6370  -17.9980    4.2420 O.3       1 T5A        -0.3864
     46 N9A        25.9540  -16.1580    4.5600 N.pl3     1 T5A        -0.1919
     47 C4A        27.2530  -16.4170    4.3560 C.ar      1 T5A         0.1613
     48 N3A        27.9520  -17.3000    3.5900 N.ar      1 T5A        -0.2714
     49 C2A        29.3000  -17.3080    3.6070 C.ar      1 T5A         0.0533
     50 N1A        30.0240  -16.4540    4.3680 N.ar      1 T5A        -0.2698
     51 C6A        29.4580  -15.5190    5.1860 C.ar      1 T5A         0.1298
     52 N6A        30.1880  -14.6640    5.9620 N.pl3     1 T5A        -0.3152
     53 C5A        27.9840  -15.4650    5.2140 C.ar      1 T5A         0.1045
     54 N7A        27.0710  -14.7200    5.8620 N.2       1 T5A        -0.2958
     55 C8A        25.8510  -15.1470    5.4540 C.2       1 T5A         0.1123
     56 H1         13.8696  -22.9932    8.2211 H         1 T5A         0.1011
     57 H2         11.6737  -27.2925    7.7977 H         1 T5A         0.2259
     58 H3         12.7156  -22.4906   10.1820 H         1 T5A         0.0296
     59 H4         12.3452  -23.9251   11.1977 H         1 T5A         0.0296
     60 H5         11.0445  -23.1475   10.2331 H         1 T5A         0.0296
     61 H6         16.2809  -22.1764    7.8767 H         1 T5A         0.0648
     62 H7         17.4957  -21.4713    6.7570 H         1 T5A         0.0648
     63 H8         17.5725  -23.7248    5.6119 H         1 T5A         0.0650
     64 H9         14.5460  -25.0788    5.2556 H         1 T5A         0.0959
     65 H10        14.0857  -22.2853    6.3815 H         1 T5A         0.0344
     66 H11        13.6908  -22.9406    4.7563 H         1 T5A         0.0344
     67 H12        15.9895  -21.5536    5.0940 H         1 T5A         0.0622
     68 H13        16.9180  -23.0053    3.5300 H         1 T5A         0.2099
     69 H14        23.4777  -14.0375    4.2960 H         1 T5A         0.0648
     70 H15        22.1544  -13.8506    3.0957 H         1 T5A         0.0648
     71 H16        21.9767  -16.1164    2.7306 H         1 T5A         0.0651
     72 H17        25.2192  -17.6624    3.2681 H         1 T5A         0.0996
     73 H18        24.1905  -17.1758    5.9513 H         1 T5A         0.0676
     74 H19        23.3921  -19.2855    5.3855 H         1 T5A         0.2101
     75 H20        22.0828  -16.4610    5.5443 H         1 T5A         0.0648
     76 H21        21.5859  -18.6422    4.9384 H         1 T5A         0.2100
     77 H22        29.8245  -18.0262    2.9872 H         1 T5A         0.0996
     78 H23        29.7094  -13.9769    6.5617 H         1 T5A         0.1820
     79 H24        31.2170  -14.7065    5.9474 H         1 T5A         0.1820
     80 H25        24.9072  -14.7294    5.8016 H         1 T5A         0.1349
@<TRIPOS>BOND
     1    1    2 1  
     2    1    3 am 
     3   13    1 1  
     4    2    8 2  
     5    3    4 2  
     6    3    5 am 
     7    5    6 am 
     8    6    7 2  
     9    8    6 1  
    10    8    9 1  
    11   10   11 1  
    12   20   10 1  
    13   11   12 1  
    14   11   15 1  
    15   12   13 1  
    16   14   13 1  
    17   15   14 1  
    18   15   16 1  
    19   17   18 ar 
    20   17   19 ar 
    21   17   20 1  
    22   17   21 1  
    23   21   22 1  
    24   22   23 ar 
    25   22   24 ar 
    26   22   25 1  
    27   25   26 1  
    28   26   27 ar 
    29   26   28 ar 
    30   26   29 1  
    31   29   30 1  
    32   30   31 ar 
    33   30   32 ar 
    34   30   33 1  
    35   33   34 1  
    36   34   35 ar 
    37   34   36 ar 
    38   34   37 1  
    39   37   38 1  
    40   38   39 1  
    41   39   40 1  
    42   39   44 1  
    43   40   41 1  
    44   41   42 1  
    45   41   46 1  
    46   42   43 1  
    47   42   44 1  
    48   44   45 1  
    49   46   47 1  
    50   46   55 1  
    51   47   48 ar 
    52   47   53 ar 
    53   48   49 ar 
    54   49   50 ar 
    55   50   51 ar 
    56   51   52 1  
    57   51   53 ar 
    58   53   54 1  
    59   54   55 2  
    60    2   56 1  
    61    5   57 1  
    62    9   58 1  
    63    9   59 1  
    64    9   60 1  
    65   10   61 1  
    66   10   62 1  
    67   11   63 1  
    68   13   64 1  
    69   14   65 1  
    70   14   66 1  
    71   15   67 1  
    72   16   68 1  
    73   38   69 1  
    74   38   70 1  
    75   39   71 1  
    76   41   72 1  
    77   42   73 1  
    78   43   74 1  
    79   44   75 1  
    80   45   76 1  
    81   49   77 1  
    82   52   78 1  
    83   52   79 1  
    84   55   80 1  
@<TRIPOS>SUBSTRUCTURE
     1 T5A         1

