4uxh_ligand
  -I-interpret- 

 85 89  0  0  0  0  0  0  0  0999 V2000
   13.6260  -24.7590    7.0960 N   0  0  0  0  0
   13.3550  -23.9490    8.1350 C   0  0  0  0  0
   13.0010  -26.0130    6.9600 C   0  0  0  0  0
   13.2800  -26.7450    5.9760 O   0  0  0  0  0
   12.1080  -26.3960    7.8860 N   0  0  0  0  0
   11.7770  -25.6100    8.9330 C   0  0  0  0  0
   10.9370  -25.9540    9.7720 O   0  0  0  0  0
   12.4340  -24.3150    9.0910 C   0  0  0  0  0
   12.1130  -23.4080   10.2550 C   0  0  0  0  0
   17.1260  -22.4030    7.2100 C   0  0  0  0  0
   16.6750  -23.3490    6.1250 C   0  0  0  0  0
   15.9540  -24.4700    6.6450 O   0  0  0  0  0
   14.6280  -24.3810    6.1020 C   0  0  0  0  0
   14.4160  -22.9660    5.5830 C   0  0  0  0  0
   15.8060  -22.6380    5.1130 C   0  0  0  0  0
   16.0380  -23.2180    3.8180 O   0  0  0  0  0
   19.1960  -22.0890    8.8110 P   0  0  0  0  0
   19.9060  -23.1510    9.5520 O   0  0  0  0  0
   18.3050  -21.1050    9.5600 O   0  0  0  0  0
   18.1850  -23.0270    7.9660 O   0  0  0  0  0
   19.9940  -21.4710    7.5950 O   0  0  0  0  0
   20.8530  -20.1540    7.4960 P   0  0  0  0  0
   20.5320  -19.2750    6.3400 O   0  0  0  0  0
   22.2300  -20.7410    7.5740 O   0  0  0  0  0
   20.6280  -19.3830    8.9030 O   0  0  0  0  0
   21.1420  -17.8950    9.2490 P   0  0  0  0  0
   20.7450  -17.7920   10.7060 O   0  0  0  0  0
   22.5900  -17.7700    8.8320 O   0  0  0  0  0
   20.1900  -17.0480    8.2920 O   0  0  0  0  0
   20.1360  -15.4850    8.0930 P   0  0  0  0  0
   20.1970  -14.7530    9.4220 O   0  0  0  0  0
   18.9320  -15.2280    7.3080 O   0  0  0  0  0
   21.4980  -15.2760    7.2940 O   0  0  0  0  0
   21.8110  -13.8680    6.5760 P   0  0  0  0  0
   23.1810  -13.4380    6.8950 O   0  0  0  0  0
   20.6540  -12.9900    6.9190 O   0  0  0  0  0
   21.5710  -14.2690    5.0180 O   0  0  0  0  0
   22.5030  -14.4260    3.9660 C   0  0  0  0  0
   22.6710  -15.8890    3.5530 C   0  0  0  0  0
   24.0310  -15.9760    3.1290 O   0  0  0  0  0
   24.8170  -16.8640    3.9090 C   0  0  0  0  0
   23.8880  -17.4540    4.9310 C   0  0  0  0  0
   23.9650  -18.8590    4.7590 O   0  0  0  0  0
   22.5010  -16.9330    4.6430 C   0  0  0  0  0
   21.6370  -17.9980    4.2420 O   0  0  0  0  0
   25.9540  -16.1580    4.5600 N   0  0  0  0  0
   27.2530  -16.4170    4.3560 C   0  0  0  0  0
   27.9520  -17.3000    3.5900 N   0  0  0  0  0
   29.3000  -17.3080    3.6070 C   0  0  0  0  0
   30.0240  -16.4540    4.3680 N   0  0  0  0  0
   29.4580  -15.5190    5.1860 C   0  0  0  0  0
   30.1880  -14.6640    5.9620 N   0  0  0  0  0
   27.9840  -15.4650    5.2140 C   0  0  0  0  0
   27.0710  -14.7200    5.8620 N   0  0  0  0  0
   25.8510  -15.1470    5.4540 C   0  0  0  0  0
   13.8701  -22.9923    8.2212 H   0  0  0  0  0
   11.6651  -27.3104    7.7959 H   0  0  0  0  0
   13.0189  -23.2270   10.8335 H   0  0  0  0  0
   11.7247  -22.4611    9.8798 H   0  0  0  0  0
   11.3645  -23.8835   10.8889 H   0  0  0  0  0
   16.2890  -22.1738    7.8695 H   0  0  0  0  0
   17.4890  -21.4773    6.7634 H   0  0  0  0  0
   17.5825  -23.7143    5.6442 H   0  0  0  0  0
   14.5144  -25.0825    5.2755 H   0  0  0  0  0
   14.0204  -22.2727    6.3252 H   0  0  0  0  0
   13.6521  -22.8837    4.8098 H   0  0  0  0  0
   15.9907  -21.5667    5.0331 H   0  0  0  0  0
   15.4905  -22.7734    3.1667 H   0  0  0  0  0
   17.9209  -20.4843    8.9365 H   0  0  0  0  0
   22.3012  -21.2833    8.3629 H   0  0  0  0  0
   19.7937  -17.8940   10.7853 H   0  0  0  0  0
   21.0153  -14.9761    9.8717 H   0  0  0  0  0
   19.8384  -13.4159    6.6453 H   0  0  0  0  0
   23.4692  -14.0593    4.3126 H   0  0  0  0  0
   22.1354  -13.8710    3.1029 H   0  0  0  0  0
   21.8951  -16.1100    2.8201 H   0  0  0  0  0
   25.2644  -17.6387    3.2863 H   0  0  0  0  0
   24.1426  -17.1921    5.9580 H   0  0  0  0  0
   23.3861  -19.2900    5.3921 H   0  0  0  0  0
   22.0356  -16.4927    5.5248 H   0  0  0  0  0
   21.5587  -18.6321    4.9585 H   0  0  0  0  0
   29.8274  -18.0302    2.9838 H   0  0  0  0  0
   31.2070  -14.7061    5.9475 H   0  0  0  0  0
   29.7140  -13.9835    6.5559 H   0  0  0  0  0
   24.9063  -14.7290    5.8019 H   0  0  0  0  0
  1  2  1  0  0  0
  1  3  1  0  0  0
 13  1  1  0  0  0
  2  8  2  0  0  0
  3  4  2  0  0  0
  3  5  1  0  0  0
  5  6  1  0  0  0
  6  7  2  0  0  0
  8  6  1  0  0  0
  8  9  1  0  0  0
 10 11  1  0  0  0
 20 10  1  0  0  0
 11 12  1  0  0  0
 11 15  1  0  0  0
 12 13  1  0  0  0
 14 13  1  0  0  0
 15 14  1  0  0  0
 15 16  1  0  0  0
 17 18  2  0  0  0
 17 19  1  0  0  0
 17 20  1  0  0  0
 17 21  1  0  0  0
 21 22  1  0  0  0
 22 23  2  0  0  0
 22 24  1  0  0  0
 22 25  1  0  0  0
 25 26  1  0  0  0
 26 27  1  0  0  0
 26 28  2  0  0  0
 26 29  1  0  0  0
 29 30  1  0  0  0
 30 31  1  0  0  0
 30 32  2  0  0  0
 30 33  1  0  0  0
 33 34  1  0  0  0
 34 35  2  0  0  0
 34 36  1  0  0  0
 34 37  1  0  0  0
 37 38  1  0  0  0
 38 39  1  0  0  0
 39 40  1  0  0  0
 39 44  1  0  0  0
 40 41  1  0  0  0
 41 42  1  0  0  0
 41 46  1  0  0  0
 42 43  1  0  0  0
 42 44  1  0  0  0
 44 45  1  0  0  0
 46 47  4  0  0  0
 46 55  4  0  0  0
 47 48  4  0  0  0
 47 53  4  0  0  0
 48 49  4  0  0  0
 49 50  4  0  0  0
 50 51  4  0  0  0
 51 52  1  0  0  0
 51 53  4  0  0  0
 53 54  4  0  0  0
 54 55  4  0  0  0
  2 56  1  0  0  0
  5 57  1  0  0  0
  9 58  1  0  0  0
  9 59  1  0  0  0
  9 60  1  0  0  0
 10 61  1  0  0  0
 10 62  1  0  0  0
 11 63  1  0  0  0
 13 64  1  0  0  0
 14 65  1  0  0  0
 14 66  1  0  0  0
 15 67  1  0  0  0
 16 68  1  0  0  0
 19 69  1  0  0  0
 24 70  1  0  0  0
 27 71  1  0  0  0
 31 72  1  0  0  0
 36 73  1  0  0  0
 38 74  1  0  0  0
 38 75  1  0  0  0
 39 76  1  0  0  0
 41 77  1  0  0  0
 42 78  1  0  0  0
 43 79  1  0  0  0
 44 80  1  0  0  0
 45 81  1  0  0  0
 49 82  1  0  0  0
 52 83  1  0  0  0
 52 84  1  0  0  0
 55 85  1  0  0  0
M  END
$$$$
