4j8b_ligand
  -I-interpret- 

119118  0  0  0  0  0  0  0  0999 V2000
  -37.7270  -23.5090    8.2270 N   0  3  0  0  0
  -37.3280  -24.0530    9.5270 C   0  0  0  0  0
  -35.9710  -23.6480   10.1530 C   0  0  0  0  0
  -35.9060  -23.5710   11.3160 O   0  0  0  0  0
  -37.4450  -25.5610    9.5850 C   0  0  0  0  0
  -36.6460  -26.1920   10.6790 C   0  0  0  0  0
  -37.4050  -27.1630   11.5700 C   0  0  0  0  0
  -35.3550  -26.7870   10.2100 C   0  0  0  0  0
  -34.9150  -23.4470    9.3920 N   0  0  0  0  0
  -33.7990  -22.6680    9.8570 C   0  0  0  0  0
  -33.7540  -21.3710    9.0830 C   0  0  0  0  0
  -34.2220  -21.2800    7.9890 O   0  0  0  0  0
  -32.4560  -23.3810    9.7090 C   0  0  0  0  0
  -32.0260  -24.0340   10.9860 C   0  0  0  0  0
  -30.6090  -24.4860   10.9470 C   0  0  0  0  0
  -29.6870  -23.4930   11.5520 C   0  0  0  0  0
  -30.0930  -23.0450   12.8670 N   0  3  0  0  0
  -33.1650  -20.3790    9.6730 N   0  0  0  0  0
  -32.9730  -19.1390    8.9920 C   0  0  0  0  0
  -31.5020  -18.7210    9.0530 C   0  0  0  0  0
  -30.7120  -19.3690    9.6620 O   0  0  0  0  0
  -33.9600  -18.0920    9.5330 C   0  0  0  0  0
  -33.9630  -16.9480    8.6920 O   0  0  0  0  0
  -33.6130  -17.7150   10.8710 C   0  0  0  0  0
  -31.1700  -17.6390    8.3780 N   0  0  0  0  0
  -29.8130  -17.1500    8.3100 C   0  0  0  0  0
  -28.8390  -18.2300    7.7950 C   0  0  0  0  0
  -27.8500  -18.5060    8.3980 O   0  0  0  0  0
  -29.3460  -16.6660    9.6550 C   0  0  0  0  0
  -30.0230  -15.4360   10.1820 C   0  0  0  0  0
  -29.8790  -14.2490    9.2560 C   0  0  0  0  0
  -30.5720  -13.0230    9.8270 C   0  0  0  0  0
  -30.1420  -11.7890    9.1560 N   0  3  0  0  0
  -29.1750  -18.8240    6.6780 N   0  0  0  0  0
  -28.3320  -19.8160    6.0950 C   0  0  0  0  0
  -27.3400  -19.2770    5.1160 C   0  0  0  0  0
  -26.4050  -19.9250    4.8290 O   0  0  0  0  0
  -29.1490  -20.8470    5.3810 C   0  0  0  0  0
  -30.2380  -21.4420    6.2010 C   0  0  0  0  0
  -31.1330  -22.1290    5.2270 C   0  0  0  0  0
  -29.7000  -22.3540    7.2400 C   0  0  0  0  0
  -27.5650  -18.1060    4.5710 N   0  0  0  0  0
  -26.5870  -17.5710    3.6670 C   0  0  0  0  0
  -25.2920  -17.1960    4.3860 C   0  0  0  0  0
  -24.2820  -17.2140    3.7470 O   0  0  0  0  0
  -27.1240  -16.3890    2.8430 C   0  0  0  0  0
  -28.2210  -16.6550    1.8470 C   0  0  0  0  0
  -28.7620  -15.3690    1.3100 C   0  0  0  0  0
  -27.7770  -17.5010    0.6880 C   0  0  0  0  0
  -25.3390  -16.9460    5.4880 O   0  0  0  0  0
  -37.6301  -22.4937    8.2404 H   0  0  0  0  0
  -37.1291  -23.8992    7.4985 H   0  0  0  0  0
  -38.6986  -23.7566    8.0399 H   0  0  0  0  0
  -38.0646  -23.5449   10.1493 H   0  0  0  0  0
  -37.0645  -25.9510    8.6410 H   0  0  0  0  0
  -38.4925  -25.7967    9.7729 H   0  0  0  0  0
  -36.4084  -25.3404   11.3165 H   0  0  0  0  0
  -37.6227  -28.0730   11.0108 H   0  0  0  0  0
  -36.7963  -27.4069   12.4407 H   0  0  0  0  0
  -38.3381  -26.7026   11.8948 H   0  0  0  0  0
  -34.7334  -27.0286   11.0721 H   0  0  0  0  0
  -35.5598  -27.6947    9.6423 H   0  0  0  0  0
  -34.8351  -26.0694    9.5752 H   0  0  0  0  0
  -34.8882  -23.8511    8.4559 H   0  0  0  0  0
  -33.9509  -22.4966   10.9227 H   0  0  0  0  0
  -31.7047  -22.6406    9.4342 H   0  0  0  0  0
  -32.5621  -24.1547    8.9486 H   0  0  0  0  0
  -32.6541  -24.9109   11.1430 H   0  0  0  0  0
  -32.1230  -23.3013   11.7872 H   0  0  0  0  0
  -30.3247  -24.6210    9.9034 H   0  0  0  0  0
  -30.5324  -25.4115   11.5176 H   0  0  0  0  0
  -29.6762  -22.6197   10.8999 H   0  0  0  0  0
  -28.7148  -23.9743   11.6582 H   0  0  0  0  0
  -29.4159  -22.3678   13.2183 H   0  0  0  0  0
  -31.0128  -22.6082   12.8071 H   0  0  0  0  0
  -30.1355  -23.8444   13.4991 H   0  0  0  0  0
  -32.8356  -20.4850   10.6325 H   0  0  0  0  0
  -33.1985  -19.2436    7.9307 H   0  0  0  0  0
  -34.9578  -18.5306    9.5447 H   0  0  0  0  0
  -34.5816  -16.3001    9.0372 H   0  0  0  0  0
  -33.6428  -18.5945   11.5142 H   0  0  0  0  0
  -32.6087  -17.2914   10.8789 H   0  0  0  0  0
  -34.3244  -16.9734   11.2342 H   0  0  0  0  0
  -31.9006  -17.1266    7.8839 H   0  0  0  0  0
  -29.8155  -16.3186    7.6051 H   0  0  0  0  0
  -28.2927  -16.4102    9.5396 H   0  0  0  0  0
  -29.5687  -17.4650   10.3622 H   0  0  0  0  0
  -29.5559  -15.1779   11.1324 H   0  0  0  0  0
  -31.0859  -15.6556   10.2820 H   0  0  0  0  0
  -30.3384  -14.4954    8.2988 H   0  0  0  0  0
  -28.8187  -14.0264    9.1363 H   0  0  0  0  0
  -30.3144  -12.9455   10.8833 H   0  0  0  0  0
  -31.6458  -13.1368    9.6782 H   0  0  0  0  0
  -30.6287  -10.9925    9.5672 H   0  0  0  0  0
  -29.1356  -11.6721    9.2742 H   0  0  0  0  0
  -30.3642  -11.8486    8.1623 H   0  0  0  0  0
  -30.0508  -18.5743    6.2186 H   0  0  0  0  0
  -27.7830  -20.2423    6.9346 H   0  0  0  0  0
  -28.4739  -21.6580    5.1080 H   0  0  0  0  0
  -29.6211  -20.3508    4.5331 H   0  0  0  0  0
  -30.7893  -20.6885    6.7635 H   0  0  0  0  0
  -31.5205  -21.4003    4.5150 H   0  0  0  0  0
  -30.5688  -22.8947    4.6945 H   0  0  0  0  0
  -31.9620  -22.5927    5.7617 H   0  0  0  0  0
  -29.1470  -23.1621    6.7612 H   0  0  0  0  0
  -29.0345  -21.7980    7.9004 H   0  0  0  0  0
  -30.5246  -22.7696    7.8191 H   0  0  0  0  0
  -28.4164  -17.5866    4.7848 H   0  0  0  0  0
  -26.3586  -18.3710    2.9628 H   0  0  0  0  0
  -24.4834  -17.4511    2.8388 H   0  0  0  0  0
  -26.2766  -16.0431    2.2512 H   0  0  0  0  0
  -27.5578  -15.7044    3.5719 H   0  0  0  0  0
  -28.9892  -17.2044    2.3912 H   0  0  0  0  0
  -29.1637  -14.7745    2.1305 H   0  0  0  0  0
  -27.9614  -14.8169    0.8176 H   0  0  0  0  0
  -29.5539  -15.5812    0.5917 H   0  0  0  0  0
  -26.9680  -16.9960    0.1601 H   0  0  0  0  0
  -27.4260  -18.4648    1.0568 H   0  0  0  0  0
  -28.6159  -17.6539    0.0090 H   0  0  0  0  0
  1  2  1  0  0  0
  2  3  1  0  0  0
  2  5  1  0  0  0
  3  4  2  0  0  0
  3  9  1  0  0  0
  5  6  1  0  0  0
  6  7  1  0  0  0
  6  8  1  0  0  0
  9 10  1  0  0  0
 10 11  1  0  0  0
 10 13  1  0  0  0
 11 12  2  0  0  0
 11 18  1  0  0  0
 13 14  1  0  0  0
 14 15  1  0  0  0
 15 16  1  0  0  0
 16 17  1  0  0  0
 18 19  1  0  0  0
 19 20  1  0  0  0
 19 22  1  0  0  0
 20 21  2  0  0  0
 20 25  1  0  0  0
 22 23  1  0  0  0
 22 24  1  0  0  0
 25 26  1  0  0  0
 26 27  1  0  0  0
 26 29  1  0  0  0
 27 28  2  0  0  0
 27 34  1  0  0  0
 29 30  1  0  0  0
 30 31  1  0  0  0
 31 32  1  0  0  0
 32 33  1  0  0  0
 34 35  1  0  0  0
 35 36  1  0  0  0
 35 38  1  0  0  0
 36 37  2  0  0  0
 36 42  1  0  0  0
 38 39  1  0  0  0
 39 40  1  0  0  0
 39 41  1  0  0  0
 42 43  1  0  0  0
 43 44  1  0  0  0
 43 46  1  0  0  0
 44 45  1  0  0  0
 44 50  2  0  0  0
 46 47  1  0  0  0
 47 48  1  0  0  0
 47 49  1  0  0  0
  1 51  1  0  0  0
  1 52  1  0  0  0
  1 53  1  0  0  0
  2 54  1  0  0  0
  5 55  1  0  0  0
  5 56  1  0  0  0
  6 57  1  0  0  0
  7 58  1  0  0  0
  7 59  1  0  0  0
  7 60  1  0  0  0
  8 61  1  0  0  0
  8 62  1  0  0  0
  8 63  1  0  0  0
  9 64  1  0  0  0
 10 65  1  0  0  0
 13 66  1  0  0  0
 13 67  1  0  0  0
 14 68  1  0  0  0
 14 69  1  0  0  0
 15 70  1  0  0  0
 15 71  1  0  0  0
 16 72  1  0  0  0
 16 73  1  0  0  0
 17 74  1  0  0  0
 17 75  1  0  0  0
 17 76  1  0  0  0
 18 77  1  0  0  0
 19 78  1  0  0  0
 22 79  1  0  0  0
 23 80  1  0  0  0
 24 81  1  0  0  0
 24 82  1  0  0  0
 24 83  1  0  0  0
 25 84  1  0  0  0
 26 85  1  0  0  0
 29 86  1  0  0  0
 29 87  1  0  0  0
 30 88  1  0  0  0
 30 89  1  0  0  0
 31 90  1  0  0  0
 31 91  1  0  0  0
 32 92  1  0  0  0
 32 93  1  0  0  0
 33 94  1  0  0  0
 33 95  1  0  0  0
 33 96  1  0  0  0
 34 97  1  0  0  0
 35 98  1  0  0  0
 38 99  1  0  0  0
 38100  1  0  0  0
 39101  1  0  0  0
 40102  1  0  0  0
 40103  1  0  0  0
 40104  1  0  0  0
 41105  1  0  0  0
 41106  1  0  0  0
 41107  1  0  0  0
 42108  1  0  0  0
 43109  1  0  0  0
 45110  1  0  0  0
 46111  1  0  0  0
 46112  1  0  0  0
 47113  1  0  0  0
 48114  1  0  0  0
 48115  1  0  0  0
 48116  1  0  0  0
 49117  1  0  0  0
 49118  1  0  0  0
 49119  1  0  0  0
M  END
$$$$
