### 
### Created by X-TOOL on Mon Sep 10 21:13:13 2018
### 

@<TRIPOS>MOLECULE
4j8b_ligand
  118   117     1     0     0
SMALL
GAST_HUCK


@<TRIPOS>ATOM
      1 N         -37.7270  -23.5090    8.2270 N.4       1 LEU         0.2379
      2 CA        -37.3280  -24.0530    9.5270 C.3       1 LEU         0.0652
      3 C         -35.9710  -23.6480   10.1530 C.2       1 LEU         0.2267
      4 O         -35.9060  -23.5710   11.3160 O.2       1 LEU        -0.3907
      5 CB        -37.4450  -25.5610    9.5850 C.3       1 LEU         0.0102
      6 CG        -36.6460  -26.1920   10.6790 C.3       1 LEU        -0.0394
      7 CD1       -37.4050  -27.1630   11.5700 C.3       1 LEU        -0.0623
      8 CD2       -35.3550  -26.7870   10.2100 C.3       1 LEU        -0.0623
      9 N         -34.9150  -23.4470    9.3920 N.am      1 LYS        -0.2610
     10 CA        -33.7990  -22.6680    9.8570 C.3       1 LYS         0.1311
     11 C         -33.7540  -21.3710    9.0830 C.2       1 LYS         0.2040
     12 O         -34.2220  -21.2800    7.9890 O.2       1 LYS        -0.3944
     13 CB        -32.4560  -23.3810    9.7090 C.3       1 LYS        -0.0122
     14 CG        -32.0260  -24.0340   10.9860 C.3       1 LYS        -0.0440
     15 CD        -30.6090  -24.4860   10.9470 C.3       1 LYS        -0.0124
     16 CE        -29.6870  -23.4930   11.5520 C.3       1 LYS        -0.0354
     17 NZ        -30.0930  -23.0450   12.8670 N.4       1 LYS         0.2185
     18 N         -33.1650  -20.3790    9.6730 N.am      1 THR        -0.2613
     19 CA        -32.9730  -19.1390    8.9920 C.3       1 THR         0.1565
     20 C         -31.5020  -18.7210    9.0530 C.2       1 THR         0.2065
     21 O         -30.7120  -19.3690    9.6620 O.2       1 THR        -0.3943
     22 CB        -33.9600  -18.0920    9.5330 C.3       1 THR         0.0924
     23 OG1       -33.9630  -16.9480    8.6920 O.3       1 THR        -0.3874
     24 CG2       -33.6130  -17.7150   10.8710 C.3       1 THR        -0.0346
     25 N         -31.1700  -17.6390    8.3780 N.am      1 LYS        -0.2637
     26 CA        -29.8130  -17.1500    8.3100 C.3       1 LYS         0.1310
     27 C         -28.8390  -18.2300    7.7950 C.2       1 LYS         0.2039
     28 O         -27.8500  -18.5060    8.3980 O.2       1 LYS        -0.3944
     29 CB        -29.3460  -16.6660    9.6550 C.3       1 LYS        -0.0122
     30 CG        -30.0230  -15.4360   10.1820 C.3       1 LYS        -0.0440
     31 CD        -29.8790  -14.2490    9.2560 C.3       1 LYS        -0.0124
     32 CE        -30.5720  -13.0230    9.8270 C.3       1 LYS        -0.0354
     33 NZ        -30.1420  -11.7890    9.1560 N.4       1 LYS         0.2185
     34 N         -29.1750  -18.8240    6.6780 N.am      1 LEU        -0.2637
     35 CA        -28.3320  -19.8160    6.0950 C.3       1 LEU         0.1312
     36 C         -27.3400  -19.2770    5.1160 C.2       1 LEU         0.2033
     37 O         -26.4050  -19.9250    4.8290 O.2       1 LEU        -0.3944
     38 CB        -29.1490  -20.8470    5.3810 C.3       1 LEU        -0.0101
     39 CG        -30.2380  -21.4420    6.2010 C.3       1 LEU        -0.0425
     40 CD1       -31.1330  -22.1290    5.2270 C.3       1 LEU        -0.0625
     41 CD2       -29.7000  -22.3540    7.2400 C.3       1 LEU        -0.0625
     42 N         -27.5650  -18.1060    4.5710 N.am      1 LEU        -0.2695
     43 CA        -26.5870  -17.5710    3.6670 C.3       1 LEU         0.0946
     44 C         -25.2920  -17.1960    4.3860 C.2       1 LEU         0.0601
     45 O         -24.2820  -17.2140    3.7470 O.co2     1 LEU        -0.5666
     46 CB        -27.1240  -16.3890    2.8430 C.3       1 LEU        -0.0156
     47 CG        -28.2210  -16.6550    1.8470 C.3       1 LEU        -0.0431
     48 CD1       -28.7620  -15.3690    1.3100 C.3       1 LEU        -0.0625
     49 CD2       -27.7770  -17.5010    0.6880 C.3       1 LEU        -0.0625
     50 OXT       -25.3390  -16.9460    5.4880 O.co2     1 LEU        -0.5666
     51 H1        -38.6309  -23.8754    7.9726 H         1 LEU         0.2015
     52 H2        -37.0489  -23.7734    7.5296 H         1 LEU         0.2015
     53 H3        -37.7759  -22.5038    8.2840 H         1 LEU         0.2015
     54 H4        -38.0845  -23.6593   10.2217 H         1 LEU         0.1098
     55 H5        -37.1006  -25.9717    8.6244 H         1 LEU         0.0348
     56 H6        -38.5033  -25.8201    9.7363 H         1 LEU         0.0348
     57 H7        -36.3646  -25.3567   11.3371 H         1 LEU         0.0299
     58 H8        -36.7256  -27.5657   12.3357 H         1 LEU         0.0232
     59 H9        -37.8001  -27.9885   10.9597 H         1 LEU         0.0232
     60 H10       -38.2382  -26.6372   12.0591 H         1 LEU         0.0232
     61 H11       -34.8293  -26.0637    9.5693 H         1 LEU         0.0232
     62 H12       -35.5603  -27.7031    9.6368 H         1 LEU         0.0232
     63 H13       -34.7266  -27.0313   11.0792 H         1 LEU         0.0232
     64 H14       -34.8887  -23.8432    8.4742 H         1 LYS         0.1884
     65 H15       -33.9545  -22.4464   10.9231 H         1 LYS         0.0800
     66 H16       -31.6939  -22.6456    9.4117 H         1 LYS         0.0312
     67 H17       -32.5465  -24.1512    8.9289 H         1 LYS         0.0312
     68 H18       -32.6695  -24.9070   11.1697 H         1 LYS         0.0269
     69 H19       -32.1434  -23.3124   11.8079 H         1 LYS         0.0269
     70 H20       -30.3174  -24.6474    9.8987 H         1 LYS         0.0317
     71 H21       -30.5236  -25.4323   11.5013 H         1 LYS         0.0317
     72 H22       -29.6356  -22.6176   10.8879 H         1 LYS         0.0813
     73 H23       -28.6899  -23.9502   11.6339 H         1 LYS         0.0813
     74 H24       -29.4245  -22.3757   13.2152 H         1 LYS         0.1994
     75 H25       -30.1353  -23.8342   13.4927 H         1 LYS         0.1994
     76 H26       -31.0019  -22.6130   12.8091 H         1 LYS         0.1994
     77 H27       -32.8421  -20.4829   10.6137 H         1 THR         0.1884
     78 H28       -33.2178  -19.2946    7.9309 H         1 THR         0.0826
     79 H29       -34.9692  -18.5296    9.5406 H         1 THR         0.0639
     80 H30       -34.5752  -16.3068    9.0336 H         1 THR         0.2101
     81 H31       -34.3303  -16.9665   11.2387 H         1 THR         0.0257
     82 H32       -32.5996  -17.2872   10.8803 H         1 THR         0.0257
     83 H33       -33.6427  -18.6017   11.5212 H         1 THR         0.0257
     84 H34       -31.8862  -17.1366    7.8936 H         1 LYS         0.1883
     85 H35       -29.7926  -16.3031    7.6083 H         1 LYS         0.0800
     86 H36       -28.2696  -16.4520    9.5807 H         1 LYS         0.0312
     87 H37       -29.5095  -17.4770   10.3800 H         1 LYS         0.0312
     88 H38       -29.5788  -15.1792   11.1550 H         1 LYS         0.0269
     89 H39       -31.0935  -15.6522   10.3132 H         1 LYS         0.0269
     90 H40       -30.3290  -14.4956    8.2830 H         1 LYS         0.0317
     91 H41       -28.8103  -14.0269    9.1200 H         1 LYS         0.0317
     92 H42       -30.3343  -12.9467   10.8983 H         1 LYS         0.0813
     93 H43       -31.6586  -13.1370    9.6997 H         1 LYS         0.0813
     94 H44       -30.6224  -11.0011    9.5616 H         1 LYS         0.1994
     95 H45       -30.3611  -11.8467    8.1738 H         1 LYS         0.1994
     96 H46       -29.1475  -11.6723    9.2722 H         1 LYS         0.1994
     97 H47       -30.0336  -18.5792    6.2276 H         1 LEU         0.1883
     98 H48       -27.7786  -20.3027    6.9116 H         1 LEU         0.0800
     99 H49       -28.4774  -21.6571    5.0606 H         1 LEU         0.0315
    100 H50       -29.6024  -20.3752    4.4968 H         1 LEU         0.0315
    101 H51       -30.7982  -20.6418    6.7068 H         1 LEU         0.0298
    102 H52       -31.9701  -22.5974    5.7655 H         1 LEU         0.0232
    103 H53       -30.5648  -22.9020    4.6890 H         1 LEU         0.0232
    104 H54       -31.5248  -21.3946    4.5078 H         1 LEU         0.0232
    105 H55       -29.0504  -21.7880    7.9239 H         1 LEU         0.0232
    106 H56       -29.1179  -23.1543    6.7597 H         1 LEU         0.0232
    107 H57       -30.5327  -22.7958    7.8069 H         1 LEU         0.0232
    108 H58       -28.3997  -17.5968    4.7806 H         1 LEU         0.1875
    109 H59       -26.3410  -18.3724    2.9548 H         1 LEU         0.0726
    110 H60       -26.2742  -15.9666    2.2868 H         1 LEU         0.0308
    111 H61       -27.5043  -15.6415    3.5548 H         1 LEU         0.0308
    112 H62       -29.0286  -17.1871    2.3710 H         1 LEU         0.0297
    113 H63       -29.5613  -15.5818    0.5849 H         1 LEU         0.0232
    114 H64       -27.9550  -14.8109    0.8128 H         1 LEU         0.0232
    115 H65       -29.1678  -14.7681    2.1371 H         1 LEU         0.0232
    116 H66       -27.3748  -18.4539    1.0625 H         1 LEU         0.0232
    117 H67       -26.9961  -16.9697    0.1241 H         1 LEU         0.0232
    118 H68       -28.6349  -17.6990    0.0287 H         1 LEU         0.0232
@<TRIPOS>BOND
     1    1    2 1  
     2    2    3 1  
     3    2    5 1  
     4    3    4 2  
     5    3    9 am 
     6    5    6 1  
     7    6    7 1  
     8    6    8 1  
     9    9   10 1  
    10   10   11 1  
    11   10   13 1  
    12   11   12 2  
    13   11   18 am 
    14   13   14 1  
    15   14   15 1  
    16   15   16 1  
    17   16   17 1  
    18   18   19 1  
    19   19   20 1  
    20   19   22 1  
    21   20   21 2  
    22   20   25 am 
    23   22   23 1  
    24   22   24 1  
    25   25   26 1  
    26   26   27 1  
    27   26   29 1  
    28   27   28 2  
    29   27   34 am 
    30   29   30 1  
    31   30   31 1  
    32   31   32 1  
    33   32   33 1  
    34   34   35 1  
    35   35   36 1  
    36   35   38 1  
    37   36   37 2  
    38   36   42 am 
    39   38   39 1  
    40   39   40 1  
    41   39   41 1  
    42   42   43 1  
    43   43   44 1  
    44   43   46 1  
    45   44   45 ar 
    46   44   50 ar 
    47   46   47 1  
    48   47   48 1  
    49   47   49 1  
    50    1   51 1  
    51    1   52 1  
    52    1   53 1  
    53    2   54 1  
    54    5   55 1  
    55    5   56 1  
    56    6   57 1  
    57    7   58 1  
    58    7   59 1  
    59    7   60 1  
    60    8   61 1  
    61    8   62 1  
    62    8   63 1  
    63    9   64 1  
    64   10   65 1  
    65   13   66 1  
    66   13   67 1  
    67   14   68 1  
    68   14   69 1  
    69   15   70 1  
    70   15   71 1  
    71   16   72 1  
    72   16   73 1  
    73   17   74 1  
    74   17   75 1  
    75   17   76 1  
    76   18   77 1  
    77   19   78 1  
    78   22   79 1  
    79   23   80 1  
    80   24   81 1  
    81   24   82 1  
    82   24   83 1  
    83   25   84 1  
    84   26   85 1  
    85   29   86 1  
    86   29   87 1  
    87   30   88 1  
    88   30   89 1  
    89   31   90 1  
    90   31   91 1  
    91   32   92 1  
    92   32   93 1  
    93   33   94 1  
    94   33   95 1  
    95   33   96 1  
    96   34   97 1  
    97   35   98 1  
    98   38   99 1  
    99   38  100 1  
   100   39  101 1  
   101   40  102 1  
   102   40  103 1  
   103   40  104 1  
   104   41  105 1  
   105   41  106 1  
   106   41  107 1  
   107   42  108 1  
   108   43  109 1  
   109   46  110 1  
   110   46  111 1  
   111   47  112 1  
   112   48  113 1  
   113   48  114 1  
   114   48  115 1  
   115   49  116 1  
   116   49  117 1  
   117   49  118 1  
@<TRIPOS>SUBSTRUCTURE
     1 LEU         1

