3ia6_ligand
  -I-interpret- 

 55 58  0  0  0  0  0  0  0  0999 V2000
   20.1120   63.1870   20.2090 O   0  0  0  0  0
   18.9330   63.4150   19.8110 C   0  0  0  0  0
   17.8920   63.5780   20.5050 O   0  0  0  0  0
   18.7030   63.5170   18.3010 C   0  0  0  0  0
   19.8650   64.1860   17.7290 N   0  0  0  0  0
   19.8420   65.5210   17.5970 N   0  0  0  0  0
   21.0370   65.7440   17.0510 C   0  0  0  0  0
   21.7190   64.5160   16.8840 C   0  0  0  0  0
   20.9550   63.5160   17.3230 N   0  0  0  0  0
   18.6030   62.0530   17.8940 C   0  0  0  0  0
   18.2670   61.9260   16.4370 C   0  0  0  0  0
   16.9700   62.0320   15.9730 C   0  0  0  0  0
   16.6920   61.9110   14.6290 C   0  0  0  0  0
   17.7190   61.6840   13.7330 C   0  0  0  0  0
   19.0100   61.5750   14.1940 C   0  0  0  0  0
   19.2810   61.6940   15.5330 C   0  0  0  0  0
   17.5050   61.5320   12.2670 C   0  0  0  0  0
   16.5400   62.5180   11.6710 C   0  0  0  0  0
   16.7020   62.4240   10.1710 C   0  0  0  0  0
   17.2150   63.6770    9.6000 C   0  0  0  0  0
   16.4230   64.7950    9.5350 N   0  0  0  0  0
   17.2020   65.6960    8.9790 C   0  0  0  0  0
   18.4500   65.2560    8.6670 O   0  0  0  0  0
   18.4520   63.9600    9.0690 C   0  0  0  0  0
   19.6910   63.1950    8.8590 C   0  0  0  0  0
   16.9140   67.0690    8.6560 C   0  0  0  0  0
   17.8920   67.8860    8.1270 C   0  0  0  0  0
   17.6060   69.1990    7.8220 C   0  0  0  0  0
   16.3430   69.7010    8.0460 C   0  0  0  0  0
   15.3640   68.8890    8.5740 C   0  0  0  0  0
   15.6520   67.5770    8.8790 C   0  0  0  0  0
   20.6952   63.1092   19.4504 H   0  0  0  0  0
   17.8286   64.0814   17.9770 H   0  0  0  0  0
   21.4290   66.7230   16.7752 H   0  0  0  0  0
   22.7173   64.4045   16.4608 H   0  0  0  0  0
   17.8148   61.5789   18.4788 H   0  0  0  0  0
   19.5637   61.5714   18.0762 H   0  0  0  0  0
   16.1583   62.2132   16.6775 H   0  0  0  0  0
   15.6649   61.9941   14.2736 H   0  0  0  0  0
   19.8228   61.3929   13.4909 H   0  0  0  0  0
   20.3084   61.6042   15.8858 H   0  0  0  0  0
   17.0847   60.5390   12.1078 H   0  0  0  0  0
   18.4686   61.6986   11.7855 H   0  0  0  0  0
   16.7471   63.5285   12.0233 H   0  0  0  0  0
   15.5162   62.2904   11.9680 H   0  0  0  0  0
   15.7250   62.2213    9.7322 H   0  0  0  0  0
   17.4152   61.6294    9.9518 H   0  0  0  0  0
   20.0636   62.8386    9.8193 H   0  0  0  0  0
   19.4855   62.3443    8.2092 H   0  0  0  0  0
   20.4386   63.8373    8.3934 H   0  0  0  0  0
   18.8928   67.4920    7.9500 H   0  0  0  0  0
   18.3804   69.8414    7.4028 H   0  0  0  0  0
   16.1186   70.7402    7.8055 H   0  0  0  0  0
   14.3634   69.2837    8.7502 H   0  0  0  0  0
   14.8769   66.9362    9.2995 H   0  0  0  0  0
  1  2  1  0  0  0
  2  3  2  0  0  0
  2  4  1  0  0  0
  4  5  1  0  0  0
  4 10  1  0  0  0
  5  6  4  0  0  0
  5  9  4  0  0  0
  6  7  4  0  0  0
  7  8  4  0  0  0
  8  9  4  0  0  0
 10 11  1  0  0  0
 11 12  4  0  0  0
 11 16  4  0  0  0
 12 13  4  0  0  0
 13 14  4  0  0  0
 14 15  4  0  0  0
 14 17  1  0  0  0
 15 16  4  0  0  0
 17 18  1  0  0  0
 18 19  1  0  0  0
 19 20  1  0  0  0
 20 21  4  0  0  0
 20 24  4  0  0  0
 21 22  4  0  0  0
 22 23  4  0  0  0
 22 26  1  0  0  0
 23 24  4  0  0  0
 24 25  1  0  0  0
 26 27  4  0  0  0
 26 31  4  0  0  0
 27 28  4  0  0  0
 28 29  4  0  0  0
 29 30  4  0  0  0
 30 31  4  0  0  0
  1 32  1  0  0  0
  4 33  1  0  0  0
  7 34  1  0  0  0
  8 35  1  0  0  0
 10 36  1  0  0  0
 10 37  1  0  0  0
 12 38  1  0  0  0
 13 39  1  0  0  0
 15 40  1  0  0  0
 16 41  1  0  0  0
 17 42  1  0  0  0
 17 43  1  0  0  0
 18 44  1  0  0  0
 18 45  1  0  0  0
 19 46  1  0  0  0
 19 47  1  0  0  0
 25 48  1  0  0  0
 25 49  1  0  0  0
 25 50  1  0  0  0
 27 51  1  0  0  0
 28 52  1  0  0  0
 29 53  1  0  0  0
 30 54  1  0  0  0
 31 55  1  0  0  0
M  END
$$$$
