1y91_ligand
  -I-interpret- 

 67 70  0  0  0  0  0  0  0  0999 V2000
   -2.6880   61.9650   14.0510 N   0  3  0  0  0
    5.7680   58.0480    5.9130 C   0  0  0  0  0
    7.0200   60.2790    6.6190 S   0  0  0  0  0
    6.2790   58.8860    7.0020 N   0  0  0  0  0
    6.1040   58.4520    8.3930 C   0  0  0  0  0
    7.6140   60.0770    5.2870 O   0  0  0  0  0
   -2.4050   62.2520   12.6290 C   0  0  0  0  0
   -1.1140   63.0730   12.5240 C   0  0  0  0  0
   -0.7830   63.3330   11.0650 C   0  0  0  0  0
   -2.2510   60.9320   11.8630 C   0  0  0  0  0
   -1.8910   61.2200   10.4060 C   0  0  0  0  0
   -0.5900   62.0090   10.3560 C   0  0  0  0  0
   -0.4040   62.3440    8.9680 N   0  0  0  0  0
    0.1690   63.4270    8.4180 C   0  0  0  0  0
    1.3490   63.3660    7.6900 C   0  0  0  0  0
   -0.4940   64.5770    8.5140 N   0  0  0  0  0
    0.0090   65.6570    7.9420 C   0  0  0  0  0
   -0.5190   66.9200    7.9650 C   0  0  0  0  0
   -1.7870   67.3040    8.6150 C   0  0  0  0  0
   -1.7940   67.6710   10.0740 C   0  0  0  0  0
   -2.9750   66.4940    8.2400 C   0  0  0  0  0
    0.3630   67.6870    7.2210 C   0  0  0  0  0
    1.1210   65.6480    7.2390 N   0  0  0  0  0
    1.3610   66.8780    6.7890 N   0  0  0  0  0
    1.8390   64.5330    7.0950 C   0  0  0  0  0
    2.9990   64.5790    6.3820 N   0  0  0  0  0
    3.9160   63.5980    6.4150 C   0  0  0  0  0
    4.2020   62.9750    7.6430 C   0  0  0  0  0
    5.1560   61.9770    7.6720 C   0  0  0  0  0
    4.5830   63.2140    5.2330 C   0  0  0  0  0
    5.5370   62.2000    5.2910 C   0  0  0  0  0
    5.8180   61.5930    6.5010 C   0  0  0  0  0
    7.9370   60.7000    7.6690 O   0  0  0  0  0
   -3.5466   61.4189   14.1221 H   0  0  0  0  0
   -1.9130   61.4358   14.4506 H   0  0  0  0  0
   -2.7991   62.8429   14.5582 H   0  0  0  0  0
    6.2491   57.0707    5.9519 H   0  0  0  0  0
    4.6902   57.9284    6.0233 H   0  0  0  0  0
    5.9861   58.5240    4.9570 H   0  0  0  0  0
    7.0809   58.3451    8.8645 H   0  0  0  0  0
    5.5178   59.1954    8.9332 H   0  0  0  0  0
    5.5838   57.4943    8.4107 H   0  0  0  0  0
   -3.2279   62.8213   12.1968 H   0  0  0  0  0
   -0.2968   62.5177   12.9843 H   0  0  0  0  0
   -1.2512   64.0252   13.0364 H   0  0  0  0  0
    0.1316   63.9220   10.9962 H   0  0  0  0  0
   -1.5989   63.8837   10.5968 H   0  0  0  0  0
   -3.1908   60.3811   11.9006 H   0  0  0  0  0
   -1.4586   60.3395   12.3203 H   0  0  0  0  0
   -2.6879   61.8003    9.9410 H   0  0  0  0  0
   -1.7688   60.2802    9.8676 H   0  0  0  0  0
    0.2290   61.4436   10.8005 H   0  0  0  0  0
   -0.7603   61.6567    8.3039 H   0  0  0  0  0
    1.8856   62.4232    7.5836 H   0  0  0  0  0
   -1.8826   68.2777    8.1346 H   0  0  0  0  0
   -1.4373   66.8252   10.6618 H   0  0  0  0  0
   -1.1404   68.5283   10.2348 H   0  0  0  0  0
   -2.8094   67.9244   10.3787 H   0  0  0  0  0
   -3.1445   66.5755    7.1664 H   0  0  0  0  0
   -2.7998   65.4509    8.5033 H   0  0  0  0  0
   -3.8491   66.8635    8.7762 H   0  0  0  0  0
    0.2705   68.7540    7.0186 H   0  0  0  0  0
    3.1792   65.3949    5.7969 H   0  0  0  0  0
    3.6815   63.2737    8.5529 H   0  0  0  0  0
    5.3951   61.4846    8.6146 H   0  0  0  0  0
    4.3551   63.7041    4.2864 H   0  0  0  0  0
    6.0591   61.8869    4.3869 H   0  0  0  0  0
  7  1  1  0  0  0
  4  2  1  0  0  0
  3  4  1  0  0  0
  3  6  2  0  0  0
 32  3  1  0  0  0
  3 33  2  0  0  0
  4  5  1  0  0  0
  8  7  1  0  0  0
 10  7  1  0  0  0
  9  8  1  0  0  0
 12  9  1  0  0  0
 11 10  1  0  0  0
 12 11  1  0  0  0
 13 12  1  0  0  0
 14 13  1  0  0  0
 15 14  4  0  0  0
 14 16  4  0  0  0
 25 15  4  0  0  0
 17 16  4  0  0  0
 17 18  4  0  0  0
 23 17  4  0  0  0
 18 19  1  0  0  0
 22 18  4  0  0  0
 19 20  1  0  0  0
 19 21  1  0  0  0
 24 22  4  0  0  0
 23 24  4  0  0  0
 25 23  4  0  0  0
 26 25  1  0  0  0
 27 26  1  0  0  0
 28 27  4  0  0  0
 27 30  4  0  0  0
 29 28  4  0  0  0
 29 32  4  0  0  0
 30 31  4  0  0  0
 31 32  4  0  0  0
  1 34  1  0  0  0
  1 35  1  0  0  0
  1 36  1  0  0  0
  2 37  1  0  0  0
  2 38  1  0  0  0
  2 39  1  0  0  0
  5 40  1  0  0  0
  5 41  1  0  0  0
  5 42  1  0  0  0
  7 43  1  0  0  0
  8 44  1  0  0  0
  8 45  1  0  0  0
  9 46  1  0  0  0
  9 47  1  0  0  0
 10 48  1  0  0  0
 10 49  1  0  0  0
 11 50  1  0  0  0
 11 51  1  0  0  0
 12 52  1  0  0  0
 13 53  1  0  0  0
 15 54  1  0  0  0
 19 55  1  0  0  0
 20 56  1  0  0  0
 20 57  1  0  0  0
 20 58  1  0  0  0
 21 59  1  0  0  0
 21 60  1  0  0  0
 21 61  1  0  0  0
 22 62  1  0  0  0
 26 63  1  0  0  0
 28 64  1  0  0  0
 29 65  1  0  0  0
 30 66  1  0  0  0
 31 67  1  0  0  0
M  END
$$$$
