6e1a_ligand
  -I-interpret- 

 96102  0  0  0  0  0  0  0  0999 V2000
  -22.1940   12.5450  -20.5310 O   0  0  0  0  0
  -18.3810   10.3020  -23.0480 C   0  0  0  0  0
  -13.8090   11.0580  -25.5240 N   0  0  0  0  0
  -19.1370    9.2920  -22.1940 C   0  0  0  0  0
  -19.0670    9.7010  -20.7180 C   0  0  0  0  0
  -22.0790   11.9310  -21.5740 C   0  0  0  0  0
  -21.7150   11.6200  -23.9590 C   0  0  0  0  0
  -22.3840    7.6820  -19.4290 C   0  0  0  0  0
  -23.7650    7.7880  -20.0200 C   0  0  0  0  0
  -23.8590    9.1460  -20.7080 C   0  0  0  0  0
  -16.9640   10.3590  -22.6700 N   0  3  0  0  0
  -21.8450   12.4470  -22.7720 N   0  0  0  0  0
  -22.5110    9.8180  -20.4850 C   0  0  0  0  0
  -21.5420    8.6500  -20.2730 C   0  0  0  0  0
  -20.0460    8.9130  -19.7300 C   0  0  0  0  0
   -8.7450    9.3920  -31.0840 C   0  0  0  0  0
   -7.5070    8.3270  -29.4820 C   0  0  0  0  0
  -19.4760    7.4090  -19.6230 C   0  0  0  0  0
  -19.2300    7.5040  -17.2360 C   0  0  0  0  0
   -8.0870    8.2940  -30.6890 N   0  0  0  0  0
  -16.3170   11.3850  -23.4950 C   0  0  0  0  0
   -8.5010   11.8930  -27.9780 S   0  0  0  0  0
  -14.9940   11.9050  -25.6130 C   0  0  0  0  0
  -15.7460   10.8320  -24.7700 C   0  0  0  0  0
  -12.5810   11.1980  -26.1250 C   0  0  0  0  0
  -12.4620   11.8470  -27.3550 C   0  0  0  0  0
   -8.8680   10.5370  -30.3160 C   0  0  0  0  0
   -8.2650   10.5280  -29.0660 C   0  0  0  0  0
   -8.5730   13.0920  -28.7700 O   0  0  0  0  0
  -10.0860   11.6110  -27.2680 C   0  0  0  0  0
  -11.2210   12.0540  -27.9260 C   0  0  0  0  0
   -7.5190   11.8090  -26.9280 O   0  0  0  0  0
   -7.5550    9.4170  -28.6300 C   0  0  0  0  0
  -10.1830   10.9460  -26.0560 C   0  0  0  0  0
  -11.4270   10.7400  -25.4910 C   0  0  0  0  0
  -14.3950   10.0800  -24.5970 C   0  0  0  0  0
  -16.8480   10.7850  -21.2640 C   0  0  0  0  0
  -17.5920    9.8410  -20.3200 C   0  0  0  0  0
  -18.5580    7.2510  -18.5100 N   0  3  0  0  0
  -17.9480    5.9300  -18.5240 C   0  0  0  0  0
  -20.0710    9.6420  -18.3350 C   0  0  0  0  0
  -20.4600   10.9770  -18.2300 C   0  0  0  0  0
  -20.5280   11.6020  -16.9960 C   0  0  0  0  0
  -20.1980   10.9090  -15.8520 C   0  0  0  0  0
  -19.7890    9.5880  -15.9380 C   0  0  0  0  0
  -19.7140    8.9400  -17.1710 C   0  0  0  0  0
  -22.1660   10.5790  -21.6820 O   0  0  0  0  0
  -18.8223   11.2869  -22.8955 H   0  0  0  0  0
  -18.4512    9.9973  -24.0922 H   0  0  0  0  0
  -18.6849    8.3078  -22.3163 H   0  0  0  0  0
  -20.1798    9.2629  -22.5100 H   0  0  0  0  0
  -19.5145   10.6869  -20.5923 H   0  0  0  0  0
  -20.8845   10.9263  -23.8278 H   0  0  0  0  0
  -22.6373   11.0597  -24.1127 H   0  0  0  0  0
  -21.5260   12.2555  -24.8241 H   0  0  0  0  0
  -21.9982    6.6631  -19.4618 H   0  0  0  0  0
  -22.3679    7.9371  -18.3694 H   0  0  0  0  0
  -24.5231    7.6990  -19.2419 H   0  0  0  0  0
  -23.9394    6.9833  -20.7342 H   0  0  0  0  0
  -24.6728    9.7434  -20.2969 H   0  0  0  0  0
  -24.0774    9.0380  -21.7704 H   0  0  0  0  0
  -16.5341    9.4431  -22.7994 H   0  0  0  0  0
  -21.7531   13.4587  -22.8636 H   0  0  0  0  0
  -22.4941   10.5110  -19.6438 H   0  0  0  0  0
  -21.2145    8.2686  -21.2402 H   0  0  0  0  0
   -9.2114    9.3832  -32.0691 H   0  0  0  0  0
   -6.9642    7.4418  -29.1505 H   0  0  0  0  0
  -18.9368    7.1835  -20.5431 H   0  0  0  0  0
  -20.3192    6.7362  -19.4664 H   0  0  0  0  0
  -18.5265    7.3288  -16.4221 H   0  0  0  0  0
  -20.0866    6.8358  -17.1471 H   0  0  0  0  0
  -15.4954   11.8087  -22.9174 H   0  0  0  0  0
  -17.0721   12.1249  -23.7606 H   0  0  0  0  0
  -15.3790   12.2425  -26.5753 H   0  0  0  0  0
  -14.9680   12.9508  -25.3070 H   0  0  0  0  0
  -16.6259   10.3124  -25.1494 H   0  0  0  0  0
  -13.3575   12.1941  -27.8705 H   0  0  0  0  0
   -9.4148   11.4080  -30.6773 H   0  0  0  0  0
  -11.1361   12.5619  -28.8867 H   0  0  0  0  0
   -7.0577    9.4038  -27.6602 H   0  0  0  0  0
   -9.2850   10.5883  -25.5524 H   0  0  0  0  0
  -11.5069   10.2139  -24.5397 H   0  0  0  0  0
  -13.9650    9.9002  -23.6117 H   0  0  0  0  0
  -14.3132    9.0075  -24.7735 H   0  0  0  0  0
  -17.2868   11.7783  -21.1703 H   0  0  0  0  0
  -15.7927   10.7800  -20.9911 H   0  0  0  0  0
  -17.1240    8.8580  -20.3730 H   0  0  0  0  0
  -17.5427   10.2502  -19.3109 H   0  0  0  0  0
  -17.8152    7.9421  -18.6145 H   0  0  0  0  0
  -18.7265    5.1709  -18.4476 H   0  0  0  0  0
  -17.3975    5.7953  -19.4551 H   0  0  0  0  0
  -17.2647    5.8378  -17.6798 H   0  0  0  0  0
  -20.7138   11.5358  -19.1308 H   0  0  0  0  0
  -20.8430   12.6434  -16.9299 H   0  0  0  0  0
  -20.2586   11.3993  -14.8804 H   0  0  0  0  0
  -19.5222    9.0477  -15.0297 H   0  0  0  0  0
  6  1  2  0  0  0
  2  4  1  0  0  0
 11  2  1  0  0  0
  3 23  1  0  0  0
 25  3  1  0  0  0
  3 36  1  0  0  0
  4  5  1  0  0  0
  5 15  1  0  0  0
  5 38  1  0  0  0
  6 12  1  0  0  0
 47  6  1  0  0  0
 12  7  1  0  0  0
  8  9  1  0  0  0
 14  8  1  0  0  0
 10  9  1  0  0  0
 13 10  1  0  0  0
 21 11  1  0  0  0
 11 37  1  0  0  0
 14 13  1  0  0  0
 13 47  1  0  0  0
 15 14  1  0  0  0
 15 18  1  0  0  0
 15 41  1  0  0  0
 16 20  4  0  0  0
 27 16  4  0  0  0
 17 20  4  0  0  0
 33 17  4  0  0  0
 18 39  1  0  0  0
 39 19  1  0  0  0
 19 46  1  0  0  0
 24 21  1  0  0  0
 22 28  1  0  0  0
 22 29  2  0  0  0
 30 22  1  0  0  0
 22 32  2  0  0  0
 23 24  1  0  0  0
 36 24  1  0  0  0
 26 25  4  0  0  0
 25 35  4  0  0  0
 31 26  4  0  0  0
 28 27  4  0  0  0
 28 33  4  0  0  0
 30 31  4  0  0  0
 30 34  4  0  0  0
 34 35  4  0  0  0
 37 38  1  0  0  0
 39 40  1  0  0  0
 41 42  4  0  0  0
 41 46  4  0  0  0
 42 43  4  0  0  0
 43 44  4  0  0  0
 44 45  4  0  0  0
 45 46  4  0  0  0
  2 48  1  0  0  0
  2 49  1  0  0  0
  4 50  1  0  0  0
  4 51  1  0  0  0
  5 52  1  0  0  0
  7 53  1  0  0  0
  7 54  1  0  0  0
  7 55  1  0  0  0
  8 56  1  0  0  0
  8 57  1  0  0  0
  9 58  1  0  0  0
  9 59  1  0  0  0
 10 60  1  0  0  0
 10 61  1  0  0  0
 11 62  1  0  0  0
 12 63  1  0  0  0
 13 64  1  0  0  0
 14 65  1  0  0  0
 16 66  1  0  0  0
 17 67  1  0  0  0
 18 68  1  0  0  0
 18 69  1  0  0  0
 19 70  1  0  0  0
 19 71  1  0  0  0
 21 72  1  0  0  0
 21 73  1  0  0  0
 23 74  1  0  0  0
 23 75  1  0  0  0
 24 76  1  0  0  0
 26 77  1  0  0  0
 27 78  1  0  0  0
 31 79  1  0  0  0
 33 80  1  0  0  0
 34 81  1  0  0  0
 35 82  1  0  0  0
 36 83  1  0  0  0
 36 84  1  0  0  0
 37 85  1  0  0  0
 37 86  1  0  0  0
 38 87  1  0  0  0
 38 88  1  0  0  0
 39 89  1  0  0  0
 40 90  1  0  0  0
 40 91  1  0  0  0
 40 92  1  0  0  0
 42 93  1  0  0  0
 43 94  1  0  0  0
 44 95  1  0  0  0
 45 96  1  0  0  0
M  END
$$$$
