1zfq_ligand
  -I-interpret- 

 20 21  0  0  0  0  0  0  0  0999 V2000
   18.0710    8.7120   12.7370 O   0  0  0  0  0
   17.9010    7.5460   13.4830 C   0  0  0  0  0
   16.6030    7.1130   13.7980 C   0  0  0  0  0
   16.5510    5.9300   14.5420 C   0  0  0  0  0
   15.0360    5.2040   15.0220 S   0  0  0  0  0
   16.0860    3.9480   15.8060 C   0  0  0  0  0
   15.2540    2.6620   16.6940 S   0  0  0  0  0
   15.7100    1.3510   16.1280 N   0  0  0  0  0
   13.8400    2.8810   16.4290 O   0  0  0  0  0
   15.7060    2.8040   18.0740 O   0  0  0  0  0
   17.3380    4.1070   15.6660 N   0  0  0  0  0
   17.6650    5.2240   14.9590 C   0  0  0  0  0
   18.9500    5.6580   14.6570 C   0  0  0  0  0
   19.0230    6.8330   13.9070 C   0  0  0  0  0
   19.0083    8.8729   12.6060 H   0  0  0  0  0
   15.7092    7.6545   13.4881 H   0  0  0  0  0
   15.0489    0.7507   15.6351 H   0  0  0  0  0
   16.6814    1.0592   16.2358 H   0  0  0  0  0
   19.8392    5.1184   14.9831 H   0  0  0  0  0
   20.0084    7.2136   13.6384 H   0  0  0  0  0
  1  2  1  0  0  0
  2  3  4  0  0  0
  2 14  4  0  0  0
  3  4  4  0  0  0
  4  5  4  0  0  0
  4 12  4  0  0  0
  5  6  4  0  0  0
  6  7  1  0  0  0
  6 11  4  0  0  0
  7  8  1  0  0  0
  7  9  2  0  0  0
  7 10  2  0  0  0
 11 12  4  0  0  0
 12 13  4  0  0  0
 13 14  4  0  0  0
  1 15  1  0  0  0
  3 16  1  0  0  0
  8 17  1  0  0  0
  8 18  1  0  0  0
 13 19  1  0  0  0
 14 20  1  0  0  0
M  END
$$$$
