2c90_ligand
  -I-interpret- 

 17 18  0  0  0  0  0  0  0  0999 V2000
    9.9760   25.5610   46.4750 Cl  0  0  0  0  0
    9.9650   24.1570   47.5110 C   0  0  0  0  0
   10.8720   23.1340   47.2980 C   0  0  0  0  0
   10.8860   22.0180   48.1340 C   0  0  0  0  0
    9.9980   21.9220   49.2030 C   0  0  0  0  0
    9.0890   22.9600   49.4100 C   0  0  0  0  0
    9.0740   24.0610   48.5720 C   0  0  0  0  0
    9.9980   20.7760   50.0470 N   0  0  0  0  0
    9.5390   19.5300   49.7640 C   0  0  0  0  0
    9.7150   18.7740   50.8170 N   0  0  0  0  0
   10.2770   19.4440   51.7450 N   0  0  0  0  0
   10.4720   20.6610   51.3670 N   0  0  0  0  0
   11.5798   23.2009   46.4718 H   0  0  0  0  0
   11.5981   21.2137   47.9494 H   0  0  0  0  0
    8.3842   22.9031   50.2395 H   0  0  0  0  0
    8.3552   24.8616   48.7465 H   0  0  0  0  0
    9.0982   19.2130   48.8188 H   0  0  0  0  0
  1  2  1  0  0  0
  2  3  4  0  0  0
  2  7  4  0  0  0
  3  4  4  0  0  0
  4  5  4  0  0  0
  5  6  4  0  0  0
  5  8  1  0  0  0
  6  7  4  0  0  0
  8  9  4  0  0  0
  8 12  4  0  0  0
  9 10  4  0  0  0
 10 11  4  0  0  0
 11 12  4  0  0  0
  3 13  1  0  0  0
  4 14  1  0  0  0
  6 15  1  0  0  0
  7 16  1  0  0  0
  9 17  1  0  0  0
M  END
$$$$
