2hb9_ligand
  -I-interpret- 

 24 25  0  0  0  0  0  0  0  0999 V2000
   11.1150   28.9820   30.8130 N   0  0  0  0  0
   12.2480   29.6670   30.6620 N   0  0  0  0  0
   12.6460   30.7230   31.3580 C   0  0  0  0  0
   11.7670   31.5530   32.6420 S   0  0  0  0  0
   13.8390   31.1480   30.9240 N   0  0  0  0  0
   14.1670   30.2500   29.8740 N   0  0  0  0  0
   13.1580   29.3370   29.7590 C   0  0  0  0  0
   12.9880   28.2210   28.7970 C   0  0  0  0  0
   12.3790   28.5770   27.5860 C   0  0  0  0  0
   12.1300   27.6210   26.6050 C   0  0  0  0  0
   12.4880   26.2970   26.8700 C   0  0  0  0  0
   13.0770   25.9390   28.0880 C   0  0  0  0  0
   13.3250   26.9050   29.0710 C   0  0  0  0  0
   13.9620   26.5020   30.3820 C   0  0  0  0  0
   10.4435   29.2584   31.5293 H   0  0  0  0  0
   10.9192   28.1813   30.2122 H   0  0  0  0  0
   12.4989   32.5672   33.0942 H   0  0  0  0  0
   12.0968   29.6150   27.4100 H   0  0  0  0  0
   11.6688   27.8978   25.6570 H   0  0  0  0  0
   12.3058   25.5308   26.1164 H   0  0  0  0  0
   13.3451   24.8988   28.2732 H   0  0  0  0  0
   14.9089   27.0285   30.5014 H   0  0  0  0  0
   13.2944   26.7613   31.2037 H   0  0  0  0  0
   14.1402   25.4267   30.3825 H   0  0  0  0  0
  1  2  1  0  0  0
  2  3  4  0  0  0
  2  7  4  0  0  0
  3  4  1  0  0  0
  3  5  4  0  0  0
  5  6  4  0  0  0
  6  7  4  0  0  0
  7  8  1  0  0  0
  8  9  4  0  0  0
  8 13  4  0  0  0
  9 10  4  0  0  0
 10 11  4  0  0  0
 11 12  4  0  0  0
 12 13  4  0  0  0
 13 14  1  0  0  0
  1 15  1  0  0  0
  1 16  1  0  0  0
  4 17  1  0  0  0
  9 18  1  0  0  0
 10 19  1  0  0  0
 11 20  1  0  0  0
 12 21  1  0  0  0
 14 22  1  0  0  0
 14 23  1  0  0  0
 14 24  1  0  0  0
M  END
$$$$
