6mmo_ligand
  -I-interpret- 

 37 39  0  0  0  0  0  0  0  0999 V2000
   23.9000    4.3040  -21.4600 P   0  0  0  0  0
   23.0630    4.3050  -22.7190 O   0  0  0  0  0
   25.4100    4.1550  -21.6080 O   0  0  0  0  0
   23.4700    5.3710  -20.4790 O   0  0  0  0  0
   23.5770    2.8790  -20.8230 O   0  0  0  0  0
   23.7290    1.7000  -21.5850 C   0  0  0  0  0
   23.0640    0.5250  -20.9220 C   0  0  0  0  0
   23.7050    0.3070  -19.6360 O   0  0  0  0  0
   21.6020    0.7330  -20.5490 C   0  0  0  0  0
   20.7010    0.5640  -21.6330 O   0  0  0  0  0
   21.4200   -0.2830  -19.4320 C   0  0  0  0  0
   21.4030   -1.5980  -19.9830 O   0  0  0  0  0
   22.7440   -0.1310  -18.6920 C   0  0  0  0  0
   22.7110    0.8360  -17.5540 N   0  0  0  0  0
   22.9030    2.1630  -17.5770 C   0  0  0  0  0
   22.8820    2.6770  -16.3330 N   0  0  0  0  0
   22.6620    1.6570  -15.4890 C   0  0  0  0  0
   22.4730    1.5160  -14.0400 C   0  0  0  0  0
   22.5780    2.6010  -13.2730 N   0  0  0  0  0
   22.2750    0.2790  -13.5280 N   0  0  0  0  0
   22.2220   -0.8010  -14.3300 C   0  0  0  0  0
   22.3620   -0.7210  -15.6680 N   0  0  0  0  0
   22.5730    0.4630  -16.2830 C   0  0  0  0  0
   25.8186    4.1700  -20.7394 H   0  0  0  0  0
   24.0284    5.3309  -19.6992 H   0  0  0  0  0
   24.7934    1.4855  -21.6803 H   0  0  0  0  0
   23.2638    1.8558  -22.5584 H   0  0  0  0  0
   23.1448   -0.2840  -21.6480 H   0  0  0  0  0
   21.3746    1.7550  -20.2458 H   0  0  0  0  0
   19.8028    0.7092  -21.3267 H   0  0  0  0  0
   20.5144   -0.1397  -18.8426 H   0  0  0  0  0
   21.2881   -2.2381  -19.2769 H   0  0  0  0  0
   22.9837   -1.0988  -18.2515 H   0  0  0  0  0
   23.0559    2.7484  -18.4837 H   0  0  0  0  0
   22.7858    3.5059  -13.6953 H   0  0  0  0  0
   22.4505    2.5264  -12.2637 H   0  0  0  0  0
   22.0593   -1.7798  -13.8789 H   0  0  0  0  0
  1  2  2  0  0  0
  1  3  1  0  0  0
  1  4  1  0  0  0
  1  5  1  0  0  0
  5  6  1  0  0  0
  6  7  1  0  0  0
  7  8  1  0  0  0
  7  9  1  0  0  0
  8 13  1  0  0  0
  9 10  1  0  0  0
  9 11  1  0  0  0
 11 12  1  0  0  0
 11 13  1  0  0  0
 13 14  1  0  0  0
 14 15  4  0  0  0
 14 23  4  0  0  0
 15 16  4  0  0  0
 16 17  4  0  0  0
 17 18  4  0  0  0
 17 23  4  0  0  0
 18 19  1  0  0  0
 18 20  4  0  0  0
 20 21  4  0  0  0
 21 22  4  0  0  0
 22 23  4  0  0  0
  3 24  1  0  0  0
  4 25  1  0  0  0
  6 26  1  0  0  0
  6 27  1  0  0  0
  7 28  1  0  0  0
  9 29  1  0  0  0
 10 30  1  0  0  0
 11 31  1  0  0  0
 12 32  1  0  0  0
 13 33  1  0  0  0
 15 34  1  0  0  0
 19 35  1  0  0  0
 19 36  1  0  0  0
 21 37  1  0  0  0
M  END
$$$$
