### 
### Created by X-TOOL on Mon Aug  2 16:14:57 2021
### 

@<TRIPOS>MOLECULE
6mmo_ligand
   35    37     1     0     0
SMALL
GAST_HUCK


@<TRIPOS>ATOM
      1 P          23.9000    4.3040  -21.4600 P.3       1 AMP         0.2008
      2 O1P        23.0630    4.3050  -22.7190 O.co2     1 AMP        -0.5537
      3 O2P        25.4100    4.1550  -21.6080 O.co2     1 AMP        -0.5537
      4 O3P        23.4700    5.3710  -20.4790 O.co2     1 AMP        -0.5537
      5 O5'        23.5770    2.8790  -20.8230 O.3       1 AMP        -0.2734
      6 C5'        23.7290    1.7000  -21.5850 C.3       1 AMP         0.1072
      7 C4'        23.0640    0.5250  -20.9220 C.3       1 AMP         0.1182
      8 O4'        23.7050    0.3070  -19.6360 O.3       1 AMP        -0.3365
      9 C3'        21.6020    0.7330  -20.5490 C.3       1 AMP         0.1149
     10 O3'        20.7010    0.5640  -21.6330 O.3       1 AMP        -0.3864
     11 C2'        21.4200   -0.2830  -19.4320 C.3       1 AMP         0.1385
     12 O2'        21.4030   -1.5980  -19.9830 O.3       1 AMP        -0.3836
     13 C1'        22.7440   -0.1310  -18.6920 C.3       1 AMP         0.2010
     14 N9         22.7110    0.8360  -17.5540 N.pl3     1 AMP        -0.1919
     15 C8         22.9030    2.1630  -17.5770 C.2       1 AMP         0.1123
     16 N7         22.8820    2.6770  -16.3330 N.2       1 AMP        -0.2958
     17 C5         22.6620    1.6570  -15.4890 C.ar      1 AMP         0.1045
     18 C6         22.4730    1.5160  -14.0400 C.ar      1 AMP         0.1298
     19 N6         22.5780    2.6010  -13.2730 N.pl3     1 AMP        -0.3152
     20 N1         22.2750    0.2790  -13.5280 N.ar      1 AMP        -0.2698
     21 C2         22.2220   -0.8010  -14.3300 C.ar      1 AMP         0.0533
     22 N3         22.3620   -0.7210  -15.6680 N.ar      1 AMP        -0.2714
     23 C4         22.5730    0.4630  -16.2830 C.ar      1 AMP         0.1613
     24 H1         24.8016    1.4851  -21.7007 H         1 AMP         0.0639
     25 H2         23.2769    1.8541  -22.5759 H         1 AMP         0.0639
     26 H3         23.1627   -0.3557  -21.5736 H         1 AMP         0.0650
     27 H4         21.4583    1.7501  -20.1555 H         1 AMP         0.0648
     28 H5         20.7812   -0.3185  -21.9753 H         1 AMP         0.2100
     29 H6         20.5368   -0.0867  -18.8064 H         1 AMP         0.0676
     30 H7         21.2893   -2.2315  -19.2843 H         1 AMP         0.2101
     31 H8         23.0367   -1.1149  -18.2968 H         1 AMP         0.0996
     32 H9         23.0558    2.7479  -18.4828 H         1 AMP         0.1349
     33 H10        22.4493    2.5257  -12.2539 H         1 AMP         0.1820
     34 H11        22.7879    3.5148  -13.6994 H         1 AMP         0.1820
     35 H12        22.0602   -1.7744  -13.8814 H         1 AMP         0.0996
@<TRIPOS>BOND
     1    1    2 ar 
     2    1    3 ar 
     3    1    4 ar 
     4    1    5 1  
     5    5    6 1  
     6    6    7 1  
     7    7    8 1  
     8    7    9 1  
     9    8   13 1  
    10    9   10 1  
    11    9   11 1  
    12   11   12 1  
    13   11   13 1  
    14   13   14 1  
    15   14   15 1  
    16   14   23 1  
    17   15   16 2  
    18   16   17 1  
    19   17   18 ar 
    20   17   23 ar 
    21   18   19 1  
    22   18   20 ar 
    23   20   21 ar 
    24   21   22 ar 
    25   22   23 ar 
    26    6   24 1  
    27    6   25 1  
    28    7   26 1  
    29    9   27 1  
    30   10   28 1  
    31   11   29 1  
    32   12   30 1  
    33   13   31 1  
    34   15   32 1  
    35   19   33 1  
    36   19   34 1  
    37   21   35 1  
@<TRIPOS>SUBSTRUCTURE
     1 AMP         1

