6m8y_ligand
  -I-interpret- 

 61 62  0  0  0  0  0  0  0  0999 V2000
   23.1970   13.3530    5.4340 C   0  0  0  0  0
   22.0380   13.8540    5.3330 O   0  0  0  0  0
   24.0380   13.1510    4.2330 C   0  0  0  0  0
   23.4780   12.6360    6.4730 N   0  0  0  0  0
   22.6780   12.5600    7.6900 C   0  0  0  0  0
   23.5130   13.1150    8.8290 C   0  0  0  0  0
   24.7370   12.9380    8.8600 O   0  0  0  0  0
   22.2740   11.1490    7.9980 C   0  0  0  0  0
   21.3220   10.5310    6.9260 C   0  0  0  0  0
   21.6790   10.9280    9.3660 C   0  0  0  0  0
   21.9120    9.2460    6.4120 C   0  0  0  0  0
   22.9280   13.8540    9.7510 N   0  0  0  0  0
   23.7440   14.4580   10.8180 C   0  0  0  0  0
   24.4620   13.4160   11.6610 C   0  0  0  0  0
   23.9500   12.3500   11.9630 O   0  0  0  0  0
   22.6800   15.2310   11.6540 C   0  0  0  0  0
   21.6530   15.5960   10.6930 C   0  0  0  0  0
   21.5300   14.3700    9.8040 C   0  0  0  0  0
   25.6780   13.7960   12.0530 N   0  0  0  0  0
   26.5170   13.0730   12.9900 C   0  0  0  0  0
   26.5080   13.7650   14.3730 C   0  0  0  0  0
   27.2740   13.1620   15.3110 O   0  0  0  0  0
   27.8970   12.8950   12.4000 C   0  0  0  0  0
   28.0610   11.9490   11.2550 C   0  0  0  0  0
   29.0430   12.1800   10.2890 C   0  0  0  0  0
   27.3300   10.7690   11.1570 C   0  0  0  0  0
   29.2360   11.2860    9.2660 C   0  0  0  0  0
   27.5150    9.8850   10.0900 C   0  0  0  0  0
   28.4640   10.1660    9.1410 C   0  0  0  0  0
   25.7350   14.8730   14.4450 O   0  0  0  0  0
   23.5267   12.4813    3.5415 H   0  0  0  0  0
   24.2133   14.1113    3.7481 H   0  0  0  0  0
   24.9911   12.7121    4.5281 H   0  0  0  0  0
   24.3304   12.0769    6.4384 H   0  0  0  0  0
   21.7630   13.1370    7.5560 H   0  0  0  0  0
   23.2321   10.6295    7.9783 H   0  0  0  0  0
   21.2020   11.2317    6.0997 H   0  0  0  0  0
   20.3499   10.3298    7.3762 H   0  0  0  0  0
   20.7026   11.4096    9.4182 H   0  0  0  0  0
   21.5679    9.8584    9.5440 H   0  0  0  0  0
   22.3379   11.3568   10.1210 H   0  0  0  0  0
   22.8840    9.4483    5.9621 H   0  0  0  0  0
   22.0316    8.5462    7.2391 H   0  0  0  0  0
   21.2463    8.8158    5.6638 H   0  0  0  0  0
   24.5467   15.0872   10.4334 H   0  0  0  0  0
   23.1056   16.1049   12.1472 H   0  0  0  0  0
   22.2805   14.6240   12.4664 H   0  0  0  0  0
   21.9143   16.4912   10.1288 H   0  0  0  0  0
   20.7096   15.8541   11.1741 H   0  0  0  0  0
   20.8228   13.6363   10.1910 H   0  0  0  0  0
   21.1270   14.6013    8.8180 H   0  0  0  0  0
   26.0477   14.6632   11.6636 H   0  0  0  0  0
   26.1196   12.0726   13.1615 H   0  0  0  0  0
   28.5015   12.4779   13.2054 H   0  0  0  0  0
   28.1681   13.8738   12.0043 H   0  0  0  0  0
   29.6602   13.0765   10.3481 H   0  0  0  0  0
   26.5980   10.5290   11.9282 H   0  0  0  0  0
   30.0236   11.4739    8.5362 H   0  0  0  0  0
   26.9107    8.9811   10.0132 H   0  0  0  0  0
   28.6018    9.4985    8.2904 H   0  0  0  0  0
   25.3214   15.0292   13.5929 H   0  0  0  0  0
  1  2  2  0  0  0
  1  3  1  0  0  0
  1  4  1  0  0  0
  4  5  1  0  0  0
  5  6  1  0  0  0
  5  8  1  0  0  0
  6  7  2  0  0  0
  6 12  1  0  0  0
  8  9  1  0  0  0
  8 10  1  0  0  0
  9 11  1  0  0  0
 12 13  1  0  0  0
 12 18  1  0  0  0
 13 14  1  0  0  0
 13 16  1  0  0  0
 14 15  2  0  0  0
 14 19  1  0  0  0
 16 17  1  0  0  0
 17 18  1  0  0  0
 19 20  1  0  0  0
 20 21  1  0  0  0
 20 23  1  0  0  0
 21 22  2  0  0  0
 21 30  1  0  0  0
 23 24  1  0  0  0
 24 25  4  0  0  0
 24 26  4  0  0  0
 25 27  4  0  0  0
 26 28  4  0  0  0
 27 29  4  0  0  0
 28 29  4  0  0  0
  3 31  1  0  0  0
  3 32  1  0  0  0
  3 33  1  0  0  0
  4 34  1  0  0  0
  5 35  1  0  0  0
  8 36  1  0  0  0
  9 37  1  0  0  0
  9 38  1  0  0  0
 10 39  1  0  0  0
 10 40  1  0  0  0
 10 41  1  0  0  0
 11 42  1  0  0  0
 11 43  1  0  0  0
 11 44  1  0  0  0
 13 45  1  0  0  0
 16 46  1  0  0  0
 16 47  1  0  0  0
 17 48  1  0  0  0
 17 49  1  0  0  0
 18 50  1  0  0  0
 18 51  1  0  0  0
 19 52  1  0  0  0
 20 53  1  0  0  0
 23 54  1  0  0  0
 23 55  1  0  0  0
 25 56  1  0  0  0
 26 57  1  0  0  0
 27 58  1  0  0  0
 28 59  1  0  0  0
 29 60  1  0  0  0
 30 61  1  0  0  0
M  END
$$$$
