### 
### Created by X-TOOL on Mon Sep 10 21:13:30 2018
### 

@<TRIPOS>MOLECULE
2ncz_ligand
  219   218     1     0     0
SMALL
GAST_HUCK


@<TRIPOS>ATOM
      1 N          -7.2550    8.8330   11.3270 N.4       1 GLU         0.2380
      2 CA         -5.8980    9.4210   11.4000 C.3       1 GLU         0.0665
      3 C          -4.8300    8.3410   11.2300 C.2       1 GLU         0.2268
      4 O          -4.2670    7.8500   12.2090 O.2       1 GLU        -0.3907
      5 CB         -5.7030   10.1350   12.7390 C.3       1 GLU         0.0194
      6 CG         -6.6670   11.2880   12.9670 C.3       1 GLU         0.0075
      7 CD         -6.5730   12.3440   11.8890 C.2       1 GLU         0.0351
      8 OE1        -5.6990   13.2260   11.9890 O.co2     1 GLU        -0.5690
      9 OE2        -7.3680   12.2900   10.9300 O.co2     1 GLU        -0.5690
     10 N          -4.5580    7.9660    9.9840 N.am      1 ILE        -0.2607
     11 CA         -3.5440    6.9600    9.6890 C.3       1 ILE         0.1336
     12 C          -2.6990    7.3890    8.4930 C.2       1 ILE         0.2042
     13 O          -3.2120    7.5430    7.3810 O.2       1 ILE        -0.3944
     14 CB         -4.1650    5.5720    9.3980 C.3       1 ILE        -0.0037
     15 CG1        -4.9890    5.0900   10.5980 C.3       1 ILE        -0.0491
     16 CG2        -3.0760    4.5610    9.0530 C.3       1 ILE        -0.0582
     17 CD1        -5.4940    3.6710   10.4640 C.3       1 ILE        -0.0648
     18 N          -1.4110    7.5940    8.7350 N.am      1 LYS        -0.2637
     19 CA         -0.4830    7.9980    7.6880 C.3       1 LYS         0.1310
     20 C           0.6240    6.9670    7.5240 C.2       1 LYS         0.2039
     21 O           1.2320    6.5380    8.5050 O.2       1 LYS        -0.3944
     22 CB          0.1310    9.3620    8.0120 C.3       1 LYS        -0.0122
     23 CG         -0.8740   10.4970    7.9930 C.3       1 LYS        -0.0440
     24 CD         -0.2150   11.8440    8.2000 C.3       1 LYS        -0.0124
     25 CE         -1.1870   12.9700    7.8970 C.3       1 LYS        -0.0354
     26 NZ         -1.7950   12.8220    6.5460 N.4       1 LYS         0.2185
     27 N           0.8860    6.5660    6.2880 N.am      1 LEU        -0.2637
     28 CA          1.9660    5.6300    6.0170 C.3       1 LEU         0.1312
     29 C           3.0710    6.3270    5.2390 C.2       1 LEU         0.2039
     30 O           2.9950    6.4650    4.0160 O.2       1 LEU        -0.3944
     31 CB          1.4770    4.4120    5.2200 C.3       1 LEU        -0.0101
     32 CG          2.1310    3.0630    5.5870 C.3       1 LEU        -0.0425
     33 CD1         1.7990    2.0050    4.5480 C.3       1 LEU        -0.0625
     34 CD2         3.6430    3.1820    5.7400 C.3       1 LEU        -0.0625
     35 N           4.0840    6.7810    5.9510 N.am      1 LYS        -0.2637
     36 CA          5.2700    7.3180    5.3160 C.3       1 LYS         0.1310
     37 C           6.1870    6.1810    4.9040 C.2       1 LYS         0.2039
     38 O           7.1110    5.8300    5.6390 O.2       1 LYS        -0.3944
     39 CB          6.0240    8.2530    6.2620 C.3       1 LYS        -0.0122
     40 CG          5.3810    9.6130    6.4500 C.3       1 LYS        -0.0440
     41 CD          5.3260   10.3820    5.1440 C.3       1 LYS        -0.0124
     42 CE          5.0890   11.8600    5.3830 C.3       1 LYS        -0.0354
     43 NZ          3.9230   12.1010    6.2790 N.4       1 LYS         0.2185
     44 N           5.9210    5.5730    3.7560 N.am      1 ILE        -0.2635
     45 CA          6.8070    4.5300    3.2770 C.3       1 ILE         0.1335
     46 C           8.1160    5.1620    2.8260 C.2       1 ILE         0.2042
     47 O           8.1540    5.8620    1.8130 O.2       1 ILE        -0.3944
     48 CB          6.2560    3.7030    2.0940 C.3       1 ILE        -0.0037
     49 CG1         4.7520    3.4780    2.1490 C.3       1 ILE        -0.0491
     50 CG2         6.9220    2.3530    2.1180 C.3       1 ILE        -0.0582
     51 CD1         4.2120    2.8000    0.9050 C.3       1 ILE        -0.0648
     52 N           9.1730    4.9250    3.5730 N.am      1 THR        -0.2613
     53 CA         10.4690    5.4980    3.2590 C.3       1 THR         0.1565
     54 C          11.2990    4.5190    2.4300 C.2       1 THR         0.2065
     55 O          11.8430    3.5510    2.9670 O.2       1 THR        -0.3943
     56 CB         11.2230    5.8400    4.5550 C.3       1 THR         0.0924
     57 OG1        10.2950    6.3330    5.5260 O.3       1 THR        -0.3874
     58 CG2        12.2850    6.8940    4.3190 C.3       1 THR        -0.0346
     59 N          11.3890    4.7630    1.1230 N.am      1 LYS        -0.2637
     60 CA         12.1390    3.8770    0.2350 C.3       1 LYS         0.1310
     61 C          12.3890    4.5360   -1.1210 C.2       1 LYS         0.2040
     62 O          12.1390    5.7260   -1.2820 O.2       1 LYS        -0.3944
     63 CB         11.4340    2.5110    0.0710 C.3       1 LYS        -0.0122
     64 CG         10.2390    2.4700   -0.8860 C.3       1 LYS        -0.0440
     65 CD          9.1090    3.3860   -0.4630 C.3       1 LYS        -0.0124
     66 CE          9.1440    4.6740   -1.2550 C.3       1 LYS        -0.0354
     67 NZ          8.1480    5.6540   -0.7780 N.4       1 LYS         0.2185
     68 N          12.8900    3.7440   -2.0740 N.am      1 THR        -0.2613
     69 CA         13.2590    4.1990   -3.4260 C.3       1 THR         0.1565
     70 C          14.3250    5.2940   -3.3870 C.2       1 THR         0.2065
     71 O          14.5480    5.9940   -4.3750 O.2       1 THR        -0.3943
     72 CB         12.0490    4.6770   -4.2820 C.3       1 THR         0.0924
     73 OG1        11.4390    5.8470   -3.7220 O.3       1 THR        -0.3874
     74 CG2        10.9980    3.5860   -4.4120 C.3       1 THR        -0.0346
     75 N          14.9980    5.4150   -2.2490 N.am      1 ILE        -0.2634
     76 CA         16.0400    6.4130   -2.0750 C.3       1 ILE         0.1335
     77 C          17.2490    6.0700   -2.9440 C.2       1 ILE         0.2042
     78 O          17.7230    4.9300   -2.9540 O.2       1 ILE        -0.3944
     79 CB         16.4570    6.5340   -0.5860 C.3       1 ILE        -0.0037
     80 CG1        17.5690    7.5740   -0.4100 C.3       1 ILE        -0.0491
     81 CG2        16.8930    5.1860   -0.0250 C.3       1 ILE        -0.0582
     82 CD1        17.1420    8.9880   -0.7420 C.3       1 ILE        -0.0648
     83 N          17.7180    7.0550   -3.6970 N.am      1 GLN        -0.2636
     84 CA         18.8390    6.8660   -4.6060 C.3       1 GLN         0.1330
     85 C          20.1120    6.5250   -3.8440 C.2       1 GLN         0.2036
     86 O          20.3720    7.0660   -2.7680 O.2       1 GLN        -0.3944
     87 CB         19.0510    8.1200   -5.4580 C.3       1 GLN         0.0045
     88 CG         19.3000    9.3830   -4.6480 C.3       1 GLN         0.0412
     89 CD         19.4850   10.6100   -5.5180 C.2       1 GLN         0.1737
     90 OE1        20.1980   11.5430   -5.1490 O.2       1 GLN        -0.3973
     91 NE2        18.8480   10.6220   -6.6790 N.am      1 GLN        -0.3009
     92 N          20.8930    5.6190   -4.4030 N.am      1 ASN        -0.2674
     93 CA         22.1390    5.2020   -3.7900 C.3       1 ASN         0.1110
     94 C          23.2860    5.3760   -4.7740 C.2       1 ASN         0.0624
     95 O          24.2390    6.1060   -4.4410 O.co2     1 ASN        -0.5665
     96 CB         22.0500    3.7530   -3.2870 C.3       1 ASN         0.0718
     97 CG         21.7240    2.7490   -4.3780 C.2       1 ASN         0.1774
     98 OD1        20.5550    2.5080   -4.6860 O.2       1 ASN        -0.3971
     99 ND2        22.7490    2.1370   -4.9500 N.am      1 ASN        -0.3007
    100 OXT        23.2050    4.8320   -5.8950 O.co2     1 ASN        -0.5665
    101 H1         -7.9431    9.5607   11.4412 H         1 GLU         0.2015
    102 H2         -7.3647    8.1490   12.0592 H         1 GLU         0.2015
    103 H3         -7.3811    8.3891   10.4309 H         1 GLU         0.2015
    104 H4         -5.7895   10.1549   10.5879 H         1 GLU         0.1099
    105 H5         -4.6767   10.5291   12.7754 H         1 GLU         0.0363
    106 H6         -5.8430    9.4014   13.5466 H         1 GLU         0.0363
    107 H7         -6.4375   11.7530   13.9371 H         1 GLU         0.0434
    108 H8         -7.6930   10.8918   12.9839 H         1 GLU         0.0434
    109 H9         -5.0621    8.3849    9.2287 H         1 ILE         0.1885
    110 H10        -2.8891    6.8683   10.5680 H         1 ILE         0.0803
    111 H11        -4.8366    5.6669    8.5320 H         1 ILE         0.0345
    112 H12        -5.8562    5.7568   10.7130 H         1 ILE         0.0267
    113 H13        -4.3587    5.1498   11.4975 H         1 ILE         0.0267
    114 H14        -2.4975    4.9251    8.1912 H         1 ILE         0.0235
    115 H15        -3.5386    3.5950    8.8024 H         1 ILE         0.0235
    116 H16        -2.4067    4.4340    9.9166 H         1 ILE         0.0235
    117 H17        -6.0725    3.4016   11.3599 H         1 ILE         0.0230
    118 H18        -4.6397    2.9860   10.3596 H         1 ILE         0.0230
    119 H19        -6.1372    3.5931    9.5751 H         1 ILE         0.0230
    120 H20        -1.0666    7.4672    9.6652 H         1 LYS         0.1883
    121 H21        -1.0367    8.0754    6.7407 H         1 LYS         0.0800
    122 H22         0.9133    9.5771    7.2692 H         1 LYS         0.0312
    123 H23         0.5810    9.3121    9.0145 H         1 LYS         0.0312
    124 H24        -1.6083   10.3342    8.7957 H         1 LYS         0.0269
    125 H25        -1.3882   10.4994    7.0206 H         1 LYS         0.0269
    126 H26         0.6539   11.9274    7.5307 H         1 LYS         0.0317
    127 H27         0.1180   11.9261    9.2452 H         1 LYS         0.0317
    128 H28        -0.6486   13.9281    7.9429 H         1 LYS         0.0813
    129 H29        -1.9877   12.9628    8.6512 H         1 LYS         0.0813
    130 H30        -2.4329   13.5845    6.3793 H         1 LYS         0.1994
    131 H31        -2.2954   11.9484    6.4966 H         1 LYS         0.1994
    132 H32        -1.0684   12.8330    5.8475 H         1 LYS         0.1994
    133 H33         0.3328    6.9122    5.5303 H         1 LEU         0.1883
    134 H34         2.3720    5.2798    6.9775 H         1 LEU         0.0800
    135 H35         1.6742    4.6041    4.1550 H         1 LEU         0.0315
    136 H36         0.3930    4.3164    5.3808 H         1 LEU         0.0315
    137 H37         1.7163    2.7395    6.5531 H         1 LEU         0.0298
    138 H38         2.2742    1.0535    4.8288 H         1 LEU         0.0232
    139 H39         2.1739    2.3260    3.5650 H         1 LEU         0.0232
    140 H40         0.7085    1.8695    4.4981 H         1 LEU         0.0232
    141 H41         3.8760    3.9491    6.4931 H         1 LEU         0.0232
    142 H42         4.0878    3.4681    4.7755 H         1 LEU         0.0232
    143 H43         4.0563    2.2147    6.0619 H         1 LEU         0.0232
    144 H44         4.0323    6.7540    6.9493 H         1 LYS         0.1883
    145 H45         4.9690    7.8826    4.4213 H         1 LYS         0.0800
    146 H46         7.0364    8.4048    5.8596 H         1 LYS         0.0312
    147 H47         6.0897    7.7656    7.2459 H         1 LYS         0.0312
    148 H48         5.9681   10.1890    7.1804 H         1 LYS         0.0269
    149 H49         4.3573    9.4761    6.8285 H         1 LYS         0.0269
    150 H50         4.5067    9.9831    4.5278 H         1 LYS         0.0317
    151 H51         6.2805   10.2538    4.6125 H         1 LYS         0.0317
    152 H52         4.9013   12.3504    4.4164 H         1 LYS         0.0813
    153 H53         5.9879   12.2935    5.8457 H         1 LYS         0.0813
    154 H54         3.8005   13.0927    6.4116 H         1 LYS         0.1994
    155 H55         4.0877   11.6606    7.1706 H         1 LYS         0.1994
    156 H56         3.0920   11.7128    5.8609 H         1 LYS         0.1994
    157 H57         5.1147    5.8321    3.2242 H         1 ILE         0.1883
    158 H58         7.0032    3.8429    4.1133 H         1 ILE         0.0803
    159 H59         6.5007    4.2240    1.1567 H         1 ILE         0.0345
    160 H60         4.2549    4.4528    2.2614 H         1 ILE         0.0267
    161 H61         4.5229    2.8469    3.0203 H         1 ILE         0.0267
    162 H62         8.0137    2.4820    2.0792 H         1 ILE         0.0235
    163 H63         6.5912    1.7654    1.2490 H         1 ILE         0.0235
    164 H64         6.6478    1.8253    3.0434 H         1 ILE         0.0235
    165 H65         3.1248    2.6652    1.0036 H         1 ILE         0.0230
    166 H66         4.6937    1.8185    0.7839 H         1 ILE         0.0230
    167 H67         4.4257    3.4244    0.0250 H         1 ILE         0.0230
    168 H68         9.0812    4.3362    4.3760 H         1 THR         0.1884
    169 H69        10.3183    6.4198    2.6780 H         1 THR         0.0826
    170 H70        11.7034    4.9277    4.9382 H         1 THR         0.0639
    171 H71         9.8704    7.1133    5.1891 H         1 THR         0.2101
    172 H72        12.8017    7.1122    5.2653 H         1 THR         0.0257
    173 H73        11.8126    7.8119    3.9391 H         1 THR         0.0257
    174 H74        13.0120    6.5233    3.5814 H         1 THR         0.0257
    175 H75        10.9344    5.5682    0.7423 H         1 LYS         0.1883
    176 H76        13.1181    3.6914    0.7007 H         1 LYS         0.0800
    177 H77        11.0784    2.1970    1.0634 H         1 LYS         0.0312
    178 H78        12.1807    1.7913   -0.2956 H         1 LYS         0.0312
    179 H79         9.8577    1.4390   -0.9264 H         1 LYS         0.0269
    180 H80        10.5807    2.7741   -1.8864 H         1 LYS         0.0269
    181 H81         9.2120    3.6169    0.6075 H         1 LYS         0.0317
    182 H82         8.1482    2.8798   -0.6382 H         1 LYS         0.0317
    183 H83         8.9373    4.4454   -2.3109 H         1 LYS         0.0813
    184 H84        10.1468    5.1170   -1.1652 H         1 LYS         0.0813
    185 H85         8.2089    6.4926   -1.3339 H         1 LYS         0.1994
    186 H86         8.3318    5.8770    0.1877 H         1 LYS         0.1994
    187 H87         7.2234    5.2615   -0.8622 H         1 LYS         0.1994
    188 H88        13.0234    2.7775   -1.8547 H         1 THR         0.1884
    189 H89        13.6961    3.3312   -3.9417 H         1 THR         0.0826
    190 H90        12.4206    4.9250   -5.2872 H         1 THR         0.0639
    191 H91        11.1295    5.6525   -2.8451 H         1 THR         0.2101
    192 H92        10.1595    3.9553   -5.0207 H         1 THR         0.0257
    193 H93        10.6314    3.3090   -3.4126 H         1 THR         0.0257
    194 H94        11.4426    2.7044   -4.8969 H         1 THR         0.0257
    195 H95        14.7816    4.8016   -1.4895 H         1 ILE         0.1883
    196 H96        15.6433    7.3859   -2.4007 H         1 ILE         0.0803
    197 H97        15.5799    6.8726   -0.0151 H         1 ILE         0.0345
    198 H98        18.4065    7.3010   -1.0689 H         1 ILE         0.0267
    199 H99        17.9037    7.5499    0.6376 H         1 ILE         0.0267
    200 H100       16.0835    4.4535   -0.1600 H         1 ILE         0.0235
    201 H101       17.1181    5.2903    1.0466 H         1 ILE         0.0235
    202 H102       17.7920    4.8410   -0.5567 H         1 ILE         0.0235
    203 H103       17.9903    9.6720   -0.5918 H         1 ILE         0.0230
    204 H104       16.3114    9.2842   -0.0845 H         1 ILE         0.0230
    205 H105       16.8142    9.0353   -1.7909 H         1 ILE         0.0230
    206 H106       17.2882    7.9561   -3.6387 H         1 GLN         0.1883
    207 H107       18.6021    6.0262   -5.2758 H         1 GLN         0.0801
    208 H108       18.1531    8.2756   -6.0741 H         1 GLN         0.0337
    209 H109       19.9195    7.9514   -6.1116 H         1 GLN         0.0337
    210 H110       20.2081    9.2401   -4.0439 H         1 GLN         0.0504
    211 H111       18.4397    9.5498   -3.9831 H         1 GLN         0.0504
    212 H112       18.9370   11.4086   -7.2901 H         1 GLN         0.1814
    213 H113       18.2780    9.8445   -6.9446 H         1 GLN         0.1814
    214 H114       20.6177    5.2093   -5.2727 H         1 ASN         0.1877
    215 H115       22.3296    5.8509   -2.9225 H         1 ASN         0.0752
    216 H116       21.2642    3.6992   -2.5191 H         1 ASN         0.0544
    217 H117       23.0177    3.4798   -2.8411 H         1 ASN         0.0544
    218 H118       22.5900    1.4662   -5.6744 H         1 ASN         0.1814
    219 H119       23.6823    2.3454   -4.6577 H         1 ASN         0.1814
@<TRIPOS>BOND
     1    1    2 1  
     2    2    3 1  
     3    2    5 1  
     4    3    4 2  
     5    3   10 am 
     6    5    6 1  
     7    6    7 1  
     8    7    8 ar 
     9    7    9 ar 
    10   10   11 1  
    11   11   12 1  
    12   11   14 1  
    13   12   13 2  
    14   12   18 am 
    15   14   15 1  
    16   14   16 1  
    17   15   17 1  
    18   18   19 1  
    19   19   20 1  
    20   19   22 1  
    21   20   21 2  
    22   20   27 am 
    23   22   23 1  
    24   23   24 1  
    25   24   25 1  
    26   25   26 1  
    27   27   28 1  
    28   28   29 1  
    29   28   31 1  
    30   29   30 2  
    31   29   35 am 
    32   31   32 1  
    33   32   33 1  
    34   32   34 1  
    35   35   36 1  
    36   36   37 1  
    37   36   39 1  
    38   37   38 2  
    39   37   44 am 
    40   39   40 1  
    41   40   41 1  
    42   41   42 1  
    43   42   43 1  
    44   44   45 1  
    45   45   46 1  
    46   45   48 1  
    47   46   47 2  
    48   46   52 am 
    49   48   49 1  
    50   48   50 1  
    51   49   51 1  
    52   52   53 1  
    53   53   54 1  
    54   53   56 1  
    55   54   55 2  
    56   54   59 am 
    57   56   57 1  
    58   56   58 1  
    59   59   60 1  
    60   60   61 1  
    61   60   63 1  
    62   61   62 2  
    63   61   68 am 
    64   63   64 1  
    65   64   65 1  
    66   65   66 1  
    67   66   67 1  
    68   68   69 1  
    69   69   70 1  
    70   69   72 1  
    71   70   71 2  
    72   70   75 am 
    73   72   73 1  
    74   72   74 1  
    75   75   76 1  
    76   76   77 1  
    77   76   79 1  
    78   77   78 2  
    79   77   83 am 
    80   79   80 1  
    81   79   81 1  
    82   80   82 1  
    83   83   84 1  
    84   84   85 1  
    85   84   87 1  
    86   85   86 2  
    87   85   92 am 
    88   87   88 1  
    89   88   89 1  
    90   89   90 2  
    91   89   91 am 
    92   92   93 1  
    93   93   94 1  
    94   93   96 1  
    95   94   95 ar 
    96   94  100 ar 
    97   96   97 1  
    98   97   98 2  
    99   97   99 am 
   100    1  101 1  
   101    1  102 1  
   102    1  103 1  
   103    2  104 1  
   104    5  105 1  
   105    5  106 1  
   106    6  107 1  
   107    6  108 1  
   108   10  109 1  
   109   11  110 1  
   110   14  111 1  
   111   15  112 1  
   112   15  113 1  
   113   16  114 1  
   114   16  115 1  
   115   16  116 1  
   116   17  117 1  
   117   17  118 1  
   118   17  119 1  
   119   18  120 1  
   120   19  121 1  
   121   22  122 1  
   122   22  123 1  
   123   23  124 1  
   124   23  125 1  
   125   24  126 1  
   126   24  127 1  
   127   25  128 1  
   128   25  129 1  
   129   26  130 1  
   130   26  131 1  
   131   26  132 1  
   132   27  133 1  
   133   28  134 1  
   134   31  135 1  
   135   31  136 1  
   136   32  137 1  
   137   33  138 1  
   138   33  139 1  
   139   33  140 1  
   140   34  141 1  
   141   34  142 1  
   142   34  143 1  
   143   35  144 1  
   144   36  145 1  
   145   39  146 1  
   146   39  147 1  
   147   40  148 1  
   148   40  149 1  
   149   41  150 1  
   150   41  151 1  
   151   42  152 1  
   152   42  153 1  
   153   43  154 1  
   154   43  155 1  
   155   43  156 1  
   156   44  157 1  
   157   45  158 1  
   158   48  159 1  
   159   49  160 1  
   160   49  161 1  
   161   50  162 1  
   162   50  163 1  
   163   50  164 1  
   164   51  165 1  
   165   51  166 1  
   166   51  167 1  
   167   52  168 1  
   168   53  169 1  
   169   56  170 1  
   170   57  171 1  
   171   58  172 1  
   172   58  173 1  
   173   58  174 1  
   174   59  175 1  
   175   60  176 1  
   176   63  177 1  
   177   63  178 1  
   178   64  179 1  
   179   64  180 1  
   180   65  181 1  
   181   65  182 1  
   182   66  183 1  
   183   66  184 1  
   184   67  185 1  
   185   67  186 1  
   186   67  187 1  
   187   68  188 1  
   188   69  189 1  
   189   72  190 1  
   190   73  191 1  
   191   74  192 1  
   192   74  193 1  
   193   74  194 1  
   194   75  195 1  
   195   76  196 1  
   196   79  197 1  
   197   80  198 1  
   198   80  199 1  
   199   81  200 1  
   200   81  201 1  
   201   81  202 1  
   202   82  203 1  
   203   82  204 1  
   204   82  205 1  
   205   83  206 1  
   206   84  207 1  
   207   87  208 1  
   208   87  209 1  
   209   88  210 1  
   210   88  211 1  
   211   91  212 1  
   212   91  213 1  
   213   92  214 1  
   214   93  215 1  
   215   96  216 1  
   216   96  217 1  
   217   99  218 1  
   218   99  219 1  
@<TRIPOS>SUBSTRUCTURE
     1 GLU         1

