2ncz_ligand
  -I-interpret- 

221220  0  0  0  0  0  0  0  0999 V2000
   -7.2550    8.8330   11.3270 N   0  3  0  0  0
   -5.8980    9.4210   11.4000 C   0  0  0  0  0
   -4.8300    8.3410   11.2300 C   0  0  0  0  0
   -4.2670    7.8500   12.2090 O   0  0  0  0  0
   -5.7030   10.1350   12.7390 C   0  0  0  0  0
   -6.6670   11.2880   12.9670 C   0  0  0  0  0
   -6.5730   12.3440   11.8890 C   0  0  0  0  0
   -5.6990   13.2260   11.9890 O   0  0  0  0  0
   -7.3680   12.2900   10.9300 O   0  0  0  0  0
   -4.5580    7.9660    9.9840 N   0  0  0  0  0
   -3.5440    6.9600    9.6890 C   0  0  0  0  0
   -2.6990    7.3890    8.4930 C   0  0  0  0  0
   -3.2120    7.5430    7.3810 O   0  0  0  0  0
   -4.1650    5.5720    9.3980 C   0  0  0  0  0
   -4.9890    5.0900   10.5980 C   0  0  0  0  0
   -3.0760    4.5610    9.0530 C   0  0  0  0  0
   -5.4940    3.6710   10.4640 C   0  0  0  0  0
   -1.4110    7.5940    8.7350 N   0  0  0  0  0
   -0.4830    7.9980    7.6880 C   0  0  0  0  0
    0.6240    6.9670    7.5240 C   0  0  0  0  0
    1.2320    6.5380    8.5050 O   0  0  0  0  0
    0.1310    9.3620    8.0120 C   0  0  0  0  0
   -0.8740   10.4970    7.9930 C   0  0  0  0  0
   -0.2150   11.8440    8.2000 C   0  0  0  0  0
   -1.1870   12.9700    7.8970 C   0  0  0  0  0
   -1.7950   12.8220    6.5460 N   0  3  0  0  0
    0.8860    6.5660    6.2880 N   0  0  0  0  0
    1.9660    5.6300    6.0170 C   0  0  0  0  0
    3.0710    6.3270    5.2390 C   0  0  0  0  0
    2.9950    6.4650    4.0160 O   0  0  0  0  0
    1.4770    4.4120    5.2200 C   0  0  0  0  0
    2.1310    3.0630    5.5870 C   0  0  0  0  0
    1.7990    2.0050    4.5480 C   0  0  0  0  0
    3.6430    3.1820    5.7400 C   0  0  0  0  0
    4.0840    6.7810    5.9510 N   0  0  0  0  0
    5.2700    7.3180    5.3160 C   0  0  0  0  0
    6.1870    6.1810    4.9040 C   0  0  0  0  0
    7.1110    5.8300    5.6390 O   0  0  0  0  0
    6.0240    8.2530    6.2620 C   0  0  0  0  0
    5.3810    9.6130    6.4500 C   0  0  0  0  0
    5.3260   10.3820    5.1440 C   0  0  0  0  0
    5.0890   11.8600    5.3830 C   0  0  0  0  0
    3.9230   12.1010    6.2790 N   0  3  0  0  0
    5.9210    5.5730    3.7560 N   0  0  0  0  0
    6.8070    4.5300    3.2770 C   0  0  0  0  0
    8.1160    5.1620    2.8260 C   0  0  0  0  0
    8.1540    5.8620    1.8130 O   0  0  0  0  0
    6.2560    3.7030    2.0940 C   0  0  0  0  0
    4.7520    3.4780    2.1490 C   0  0  0  0  0
    6.9220    2.3530    2.1180 C   0  0  0  0  0
    4.2120    2.8000    0.9050 C   0  0  0  0  0
    9.1730    4.9250    3.5730 N   0  0  0  0  0
   10.4690    5.4980    3.2590 C   0  0  0  0  0
   11.2990    4.5190    2.4300 C   0  0  0  0  0
   11.8430    3.5510    2.9670 O   0  0  0  0  0
   11.2230    5.8400    4.5550 C   0  0  0  0  0
   10.2950    6.3330    5.5260 O   0  0  0  0  0
   12.2850    6.8940    4.3190 C   0  0  0  0  0
   11.3890    4.7630    1.1230 N   0  0  0  0  0
   12.1390    3.8770    0.2350 C   0  0  0  0  0
   12.3890    4.5360   -1.1210 C   0  0  0  0  0
   12.1390    5.7260   -1.2820 O   0  0  0  0  0
   11.4340    2.5110    0.0710 C   0  0  0  0  0
   10.2390    2.4700   -0.8860 C   0  0  0  0  0
    9.1090    3.3860   -0.4630 C   0  0  0  0  0
    9.1440    4.6740   -1.2550 C   0  0  0  0  0
    8.1480    5.6540   -0.7780 N   0  3  0  0  0
   12.8900    3.7440   -2.0740 N   0  0  0  0  0
   13.2590    4.1990   -3.4260 C   0  0  0  0  0
   14.3250    5.2940   -3.3870 C   0  0  0  0  0
   14.5480    5.9940   -4.3750 O   0  0  0  0  0
   12.0490    4.6770   -4.2820 C   0  0  0  0  0
   11.4390    5.8470   -3.7220 O   0  0  0  0  0
   10.9980    3.5860   -4.4120 C   0  0  0  0  0
   14.9980    5.4150   -2.2490 N   0  0  0  0  0
   16.0400    6.4130   -2.0750 C   0  0  0  0  0
   17.2490    6.0700   -2.9440 C   0  0  0  0  0
   17.7230    4.9300   -2.9540 O   0  0  0  0  0
   16.4570    6.5340   -0.5860 C   0  0  0  0  0
   17.5690    7.5740   -0.4100 C   0  0  0  0  0
   16.8930    5.1860   -0.0250 C   0  0  0  0  0
   17.1420    8.9880   -0.7420 C   0  0  0  0  0
   17.7180    7.0550   -3.6970 N   0  0  0  0  0
   18.8390    6.8660   -4.6060 C   0  0  0  0  0
   20.1120    6.5250   -3.8440 C   0  0  0  0  0
   20.3720    7.0660   -2.7680 O   0  0  0  0  0
   19.0510    8.1200   -5.4580 C   0  0  0  0  0
   19.3000    9.3830   -4.6480 C   0  0  0  0  0
   19.4850   10.6100   -5.5180 C   0  0  0  0  0
   20.1980   11.5430   -5.1490 O   0  0  0  0  0
   18.8480   10.6220   -6.6790 N   0  0  0  0  0
   20.8930    5.6190   -4.4030 N   0  0  0  0  0
   22.1390    5.2020   -3.7900 C   0  0  0  0  0
   23.2860    5.3760   -4.7740 C   0  0  0  0  0
   24.2390    6.1060   -4.4410 O   0  0  0  0  0
   22.0500    3.7530   -3.2870 C   0  0  0  0  0
   21.7240    2.7490   -4.3780 C   0  0  0  0  0
   20.5550    2.5080   -4.6860 O   0  0  0  0  0
   22.7490    2.1370   -4.9500 N   0  0  0  0  0
   23.2050    4.8320   -5.8950 O   0  0  0  0  0
   -7.3718    8.3606   10.4306 H   0  0  0  0  0
   -7.3742    8.1609   12.0849 H   0  0  0  0  0
   -7.9505    9.5739   11.4154 H   0  0  0  0  0
   -5.7957   10.1431   10.5899 H   0  0  0  0  0
   -4.6948   10.5494   12.7421 H   0  0  0  0  0
   -5.8810    9.4026   13.5264 H   0  0  0  0  0
   -6.4129   11.7554   13.9183 H   0  0  0  0  0
   -7.6801   10.8861   12.9563 H   0  0  0  0  0
   -7.9558   11.5398   11.0449 H   0  0  0  0  0
   -5.0722    8.3932    9.2136 H   0  0  0  0  0
   -2.9178    6.8742   10.5770 H   0  0  0  0  0
   -4.8308    5.6648    8.5400 H   0  0  0  0  0
   -5.8615    5.7389   10.6738 H   0  0  0  0  0
   -4.3382    5.1214   11.4718 H   0  0  0  0  0
   -2.5345    4.8995    8.1697 H   0  0  0  0  0
   -2.3858    4.4719    9.8919 H   0  0  0  0  0
   -3.5324    3.5918    8.8518 H   0  0  0  0  0
   -6.1311    3.5951    9.5829 H   0  0  0  0  0
   -4.6465    2.9933   10.3606 H   0  0  0  0  0
   -6.0671    3.4052   11.3523 H   0  0  0  0  0
   -1.0597    7.4647    9.6838 H   0  0  0  0  0
   -1.0406    8.0704    6.7542 H   0  0  0  0  0
    0.8795    9.5742    7.2486 H   0  0  0  0  0
    0.5423    9.3052    9.0198 H   0  0  0  0  0
   -1.5833   10.3369    8.8050 H   0  0  0  0  0
   -1.3618   10.5032    7.0182 H   0  0  0  0  0
    0.6388   11.9253    7.5273 H   0  0  0  0  0
    0.1036   11.9241    9.2393 H   0  0  0  0  0
   -0.6412   13.9130    7.9271 H   0  0  0  0  0
   -1.9856   12.9438    8.6384 H   0  0  0  0  0
   -2.4402   13.5940    6.3784 H   0  0  0  0  0
   -1.0588   12.8332    5.8401 H   0  0  0  0  0
   -2.3010   11.9377    6.4972 H   0  0  0  0  0
    0.3217    6.9192    5.5152 H   0  0  0  0  0
    2.3458    5.2793    6.9766 H   0  0  0  0  0
    1.7310    4.6039    4.1775 H   0  0  0  0  0
    0.4140    4.3082    5.4375 H   0  0  0  0  0
    1.7205    2.7626    6.5510 H   0  0  0  0  0
    0.7183    1.8717    4.4996 H   0  0  0  0  0
    2.1710    2.3243    3.5745 H   0  0  0  0  0
    2.2704    1.0628    4.8273 H   0  0  0  0  0
    4.0760    3.5257    4.8006 H   0  0  0  0  0
    3.8718    3.8972    6.5301 H   0  0  0  0  0
    4.0585    2.2080    5.9983 H   0  0  0  0  0
    4.0313    6.7534    6.9693 H   0  0  0  0  0
    4.9590    7.8855    4.4389 H   0  0  0  0  0
    7.0073    8.4238    5.8238 H   0  0  0  0  0
    6.0405    7.7710    7.2395 H   0  0  0  0  0
    5.9766   10.1827    7.1632 H   0  0  0  0  0
    4.3626    9.4684    6.8106 H   0  0  0  0  0
    4.5025    9.9913    4.5463 H   0  0  0  0  0
    6.2804   10.2626    4.6312 H   0  0  0  0  0
    4.8836   12.3319    4.4221 H   0  0  0  0  0
    5.9769   12.2746    5.8603 H   0  0  0  0  0
    3.8000   13.1047    6.4124 H   0  0  0  0  0
    3.0828   11.7077    5.8549 H   0  0  0  0  0
    4.0908   11.6549    7.1808 H   0  0  0  0  0
    5.0986    5.8373    3.2135 H   0  0  0  0  0
    6.9302    3.8437    4.1148 H   0  0  0  0  0
    6.4662    4.2684    1.1861 H   0  0  0  0  0
    4.2720    4.4531    2.2322 H   0  0  0  0  0
    4.5430    2.8292    2.9996 H   0  0  0  0  0
    8.0001    2.4794    2.0192 H   0  0  0  0  0
    6.6981    1.8556    3.0617 H   0  0  0  0  0
    6.5482    1.7501    1.2904 H   0  0  0  0  0
    4.4244    3.4197    0.0338 H   0  0  0  0  0
    4.6901    1.8277    0.7861 H   0  0  0  0  0
    3.1347    2.6669    1.0039 H   0  0  0  0  0
    9.0793    4.3244    4.3921 H   0  0  0  0  0
   10.3116    6.4084    2.6807 H   0  0  0  0  0
   11.7092    4.9314    4.9103 H   0  0  0  0  0
   10.7643    6.5470    6.3357 H   0  0  0  0  0
   13.0046    6.5255    3.5879 H   0  0  0  0  0
   11.8157    7.8029    3.9426 H   0  0  0  0  0
   12.7962    7.1093    5.2573 H   0  0  0  0  0
   10.9253    5.5843    0.7347 H   0  0  0  0  0
   13.1078    3.6920    0.6990 H   0  0  0  0  0
   11.0420    2.2533    1.0549 H   0  0  0  0  0
   12.1794    1.8347   -0.3474 H   0  0  0  0  0
    9.8544    1.4501   -0.8929 H   0  0  0  0  0
   10.5862    2.8016   -1.8646 H   0  0  0  0  0
    9.2205    3.6191    0.5959 H   0  0  0  0  0
    8.1592    2.8838   -0.6468 H   0  0  0  0  0
    8.9145    4.4378   -2.2941 H   0  0  0  0  0
   10.1340    5.1150   -1.1389 H   0  0  0  0  0
    8.2105    6.5021   -1.3412 H   0  0  0  0  0
    7.2129    5.2557   -0.8636 H   0  0  0  0  0
    8.3349    5.8788    0.1992 H   0  0  0  0  0
   13.0261    2.7582   -1.8503 H   0  0  0  0  0
   13.6679    3.3139   -3.9134 H   0  0  0  0  0
   12.4417    4.9176   -5.2699 H   0  0  0  0  0
   10.6989    6.1149   -4.2717 H   0  0  0  0  0
   11.4398    2.7131   -4.8925 H   0  0  0  0  0
   10.6356    3.3124   -3.4211 H   0  0  0  0  0
   10.1677    3.9531   -5.0153 H   0  0  0  0  0
   14.7773    4.7893   -1.4743 H   0  0  0  0  0
   15.6426    7.3780   -2.3895 H   0  0  0  0  0
   15.5839    6.8679   -0.0253 H   0  0  0  0  0
   18.3738    7.3083   -1.0955 H   0  0  0  0  0
   17.8625    7.5613    0.6397 H   0  0  0  0  0
   16.0670    4.4787   -0.0992 H   0  0  0  0  0
   17.7438    4.8142   -0.5961 H   0  0  0  0  0
   17.1790    5.3042    1.0201 H   0  0  0  0  0
   16.8174    9.0335   -1.7815 H   0  0  0  0  0
   16.3189    9.2802   -0.0899 H   0  0  0  0  0
   17.9833    9.6647   -0.5928 H   0  0  0  0  0
   17.2796    7.9741   -3.6376 H   0  0  0  0  0
   18.6027    6.0286   -5.2626 H   0  0  0  0  0
   18.1384    8.2788   -6.0325 H   0  0  0  0  0
   19.9361    7.9489   -6.0707 H   0  0  0  0  0
   20.2162    9.2378   -4.0756 H   0  0  0  0  0
   18.4292    9.5508   -4.0142 H   0  0  0  0  0
   18.9394   11.4240   -7.3026 H   0  0  0  0  0
   18.2660    9.8293   -6.9496 H   0  0  0  0  0
   20.6122    5.2011   -5.2901 H   0  0  0  0  0
   22.3298    5.8342   -2.9228 H   0  0  0  0  0
   21.2449    3.7109   -2.5534 H   0  0  0  0  0
   23.0260    3.4880   -2.8804 H   0  0  0  0  0
   22.5859    1.4374   -5.6741 H   0  0  0  0  0
   23.7019    2.3650   -4.6666 H   0  0  0  0  0
   22.3964    4.3166   -5.9417 H   0  0  0  0  0
  1  2  1  0  0  0
  2  3  1  0  0  0
  2  5  1  0  0  0
  3  4  2  0  0  0
  3 10  1  0  0  0
  5  6  1  0  0  0
  6  7  1  0  0  0
  7  8  2  0  0  0
  7  9  1  0  0  0
 10 11  1  0  0  0
 11 12  1  0  0  0
 11 14  1  0  0  0
 12 13  2  0  0  0
 12 18  1  0  0  0
 14 15  1  0  0  0
 14 16  1  0  0  0
 15 17  1  0  0  0
 18 19  1  0  0  0
 19 20  1  0  0  0
 19 22  1  0  0  0
 20 21  2  0  0  0
 20 27  1  0  0  0
 22 23  1  0  0  0
 23 24  1  0  0  0
 24 25  1  0  0  0
 25 26  1  0  0  0
 27 28  1  0  0  0
 28 29  1  0  0  0
 28 31  1  0  0  0
 29 30  2  0  0  0
 29 35  1  0  0  0
 31 32  1  0  0  0
 32 33  1  0  0  0
 32 34  1  0  0  0
 35 36  1  0  0  0
 36 37  1  0  0  0
 36 39  1  0  0  0
 37 38  2  0  0  0
 37 44  1  0  0  0
 39 40  1  0  0  0
 40 41  1  0  0  0
 41 42  1  0  0  0
 42 43  1  0  0  0
 44 45  1  0  0  0
 45 46  1  0  0  0
 45 48  1  0  0  0
 46 47  2  0  0  0
 46 52  1  0  0  0
 48 49  1  0  0  0
 48 50  1  0  0  0
 49 51  1  0  0  0
 52 53  1  0  0  0
 53 54  1  0  0  0
 53 56  1  0  0  0
 54 55  2  0  0  0
 54 59  1  0  0  0
 56 57  1  0  0  0
 56 58  1  0  0  0
 59 60  1  0  0  0
 60 61  1  0  0  0
 60 63  1  0  0  0
 61 62  2  0  0  0
 61 68  1  0  0  0
 63 64  1  0  0  0
 64 65  1  0  0  0
 65 66  1  0  0  0
 66 67  1  0  0  0
 68 69  1  0  0  0
 69 70  1  0  0  0
 69 72  1  0  0  0
 70 71  2  0  0  0
 70 75  1  0  0  0
 72 73  1  0  0  0
 72 74  1  0  0  0
 75 76  1  0  0  0
 76 77  1  0  0  0
 76 79  1  0  0  0
 77 78  2  0  0  0
 77 83  1  0  0  0
 79 80  1  0  0  0
 79 81  1  0  0  0
 80 82  1  0  0  0
 83 84  1  0  0  0
 84 85  1  0  0  0
 84 87  1  0  0  0
 85 86  2  0  0  0
 85 92  1  0  0  0
 87 88  1  0  0  0
 88 89  1  0  0  0
 89 90  2  0  0  0
 89 91  1  0  0  0
 92 93  1  0  0  0
 93 94  1  0  0  0
 93 96  1  0  0  0
 94 95  2  0  0  0
 94100  1  0  0  0
 96 97  1  0  0  0
 97 98  2  0  0  0
 97 99  1  0  0  0
  1101  1  0  0  0
  1102  1  0  0  0
  1103  1  0  0  0
  2104  1  0  0  0
  5105  1  0  0  0
  5106  1  0  0  0
  6107  1  0  0  0
  6108  1  0  0  0
  9109  1  0  0  0
 10110  1  0  0  0
 11111  1  0  0  0
 14112  1  0  0  0
 15113  1  0  0  0
 15114  1  0  0  0
 16115  1  0  0  0
 16116  1  0  0  0
 16117  1  0  0  0
 17118  1  0  0  0
 17119  1  0  0  0
 17120  1  0  0  0
 18121  1  0  0  0
 19122  1  0  0  0
 22123  1  0  0  0
 22124  1  0  0  0
 23125  1  0  0  0
 23126  1  0  0  0
 24127  1  0  0  0
 24128  1  0  0  0
 25129  1  0  0  0
 25130  1  0  0  0
 26131  1  0  0  0
 26132  1  0  0  0
 26133  1  0  0  0
 27134  1  0  0  0
 28135  1  0  0  0
 31136  1  0  0  0
 31137  1  0  0  0
 32138  1  0  0  0
 33139  1  0  0  0
 33140  1  0  0  0
 33141  1  0  0  0
 34142  1  0  0  0
 34143  1  0  0  0
 34144  1  0  0  0
 35145  1  0  0  0
 36146  1  0  0  0
 39147  1  0  0  0
 39148  1  0  0  0
 40149  1  0  0  0
 40150  1  0  0  0
 41151  1  0  0  0
 41152  1  0  0  0
 42153  1  0  0  0
 42154  1  0  0  0
 43155  1  0  0  0
 43156  1  0  0  0
 43157  1  0  0  0
 44158  1  0  0  0
 45159  1  0  0  0
 48160  1  0  0  0
 49161  1  0  0  0
 49162  1  0  0  0
 50163  1  0  0  0
 50164  1  0  0  0
 50165  1  0  0  0
 51166  1  0  0  0
 51167  1  0  0  0
 51168  1  0  0  0
 52169  1  0  0  0
 53170  1  0  0  0
 56171  1  0  0  0
 57172  1  0  0  0
 58173  1  0  0  0
 58174  1  0  0  0
 58175  1  0  0  0
 59176  1  0  0  0
 60177  1  0  0  0
 63178  1  0  0  0
 63179  1  0  0  0
 64180  1  0  0  0
 64181  1  0  0  0
 65182  1  0  0  0
 65183  1  0  0  0
 66184  1  0  0  0
 66185  1  0  0  0
 67186  1  0  0  0
 67187  1  0  0  0
 67188  1  0  0  0
 68189  1  0  0  0
 69190  1  0  0  0
 72191  1  0  0  0
 73192  1  0  0  0
 74193  1  0  0  0
 74194  1  0  0  0
 74195  1  0  0  0
 75196  1  0  0  0
 76197  1  0  0  0
 79198  1  0  0  0
 80199  1  0  0  0
 80200  1  0  0  0
 81201  1  0  0  0
 81202  1  0  0  0
 81203  1  0  0  0
 82204  1  0  0  0
 82205  1  0  0  0
 82206  1  0  0  0
 83207  1  0  0  0
 84208  1  0  0  0
 87209  1  0  0  0
 87210  1  0  0  0
 88211  1  0  0  0
 88212  1  0  0  0
 91213  1  0  0  0
 91214  1  0  0  0
 92215  1  0  0  0
 93216  1  0  0  0
 96217  1  0  0  0
 96218  1  0  0  0
 99219  1  0  0  0
 99220  1  0  0  0
100221  1  0  0  0
M  END
$$$$
