1jjt_ligand
  -I-interpret- 

 46 49  0  0  0  0  0  0  0  0999 V2000
   58.1260   24.9420   33.0130 C   0  0  0  0  0
   58.6070   26.1610   32.2540 C   0  0  0  0  0
   57.8030   26.9000   31.6360 O   0  0  0  0  0
   59.8480   26.3790   32.2340 O   0  0  0  0  0
   58.9370   23.7310   32.4450 C   0  0  0  0  0
   58.1780   23.0330   31.3310 C   0  0  0  0  0
   57.2590   22.0130   31.6750 C   0  0  0  0  0
   56.4800   21.3720   30.7130 C   0  0  0  0  0
   56.7650   21.6650   29.3740 C   0  0  0  0  0
   56.1730   21.1630   28.2860 O   0  0  0  0  0
   56.7150   21.8570   27.1600 C   0  0  0  0  0
   57.6100   22.8450   27.6980 O   0  0  0  0  0
   57.6250   22.7000   29.0310 C   0  0  0  0  0
   58.3630   23.4020   29.9850 C   0  0  0  0  0
   58.4540   25.0100   34.5340 C   0  0  0  0  0
   58.4420   26.4470   35.0360 C   0  0  0  0  0
   57.5670   27.2450   34.6300 O   0  0  0  0  0
   59.3060   26.8330   35.8760 O   0  0  0  0  0
   57.3350   24.1930   35.2490 C   0  0  0  0  0
   57.6160   24.0690   36.7340 C   0  0  0  0  0
   58.3830   22.9910   37.2010 C   0  0  0  0  0
   58.6700   22.8470   38.5690 C   0  0  0  0  0
   58.1480   23.7790   39.4550 C   0  0  0  0  0
   58.3240   23.8810   40.7770 O   0  0  0  0  0
   57.6010   25.0360   41.2320 C   0  0  0  0  0
   57.0740   25.6420   40.0380 O   0  0  0  0  0
   57.3590   24.8350   39.0030 C   0  0  0  0  0
   57.0780   24.9940   37.6570 C   0  0  0  0  0
   57.0449   24.8651   32.8970 H   0  0  0  0  0
   60.2972   25.7135   32.7603 H   0  0  0  0  0
   59.1046   23.0168   33.2512 H   0  0  0  0  0
   59.8795   24.1025   32.0429 H   0  0  0  0  0
   57.1577   21.7209   32.7202 H   0  0  0  0  0
   55.6876   20.6766   30.9898 H   0  0  0  0  0
   55.9278   22.3194   26.5644 H   0  0  0  0  0
   57.2368   21.1747   26.4890 H   0  0  0  0  0
   59.0506   24.1988   29.7013 H   0  0  0  0  0
   59.4482   24.6103   34.7339 H   0  0  0  0  0
   59.8984   26.1060   36.0811 H   0  0  0  0  0
   57.3007   23.1936   34.8153 H   0  0  0  0  0
   56.3850   24.7104   35.1152 H   0  0  0  0  0
   58.7618   22.2545   36.4923 H   0  0  0  0  0
   59.2879   22.0230   38.9258 H   0  0  0  0  0
   58.2436   25.7228   41.7829 H   0  0  0  0  0
   56.8090   24.7665   41.9308 H   0  0  0  0  0
   56.4525   25.8185   37.3149 H   0  0  0  0  0
  1 15  1  0  0  0
  5  1  1  0  0  0
  1  2  1  0  0  0
  2  4  1  0  0  0
  2  3  2  0  0  0
  6  5  1  0  0  0
  6 14  4  0  0  0
  7  6  4  0  0  0
  8  7  4  0  0  0
  9  8  4  0  0  0
  9 13  4  0  0  0
 10  9  1  0  0  0
 10 11  1  0  0  0
 11 12  1  0  0  0
 12 13  1  0  0  0
 13 14  4  0  0  0
 15 19  1  0  0  0
 15 16  1  0  0  0
 16 18  1  0  0  0
 16 17  2  0  0  0
 19 20  1  0  0  0
 20 28  4  0  0  0
 20 21  4  0  0  0
 21 22  4  0  0  0
 22 23  4  0  0  0
 23 27  4  0  0  0
 23 24  1  0  0  0
 24 25  1  0  0  0
 25 26  1  0  0  0
 26 27  1  0  0  0
 27 28  4  0  0  0
  1 29  1  0  0  0
  4 30  1  0  0  0
  5 31  1  0  0  0
  5 32  1  0  0  0
  7 33  1  0  0  0
  8 34  1  0  0  0
 11 35  1  0  0  0
 11 36  1  0  0  0
 14 37  1  0  0  0
 15 38  1  0  0  0
 18 39  1  0  0  0
 19 40  1  0  0  0
 19 41  1  0  0  0
 21 42  1  0  0  0
 22 43  1  0  0  0
 25 44  1  0  0  0
 25 45  1  0  0  0
 28 46  1  0  0  0
M  END
$$$$
