3bc4_ligand
  -I-interpret- 

 33 34  0  0  0  0  0  0  0  0999 V2000
    6.0100    6.0100    0.0000 N   0  3  0  0  0
    7.1890    7.9650   -0.5420 C   0  0  0  0  0
    5.7790    7.3850   -0.4520 C   0  0  0  0  0
    8.5560    7.7540   -4.1180 C   0  0  0  0  0
    8.0530    8.2520   -2.7680 C   0  0  0  0  0
   12.3980    9.2940   -2.6080 C   0  0  0  0  0
   11.2140   10.4630   -4.9830 C   0  0  0  0  0
    9.3020    8.8590   -4.8970 C   0  0  0  0  0
    9.4100   10.6120   -6.6840 C   0  0  0  0  0
    7.6930    7.4250   -1.7700 O   0  0  0  0  0
    8.7250    9.4870   -6.0140 C   0  0  0  0  0
   10.6360   11.0610   -6.2040 C   0  0  0  0  0
   10.5320    9.4430   -4.2820 C   0  0  0  0  0
   11.1810    8.8030   -3.1100 C   0  0  0  0  0
   13.0610   10.4180   -3.3060 C   0  0  0  0  0
   12.4960   10.9910   -4.4490 C   0  0  0  0  0
    7.9750    9.4520   -2.5810 O   0  0  0  0  0
    5.1153    5.5291    0.0929 H   0  0  0  0  0
    6.5904    5.5221   -0.6823 H   0  0  0  0  0
    6.4845    6.0253    0.9028 H   0  0  0  0  0
    7.8062    7.6997    0.3164 H   0  0  0  0  0
    7.1947    9.0549   -0.5305 H   0  0  0  0  0
    5.1357    7.9473    0.2248 H   0  0  0  0  0
    5.2442    7.4313   -1.4007 H   0  0  0  0  0
    7.6956    7.4403   -4.7090 H   0  0  0  0  0
    9.2495    6.9316   -3.9424 H   0  0  0  0  0
   12.8471    8.8536   -1.7178 H   0  0  0  0  0
    8.9556   11.0889   -7.5524 H   0  0  0  0  0
    7.7623    9.1407   -6.3900 H   0  0  0  0  0
   11.1699   11.8535   -6.7284 H   0  0  0  0  0
   10.7086    7.9436   -2.6342 H   0  0  0  0  0
   14.0050   10.8053   -2.9227 H   0  0  0  0  0
   12.9944   11.8227   -4.9470 H   0  0  0  0  0
  3  1  1  0  0  0
  2  3  1  0  0  0
 10  2  1  0  0  0
  4  5  1  0  0  0
  8  4  1  0  0  0
  5 10  1  0  0  0
  5 17  2  0  0  0
 14  6  4  0  0  0
  6 15  4  0  0  0
  7 12  4  0  0  0
 13  7  4  0  0  0
  7 16  4  0  0  0
  8 11  4  0  0  0
 13  8  4  0  0  0
 11  9  4  0  0  0
 12  9  4  0  0  0
 13 14  4  0  0  0
 15 16  4  0  0  0
  1 18  1  0  0  0
  1 19  1  0  0  0
  1 20  1  0  0  0
  2 21  1  0  0  0
  2 22  1  0  0  0
  3 23  1  0  0  0
  3 24  1  0  0  0
  4 25  1  0  0  0
  4 26  1  0  0  0
  6 27  1  0  0  0
  9 28  1  0  0  0
 11 29  1  0  0  0
 12 30  1  0  0  0
 14 31  1  0  0  0
 15 32  1  0  0  0
 16 33  1  0  0  0
M  END
$$$$
