4n07_ligand
  -I-interpret- 

 27 29  0  0  0  0  0  0  0  0999 V2000
    5.1010   -1.3990   43.5440 C   0  0  0  0  0
    6.0740   -2.3840   42.8900 C   0  0  0  0  0
    4.6010   -2.7790   43.1110 C   0  0  0  0  0
    3.5560   -3.0070   42.0460 N   0  0  0  0  0
    4.0160   -4.0210   41.0710 C   0  0  0  0  0
    3.5070   -3.7250   39.7030 N   0  0  0  0  0
    1.8630   -3.8130   39.6760 S   0  0  0  0  0
    1.4130   -5.2670   39.7860 O   0  0  0  0  0
    1.3320   -3.1550   38.4170 O   0  0  0  0  0
    1.3180   -2.9660   41.1100 C   0  0  0  0  0
    2.2450   -2.6600   42.1510 C   0  0  0  0  0
    1.7920   -1.9940   43.3040 C   0  0  0  0  0
    0.4450   -1.6380   43.4190 C   0  0  0  0  0
   -0.4540   -1.9520   42.3960 C   0  0  0  0  0
   -1.7590   -1.5970   42.5490 F   0  0  0  0  0
   -0.0490   -2.6310   41.2280 C   0  0  0  0  0
    4.8046   -0.3555   43.4370 H   0  0  0  0  0
    5.0609   -0.7584   44.4250 H   0  0  0  0  0
    7.0681   -2.7942   43.0679 H   0  0  0  0  0
    6.8145   -2.3956   42.0902 H   0  0  0  0  0
    4.1050   -3.6251   43.5866 H   0  0  0  0  0
    3.6376   -4.9957   41.3790 H   0  0  0  0  0
    5.1057   -4.0097   41.0461 H   0  0  0  0  0
    4.0925   -3.5001   38.8986 H   0  0  0  0  0
    2.4900   -1.7558   44.1066 H   0  0  0  0  0
    0.0951   -1.1143   44.3086 H   0  0  0  0  0
   -0.7638   -2.8875   40.4461 H   0  0  0  0  0
  1  2  1  0  0  0
  1  3  1  0  0  0
  2  3  1  0  0  0
  3  4  1  0  0  0
  4  5  1  0  0  0
  4 11  1  0  0  0
  5  6  1  0  0  0
  6  7  1  0  0  0
  7  8  2  0  0  0
  7  9  2  0  0  0
  7 10  1  0  0  0
 10 11  4  0  0  0
 10 16  4  0  0  0
 11 12  4  0  0  0
 12 13  4  0  0  0
 13 14  4  0  0  0
 14 15  1  0  0  0
 14 16  4  0  0  0
  1 17  1  0  0  0
  1 18  1  0  0  0
  2 19  1  0  0  0
  2 20  1  0  0  0
  3 21  1  0  0  0
  5 22  1  0  0  0
  5 23  1  0  0  0
  6 24  1  0  0  0
 12 25  1  0  0  0
 13 26  1  0  0  0
 16 27  1  0  0  0
M  END
$$$$
