4c0r_ligand
  -I-interpret- 

 61 60  0  0  0  0  0  0  0  0999 V2000
    8.7040   -8.8810   21.4750 C   0  0  0  0  0
    7.4860   -9.4780   22.0390 N   0  3  0  0  0
    6.3160   -8.6860   21.9210 C   0  0  0  0  0
    5.5220   -8.7470   20.6640 C   0  0  0  0  0
    4.7740   -7.8020   20.3360 O   0  0  0  0  0
    5.8230   -7.7570   22.9630 C   0  0  0  0  0
    6.7310   -7.8610   24.4900 S   0  0  0  0  0
    5.6550   -9.9350   19.8470 N   0  0  0  0  0
    4.9680  -10.0050   18.5580 C   0  0  0  0  0
    6.0900   -9.7960   17.5440 C   0  0  0  0  0
    6.0980  -10.4240   16.4390 O   0  0  0  0  0
    7.0540   -9.0070   17.7660 O   0  0  0  0  0
    5.6520   -7.4850   27.5260 N   0  0  0  0  0
    5.1540   -8.8330   27.6640 C   0  0  0  0  0
    6.1450   -9.6800   28.3830 C   0  0  0  0  0
    7.0340   -9.1690   29.1310 O   0  0  0  0  0
    6.0170  -10.9300   28.2620 O   0  0  0  0  0
    4.8740   -6.5430   26.7840 C   0  0  0  0  0
    3.7870   -6.8780   26.3160 O   0  0  0  0  0
    5.5330   -5.2520   26.5910 C   0  0  0  0  0
    6.3160   -4.7230   27.6300 N   0  0  0  0  0
    5.9860   -5.0080   25.1890 C   0  0  0  0  0
    7.4660   -6.0060   24.8680 S   0  0  0  0  0
    7.5140   -4.0580   32.1500 C   0  0  0  0  0
    8.8260   -3.3980   31.7570 C   0  0  0  0  0
    9.7590   -4.1250   31.3190 O   0  0  0  0  0
    8.9760   -2.1560   31.8490 O   0  0  0  0  0
    6.6980   -3.0400   32.8380 N   0  3  0  0  0
    6.8200   -4.6270   30.9660 C   0  0  0  0  0
    6.8710   -3.6120   29.8020 C   0  0  0  0  0
    5.8570   -4.0720   28.7760 C   0  0  0  0  0
    4.6320   -3.8970   28.8480 O   0  0  0  0  0
    8.5580   -8.6980   20.4104 H   0  0  0  0  0
    8.9134   -7.9389   21.9816 H   0  0  0  0  0
    9.5411   -9.5647   21.6160 H   0  0  0  0  0
    7.6559   -9.6031   23.0369 H   0  0  0  0  0
    7.3122  -10.3372   21.5176 H   0  0  0  0  0
    6.9071   -9.0844   22.7456 H   0  0  0  0  0
    4.7880   -8.0234   23.1775 H   0  0  0  0  0
    5.9388   -6.7430   22.5804 H   0  0  0  0  0
    6.2242  -10.7180   20.1685 H   0  0  0  0  0
    4.1772   -9.2606   18.4652 H   0  0  0  0  0
    4.4457  -10.9508   18.4139 H   0  0  0  0  0
    5.3220  -10.9868   16.3864 H   0  0  0  0  0
    6.5390   -7.2110   27.9485 H   0  0  0  0  0
    4.9817   -9.2515   26.6724 H   0  0  0  0  0
    4.2248   -8.8121   28.2334 H   0  0  0  0  0
    6.9729   -8.2118   29.0908 H   0  0  0  0  0
    4.7032   -4.5584   26.7265 H   0  0  0  0  0
    7.3266   -4.8254   27.5373 H   0  0  0  0  0
    6.2179   -3.9514   25.0552 H   0  0  0  0  0
    5.1953   -5.2867   24.4924 H   0  0  0  0  0
    7.6927   -4.8999   32.8189 H   0  0  0  0  0
    9.4745   -5.0419   31.3165 H   0  0  0  0  0
    5.8071   -3.4513   33.1163 H   0  0  0  0  0
    7.1948   -2.7101   33.6655 H   0  0  0  0  0
    6.5298   -2.2570   32.2063 H   0  0  0  0  0
    5.7809   -4.8367   31.2199 H   0  0  0  0  0
    7.3139   -5.5507   30.6645 H   0  0  0  0  0
    7.8699   -3.5699   29.3679 H   0  0  0  0  0
    6.6380   -2.6069   30.1536 H   0  0  0  0  0
  2  1  1  0  0  0
  3  2  1  0  0  0
  3  4  1  0  0  0
  6  3  1  0  0  0
  4  5  2  0  0  0
  4  8  1  0  0  0
  7  6  1  0  0  0
 23  7  1  0  0  0
  8  9  1  0  0  0
  9 10  1  0  0  0
 10 11  1  0  0  0
 10 12  2  0  0  0
 13 14  1  0  0  0
 18 13  1  0  0  0
 14 15  1  0  0  0
 15 16  1  0  0  0
 15 17  2  0  0  0
 18 19  2  0  0  0
 20 18  1  0  0  0
 21 20  1  0  0  0
 20 22  1  0  0  0
 31 21  1  0  0  0
 22 23  1  0  0  0
 24 25  1  0  0  0
 24 28  1  0  0  0
 29 24  1  0  0  0
 25 26  1  0  0  0
 25 27  2  0  0  0
 30 29  1  0  0  0
 30 31  1  0  0  0
 31 32  2  0  0  0
  1 33  1  0  0  0
  1 34  1  0  0  0
  1 35  1  0  0  0
  2 36  1  0  0  0
  2 37  1  0  0  0
  3 38  1  0  0  0
  6 39  1  0  0  0
  6 40  1  0  0  0
  8 41  1  0  0  0
  9 42  1  0  0  0
  9 43  1  0  0  0
 11 44  1  0  0  0
 13 45  1  0  0  0
 14 46  1  0  0  0
 14 47  1  0  0  0
 16 48  1  0  0  0
 20 49  1  0  0  0
 21 50  1  0  0  0
 22 51  1  0  0  0
 22 52  1  0  0  0
 24 53  1  0  0  0
 26 54  1  0  0  0
 28 55  1  0  0  0
 28 56  1  0  0  0
 28 57  1  0  0  0
 29 58  1  0  0  0
 29 59  1  0  0  0
 30 60  1  0  0  0
 30 61  1  0  0  0
M  END
$$$$
