2v59_ligand
  -I-interpret- 

 37 39  0  0  0  0  0  0  0  0999 V2000
    1.7550  -27.6250   24.7720 N   0  0  0  0  0
    2.0570  -26.3060   24.8230 C   0  0  0  0  0
    3.1760  -25.8710   24.2040 N   0  0  0  0  0
    1.2530  -25.4350   25.4900 N   0  0  0  0  0
    1.5510  -24.1250   25.5510 C   0  0  0  0  0
    2.7020  -23.6590   24.9180 C   0  0  0  0  0
    3.5160  -24.5660   24.2400 C   0  0  0  0  0
    4.6420  -24.1490   23.6170 N   0  0  0  0  0
    5.0080  -22.8470   23.6290 C   0  0  0  0  0
    6.1470  -22.4920   22.9830 N   0  0  0  0  0
    3.0590  -22.3150   24.9540 C   0  0  0  0  0
    4.2270  -21.9060   24.3030 C   0  0  0  0  0
    4.6160  -20.4660   24.3160 C   0  0  0  0  0
    5.8060  -20.0590   24.9190 C   0  0  0  0  0
    6.6120  -20.9990   25.5160 O   0  0  0  0  0
    8.0100  -20.7950   25.6930 C   0  0  0  0  0
    3.7760  -19.5320   23.7100 C   0  0  0  0  0
    2.6070  -19.9620   23.1190 O   0  0  0  0  0
    1.5660  -19.0770   22.6980 C   0  0  0  0  0
    4.1330  -18.1790   23.7180 C   0  0  0  0  0
    5.3220  -17.7690   24.3230 C   0  0  0  0  0
    6.1600  -18.7060   24.9250 C   0  0  0  0  0
    2.3679  -28.2696   24.2727 H   0  0  0  0  0
    0.9146  -27.9740   25.2328 H   0  0  0  0  0
    0.9001  -23.4359   26.0891 H   0  0  0  0  0
    6.7037  -23.2001   22.5043 H   0  0  0  0  0
    6.4466  -21.5170   22.9760 H   0  0  0  0  0
    2.4376  -21.5915   25.4818 H   0  0  0  0  0
    8.4812  -20.6535   24.7204 H   0  0  0  0  0
    8.1717  -19.9102   26.3087 H   0  0  0  0  0
    8.4435  -21.6657   26.1850 H   0  0  0  0  0
    1.1967  -18.5176   23.5575 H   0  0  0  0  0
    1.9586  -18.3844   21.9535 H   0  0  0  0  0
    0.7518  -19.6567   22.2631 H   0  0  0  0  0
    3.4799  -17.4424   23.2499 H   0  0  0  0  0
    5.5958  -16.7139   24.3247 H   0  0  0  0  0
    7.0879  -18.3855   25.3987 H   0  0  0  0  0
  1  2  1  0  0  0
  2  3  4  0  0  0
  2  4  4  0  0  0
  3  7  4  0  0  0
  4  5  4  0  0  0
  5  6  4  0  0  0
  6  7  4  0  0  0
  6 11  4  0  0  0
  7  8  4  0  0  0
  8  9  4  0  0  0
  9 10  1  0  0  0
  9 12  4  0  0  0
 11 12  4  0  0  0
 12 13  1  0  0  0
 13 14  4  0  0  0
 13 17  4  0  0  0
 14 15  1  0  0  0
 14 22  4  0  0  0
 15 16  1  0  0  0
 17 18  1  0  0  0
 17 20  4  0  0  0
 18 19  1  0  0  0
 20 21  4  0  0  0
 21 22  4  0  0  0
  1 23  1  0  0  0
  1 24  1  0  0  0
  5 25  1  0  0  0
 10 26  1  0  0  0
 10 27  1  0  0  0
 11 28  1  0  0  0
 16 29  1  0  0  0
 16 30  1  0  0  0
 16 31  1  0  0  0
 19 32  1  0  0  0
 19 33  1  0  0  0
 19 34  1  0  0  0
 20 35  1  0  0  0
 21 36  1  0  0  0
 22 37  1  0  0  0
M  END
$$$$
