3gfw_ligand
  -I-interpret- 

 70 74  0  0  0  0  0  0  0  0999 V2000
   -2.2920   12.3510   48.5210 C   0  0  0  0  0
   -1.7470   10.9210   48.7510 C   0  0  0  0  0
   -2.2850    9.8800   47.7480 C   0  0  0  0  0
   -3.3550    9.1490   48.3800 O   0  0  0  0  0
   -2.8100   10.5380   46.4520 C   0  0  0  0  0
   -2.0170   11.7920   46.0290 C   0  0  0  0  0
   -1.9310   12.7640   47.1450 N   0  0  0  0  0
   -1.5270   14.0580   46.8590 C   0  0  0  0  0
   -1.2660   14.9650   47.8760 C   0  0  0  0  0
   -0.8830   16.2600   47.5310 C   0  0  0  0  0
   -0.6070   17.1720   48.5150 O   0  0  0  0  0
   -0.8830   16.6860   49.8340 C   0  0  0  0  0
   -1.4290   14.4230   45.5220 C   0  0  0  0  0
   -1.0380   15.7020   45.1860 C   0  0  0  0  0
   -0.7550   16.6380   46.1770 C   0  0  0  0  0
   -0.3750   17.9060   45.8540 N   0  0  0  0  0
    0.3840   18.2870   44.7890 C   0  0  0  0  0
    1.0180   17.3950   43.9300 C   0  0  0  0  0
    0.5310   19.6160   44.5660 N   0  0  0  0  0
    1.2550   20.1030   43.5440 C   0  0  0  0  0
    1.5050   21.3390   43.1390 N   0  0  0  0  0
    2.2970   21.2540   42.0620 C   0  0  0  0  0
    2.5320   19.9740   41.7580 C   0  0  0  0  0
    1.9060   19.2380   42.6680 C   0  0  0  0  0
    1.7950   17.8710   42.8650 C   0  0  0  0  0
    2.4120   17.0480   41.9940 N   0  0  0  0  0
    2.6550   15.7530   42.2470 C   0  0  0  0  0
    3.0110   15.3760   43.5330 C   0  0  0  0  0
    3.2650   14.0330   43.8010 C   0  0  0  0  0
    3.1950   13.0580   42.8040 C   0  0  0  0  0
    2.8580   13.4320   41.5160 C   0  0  0  0  0
    2.5900   14.7760   41.2410 C   0  0  0  0  0
    2.1300   15.1350   39.5930 S   0  0  0  0  0
    2.7300   14.0920   38.7050 O   0  0  0  0  0
    2.5300   16.5440   39.2420 O   0  0  0  0  0
    0.3420   14.9390   39.4500 C   0  0  0  0  0
   -0.0420   13.4670   39.6300 C   0  0  0  0  0
   -0.2900   15.7990   40.5060 C   0  0  0  0  0
   -1.8588   13.0398   49.2463 H   0  0  0  0  0
   -3.3747   12.3655   48.6462 H   0  0  0  0  0
   -2.0651   10.6083   49.7455 H   0  0  0  0  0
   -0.6648   10.9621   48.6272 H   0  0  0  0  0
   -1.4662    9.2169   47.4688 H   0  0  0  0  0
   -3.0296    8.7399   49.1852 H   0  0  0  0  0
   -3.8380   10.8493   46.6375 H   0  0  0  0  0
   -2.7125    9.8049   45.6513 H   0  0  0  0  0
   -2.5290   12.2646   45.1908 H   0  0  0  0  0
   -1.0080   11.4906   45.7478 H   0  0  0  0  0
   -1.3584   14.6713   48.9216 H   0  0  0  0  0
   -1.9395   16.4291   49.9115 H   0  0  0  0  0
   -0.2774   15.8007   50.0278 H   0  0  0  0  0
   -0.6415   17.4597   50.5628 H   0  0  0  0  0
   -1.6607   13.6997   44.7401 H   0  0  0  0  0
   -0.9498   15.9823   44.1364 H   0  0  0  0  0
   -0.6928   18.6492   46.4761 H   0  0  0  0  0
    0.9100   16.3216   44.0858 H   0  0  0  0  0
    2.6934   22.1074   41.5119 H   0  0  0  0  0
    3.1252   19.6046   40.9215 H   0  0  0  0  0
    2.7096   17.4294   41.0960 H   0  0  0  0  0
    3.0911   16.1213   44.3243 H   0  0  0  0  0
    3.5255   13.7351   44.8166 H   0  0  0  0  0
    3.4036   12.0141   43.0382 H   0  0  0  0  0
    2.8019   12.6861   40.7231 H   0  0  0  0  0
   -0.0077   15.2451   38.4641 H   0  0  0  0  0
    0.4468   12.8687   38.8611 H   0  0  0  0  0
    0.2782   13.1271   40.6149 H   0  0  0  0  0
   -1.1233   13.3615   39.5416 H   0  0  0  0  0
    0.0525   15.4758   41.4890 H   0  0  0  0  0
   -0.0053   16.8387   40.3444 H   0  0  0  0  0
   -1.3744   15.7047   40.4485 H   0  0  0  0  0
  1  2  1  0  0  0
  1  7  1  0  0  0
  2  3  1  0  0  0
  3  4  1  0  0  0
  3  5  1  0  0  0
  5  6  1  0  0  0
  6  7  1  0  0  0
  7  8  1  0  0  0
  8  9  4  0  0  0
  8 13  4  0  0  0
  9 10  4  0  0  0
 10 11  1  0  0  0
 10 15  4  0  0  0
 11 12  1  0  0  0
 13 14  4  0  0  0
 14 15  4  0  0  0
 15 16  1  0  0  0
 16 17  1  0  0  0
 17 18  4  0  0  0
 17 19  4  0  0  0
 18 25  4  0  0  0
 19 20  4  0  0  0
 20 21  4  0  0  0
 20 24  4  0  0  0
 21 22  4  0  0  0
 22 23  4  0  0  0
 23 24  4  0  0  0
 24 25  4  0  0  0
 25 26  1  0  0  0
 26 27  1  0  0  0
 27 28  4  0  0  0
 27 32  4  0  0  0
 28 29  4  0  0  0
 29 30  4  0  0  0
 30 31  4  0  0  0
 31 32  4  0  0  0
 32 33  1  0  0  0
 33 34  2  0  0  0
 33 35  2  0  0  0
 33 36  1  0  0  0
 36 37  1  0  0  0
 36 38  1  0  0  0
  1 39  1  0  0  0
  1 40  1  0  0  0
  2 41  1  0  0  0
  2 42  1  0  0  0
  3 43  1  0  0  0
  4 44  1  0  0  0
  5 45  1  0  0  0
  5 46  1  0  0  0
  6 47  1  0  0  0
  6 48  1  0  0  0
  9 49  1  0  0  0
 12 50  1  0  0  0
 12 51  1  0  0  0
 12 52  1  0  0  0
 13 53  1  0  0  0
 14 54  1  0  0  0
 16 55  1  0  0  0
 18 56  1  0  0  0
 22 57  1  0  0  0
 23 58  1  0  0  0
 26 59  1  0  0  0
 28 60  1  0  0  0
 29 61  1  0  0  0
 30 62  1  0  0  0
 31 63  1  0  0  0
 36 64  1  0  0  0
 37 65  1  0  0  0
 37 66  1  0  0  0
 37 67  1  0  0  0
 38 68  1  0  0  0
 38 69  1  0  0  0
 38 70  1  0  0  0
M  END
$$$$
