### 
### Created by X-TOOL on Mon Sep 10 21:12:48 2018
### 

@<TRIPOS>MOLECULE
1gvu_ligand
  115   117     1     0     0
SMALL
GAST_HUCK


@<TRIPOS>ATOM
      1 N           2.9550  269.4180   21.9130 N.4       1 PRO         0.2461
      2 CA          3.2060  269.6060   20.4750 C.3       1 PRO         0.0670
      3 C           3.5000  271.0690   20.1950 C.2       1 PRO         0.2269
      4 O           3.0680  271.9710   20.9290 O.2       1 PRO        -0.3907
      5 CB          1.9100  269.1680   19.7870 C.3       1 PRO         0.0127
      6 CG          1.4050  268.1300   20.7430 C.3       1 PRO        -0.0053
      7 CD          1.7320  268.6160   22.1290 C.3       1 PRO        -0.0313
      8 N           4.2110  271.3260   19.1000 N.am      1 PHE        -0.2592
      9 CA          4.6040  272.6380   18.6570 C.3       1 PHE         0.1406
     10 C           3.7540  273.1190   17.4350 C.2       1 PHE         0.2061
     11 O           3.3230  272.2740   16.5850 O.2       1 PHE        -0.3942
     12 CB          6.0740  272.6080   18.1890 C.3       1 PHE         0.0214
     13 CG          7.0900  272.4540   19.3280 C.ar      1 PHE        -0.0386
     14 CD1         7.9460  273.5010   19.6350 C.ar      1 PHE        -0.0601
     15 CD2         7.2750  271.3180   20.1010 C.ar      1 PHE        -0.0601
     16 CE1         8.8650  273.4300   20.6440 C.ar      1 PHE        -0.0686
     17 CE2         8.2150  271.2450   21.1090 C.ar      1 PHE        -0.0686
     18 CZ          9.0290  272.2880   21.3890 C.ar      1 PHE        -0.0687
     19 N           3.5940  274.4570   17.3290 N.am      1 HIS        -0.2617
     20 CA          2.9420  275.0650   16.1490 C.3       1 HIS         0.1420
     21 C           3.5460  276.4450   15.9480 C.2       1 HIS         0.2041
     22 O           3.2080  277.4170   16.6290 O.2       1 HIS        -0.3943
     23 CB          1.4450  275.1380   16.3800 C.3       1 HIS         0.0427
     24 CG          0.6580  275.7640   15.2900 C.2       1 HIS         0.0561
     25 ND1        -0.6350  276.2980   15.5230 N.pl3     1 HIS        -0.2623
     26 CD2         0.9620  276.0310   14.0150 C.2       1 HIS        -0.0276
     27 CE1        -1.0580  276.8520   14.4170 C.2       1 HIS         0.0875
     28 NE2        -0.1240  276.6820   13.4880 N.2       1 HIS        -0.3437
     29 N           4.4570  276.5230   14.9690 N.am      1 STA        -0.2792
     30 CA          5.3320  277.6930   14.7580 C.3       1 STA         0.0703
     31 CB          6.7730  277.3440   15.2010 C.3       1 STA        -0.0250
     32 CG          7.0140  276.8210   16.6390 C.3       1 STA        -0.0446
     33 CD1         8.4570  276.3450   16.8090 C.3       1 STA        -0.0626
     34 CD2         6.6850  277.8720   17.7020 C.3       1 STA        -0.0626
     35 CH          5.2630  278.1460   13.2880 C.3       1 STA         0.0947
     36 OH          5.6100  276.9900   12.4140 O.3       1 STA        -0.3872
     37 CM          3.9190  278.6940   12.7850 C.3       1 STA         0.0655
     38 C           3.6080  280.0890   13.3180 C.2       1 STA         0.1808
     39 O           2.9850  280.2590   14.3690 O.2       1 STA        -0.3968
     40 N           4.0720  281.1410   12.5960 N.am      1 VAL        -0.2653
     41 CA          3.8570  282.5410   13.0620 C.3       1 VAL         0.1331
     42 C           2.3810  282.9190   12.8720 C.2       1 VAL         0.2036
     43 O           1.7350  282.5630   11.8760 O.2       1 VAL        -0.3944
     44 CB          4.7680  283.5350   12.3100 C.3       1 VAL        -0.0063
     45 CG1         4.4480  283.6190   10.8120 C.3       1 VAL        -0.0584
     46 CG2         4.7460  284.9400   12.9260 C.3       1 VAL        -0.0584
     47 N           1.9210  283.7460   13.8000 N.am      1 ILE        -0.2692
     48 CA          0.6760  284.4830   13.6750 C.3       1 ILE         0.0969
     49 C           0.9490  285.8490   13.0470 C.2       1 ILE         0.0604
     50 O           1.6340  286.7020   13.5940 O.co2     1 ILE        -0.5666
     51 CB          0.0460  284.6940   15.0510 C.3       1 ILE        -0.0092
     52 CG1        -0.2010  283.4450   15.9120 C.3       1 ILE        -0.0497
     53 CG2        -1.2560  285.4920   14.8890 C.3       1 ILE        -0.0588
     54 CD1        -0.4930  283.8310   17.3720 C.3       1 ILE        -0.0649
     55 O1          0.4482  286.1071   11.9200 O.co2     1 ILE        -0.5666
     56 H1          2.8411  270.3193   22.3497 H         1 PRO         0.2035
     57 H2          3.7408  268.9411   22.3266 H         1 PRO         0.2035
     58 H3          4.0513  268.9870   20.1399 H         1 PRO         0.1099
     59 H4          2.1069  268.7385   18.7937 H         1 PRO         0.0347
     60 H5          1.2026  270.0048   19.6910 H         1 PRO         0.0347
     61 H6          1.9017  267.1671   20.5529 H         1 PRO         0.0320
     62 H7          0.3173  268.0100   20.6311 H         1 PRO         0.0320
     63 H8          1.9254  267.7735   22.8093 H         1 PRO         0.0814
     64 H9          0.9183  269.2353   22.5343 H         1 PRO         0.0814
     65 H10         4.4945  270.5467   18.5411 H         1 PHE         0.1886
     66 H11         4.4875  273.3473   19.4896 H         1 PHE         0.0823
     67 H12         6.2876  273.5486   17.6602 H         1 PHE         0.0474
     68 H13         6.1993  271.7619   17.4974 H         1 PHE         0.0474
     69 H14         7.8837  274.4123   19.0512 H         1 PHE         0.0557
     70 H15         6.6552  270.4505   19.9054 H         1 PHE         0.0557
     71 H16         9.4794  274.2961   20.8616 H         1 PHE         0.0599
     72 H17         8.3026  270.3329   21.6881 H         1 PHE         0.0599
     73 H18         9.7794  272.2253   22.1687 H         1 PHE         0.0559
     74 H19         3.9237  275.0487   18.0646 H         1 HIS         0.1885
     75 H20         3.1366  274.4494   15.2584 H         1 HIS         0.0824
     76 H21         1.2722  275.7183   17.2984 H         1 HIS         0.0491
     77 H22         1.0736  274.1120   16.5192 H         1 HIS         0.0491
     78 H23        -1.1528  276.2564   16.4124 H         1 HIS         0.2386
     79 H24         1.8875  275.7812   13.4983 H         1 HIS         0.0324
     80 H25        -2.0098  277.3635   14.2811 H         1 HIS         0.1149
     81 H26         4.5494  275.7457   14.3467 H         1 STA         0.1856
     82 H27         4.9708  278.5202   15.3867 H         1 STA         0.0583
     83 H28         7.3751  278.2573   15.0858 H         1 STA         0.0291
     84 H29         7.1433  276.5712   14.5114 H         1 STA         0.0291
     85 H30         6.3478  275.9602   16.7976 H         1 STA         0.0296
     86 H31         8.6038  275.9789   17.8359 H         1 STA         0.0232
     87 H32         9.1443  277.1819   16.6164 H         1 STA         0.0232
     88 H33         8.6611  275.5316   16.0972 H         1 STA         0.0232
     89 H34         5.6461  278.2101   17.5741 H         1 STA         0.0232
     90 H35         7.3655  278.7293   17.5930 H         1 STA         0.0232
     91 H36         6.8068  277.4320   18.7028 H         1 STA         0.0232
     92 H37         6.0144  278.9386   13.1567 H         1 STA         0.0642
     93 H38         6.4395  276.6207   12.6937 H         1 STA         0.2101
     94 H39         3.1194  278.0099   13.1053 H         1 STA         0.0529
     95 H40         3.9468  278.7366   11.6862 H         1 STA         0.0529
     96 H41         4.5639  280.9749   11.7413 H         1 VAL         0.1883
     97 H42         4.0998  282.5932   14.1336 H         1 VAL         0.0802
     98 H43         5.7957  283.1539   12.4030 H         1 VAL         0.0343
     99 H44         5.1265  284.3396   10.3320 H         1 VAL         0.0234
    100 H45         3.4075  283.9493   10.6773 H         1 VAL         0.0234
    101 H46         4.5807  282.6284   10.3526 H         1 VAL         0.0234
    102 H47         4.9760  284.8733   13.9996 H         1 VAL         0.0234
    103 H48         3.7485  285.3837   12.7917 H         1 VAL         0.0234
    104 H49         5.4977  285.5703   12.4285 H         1 VAL         0.0234
    105 H50         2.4612  283.8693   14.6324 H         1 ILE         0.1875
    106 H51        -0.0185  283.9164   13.0373 H         1 ILE         0.0729
    107 H52         0.7511  285.3188   15.6189 H         1 ILE         0.0338
    108 H53         0.6926  282.8043   15.8812 H         1 ILE         0.0267
    109 H54        -1.0620  282.8932   15.5068 H         1 ILE         0.0267
    110 H55        -1.0659  286.3823   14.2716 H         1 ILE         0.0234
    111 H56        -1.6208  285.8034   15.8789 H         1 ILE         0.0234
    112 H57        -2.0139  284.8620   14.4004 H         1 ILE         0.0234
    113 H58        -0.6656  282.9204   17.9645 H         1 ILE         0.0230
    114 H59        -1.3884  284.4687   17.4106 H         1 ILE         0.0230
    115 H60         0.3662  284.3798   17.7851 H         1 ILE         0.0230
@<TRIPOS>BOND
     1    2    1 1  
     2    2    5 1  
     3    3    2 1  
     4    3    4 2  
     5    5    6 1  
     6    6    7 1  
     7    1    7 1  
     8   10    9 1  
     9    9   12 1  
    10    9    8 1  
    11   12   13 1  
    12   13   15 ar 
    13   13   14 ar 
    14   14   16 ar 
    15   16   18 ar 
    16   17   18 ar 
    17   15   17 ar 
    18   10   11 2  
    19   21   20 1  
    20   20   23 1  
    21   20   19 1  
    22   23   24 1  
    23   24   26 2  
    24   24   25 1  
    25   25   27 1  
    26   27   28 2  
    27   26   28 1  
    28   21   22 2  
    29   30   29 1  
    30   35   30 1  
    31   30   31 1  
    32   31   32 1  
    33   32   34 1  
    34   32   33 1  
    35   37   35 1  
    36   35   36 1  
    37   38   37 1  
    38   38   39 2  
    39   41   42 1  
    40   41   44 1  
    41   40   41 1  
    42   44   45 1  
    43   44   46 1  
    44   42   43 2  
    45   48   49 1  
    46   48   51 1  
    47   47   48 1  
    48   51   52 1  
    49   51   53 1  
    50   52   54 1  
    51   49   50 ar 
    52    8    3 am 
    53   19   10 am 
    54   42   47 am 
    55   29   21 am 
    56   38   40 am 
    57   49   55 ar 
    58    1   56 1  
    59    1   57 1  
    60    2   58 1  
    61    5   59 1  
    62    5   60 1  
    63    6   61 1  
    64    6   62 1  
    65    7   63 1  
    66    7   64 1  
    67    8   65 1  
    68    9   66 1  
    69   12   67 1  
    70   12   68 1  
    71   14   69 1  
    72   15   70 1  
    73   16   71 1  
    74   17   72 1  
    75   18   73 1  
    76   19   74 1  
    77   20   75 1  
    78   23   76 1  
    79   23   77 1  
    80   25   78 1  
    81   26   79 1  
    82   27   80 1  
    83   29   81 1  
    84   30   82 1  
    85   31   83 1  
    86   31   84 1  
    87   32   85 1  
    88   33   86 1  
    89   33   87 1  
    90   33   88 1  
    91   34   89 1  
    92   34   90 1  
    93   34   91 1  
    94   35   92 1  
    95   36   93 1  
    96   37   94 1  
    97   37   95 1  
    98   40   96 1  
    99   41   97 1  
   100   44   98 1  
   101   45   99 1  
   102   45  100 1  
   103   45  101 1  
   104   46  102 1  
   105   46  103 1  
   106   46  104 1  
   107   47  105 1  
   108   48  106 1  
   109   51  107 1  
   110   52  108 1  
   111   52  109 1  
   112   53  110 1  
   113   53  111 1  
   114   53  112 1  
   115   54  113 1  
   116   54  114 1  
   117   54  115 1  
@<TRIPOS>SUBSTRUCTURE
     1 PRO         1

