1gvu_ligand
  -I-interpret- 

115117  0  0  0  0  0  0  0  0999 V2000
    2.9550  269.4180   21.9130 N   0  3  0  0  0
    3.2060  269.6060   20.4750 C   0  0  0  0  0
    3.5000  271.0690   20.1950 C   0  0  0  0  0
    3.0680  271.9710   20.9290 O   0  0  0  0  0
    1.9100  269.1680   19.7870 C   0  0  0  0  0
    1.4050  268.1300   20.7430 C   0  0  0  0  0
    1.7320  268.6160   22.1290 C   0  0  0  0  0
    4.2110  271.3260   19.1000 N   0  0  0  0  0
    4.6040  272.6380   18.6570 C   0  0  0  0  0
    3.7540  273.1190   17.4350 C   0  0  0  0  0
    3.3230  272.2740   16.5850 O   0  0  0  0  0
    6.0740  272.6080   18.1890 C   0  0  0  0  0
    7.0900  272.4540   19.3280 C   0  0  0  0  0
    7.9460  273.5010   19.6350 C   0  0  0  0  0
    7.2750  271.3180   20.1010 C   0  0  0  0  0
    8.8650  273.4300   20.6440 C   0  0  0  0  0
    8.2150  271.2450   21.1090 C   0  0  0  0  0
    9.0290  272.2880   21.3890 C   0  0  0  0  0
    3.5940  274.4570   17.3290 N   0  0  0  0  0
    2.9420  275.0650   16.1490 C   0  0  0  0  0
    3.5460  276.4450   15.9480 C   0  0  0  0  0
    3.2080  277.4170   16.6290 O   0  0  0  0  0
    1.4450  275.1380   16.3800 C   0  0  0  0  0
    0.6580  275.7640   15.2900 C   0  0  0  0  0
   -0.6350  276.2980   15.5230 N   0  0  0  0  0
    0.9620  276.0310   14.0150 C   0  0  0  0  0
   -1.0580  276.8520   14.4170 C   0  0  0  0  0
   -0.1240  276.6820   13.4880 N   0  0  0  0  0
    4.4570  276.5230   14.9690 N   0  0  0  0  0
    5.3320  277.6930   14.7580 C   0  0  0  0  0
    6.7730  277.3440   15.2010 C   0  0  0  0  0
    7.0140  276.8210   16.6390 C   0  0  0  0  0
    8.4570  276.3450   16.8090 C   0  0  0  0  0
    6.6850  277.8720   17.7020 C   0  0  0  0  0
    5.2630  278.1460   13.2880 C   0  0  0  0  0
    5.6100  276.9900   12.4140 O   0  0  0  0  0
    3.9190  278.6940   12.7850 C   0  0  0  0  0
    3.6080  280.0890   13.3180 C   0  0  0  0  0
    2.9850  280.2590   14.3690 O   0  0  0  0  0
    4.0720  281.1410   12.5960 N   0  0  0  0  0
    3.8570  282.5410   13.0620 C   0  0  0  0  0
    2.3810  282.9190   12.8720 C   0  0  0  0  0
    1.7350  282.5630   11.8760 O   0  0  0  0  0
    4.7680  283.5350   12.3100 C   0  0  0  0  0
    4.4480  283.6190   10.8120 C   0  0  0  0  0
    4.7460  284.9400   12.9260 C   0  0  0  0  0
    1.9210  283.7460   13.8000 N   0  0  0  0  0
    0.6760  284.4830   13.6750 C   0  0  0  0  0
    0.9490  285.8490   13.0470 C   0  0  0  0  0
    1.6340  286.7020   13.5940 O   0  0  0  0  0
    0.0460  284.6940   15.0510 C   0  0  0  0  0
   -0.2010  283.4450   15.9120 C   0  0  0  0  0
   -1.2560  285.4920   14.8890 C   0  0  0  0  0
   -0.4930  283.8310   17.3720 C   0  0  0  0  0
    0.4482  286.1071   11.9200 O   0  0  0  0  0
    2.8314  270.3320   22.3486 H   0  0  0  0  0
    3.7485  268.9271   22.3250 H   0  0  0  0  0
    4.0624  269.0341   20.1179 H   0  0  0  0  0
    2.0568  268.7951   18.7733 H   0  0  0  0  0
    1.2079  269.9840   19.6157 H   0  0  0  0  0
    1.8752  267.1657   20.5505 H   0  0  0  0  0
    0.3306  267.9874   20.6268 H   0  0  0  0  0
    1.8770  267.8035   22.8410 H   0  0  0  0  0
    0.9222  269.1893   22.5803 H   0  0  0  0  0
    4.5002  270.5311   18.5299 H   0  0  0  0  0
    4.4562  273.3140   19.4992 H   0  0  0  0  0
    6.2772  273.5617   17.7019 H   0  0  0  0  0
    6.1873  271.7425   17.5362 H   0  0  0  0  0
    7.8833  274.4173   19.0480 H   0  0  0  0  0
    6.6517  270.4457   19.9044 H   0  0  0  0  0
    9.4828  274.3009   20.8628 H   0  0  0  0  0
    8.3031  270.3278   21.6913 H   0  0  0  0  0
    9.7836  272.2249   22.1731 H   0  0  0  0  0
    3.9303  275.0606   18.0793 H   0  0  0  0  0
    3.1052  274.4674   15.2522 H   0  0  0  0  0
    1.2982  275.7590   17.2637 H   0  0  0  0  0
    1.0943  274.1094   16.4635 H   0  0  0  0  0
    1.8884  275.7810   13.4979 H   0  0  0  0  0
   -2.0106  277.3639   14.2810 H   0  0  0  0  0
    4.5513  275.7301   14.3343 H   0  0  0  0  0
    4.9920  278.5311   15.3663 H   0  0  0  0  0
    7.3170  278.2873   15.1516 H   0  0  0  0  0
    7.0745  276.5229   14.5506 H   0  0  0  0  0
    6.3370  275.9791   16.7838 H   0  0  0  0  0
    8.6580  275.5391   16.1031 H   0  0  0  0  0
    9.1370  277.1752   16.6178 H   0  0  0  0  0
    8.6012  275.9826   17.8268 H   0  0  0  0  0
    7.3145  278.7490   17.5511 H   0  0  0  0  0
    5.6363  278.1569   17.6170 H   0  0  0  0  0
    6.8707  277.4559   18.6922 H   0  0  0  0  0
    5.9622  278.9809   13.2403 H   0  0  0  0  0
    5.5699  277.2623   11.4943 H   0  0  0  0  0
    3.1347  278.0224   13.1341 H   0  0  0  0  0
    3.9719  278.7577   11.6981 H   0  0  0  0  0
    4.5737  280.9716   11.7242 H   0  0  0  0  0
    4.1169  282.5970   14.1191 H   0  0  0  0  0
    5.7744  283.1307   12.4188 H   0  0  0  0  0
    4.5798  282.6369   10.3580 H   0  0  0  0  0
    3.4167  283.9463   10.6799 H   0  0  0  0  0
    5.1209  284.3333   10.3375 H   0  0  0  0  0
    3.7291  285.3314   12.8986 H   0  0  0  0  0
    5.0889  284.8877   13.9593 H   0  0  0  0  0
    5.4045  285.5955   12.3561 H   0  0  0  0  0
    2.4721  283.8718   14.6491 H   0  0  0  0  0
   -0.0054  283.9100   13.0462 H   0  0  0  0  0
    0.8015  285.2402   15.6159 H   0  0  0  0  0
    0.6923  282.8209   15.8872 H   0  0  0  0  0
   -1.0625  282.9098   15.5128 H   0  0  0  0  0
   -1.0347  286.4574   14.4339 H   0  0  0  0  0
   -1.9437  284.9371   14.2508 H   0  0  0  0  0
   -1.7105  285.6459   15.8677 H   0  0  0  0  0
    0.3590  284.3748   17.7801 H   0  0  0  0  0
   -1.3804  284.4629   17.4089 H   0  0  0  0  0
   -0.6638  282.9279   17.9580 H   0  0  0  0  0
   -0.0597  285.3513   11.6161 H   0  0  0  0  0
  2  1  1  0  0  0
  2  5  1  0  0  0
  3  2  1  0  0  0
  3  4  2  0  0  0
  5  6  1  0  0  0
  6  7  1  0  0  0
  1  7  1  0  0  0
 10  9  1  0  0  0
  9 12  1  0  0  0
  9  8  1  0  0  0
 12 13  1  0  0  0
 13 15  4  0  0  0
 13 14  4  0  0  0
 14 16  4  0  0  0
 16 18  4  0  0  0
 17 18  4  0  0  0
 15 17  4  0  0  0
 10 11  2  0  0  0
 21 20  1  0  0  0
 20 23  1  0  0  0
 20 19  1  0  0  0
 23 24  1  0  0  0
 24 26  4  0  0  0
 24 25  4  0  0  0
 25 27  4  0  0  0
 27 28  4  0  0  0
 26 28  4  0  0  0
 21 22  2  0  0  0
 30 29  1  0  0  0
 35 30  1  0  0  0
 30 31  1  0  0  0
 31 32  1  0  0  0
 32 34  1  0  0  0
 32 33  1  0  0  0
 37 35  1  0  0  0
 35 36  1  0  0  0
 38 37  1  0  0  0
 38 39  2  0  0  0
 41 42  1  0  0  0
 41 44  1  0  0  0
 40 41  1  0  0  0
 44 45  1  0  0  0
 44 46  1  0  0  0
 42 43  2  0  0  0
 48 49  1  0  0  0
 48 51  1  0  0  0
 47 48  1  0  0  0
 51 52  1  0  0  0
 51 53  1  0  0  0
 52 54  1  0  0  0
 49 50  2  0  0  0
  8  3  1  0  0  0
 19 10  1  0  0  0
 42 47  1  0  0  0
 29 21  1  0  0  0
 38 40  1  0  0  0
 49 55  1  0  0  0
  1 56  1  0  0  0
  1 57  1  0  0  0
  2 58  1  0  0  0
  5 59  1  0  0  0
  5 60  1  0  0  0
  6 61  1  0  0  0
  6 62  1  0  0  0
  7 63  1  0  0  0
  7 64  1  0  0  0
  8 65  1  0  0  0
  9 66  1  0  0  0
 12 67  1  0  0  0
 12 68  1  0  0  0
 14 69  1  0  0  0
 15 70  1  0  0  0
 16 71  1  0  0  0
 17 72  1  0  0  0
 18 73  1  0  0  0
 19 74  1  0  0  0
 20 75  1  0  0  0
 23 76  1  0  0  0
 23 77  1  0  0  0
 26 78  1  0  0  0
 27 79  1  0  0  0
 29 80  1  0  0  0
 30 81  1  0  0  0
 31 82  1  0  0  0
 31 83  1  0  0  0
 32 84  1  0  0  0
 33 85  1  0  0  0
 33 86  1  0  0  0
 33 87  1  0  0  0
 34 88  1  0  0  0
 34 89  1  0  0  0
 34 90  1  0  0  0
 35 91  1  0  0  0
 36 92  1  0  0  0
 37 93  1  0  0  0
 37 94  1  0  0  0
 40 95  1  0  0  0
 41 96  1  0  0  0
 44 97  1  0  0  0
 45 98  1  0  0  0
 45 99  1  0  0  0
 45100  1  0  0  0
 46101  1  0  0  0
 46102  1  0  0  0
 46103  1  0  0  0
 47104  1  0  0  0
 48105  1  0  0  0
 51106  1  0  0  0
 52107  1  0  0  0
 52108  1  0  0  0
 53109  1  0  0  0
 53110  1  0  0  0
 53111  1  0  0  0
 54112  1  0  0  0
 54113  1  0  0  0
 54114  1  0  0  0
 55115  1  0  0  0
M  END
$$$$
