5ttg_ligand
  -I-interpret- 

 53 55  0  0  0  0  0  0  0  0999 V2000
   -2.1120  -14.7970   -5.0940 C   0  0  0  0  0
   -2.5730  -16.0690   -5.7750 C   0  0  0  0  0
   -1.8180  -18.0430   -4.3750 C   0  0  0  0  0
   -2.2420  -18.8990   -3.4370 N   0  0  0  0  0
   -1.3800  -19.7530   -2.8990 C   0  0  0  0  0
   -3.2190  -20.7020   -1.4360 C   0  0  0  0  0
   -1.8570  -20.5800   -1.9530 N   0  0  0  0  0
   -3.2220  -20.7160    0.0830 C   0  0  0  0  0
   -4.6290  -20.9950    0.6080 C   0  0  0  0  0
   -6.4690  -22.5750    0.6750 C   0  0  0  0  0
   -5.2300  -22.1860   -1.3670 C   0  0  0  0  0
   -5.1420  -22.2600    0.0880 N   0  3  0  0  0
   -3.8540  -21.9650   -1.9890 C   0  0  0  0  0
   -0.0010  -19.7760   -3.3270 C   0  0  0  0  0
    0.9990  -20.6380   -2.8120 C   0  0  0  0  0
   -0.5660  -17.9740   -4.8820 N   0  0  0  0  0
    4.3630  -18.8100   -5.7320 C   0  0  0  0  0
    3.9060  -19.7790   -4.7820 O   0  0  0  0  0
    2.6080  -19.7000   -4.3480 C   0  0  0  0  0
    2.2710  -20.6060   -3.3070 C   0  0  0  0  0
    3.3020  -21.3980   -2.8740 O   0  0  0  0  0
    3.0220  -22.4030   -1.8970 C   0  0  0  0  0
    1.6650  -18.8510   -4.8550 C   0  0  0  0  0
    0.3430  -18.8580   -4.3510 C   0  0  0  0  0
   -2.7300  -17.1500   -4.8180 N   0  0  0  0  0
   -2.8488  -14.4979   -4.3485 H   0  0  0  0  0
   -1.1526  -14.9739   -4.6079 H   0  0  0  0  0
   -2.0040  -14.0071   -5.8373 H   0  0  0  0  0
   -1.8232  -16.3614   -6.5101 H   0  0  0  0  0
   -3.5367  -15.8806   -6.2482 H   0  0  0  0  0
   -3.8016  -19.8386   -1.7573 H   0  0  0  0  0
   -1.1723  -21.2114   -1.5372 H   0  0  0  0  0
   -2.8923  -19.7434    0.4484 H   0  0  0  0  0
   -2.5498  -21.4995    0.4329 H   0  0  0  0  0
   -5.2888  -20.1906    0.2830 H   0  0  0  0  0
   -4.5904  -21.0546    1.6957 H   0  0  0  0  0
   -6.3765  -22.6525    1.7583 H   0  0  0  0  0
   -7.1731  -21.7814    0.4250 H   0  0  0  0  0
   -6.8281  -23.5216    0.2711 H   0  0  0  0  0
   -5.8733  -21.3482   -1.6358 H   0  0  0  0  0
   -5.6351  -23.1264   -1.7406 H   0  0  0  0  0
   -4.5010  -23.0092    0.3491 H   0  0  0  0  0
   -3.2162  -22.8162   -1.7508 H   0  0  0  0  0
   -3.9650  -21.8628   -3.0685 H   0  0  0  0  0
    0.7498  -21.3346   -2.0115 H   0  0  0  0  0
    3.7590  -18.8773   -6.6369 H   0  0  0  0  0
    4.2694  -17.8117   -5.3045 H   0  0  0  0  0
    5.4073  -19.0060   -5.9753 H   0  0  0  0  0
    2.6321  -21.9320   -0.9946 H   0  0  0  0  0
    2.2823  -23.0980   -2.2943 H   0  0  0  0  0
    3.9388  -22.9426   -1.6597 H   0  0  0  0  0
    1.9338  -18.1617   -5.6554 H   0  0  0  0  0
   -3.6650  -17.2496   -4.4227 H   0  0  0  0  0
  2  1  1  0  0  0
 25  2  1  0  0  0
  4  3  4  0  0  0
 16  3  4  0  0  0
  3 25  1  0  0  0
  5  4  4  0  0  0
  5  7  1  0  0  0
 14  5  4  0  0  0
  7  6  1  0  0  0
  6  8  1  0  0  0
  6 13  1  0  0  0
  8  9  1  0  0  0
  9 12  1  0  0  0
 12 10  1  0  0  0
 11 12  1  0  0  0
 13 11  1  0  0  0
 15 14  4  0  0  0
 14 24  4  0  0  0
 20 15  4  0  0  0
 24 16  4  0  0  0
 18 17  1  0  0  0
 19 18  1  0  0  0
 19 20  4  0  0  0
 19 23  4  0  0  0
 20 21  1  0  0  0
 21 22  1  0  0  0
 23 24  4  0  0  0
  1 26  1  0  0  0
  1 27  1  0  0  0
  1 28  1  0  0  0
  2 29  1  0  0  0
  2 30  1  0  0  0
  6 31  1  0  0  0
  7 32  1  0  0  0
  8 33  1  0  0  0
  8 34  1  0  0  0
  9 35  1  0  0  0
  9 36  1  0  0  0
 10 37  1  0  0  0
 10 38  1  0  0  0
 10 39  1  0  0  0
 11 40  1  0  0  0
 11 41  1  0  0  0
 12 42  1  0  0  0
 13 43  1  0  0  0
 13 44  1  0  0  0
 15 45  1  0  0  0
 17 46  1  0  0  0
 17 47  1  0  0  0
 17 48  1  0  0  0
 22 49  1  0  0  0
 22 50  1  0  0  0
 22 51  1  0  0  0
 23 52  1  0  0  0
 25 53  1  0  0  0
M  END
$$$$
