### 
### Created by X-TOOL on Mon Aug  2 16:11:42 2021
### 

@<TRIPOS>MOLECULE
6fzj_ligand
  193   194     1     0     0
SMALL
GAST_HUCK


@<TRIPOS>ATOM
      1 N         -41.4560   26.0380   -0.3480 N.4       1 PRO         0.2461
      2 CA        -41.0730   26.7000   -1.6000 C.3       1 PRO         0.0670
      3 C         -39.6130   26.4380   -1.9540 C.2       1 PRO         0.2268
      4 O         -38.7240   26.7220   -1.1520 O.2       1 PRO        -0.3907
      5 CB        -41.2810   28.1820   -1.2840 C.3       1 PRO         0.0127
      6 CG        -42.3470   28.1920   -0.2430 C.3       1 PRO        -0.0053
      7 CD        -42.1170   26.9620    0.5890 C.3       1 PRO        -0.0313
      8 N         -39.3760   25.9020   -3.1470 N.am      1 PRO        -0.2589
      9 CA        -38.0210   25.6060   -3.5990 C.3       1 PRO         0.1540
     10 C         -37.3710   26.8280   -4.2400 C.2       1 PRO         0.2062
     11 O         -37.8880   27.3790   -5.2120 O.2       1 PRO        -0.3943
     12 CB        -38.0290   24.4360   -4.5840 C.3       1 PRO         0.0843
     13 OG        -36.9080   24.4900   -5.4490 O.3       1 PRO        -0.3903
     14 N         -36.2360   27.2460   -3.6900 N.am      1 PRO        -0.2636
     15 CA        -35.5150   28.4020   -4.2070 C.3       1 PRO         0.1312
     16 C         -34.8270   28.1050   -5.5380 C.2       1 PRO         0.2039
     17 O         -34.6720   29.0130   -6.3590 O.2       1 PRO        -0.3944
     18 CB        -34.4840   28.8820   -3.1840 C.3       1 PRO        -0.0101
     19 CG        -35.0050   29.3750   -1.8300 C.3       1 PRO        -0.0425
     20 CD1       -33.8340   29.7240   -0.9340 C.3       1 PRO        -0.0625
     21 CD2       -35.9470   30.5660   -1.9860 C.3       1 PRO        -0.0625
     22 N         -34.3980   26.8580   -5.7630 N.am      1 PRO        -0.2637
     23 CA        -33.8600   26.4830   -7.0650 C.3       1 PRO         0.1312
     24 C         -34.9160   26.6040   -8.1540 C.2       1 PRO         0.2039
     25 O         -34.6170   27.0430   -9.2720 O.2       1 PRO        -0.3944
     26 CB        -33.3010   25.0600   -7.0180 C.3       1 PRO        -0.0101
     27 CG        -32.0000   24.9090   -6.2200 C.3       1 PRO        -0.0425
     28 CD1       -31.5840   23.4510   -6.1250 C.3       1 PRO        -0.0625
     29 CD2       -30.8920   25.7560   -6.8340 C.3       1 PRO        -0.0625
     30 N         -36.1590   26.2180   -7.8500 N.am      1 PRO        -0.2637
     31 CA        -37.2410   26.4110   -8.8090 C.3       1 PRO         0.1310
     32 C         -37.4670   27.8890   -9.1010 C.2       1 PRO         0.2039
     33 O         -37.6720   28.2690  -10.2580 O.2       1 PRO        -0.3944
     34 CB        -38.5220   25.7590   -8.3030 C.3       1 PRO        -0.0122
     35 CG        -38.7590   24.3970   -8.8880 C.3       1 PRO        -0.0440
     36 CD        -39.8660   23.6670   -8.1980 C.3       1 PRO        -0.0124
     37 CE        -39.8130   22.1920   -8.5470 C.3       1 PRO        -0.0354
     38 NZ        -41.0390   21.4610   -8.1330 N.4       1 PRO         0.2185
     39 N         -37.4220   28.7390   -8.0670 N.am      1 PRO        -0.2637
     40 CA        -37.5840   30.1740   -8.2780 C.3       1 PRO         0.1310
     41 C         -36.5260   30.7180   -9.2280 C.2       1 PRO         0.2039
     42 O         -36.8490   31.4540  -10.1650 O.2       1 PRO        -0.3944
     43 CB        -37.5300   30.9260   -6.9440 C.3       1 PRO        -0.0122
     44 CG        -38.6640   30.6080   -6.0050 C.3       1 PRO        -0.0440
     45 CD        -38.6080   31.4760   -4.7560 C.3       1 PRO        -0.0124
     46 CE        -39.5290   32.6900   -4.8690 C.3       1 PRO        -0.0354
     47 NZ        -39.0750   33.6740   -5.8870 N.4       1 PRO         0.2185
     48 N         -35.2500   30.3870   -8.9880 N.am      1 PRO        -0.2637
     49 CA        -34.2010   30.7880   -9.9210 C.3       1 PRO         0.1312
     50 C         -34.4540   30.2190  -11.3180 C.2       1 PRO         0.2039
     51 O         -34.2400   30.9050  -12.3230 O.2       1 PRO        -0.3944
     52 CB        -32.8290   30.3420   -9.4120 C.3       1 PRO        -0.0101
     53 CG        -32.3050   31.0180   -8.1410 C.3       1 PRO        -0.0425
     54 CD1       -30.9400   30.4440   -7.7260 C.3       1 PRO        -0.0625
     55 CD2       -32.2120   32.5110   -8.3850 C.3       1 PRO        -0.0625
     56 N         -34.9180   28.9680  -11.3980 N.am      1 PRO        -0.2637
     57 CA        -35.0770   28.3160  -12.6960 C.3       1 PRO         0.1312
     58 C         -36.2380   28.9070  -13.4870 C.2       1 PRO         0.2039
     59 O         -36.1690   29.0060  -14.7150 O.2       1 PRO        -0.3944
     60 CB        -35.2630   26.8080  -12.5110 C.3       1 PRO        -0.0101
     61 CG        -33.9690   26.0210  -12.3580 C.3       1 PRO        -0.0425
     62 CD1       -34.2370   24.6070  -11.8580 C.3       1 PRO        -0.0625
     63 CD2       -33.2260   25.9940  -13.6870 C.3       1 PRO        -0.0625
     64 N         -37.3090   29.3010  -12.8130 N.am      1 PRO        -0.2637
     65 CA        -38.4670   29.8430  -13.5090 C.3       1 PRO         0.1312
     66 C         -38.4040   31.3540  -13.6740 C.2       1 PRO         0.2039
     67 O         -39.3070   31.9290  -14.2850 O.2       1 PRO        -0.3944
     68 CB        -39.7630   29.4570  -12.7810 C.3       1 PRO        -0.0101
     69 CG        -40.0550   27.9600  -12.5890 C.3       1 PRO        -0.0425
     70 CD1       -41.2590   27.7730  -11.6720 C.3       1 PRO        -0.0625
     71 CD2       -40.2570   27.2040  -13.9240 C.3       1 PRO        -0.0625
     72 N         -37.3670   32.0070  -13.1580 N.am      1 PRO        -0.2640
     73 CA        -37.2780   33.4540  -13.2710 C.3       1 PRO         0.1284
     74 C         -37.0470   33.8600  -14.7290 C.2       1 PRO         0.2061
     75 O         -36.4080   33.1310  -15.4930 O.2       1 PRO        -0.3942
     76 CB        -36.1530   33.9910  -12.3890 C.3       1 PRO        -0.0244
     77 N         -37.5670   35.0270  -15.1470 N.am      1 PRO        -0.2499
     78 CA        -37.3930   35.4860  -16.5320 C.3       1 PRO         0.1334
     79 C         -35.9580   35.9110  -16.8640 C.2       1 PRO         0.1994
     80 O         -35.6620   36.1830  -18.0290 O.2       1 PRO        -0.3947
     81 CB        -38.3420   36.6820  -16.6210 C.3       1 PRO        -0.0104
     82 CG        -38.4110   37.1970  -15.2210 C.3       1 PRO        -0.0281
     83 CD        -38.3720   35.9720  -14.3520 C.3       1 PRO         0.0369
     84 N         -35.0860   35.9660  -15.8600 N.am      1 PRO        -0.2990
     85 H1        -40.6272   25.6684    0.0908 H         1 PRO         0.2035
     86 H2        -42.0890   25.2829   -0.5603 H         1 PRO         0.2035
     87 H3        -41.7172   26.3745   -2.4301 H         1 PRO         0.1099
     88 H4        -41.6073   28.7293   -2.1807 H         1 PRO         0.0347
     89 H5        -40.3546   28.6314   -0.8969 H         1 PRO         0.0347
     90 H6        -43.3412   28.1568   -0.7123 H         1 PRO         0.0320
     91 H7        -42.2669   29.0958    0.3789 H         1 PRO         0.0320
     92 H8        -41.4671   27.1835    1.4484 H         1 PRO         0.0814
     93 H9        -43.0697   26.5450    0.9475 H         1 PRO         0.0814
     94 H10       -40.1465   25.6963   -3.7503 H         1 PRO         0.1885
     95 H11       -37.4223   25.3177   -2.7224 H         1 PRO         0.0823
     96 H12       -38.9491   24.4788   -5.1853 H         1 PRO         0.0606
     97 H13       -38.0028   23.4917   -4.0205 H         1 PRO         0.0606
     98 H14       -36.1103   24.4495   -4.9346 H         1 PRO         0.2097
     99 H15       -35.8671   26.7547   -2.9010 H         1 PRO         0.1883
    100 H16       -36.2429   29.2099   -4.3726 H         1 PRO         0.0800
    101 H17       -33.9257   29.7110   -3.6434 H         1 PRO         0.0315
    102 H18       -33.7998   28.0433   -2.9878 H         1 PRO         0.0315
    103 H19       -35.5694   28.5562   -1.3599 H         1 PRO         0.0298
    104 H20       -34.2086   30.0778    0.0378 H         1 PRO         0.0232
    105 H21       -33.2343   30.5161   -1.4062 H         1 PRO         0.0232
    106 H22       -33.2090   28.8315   -0.7831 H         1 PRO         0.0232
    107 H23       -36.7864   30.2864   -2.6396 H         1 PRO         0.0232
    108 H24       -35.4004   31.4099   -2.4321 H         1 PRO         0.0232
    109 H25       -36.3331   30.8599   -0.9988 H         1 PRO         0.0232
    110 H26       -34.4468   26.1774   -5.0320 H         1 PRO         0.1883
    111 H27       -33.0366   27.1708   -7.3077 H         1 PRO         0.0800
    112 H28       -33.1096   24.7327   -8.0506 H         1 PRO         0.0315
    113 H29       -34.0606   24.4083   -6.5616 H         1 PRO         0.0315
    114 H30       -32.1826   25.2761   -5.1993 H         1 PRO         0.0298
    115 H31       -30.6502   23.3730   -5.5488 H         1 PRO         0.0232
    116 H32       -31.4255   23.0482   -7.1363 H         1 PRO         0.0232
    117 H33       -32.3749   22.8761   -5.6211 H         1 PRO         0.0232
    118 H34       -31.2203   26.8044   -6.8902 H         1 PRO         0.0232
    119 H35       -30.6667   25.3876   -7.8457 H         1 PRO         0.0232
    120 H36       -29.9892   25.6876   -6.2093 H         1 PRO         0.0232
    121 H37       -36.3476   25.7960   -6.9632 H         1 PRO         0.1883
    122 H38       -36.9542   25.9189   -9.7500 H         1 PRO         0.0800
    123 H39       -39.3719   26.4059   -8.5660 H         1 PRO         0.0312
    124 H40       -38.4583   25.6640   -7.2090 H         1 PRO         0.0312
    125 H41       -37.8352   23.8070   -8.7960 H         1 PRO         0.0269
    126 H42       -39.0182   24.5090   -9.9511 H         1 PRO         0.0269
    127 H43       -40.8323   24.0827   -8.5197 H         1 PRO         0.0317
    128 H44       -39.7590   23.7877   -7.1099 H         1 PRO         0.0317
    129 H45       -38.9466   21.7413   -8.0408 H         1 PRO         0.0813
    130 H46       -39.6943   22.0919   -9.6360 H         1 PRO         0.0813
    131 H47       -40.9527   20.4893   -8.3870 H         1 PRO         0.1994
    132 H48       -41.8405   21.8595   -8.5965 H         1 PRO         0.1994
    133 H49       -41.1553   21.5383   -7.1347 H         1 PRO         0.1994
    134 H50       -37.2761   28.3874   -7.1423 H         1 PRO         0.1883
    135 H51       -38.5720   30.3432   -8.7309 H         1 PRO         0.0800
    136 H52       -37.5511   32.0051   -7.1561 H         1 PRO         0.0312
    137 H53       -36.5854   30.6693   -6.4422 H         1 PRO         0.0312
    138 H54       -38.5987   29.5505   -5.7095 H         1 PRO         0.0269
    139 H55       -39.6183   30.7859   -6.5224 H         1 PRO         0.0269
    140 H56       -37.5750   31.8248   -4.6104 H         1 PRO         0.0317
    141 H57       -38.9173   30.8736   -3.8892 H         1 PRO         0.0317
    142 H58       -39.5688   33.1915   -3.8908 H         1 PRO         0.0813
    143 H59       -40.5355   32.3415   -5.1436 H         1 PRO         0.0813
    144 H60       -39.7190   34.4489   -5.9159 H         1 PRO         0.1994
    145 H61       -39.0421   33.2307   -6.7917 H         1 PRO         0.1994
    146 H62       -38.1562   34.0096   -5.6436 H         1 PRO         0.1994
    147 H63       -35.0157   29.8643   -8.1683 H         1 PRO         0.1883
    148 H64       -34.2052   31.8858   -9.9902 H         1 PRO         0.0800
    149 H65       -32.0999   30.5320  -10.2135 H         1 PRO         0.0315
    150 H66       -32.8836   29.2613   -9.2145 H         1 PRO         0.0315
    151 H67       -33.0191   30.8362   -7.3243 H         1 PRO         0.0298
    152 H68       -30.5923   30.9489   -6.8127 H         1 PRO         0.0232
    153 H69       -30.2124   30.6071   -8.5347 H         1 PRO         0.0232
    154 H70       -31.0389   29.3655   -7.5336 H         1 PRO         0.0232
    155 H71       -33.1991   32.8965   -8.6799 H         1 PRO         0.0232
    156 H72       -31.4869   32.7067   -9.1887 H         1 PRO         0.0232
    157 H73       -31.8825   33.0133   -7.4635 H         1 PRO         0.0232
    158 H74       -35.1584   28.4741  -10.5624 H         1 PRO         0.1883
    159 H75       -34.1556   28.4804  -13.2739 H         1 PRO         0.0800
    160 H76       -35.7989   26.4187  -13.3892 H         1 PRO         0.0315
    161 H77       -35.8711   26.6460  -11.6088 H         1 PRO         0.0315
    162 H78       -33.3378   26.5325  -11.6164 H         1 PRO         0.0298
    163 H79       -33.2841   24.0665  -11.7585 H         1 PRO         0.0232
    164 H80       -34.8838   24.0808  -12.5755 H         1 PRO         0.0232
    165 H81       -34.7365   24.6527  -10.8790 H         1 PRO         0.0232
    166 H82       -33.0445   27.0244  -14.0266 H         1 PRO         0.0232
    167 H83       -33.8324   25.4628  -14.4354 H         1 PRO         0.0232
    168 H84       -32.2644   25.4754  -13.5590 H         1 PRO         0.0232
    169 H85       -37.3217   29.2252  -11.8160 H         1 PRO         0.1883
    170 H86       -38.4904   29.3961  -14.5138 H         1 PRO         0.0800
    171 H87       -40.6005   29.8846  -13.3517 H         1 PRO         0.0315
    172 H88       -39.7279   29.9158  -11.7819 H         1 PRO         0.0315
    173 H89       -39.1803   27.5156  -12.0916 H         1 PRO         0.0298
    174 H90       -41.4578   26.6989  -11.5424 H         1 PRO         0.0232
    175 H91       -42.1394   28.2575  -12.1194 H         1 PRO         0.0232
    176 H92       -41.0482   28.2276  -10.6928 H         1 PRO         0.0232
    177 H93       -39.3772   27.3539  -14.5670 H         1 PRO         0.0232
    178 H94       -41.1527   27.5904  -14.4324 H         1 PRO         0.0232
    179 H95       -40.3847   26.1303  -13.7217 H         1 PRO         0.0232
    180 H96       -36.6438   31.4998  -12.6893 H         1 PRO         0.1883
    181 H97       -38.2286   33.8909  -12.9312 H         1 PRO         0.0797
    182 H98       -36.1007   35.0854  -12.4872 H         1 PRO         0.0277
    183 H99       -35.1966   33.5485  -12.7045 H         1 PRO         0.0277
    184 H100      -36.3512   33.7261  -11.3400 H         1 PRO         0.0277
    185 H101      -37.6965   34.6948  -17.2334 H         1 PRO         0.0802
    186 H102      -39.3362   36.3665  -16.9704 H         1 PRO         0.0313
    187 H103      -37.9410   37.4490  -17.2999 H         1 PRO         0.0313
    188 H104      -39.3452   37.7551  -15.0602 H         1 PRO         0.0287
    189 H105      -37.5522   37.8501  -15.0068 H         1 PRO         0.0287
    190 H106      -37.8902   36.1872  -13.3868 H         1 PRO         0.0524
    191 H107      -39.3844   35.5791  -14.1770 H         1 PRO         0.0524
    192 H108      -34.1397   36.2387  -16.0340 H         1 PRO         0.1815
    193 H109      -35.3771   35.7347  -14.9317 H         1 PRO         0.1815
@<TRIPOS>BOND
     1    1    2 1  
     2    1    7 1  
     3    2    3 1  
     4    2    5 1  
     5    3    4 2  
     6    3    8 am 
     7    5    6 1  
     8    6    7 1  
     9    8    9 1  
    10    9   10 1  
    11    9   12 1  
    12   10   11 2  
    13   10   14 am 
    14   12   13 1  
    15   14   15 1  
    16   15   16 1  
    17   15   18 1  
    18   16   17 2  
    19   16   22 am 
    20   18   19 1  
    21   19   20 1  
    22   19   21 1  
    23   22   23 1  
    24   23   24 1  
    25   23   26 1  
    26   24   25 2  
    27   24   30 am 
    28   26   27 1  
    29   27   28 1  
    30   27   29 1  
    31   30   31 1  
    32   31   32 1  
    33   31   34 1  
    34   32   33 2  
    35   32   39 am 
    36   34   35 1  
    37   35   36 1  
    38   36   37 1  
    39   37   38 1  
    40   39   40 1  
    41   40   41 1  
    42   40   43 1  
    43   41   42 2  
    44   41   48 am 
    45   43   44 1  
    46   44   45 1  
    47   45   46 1  
    48   46   47 1  
    49   48   49 1  
    50   49   50 1  
    51   49   52 1  
    52   50   51 2  
    53   50   56 am 
    54   52   53 1  
    55   53   54 1  
    56   53   55 1  
    57   56   57 1  
    58   57   58 1  
    59   57   60 1  
    60   58   59 2  
    61   58   64 am 
    62   60   61 1  
    63   61   62 1  
    64   61   63 1  
    65   64   65 1  
    66   65   66 1  
    67   65   68 1  
    68   66   67 2  
    69   66   72 am 
    70   68   69 1  
    71   69   70 1  
    72   69   71 1  
    73   72   73 1  
    74   73   74 1  
    75   73   76 1  
    76   74   75 2  
    77   74   77 am 
    78   77   78 1  
    79   77   83 1  
    80   78   79 1  
    81   78   81 1  
    82   79   80 2  
    83   79   84 am 
    84   81   82 1  
    85   82   83 1  
    86    1   85 1  
    87    1   86 1  
    88    2   87 1  
    89    5   88 1  
    90    5   89 1  
    91    6   90 1  
    92    6   91 1  
    93    7   92 1  
    94    7   93 1  
    95    8   94 1  
    96    9   95 1  
    97   12   96 1  
    98   12   97 1  
    99   13   98 1  
   100   14   99 1  
   101   15  100 1  
   102   18  101 1  
   103   18  102 1  
   104   19  103 1  
   105   20  104 1  
   106   20  105 1  
   107   20  106 1  
   108   21  107 1  
   109   21  108 1  
   110   21  109 1  
   111   22  110 1  
   112   23  111 1  
   113   26  112 1  
   114   26  113 1  
   115   27  114 1  
   116   28  115 1  
   117   28  116 1  
   118   28  117 1  
   119   29  118 1  
   120   29  119 1  
   121   29  120 1  
   122   30  121 1  
   123   31  122 1  
   124   34  123 1  
   125   34  124 1  
   126   35  125 1  
   127   35  126 1  
   128   36  127 1  
   129   36  128 1  
   130   37  129 1  
   131   37  130 1  
   132   38  131 1  
   133   38  132 1  
   134   38  133 1  
   135   39  134 1  
   136   40  135 1  
   137   43  136 1  
   138   43  137 1  
   139   44  138 1  
   140   44  139 1  
   141   45  140 1  
   142   45  141 1  
   143   46  142 1  
   144   46  143 1  
   145   47  144 1  
   146   47  145 1  
   147   47  146 1  
   148   48  147 1  
   149   49  148 1  
   150   52  149 1  
   151   52  150 1  
   152   53  151 1  
   153   54  152 1  
   154   54  153 1  
   155   54  154 1  
   156   55  155 1  
   157   55  156 1  
   158   55  157 1  
   159   56  158 1  
   160   57  159 1  
   161   60  160 1  
   162   60  161 1  
   163   61  162 1  
   164   62  163 1  
   165   62  164 1  
   166   62  165 1  
   167   63  166 1  
   168   63  167 1  
   169   63  168 1  
   170   64  169 1  
   171   65  170 1  
   172   68  171 1  
   173   68  172 1  
   174   69  173 1  
   175   70  174 1  
   176   70  175 1  
   177   70  176 1  
   178   71  177 1  
   179   71  178 1  
   180   71  179 1  
   181   72  180 1  
   182   73  181 1  
   183   76  182 1  
   184   76  183 1  
   185   76  184 1  
   186   78  185 1  
   187   81  186 1  
   188   81  187 1  
   189   82  188 1  
   190   82  189 1  
   191   83  190 1  
   192   83  191 1  
   193   84  192 1  
   194   84  193 1  
@<TRIPOS>SUBSTRUCTURE
     1 PRO         1

