6fzj_ligand
  -I-interpret- 

193194  0  0  0  0  0  0  0  0999 V2000
  -41.4560   26.0380   -0.3480 N   0  3  0  0  0
  -41.0730   26.7000   -1.6000 C   0  0  0  0  0
  -39.6130   26.4380   -1.9540 C   0  0  0  0  0
  -38.7240   26.7220   -1.1520 O   0  0  0  0  0
  -41.2810   28.1820   -1.2840 C   0  0  0  0  0
  -42.3470   28.1920   -0.2430 C   0  0  0  0  0
  -42.1170   26.9620    0.5890 C   0  0  0  0  0
  -39.3760   25.9020   -3.1470 N   0  0  0  0  0
  -38.0210   25.6060   -3.5990 C   0  0  0  0  0
  -37.3710   26.8280   -4.2400 C   0  0  0  0  0
  -37.8880   27.3790   -5.2120 O   0  0  0  0  0
  -38.0290   24.4360   -4.5840 C   0  0  0  0  0
  -36.9080   24.4900   -5.4490 O   0  0  0  0  0
  -36.2360   27.2460   -3.6900 N   0  0  0  0  0
  -35.5150   28.4020   -4.2070 C   0  0  0  0  0
  -34.8270   28.1050   -5.5380 C   0  0  0  0  0
  -34.6720   29.0130   -6.3590 O   0  0  0  0  0
  -34.4840   28.8820   -3.1840 C   0  0  0  0  0
  -35.0050   29.3750   -1.8300 C   0  0  0  0  0
  -33.8340   29.7240   -0.9340 C   0  0  0  0  0
  -35.9470   30.5660   -1.9860 C   0  0  0  0  0
  -34.3980   26.8580   -5.7630 N   0  0  0  0  0
  -33.8600   26.4830   -7.0650 C   0  0  0  0  0
  -34.9160   26.6040   -8.1540 C   0  0  0  0  0
  -34.6170   27.0430   -9.2720 O   0  0  0  0  0
  -33.3010   25.0600   -7.0180 C   0  0  0  0  0
  -32.0000   24.9090   -6.2200 C   0  0  0  0  0
  -31.5840   23.4510   -6.1250 C   0  0  0  0  0
  -30.8920   25.7560   -6.8340 C   0  0  0  0  0
  -36.1590   26.2180   -7.8500 N   0  0  0  0  0
  -37.2410   26.4110   -8.8090 C   0  0  0  0  0
  -37.4670   27.8890   -9.1010 C   0  0  0  0  0
  -37.6720   28.2690  -10.2580 O   0  0  0  0  0
  -38.5220   25.7590   -8.3030 C   0  0  0  0  0
  -38.7590   24.3970   -8.8880 C   0  0  0  0  0
  -39.8660   23.6670   -8.1980 C   0  0  0  0  0
  -39.8130   22.1920   -8.5470 C   0  0  0  0  0
  -41.0390   21.4610   -8.1330 N   0  3  0  0  0
  -37.4220   28.7390   -8.0670 N   0  0  0  0  0
  -37.5840   30.1740   -8.2780 C   0  0  0  0  0
  -36.5260   30.7180   -9.2280 C   0  0  0  0  0
  -36.8490   31.4540  -10.1650 O   0  0  0  0  0
  -37.5300   30.9260   -6.9440 C   0  0  0  0  0
  -38.6640   30.6080   -6.0050 C   0  0  0  0  0
  -38.6080   31.4760   -4.7560 C   0  0  0  0  0
  -39.5290   32.6900   -4.8690 C   0  0  0  0  0
  -39.0750   33.6740   -5.8870 N   0  3  0  0  0
  -35.2500   30.3870   -8.9880 N   0  0  0  0  0
  -34.2010   30.7880   -9.9210 C   0  0  0  0  0
  -34.4540   30.2190  -11.3180 C   0  0  0  0  0
  -34.2400   30.9050  -12.3230 O   0  0  0  0  0
  -32.8290   30.3420   -9.4120 C   0  0  0  0  0
  -32.3050   31.0180   -8.1410 C   0  0  0  0  0
  -30.9400   30.4440   -7.7260 C   0  0  0  0  0
  -32.2120   32.5110   -8.3850 C   0  0  0  0  0
  -34.9180   28.9680  -11.3980 N   0  0  0  0  0
  -35.0770   28.3160  -12.6960 C   0  0  0  0  0
  -36.2380   28.9070  -13.4870 C   0  0  0  0  0
  -36.1690   29.0060  -14.7150 O   0  0  0  0  0
  -35.2630   26.8080  -12.5110 C   0  0  0  0  0
  -33.9690   26.0210  -12.3580 C   0  0  0  0  0
  -34.2370   24.6070  -11.8580 C   0  0  0  0  0
  -33.2260   25.9940  -13.6870 C   0  0  0  0  0
  -37.3090   29.3010  -12.8130 N   0  0  0  0  0
  -38.4670   29.8430  -13.5090 C   0  0  0  0  0
  -38.4040   31.3540  -13.6740 C   0  0  0  0  0
  -39.3070   31.9290  -14.2850 O   0  0  0  0  0
  -39.7630   29.4570  -12.7810 C   0  0  0  0  0
  -40.0550   27.9600  -12.5890 C   0  0  0  0  0
  -41.2590   27.7730  -11.6720 C   0  0  0  0  0
  -40.2570   27.2040  -13.9240 C   0  0  0  0  0
  -37.3670   32.0070  -13.1580 N   0  0  0  0  0
  -37.2780   33.4540  -13.2710 C   0  0  0  0  0
  -37.0470   33.8600  -14.7290 C   0  0  0  0  0
  -36.4080   33.1310  -15.4930 O   0  0  0  0  0
  -36.1530   33.9910  -12.3890 C   0  0  0  0  0
  -37.5670   35.0270  -15.1470 N   0  0  0  0  0
  -37.3930   35.4860  -16.5320 C   0  0  0  0  0
  -35.9580   35.9110  -16.8640 C   0  0  0  0  0
  -35.6620   36.1830  -18.0290 O   0  0  0  0  0
  -38.3420   36.6820  -16.6210 C   0  0  0  0  0
  -38.4110   37.1970  -15.2210 C   0  0  0  0  0
  -38.3720   35.9720  -14.3520 C   0  0  0  0  0
  -35.0860   35.9660  -15.8600 N   0  0  0  0  0
  -40.6086   25.6861    0.0975 H   0  0  0  0  0
  -42.1119   25.2896   -0.5720 H   0  0  0  0  0
  -41.6504   26.3436   -2.4530 H   0  0  0  0  0
  -41.5657   28.7533   -2.1675 H   0  0  0  0  0
  -40.3647   28.6595   -0.9368 H   0  0  0  0  0
  -43.3402   28.1874   -0.6920 H   0  0  0  0  0
  -42.3004   29.0961    0.3640 H   0  0  0  0  0
  -41.5156   27.1617    1.4759 H   0  0  0  0  0
  -43.0408   26.5540    0.9992 H   0  0  0  0  0
  -40.1619   25.6922   -3.7624 H   0  0  0  0  0
  -37.4322   25.3289   -2.7246 H   0  0  0  0  0
  -38.9365   24.4922   -5.1851 H   0  0  0  0  0
  -37.9895   23.5044   -4.0195 H   0  0  0  0  0
  -36.9371   23.7464   -6.0555 H   0  0  0  0  0
  -35.8597   26.7449   -2.8852 H   0  0  0  0  0
  -36.2492   29.1879   -4.3844 H   0  0  0  0  0
  -33.9967   29.7431   -3.6413 H   0  0  0  0  0
  -33.8660   28.0123   -2.9609 H   0  0  0  0  0
  -35.5824   28.5728   -1.3705 H   0  0  0  0  0
  -33.2155   28.8389   -0.7853 H   0  0  0  0  0
  -33.2406   30.5089   -1.4030 H   0  0  0  0  0
  -34.2065   30.0744    0.0286 H   0  0  0  0  0
  -35.4164   31.3865   -2.4691 H   0  0  0  0  0
  -36.8012   30.2744   -2.5970 H   0  0  0  0  0
  -36.2937   30.8846   -1.0029 H   0  0  0  0  0
  -34.4477   26.1638   -5.0173 H   0  0  0  0  0
  -33.0505   27.1718   -7.3066 H   0  0  0  0  0
  -33.0783   24.7724   -8.0455 H   0  0  0  0  0
  -34.0500   24.4409   -6.5241 H   0  0  0  0  0
  -32.1797   25.2686   -5.2068 H   0  0  0  0  0
  -32.3685   22.8825   -5.6256 H   0  0  0  0  0
  -31.4274   23.0531   -7.1276 H   0  0  0  0  0
  -30.6587   23.3750   -5.5539 H   0  0  0  0  0
  -30.7165   25.4338   -7.8604 H   0  0  0  0  0
  -31.1914   26.8041   -6.8270 H   0  0  0  0  0
  -29.9783   25.6339   -6.2523 H   0  0  0  0  0
  -36.3514   25.7876   -6.9455 H   0  0  0  0  0
  -36.9514   25.9307   -9.7436 H   0  0  0  0  0
  -39.3565   26.3958   -8.5965 H   0  0  0  0  0
  -38.4317   25.6448   -7.2228 H   0  0  0  0  0
  -37.8451   23.8148   -8.7697 H   0  0  0  0  0
  -39.0377   24.5225   -9.9343 H   0  0  0  0  0
  -40.8223   24.0776   -8.5220 H   0  0  0  0  0
  -39.7550   23.7842   -7.1200 H   0  0  0  0  0
  -38.9668   21.7530   -8.0186 H   0  0  0  0  0
  -39.7220   22.1071   -9.6299 H   0  0  0  0  0
  -40.9506   20.4780   -8.3905 H   0  0  0  0  0
  -41.1556   21.5399   -7.1228 H   0  0  0  0  0
  -41.8493   21.8651   -8.6026 H   0  0  0  0  0
  -37.2732   28.3803   -7.1238 H   0  0  0  0  0
  -38.5620   30.3312   -8.7328 H   0  0  0  0  0
  -37.5930   31.9897   -7.1734 H   0  0  0  0  0
  -36.6080   30.6273   -6.4452 H   0  0  0  0  0
  -38.5835   29.5631   -5.7052 H   0  0  0  0  0
  -39.6052   30.8011   -6.5198 H   0  0  0  0  0
  -37.5853   31.8316   -4.6307 H   0  0  0  0  0
  -38.9336   30.8761   -3.9062 H   0  0  0  0  0
  -39.5344   33.1927   -3.9019 H   0  0  0  0  0
  -40.5134   32.3319   -5.1705 H   0  0  0  0  0
  -39.7273   34.4576   -5.9153 H   0  0  0  0  0
  -38.1452   34.0128   -5.6397 H   0  0  0  0  0
  -39.0421   33.2242   -6.8019 H   0  0  0  0  0
  -35.0110   29.8539   -8.1519 H   0  0  0  0  0
  -34.2160   31.8758   -9.9887 H   0  0  0  0  0
  -32.1212   30.6001  -10.1997 H   0  0  0  0  0
  -32.9321   29.2851   -9.1660 H   0  0  0  0  0
  -32.9959   30.8239   -7.3206 H   0  0  0  0  0
  -31.0393   29.3753   -7.5357 H   0  0  0  0  0
  -30.2200   30.6062   -8.5282 H   0  0  0  0  0
  -30.5965   30.9451   -6.8210 H   0  0  0  0  0
  -31.5294   32.7007   -9.2133 H   0  0  0  0  0
  -33.2002   32.9000   -8.6305 H   0  0  0  0  0
  -31.8398   33.0023   -7.4860 H   0  0  0  0  0
  -35.1632   28.4642  -10.5457 H   0  0  0  0  0
  -34.1683   28.4935  -13.2711 H   0  0  0  0  0
  -35.7556   26.4367  -13.4096 H   0  0  0  0  0
  -35.8294   26.6690  -11.5902 H   0  0  0  0  0
  -33.3471   26.5166  -11.6125 H   0  0  0  0  0
  -34.7320   24.6537  -10.8880 H   0  0  0  0  0
  -34.8780   24.0867  -12.5697 H   0  0  0  0  0
  -33.2921   24.0725  -11.7598 H   0  0  0  0  0
  -33.8521   25.5188  -14.4422 H   0  0  0  0  0
  -32.9956   27.0142  -13.9938 H   0  0  0  0  0
  -32.3004   25.4297  -13.5729 H   0  0  0  0  0
  -37.3220   29.2237  -11.7960 H   0  0  0  0  0
  -38.4587   29.4057  -14.5074 H   0  0  0  0  0
  -40.5724   29.8346  -13.4058 H   0  0  0  0  0
  -39.6664   29.8669  -11.7757 H   0  0  0  0  0
  -39.1728   27.5218  -12.1223 H   0  0  0  0  0
  -41.0489   28.2239  -10.7021 H   0  0  0  0  0
  -42.1306   28.2535  -12.1164 H   0  0  0  0  0
  -41.4550   26.7084  -11.5444 H   0  0  0  0  0
  -41.0992   27.6386  -14.4624 H   0  0  0  0  0
  -39.3543   27.2898  -14.5288 H   0  0  0  0  0
  -40.4593   26.1530  -13.7179 H   0  0  0  0  0
  -36.6293   31.4897  -12.6799 H   0  0  0  0  0
  -38.2201   33.8852  -12.9324 H   0  0  0  0  0
  -36.3506   33.7278  -11.3499 H   0  0  0  0  0
  -35.2060   33.5518  -12.7026 H   0  0  0  0  0
  -36.1022   35.0754  -12.4871 H   0  0  0  0  0
  -37.6034   34.6887  -17.2448 H   0  0  0  0  0
  -39.3226   36.4022  -17.0060 H   0  0  0  0  0
  -37.9874   37.4383  -17.3213 H   0  0  0  0  0
  -39.3138   37.7836  -15.0510 H   0  0  0  0  0
  -37.5868   37.8751  -14.9995 H   0  0  0  0  0
  -37.9459   36.1658  -13.3676 H   0  0  0  0  0
  -39.3650   35.5882  -14.1181 H   0  0  0  0  0
  -34.1207   36.2437  -16.0375 H   0  0  0  0  0
  -35.3830   35.7304  -14.9131 H   0  0  0  0  0
  1  2  1  0  0  0
  1  7  1  0  0  0
  2  3  1  0  0  0
  2  5  1  0  0  0
  3  4  2  0  0  0
  3  8  1  0  0  0
  5  6  1  0  0  0
  6  7  1  0  0  0
  8  9  1  0  0  0
  9 10  1  0  0  0
  9 12  1  0  0  0
 10 11  2  0  0  0
 10 14  1  0  0  0
 12 13  1  0  0  0
 14 15  1  0  0  0
 15 16  1  0  0  0
 15 18  1  0  0  0
 16 17  2  0  0  0
 16 22  1  0  0  0
 18 19  1  0  0  0
 19 20  1  0  0  0
 19 21  1  0  0  0
 22 23  1  0  0  0
 23 24  1  0  0  0
 23 26  1  0  0  0
 24 25  2  0  0  0
 24 30  1  0  0  0
 26 27  1  0  0  0
 27 28  1  0  0  0
 27 29  1  0  0  0
 30 31  1  0  0  0
 31 32  1  0  0  0
 31 34  1  0  0  0
 32 33  2  0  0  0
 32 39  1  0  0  0
 34 35  1  0  0  0
 35 36  1  0  0  0
 36 37  1  0  0  0
 37 38  1  0  0  0
 39 40  1  0  0  0
 40 41  1  0  0  0
 40 43  1  0  0  0
 41 42  2  0  0  0
 41 48  1  0  0  0
 43 44  1  0  0  0
 44 45  1  0  0  0
 45 46  1  0  0  0
 46 47  1  0  0  0
 48 49  1  0  0  0
 49 50  1  0  0  0
 49 52  1  0  0  0
 50 51  2  0  0  0
 50 56  1  0  0  0
 52 53  1  0  0  0
 53 54  1  0  0  0
 53 55  1  0  0  0
 56 57  1  0  0  0
 57 58  1  0  0  0
 57 60  1  0  0  0
 58 59  2  0  0  0
 58 64  1  0  0  0
 60 61  1  0  0  0
 61 62  1  0  0  0
 61 63  1  0  0  0
 64 65  1  0  0  0
 65 66  1  0  0  0
 65 68  1  0  0  0
 66 67  2  0  0  0
 66 72  1  0  0  0
 68 69  1  0  0  0
 69 70  1  0  0  0
 69 71  1  0  0  0
 72 73  1  0  0  0
 73 74  1  0  0  0
 73 76  1  0  0  0
 74 75  2  0  0  0
 74 77  1  0  0  0
 77 78  1  0  0  0
 77 83  1  0  0  0
 78 79  1  0  0  0
 78 81  1  0  0  0
 79 80  2  0  0  0
 79 84  1  0  0  0
 81 82  1  0  0  0
 82 83  1  0  0  0
  1 85  1  0  0  0
  1 86  1  0  0  0
  2 87  1  0  0  0
  5 88  1  0  0  0
  5 89  1  0  0  0
  6 90  1  0  0  0
  6 91  1  0  0  0
  7 92  1  0  0  0
  7 93  1  0  0  0
  8 94  1  0  0  0
  9 95  1  0  0  0
 12 96  1  0  0  0
 12 97  1  0  0  0
 13 98  1  0  0  0
 14 99  1  0  0  0
 15100  1  0  0  0
 18101  1  0  0  0
 18102  1  0  0  0
 19103  1  0  0  0
 20104  1  0  0  0
 20105  1  0  0  0
 20106  1  0  0  0
 21107  1  0  0  0
 21108  1  0  0  0
 21109  1  0  0  0
 22110  1  0  0  0
 23111  1  0  0  0
 26112  1  0  0  0
 26113  1  0  0  0
 27114  1  0  0  0
 28115  1  0  0  0
 28116  1  0  0  0
 28117  1  0  0  0
 29118  1  0  0  0
 29119  1  0  0  0
 29120  1  0  0  0
 30121  1  0  0  0
 31122  1  0  0  0
 34123  1  0  0  0
 34124  1  0  0  0
 35125  1  0  0  0
 35126  1  0  0  0
 36127  1  0  0  0
 36128  1  0  0  0
 37129  1  0  0  0
 37130  1  0  0  0
 38131  1  0  0  0
 38132  1  0  0  0
 38133  1  0  0  0
 39134  1  0  0  0
 40135  1  0  0  0
 43136  1  0  0  0
 43137  1  0  0  0
 44138  1  0  0  0
 44139  1  0  0  0
 45140  1  0  0  0
 45141  1  0  0  0
 46142  1  0  0  0
 46143  1  0  0  0
 47144  1  0  0  0
 47145  1  0  0  0
 47146  1  0  0  0
 48147  1  0  0  0
 49148  1  0  0  0
 52149  1  0  0  0
 52150  1  0  0  0
 53151  1  0  0  0
 54152  1  0  0  0
 54153  1  0  0  0
 54154  1  0  0  0
 55155  1  0  0  0
 55156  1  0  0  0
 55157  1  0  0  0
 56158  1  0  0  0
 57159  1  0  0  0
 60160  1  0  0  0
 60161  1  0  0  0
 61162  1  0  0  0
 62163  1  0  0  0
 62164  1  0  0  0
 62165  1  0  0  0
 63166  1  0  0  0
 63167  1  0  0  0
 63168  1  0  0  0
 64169  1  0  0  0
 65170  1  0  0  0
 68171  1  0  0  0
 68172  1  0  0  0
 69173  1  0  0  0
 70174  1  0  0  0
 70175  1  0  0  0
 70176  1  0  0  0
 71177  1  0  0  0
 71178  1  0  0  0
 71179  1  0  0  0
 72180  1  0  0  0
 73181  1  0  0  0
 76182  1  0  0  0
 76183  1  0  0  0
 76184  1  0  0  0
 78185  1  0  0  0
 81186  1  0  0  0
 81187  1  0  0  0
 82188  1  0  0  0
 82189  1  0  0  0
 83190  1  0  0  0
 83191  1  0  0  0
 84192  1  0  0  0
 84193  1  0  0  0
M  END
$$$$
