5o4s_ligand
  -I-interpret- 

 62 66  0  0  0  0  0  0  0  0999 V2000
   20.5800   -0.4870    9.0970 C   0  0  0  0  0
   26.5020    2.2310    9.5030 C   0  0  0  0  0
   21.3510   -0.0810    8.0160 C   0  0  0  0  0
   22.6770   -0.4790    7.8850 C   0  0  0  0  0
   23.2390   -1.3210    8.8500 C   0  0  0  0  0
   23.8120    1.3930    6.8980 C   0  0  0  0  0
   24.7410    1.7630    5.7730 C   0  0  0  0  0
   23.8970    0.0770    4.4200 C   0  0  0  0  0
   22.9410   -0.3720    5.4960 C   0  0  0  0  0
   25.9250    0.0440   10.2530 C   0  0  0  0  0
   26.3400    0.8850    9.2380 C   0  0  0  0  0
   19.2390   -0.0760    9.2270 N   0  0  0  0  0
   23.4740   -0.0290    6.8160 N   0  0  0  0  0
   18.6560    0.8240    8.2350 C   0  0  0  0  0
   24.5800   -1.7690    8.7190 N   0  0  0  0  0
   20.3670   -1.7330   11.1770 N   0  0  0  0  0
   20.9740   -2.5140   12.2510 C   0  0  0  0  0
   18.3470   -1.7850   12.2460 O   0  0  0  0  0
   19.0430   -1.3820   11.3230 C   0  0  0  0  0
   26.2610    2.7560   10.7710 C   0  0  0  0  0
   26.3540    4.2440   10.9990 C   0  0  0  0  0
   26.4360    4.6140   12.4640 C   0  0  0  0  0
   25.3530    3.8840   13.2370 C   0  0  0  0  0
   25.6510    2.4000   13.2080 C   0  0  0  0  0
   18.4340   -0.4770   10.2670 C   0  0  0  0  0
   25.8690    1.8890   11.8060 C   0  0  0  0  0
   25.6970    0.5350   11.5270 C   0  0  0  0  0
   22.4710   -1.7310    9.9360 C   0  0  0  0  0
   21.1490   -1.3230   10.0790 C   0  0  0  0  0
   17.2580   -0.1430   10.3600 O   0  0  0  0  0
   24.1660    1.4690    4.5080 O   0  0  0  0  0
   26.8830   -2.1960    9.3780 O   0  0  0  0  0
   25.1130   -2.2620   11.1040 O   0  0  0  0  0
   25.6740   -1.6670    9.9300 S   0  0  0  0  0
   26.8254    2.8968    8.7029 H   0  0  0  0  0
   20.9084    0.5621    7.2554 H   0  0  0  0  0
   22.8999    1.9849    6.8212 H   0  0  0  0  0
   24.3030    1.5920    7.8506 H   0  0  0  0  0
   25.6594    1.1855    5.8784 H   0  0  0  0  0
   24.9366    2.8341    5.8237 H   0  0  0  0  0
   23.4436   -0.1257    3.4497 H   0  0  0  0  0
   24.8351   -0.4638    4.5449 H   0  0  0  0  0
   22.8112   -1.4523    5.4318 H   0  0  0  0  0
   21.9829    0.1284    5.3555 H   0  0  0  0  0
   26.5370    0.4912    8.2409 H   0  0  0  0  0
   17.7978    0.3409    7.7679 H   0  0  0  0  0
   18.3351    1.7434    8.7246 H   0  0  0  0  0
   19.4017    1.0568    7.4748 H   0  0  0  0  0
   24.8741   -2.1726    7.8296 H   0  0  0  0  0
   20.9233   -1.9497   13.1822 H   0  0  0  0  0
   20.4343   -3.4542   12.3645 H   0  0  0  0  0
   22.0159   -2.7191   12.0052 H   0  0  0  0  0
   25.4513    4.6993   10.5917 H   0  0  0  0  0
   27.2649    4.5976   10.5158 H   0  0  0  0  0
   26.2958    5.6894   12.5736 H   0  0  0  0  0
   27.4130    4.3294   12.8545 H   0  0  0  0  0
   24.3811    4.0751   12.7820 H   0  0  0  0  0
   25.3325    4.2371   14.2680 H   0  0  0  0  0
   24.7949    1.8742   13.6309 H   0  0  0  0  0
   26.5640    2.2266   13.7776 H   0  0  0  0  0
   25.3801   -0.1437   12.3188 H   0  0  0  0  0
   22.9137   -2.3838   10.6883 H   0  0  0  0  0
  1  3  4  0  0  0
  1 12  1  0  0  0
 29  1  4  0  0  0
 11  2  4  0  0  0
  2 20  4  0  0  0
  3  4  4  0  0  0
  4  5  4  0  0  0
  4 13  1  0  0  0
  5 15  1  0  0  0
  5 28  4  0  0  0
  6  7  1  0  0  0
 13  6  1  0  0  0
  7 31  1  0  0  0
  9  8  1  0  0  0
  8 31  1  0  0  0
 13  9  1  0  0  0
 10 11  4  0  0  0
 10 27  4  0  0  0
 34 10  1  0  0  0
 12 14  1  0  0  0
 12 25  1  0  0  0
 15 34  1  0  0  0
 16 17  1  0  0  0
 16 19  1  0  0  0
 16 29  1  0  0  0
 19 18  2  0  0  0
 19 25  1  0  0  0
 20 21  1  0  0  0
 20 26  4  0  0  0
 21 22  1  0  0  0
 22 23  1  0  0  0
 23 24  1  0  0  0
 24 26  1  0  0  0
 25 30  2  0  0  0
 26 27  4  0  0  0
 28 29  4  0  0  0
 34 32  2  0  0  0
 34 33  2  0  0  0
  2 35  1  0  0  0
  3 36  1  0  0  0
  6 37  1  0  0  0
  6 38  1  0  0  0
  7 39  1  0  0  0
  7 40  1  0  0  0
  8 41  1  0  0  0
  8 42  1  0  0  0
  9 43  1  0  0  0
  9 44  1  0  0  0
 11 45  1  0  0  0
 14 46  1  0  0  0
 14 47  1  0  0  0
 14 48  1  0  0  0
 15 49  1  0  0  0
 17 50  1  0  0  0
 17 51  1  0  0  0
 17 52  1  0  0  0
 21 53  1  0  0  0
 21 54  1  0  0  0
 22 55  1  0  0  0
 22 56  1  0  0  0
 23 57  1  0  0  0
 23 58  1  0  0  0
 24 59  1  0  0  0
 24 60  1  0  0  0
 27 61  1  0  0  0
 28 62  1  0  0  0
M  END
$$$$
