5tyn_ligand
  -I-interpret- 

 23 24  0  0  0  0  0  0  0  0999 V2000
   15.4380   10.5520  -18.4710 Br  0  0  0  0  0
   15.8660    9.2630  -19.8090 C   0  0  0  0  0
   16.8260    9.6240  -20.7270 C   0  0  0  0  0
   17.1660    8.7180  -21.6960 C   0  0  0  0  0
   18.3060    9.1300  -22.7800 B   0  0  0  0  0
   19.3100    8.2030  -23.1360 O   0  0  0  0  0
   16.5780    7.4710  -21.7560 C   0  0  0  0  0
   15.6070    7.1190  -20.8310 C   0  0  0  0  0
   15.0160    5.8310  -20.8850 N   0  3  0  0  0
   15.3100    4.8950  -21.7430 C   0  0  0  0  0
   14.3490    3.6910  -21.4510 C   0  0  0  0  0
   13.3520    4.1850  -20.4140 C   0  0  0  0  0
   13.8680    5.2990  -19.8950 C   0  0  0  0  0
   15.2500    8.0200  -19.8380 C   0  0  0  0  0
   17.3022   10.6035  -20.6839 H   0  0  0  0  0
   19.8979    8.6019  -23.7816 H   0  0  0  0  0
   16.8766    6.7636  -22.5297 H   0  0  0  0  0
   16.0773    4.9405  -22.5158 H   0  0  0  0  0
   14.9025    2.8269  -21.0834 H   0  0  0  0  0
   13.8420    3.3641  -22.3588 H   0  0  0  0  0
   12.4029    3.7198  -20.1478 H   0  0  0  0  0
   13.5634    5.7684  -18.9596 H   0  0  0  0  0
   14.4987    7.7560  -19.0937 H   0  0  0  0  0
  1  2  1  0  0  0
  2  3  4  0  0  0
  2 14  4  0  0  0
  3  4  4  0  0  0
  4  5  1  0  0  0
  4  7  4  0  0  0
  5  6  1  0  0  0
  7  8  4  0  0  0
  8  9  1  0  0  0
  8 14  4  0  0  0
  9 10  2  0  0  0
  9 13  1  0  0  0
 10 11  1  0  0  0
 11 12  1  0  0  0
 12 13  2  0  0  0
  3 15  1  0  0  0
  6 16  1  0  0  0
  7 17  1  0  0  0
 10 18  1  0  0  0
 11 19  1  0  0  0
 11 20  1  0  0  0
 12 21  1  0  0  0
 13 22  1  0  0  0
 14 23  1  0  0  0
M  END
$$$$
