### 
### Created by X-TOOL on Fri Nov  2 10:14:01 2018
### 

@<TRIPOS>MOLECULE
5tyn_ligand
   23    24     1     0     0
SMALL
GAST_HUCK


@<TRIPOS>ATOM
      1 BR         15.4380   10.5520  -18.4710 Br        1 7NS        -0.0415
      2 C02        15.8660    9.2630  -19.8090 C.ar      1 7NS         0.0386
      3 C03        16.8260    9.6240  -20.7270 C.ar      1 7NS        -0.0287
      4 C04        17.1660    8.7180  -21.6960 C.ar      1 7NS        -0.0338
      5 B05        18.3060    9.1300  -22.7800 B         1 7NS         2.0000
      6 O06        19.3100    8.2030  -23.1360 O.3       1 7NS        -0.4105
      7 C08        16.5780    7.4710  -21.7560 C.ar      1 7NS        -0.0110
      8 C09        15.6070    7.1190  -20.8310 C.ar      1 7NS         0.0831
      9 N10        15.0160    5.8310  -20.8850 N.2       1 7NS        -0.2490
     10 C11        15.3100    4.8950  -21.7430 C.2       1 7NS         0.1002
     11 C12        14.3490    3.6910  -21.4510 C.3       1 7NS         0.1047
     12 C13        13.3520    4.1850  -20.4140 C.2       1 7NS         0.0341
     13 C14        13.8680    5.2990  -19.8950 C.2       1 7NS         0.0676
     14 C15        15.2500    8.0200  -19.8380 C.ar      1 7NS        -0.0035
     15 H1         17.2996   10.5981  -20.6841 H         1 7NS         0.0842
     16 H3         19.8918    8.5978  -23.7749 H         1 7NS         0.2052
     17 H5         16.8749    6.7675  -22.5254 H         1 7NS         0.0796
     18 H6         16.0766    4.9405  -22.5151 H         1 7NS         0.1862
     19 H7         14.9178    2.8363  -21.0561 H         1 7NS         0.1021
     20 H8         13.8252    3.3897  -22.3701 H         1 7NS         0.1021
     21 H9         12.4037    3.7203  -20.1480 H         1 7NS         0.1341
     22 H10        13.5637    5.7680  -18.9604 H         1 7NS         0.1001
     23 H11        14.5029    7.7574  -19.0978 H         1 7NS         0.0807
@<TRIPOS>BOND
     1    1    2 1  
     2    2    3 ar 
     3    2   14 ar 
     4    3    4 ar 
     5    4    5 1  
     6    4    7 ar 
     7    5    6 1  
     8    7    8 ar 
     9    8    9 1  
    10    8   14 ar 
    11    9   10 2  
    12    9   13 1  
    13   10   11 1  
    14   11   12 1  
    15   12   13 2  
    16    3   15 1  
    17    6   16 1  
    18    7   17 1  
    19   10   18 1  
    20   11   19 1  
    21   11   20 1  
    22   12   21 1  
    23   13   22 1  
    24   14   23 1  
@<TRIPOS>SUBSTRUCTURE
     1 7NS         1

