### 
### Created by X-TOOL on Mon Sep 10 21:13:11 2018
### 

@<TRIPOS>MOLECULE
4a4o_ligand
   62    66     1     0     0
SMALL
GAST_HUCK


@<TRIPOS>ATOM
      1 N1         10.6770   42.6400    8.1170 N.ar      1 664        -0.2636
      2 C2         10.8770   44.0220    8.3330 C.ar      1 664         0.1961
      3 C6         10.0820   41.9210    9.0040 C.ar      1 664         0.0041
      4 N3         10.4630   44.5850    9.4260 N.ar      1 664        -0.2608
      5 N7         11.5380   44.7730    7.3180 N.pl3     1 664        -0.2488
      6 C4          9.8000   43.8630   10.4470 C.ar      1 664         0.0582
      7 C5          9.6000   42.5410   10.2550 C.ar      1 664        -0.0258
      8 C26         9.3260   44.5630   11.6970 C.2       1 664         0.0795
      9 C8         11.8620   46.1710    7.3880 C.ar      1 664         0.0845
     10 C10        13.4550   48.0540    7.0520 C.ar      1 664        -0.0528
     11 C9         13.1030   46.5870    6.9840 C.ar      1 664         0.1110
     12 C11        12.5550   48.9470    7.5030 C.ar      1 664        -0.0642
     13 C13        10.8810   47.1720    7.8840 C.ar      1 664        -0.0288
     14 C12        11.1980   48.4970    7.9410 C.ar      1 664         0.0192
     15 O14        14.0210   45.5940    6.5010 O.3       1 664        -0.2393
     16 N15        10.2500   49.4520    8.4050 N.pl3     1 664        -0.3207
     17 C16         8.7950   49.1770    8.2200 C.3       1 664         0.0060
     18 C17         7.9090   49.9670    9.2000 C.3       1 664        -0.0936
     19 N18         8.4090   51.3520    9.3020 N.4       1 664         0.4033
     20 C19         9.7140   51.3240    9.9620 C.3       1 664        -0.0936
     21 C20        10.7470   50.6960    9.0260 C.3       1 664         0.0060
     22 C21         7.4900   52.1480   10.1110 C.3       1 664        -0.1255
     23 C22        14.3900   45.6570    5.0820 C.3       1 664         0.5419
     24 F23        15.3110   46.6730    4.8560 F         1 664        -0.1406
     25 F24        13.2590   45.8580    4.2880 F         1 664        -0.1406
     26 F25        14.9710   44.4510    4.7260 F         1 664        -0.1406
     27 N27         9.7520   45.8590   12.1770 N.pl3     1 664        -0.2558
     28 C28         8.4020   44.0700   12.5580 C.2       1 664        -0.0506
     29 C29         8.2460   45.0960   13.6040 C.2       1 664         0.0463
     30 C30         9.0500   46.1270   13.3500 C.2       1 664         0.0778
     31 C31         9.1450   47.3680   14.2190 C.3       1 664         0.0334
     32 C32         8.0320   47.3960   15.3420 C.3       1 664         0.0441
     33 N33         7.4530   46.0730   15.6860 N.am      1 664        -0.2896
     34 C34         7.3580   45.0780   14.7740 C.2       1 664         0.1768
     35 O35         6.5320   44.1890   14.9290 O.2       1 664        -0.4036
     36 C36        10.7230   46.7590   11.5760 C.3       1 664         0.0450
     37 H           9.9340   40.8549    8.8318 H         1 664         0.0858
     38 H          11.8040   44.2750    6.4685 H         1 664         0.2147
     39 H           9.0915   41.9419   11.0104 H         1 664         0.0614
     40 H          14.4419   48.3908    6.7346 H         1 664         0.0477
     41 H          12.8166   50.0041    7.5493 H         1 664         0.0394
     42 H           9.8937   46.8418    8.2069 H         1 664         0.0402
     43 H           8.6302   48.1152    8.4028 H         1 664         0.0489
     44 H           8.5244   49.4786    7.2081 H         1 664         0.0489
     45 H           7.9400   49.4947   10.1819 H         1 664         0.0036
     46 H           6.8813   49.9759    8.8368 H         1 664         0.0036
     47 H           9.6459   50.7334   10.8756 H         1 664         0.0036
     48 H          10.0182   52.3415   10.2076 H         1 664         0.0036
     49 H          10.9639   51.4097    8.2312 H         1 664         0.0489
     50 H          11.6334   50.4529    9.6119 H         1 664         0.0489
     51 H           6.5057   52.1518    9.6427 H         1 664        -0.0019
     52 H           7.4175   51.7147   11.1085 H         1 664        -0.0019
     53 H           7.8633   53.1695   10.1835 H         1 664        -0.0019
     54 H           7.8828   43.1140   12.4905 H         1 664         0.0422
     55 H           9.0057   48.2407   13.5810 H         1 664         0.0514
     56 H          10.1197   47.3671   14.7069 H         1 664         0.0514
     57 H           7.2145   48.0069   14.9591 H         1 664         0.0547
     58 H           8.5074   47.7758   16.2463 H         1 664         0.0547
     59 H           7.1178   45.9097   16.6354 H         1 664         0.1835
     60 H          11.6899   46.2595   11.5143 H         1 664         0.0580
     61 H          10.3904   47.0345   10.5752 H         1 664         0.0580
     62 H          10.8141   47.6553   12.1895 H         1 664         0.0580
@<TRIPOS>BOND
     1    1    2 ar 
     2    1    3 ar 
     3    2    4 ar 
     4    2    5 1  
     5    3    7 ar 
     6    4    6 ar 
     7    5    9 1  
     8    6    7 ar 
     9    6    8 1  
    10    8   27 1  
    11    8   28 2  
    12    9   11 ar 
    13    9   13 ar 
    14   11   10 ar 
    15   10   12 ar 
    16   11   15 1  
    17   12   14 ar 
    18   13   14 ar 
    19   14   16 1  
    20   15   23 1  
    21   16   17 1  
    22   16   21 1  
    23   17   18 1  
    24   18   19 1  
    25   19   20 1  
    26   19   22 1  
    27   20   21 1  
    28   23   24 1  
    29   23   25 1  
    30   23   26 1  
    31   27   30 1  
    32   27   36 1  
    33   28   29 1  
    34   29   30 2  
    35   29   34 1  
    36   30   31 1  
    37   31   32 1  
    38   32   33 1  
    39   33   34 am 
    40   34   35 2  
    41    3   37 1  
    42    5   38 1  
    43    7   39 1  
    44   10   40 1  
    45   12   41 1  
    46   13   42 1  
    47   17   43 1  
    48   17   44 1  
    49   18   45 1  
    50   18   46 1  
    51   20   47 1  
    52   20   48 1  
    53   21   49 1  
    54   21   50 1  
    55   22   51 1  
    56   22   52 1  
    57   22   53 1  
    58   28   54 1  
    59   31   55 1  
    60   31   56 1  
    61   32   57 1  
    62   32   58 1  
    63   33   59 1  
    64   36   60 1  
    65   36   61 1  
    66   36   62 1  
@<TRIPOS>SUBSTRUCTURE
     1 664         1

