4a4o_ligand
  -I-interpret- 

 63 67  0  0  0  0  0  0  0  0999 V2000
   10.6770   42.6400    8.1170 N   0  0  0  0  0
   10.8770   44.0220    8.3330 C   0  0  0  0  0
   10.0820   41.9210    9.0040 C   0  0  0  0  0
   10.4630   44.5850    9.4260 N   0  0  0  0  0
   11.5380   44.7730    7.3180 N   0  0  0  0  0
    9.8000   43.8630   10.4470 C   0  0  0  0  0
    9.6000   42.5410   10.2550 C   0  0  0  0  0
    9.3260   44.5630   11.6970 C   0  0  0  0  0
   11.8620   46.1710    7.3880 C   0  0  0  0  0
   13.4550   48.0540    7.0520 C   0  0  0  0  0
   13.1030   46.5870    6.9840 C   0  0  0  0  0
   12.5550   48.9470    7.5030 C   0  0  0  0  0
   10.8810   47.1720    7.8840 C   0  0  0  0  0
   11.1980   48.4970    7.9410 C   0  0  0  0  0
   14.0210   45.5940    6.5010 O   0  0  0  0  0
   10.2500   49.4520    8.4050 N   0  0  0  0  0
    8.7950   49.1770    8.2200 C   0  0  0  0  0
    7.9090   49.9670    9.2000 C   0  0  0  0  0
    8.4090   51.3520    9.3020 N   0  3  0  0  0
    9.7140   51.3240    9.9620 C   0  0  0  0  0
   10.7470   50.6960    9.0260 C   0  0  0  0  0
    7.4900   52.1480   10.1110 C   0  0  0  0  0
   14.3900   45.6570    5.0820 C   0  0  0  0  0
   15.3110   46.6730    4.8560 F   0  0  0  0  0
   13.2590   45.8580    4.2880 F   0  0  0  0  0
   14.9710   44.4510    4.7260 F   0  0  0  0  0
    9.7520   45.8590   12.1770 N   0  0  0  0  0
    8.4020   44.0700   12.5580 C   0  0  0  0  0
    8.2460   45.0960   13.6040 C   0  0  0  0  0
    9.0500   46.1270   13.3500 C   0  0  0  0  0
    9.1450   47.3680   14.2190 C   0  0  0  0  0
    8.0320   47.3960   15.3420 C   0  0  0  0  0
    7.4530   46.0730   15.6860 N   0  0  0  0  0
    7.3580   45.0780   14.7740 C   0  0  0  0  0
    6.5320   44.1890   14.9290 O   0  0  0  0  0
   10.7230   46.7590   11.5760 C   0  0  0  0  0
    9.9340   40.8549    8.8318 H   0  0  0  0  0
   11.8040   44.2750    6.4685 H   0  0  0  0  0
    9.0915   41.9419   11.0104 H   0  0  0  0  0
   14.4419   48.3908    6.7346 H   0  0  0  0  0
   12.8166   50.0041    7.5493 H   0  0  0  0  0
    9.8937   46.8418    8.2069 H   0  0  0  0  0
    8.6302   48.1152    8.4028 H   0  0  0  0  0
    8.5244   49.4786    7.2081 H   0  0  0  0  0
    7.9400   49.4947   10.1819 H   0  0  0  0  0
    6.8813   49.9759    8.8368 H   0  0  0  0  0
    8.4844   51.7621    8.3711 H   0  0  0  0  0
    9.6459   50.7334   10.8756 H   0  0  0  0  0
   10.0182   52.3415   10.2076 H   0  0  0  0  0
   10.9639   51.4097    8.2312 H   0  0  0  0  0
   11.6334   50.4529    9.6119 H   0  0  0  0  0
    6.5057   52.1518    9.6427 H   0  0  0  0  0
    7.4175   51.7147   11.1085 H   0  0  0  0  0
    7.8633   53.1695   10.1835 H   0  0  0  0  0
    7.8828   43.1140   12.4905 H   0  0  0  0  0
    9.0057   48.2407   13.5810 H   0  0  0  0  0
   10.1197   47.3671   14.7069 H   0  0  0  0  0
    7.2145   48.0069   14.9591 H   0  0  0  0  0
    8.5074   47.7758   16.2463 H   0  0  0  0  0
    7.1178   45.9097   16.6354 H   0  0  0  0  0
   11.6899   46.2595   11.5143 H   0  0  0  0  0
   10.3904   47.0345   10.5752 H   0  0  0  0  0
   10.8141   47.6553   12.1895 H   0  0  0  0  0
  1  2  4  0  0  0
  1  3  4  0  0  0
  2  4  4  0  0  0
  2  5  1  0  0  0
  3  7  4  0  0  0
  4  6  4  0  0  0
  5  9  1  0  0  0
  6  7  4  0  0  0
  6  8  1  0  0  0
  8 27  4  0  0  0
  8 28  4  0  0  0
  9 11  4  0  0  0
  9 13  4  0  0  0
 11 10  4  0  0  0
 10 12  4  0  0  0
 11 15  1  0  0  0
 12 14  4  0  0  0
 13 14  4  0  0  0
 14 16  1  0  0  0
 15 23  1  0  0  0
 16 17  1  0  0  0
 16 21  1  0  0  0
 17 18  1  0  0  0
 18 19  1  0  0  0
 19 20  1  0  0  0
 19 22  1  0  0  0
 20 21  1  0  0  0
 23 24  1  0  0  0
 23 25  1  0  0  0
 23 26  1  0  0  0
 27 30  4  0  0  0
 27 36  1  0  0  0
 28 29  4  0  0  0
 29 30  4  0  0  0
 29 34  1  0  0  0
 30 31  1  0  0  0
 31 32  1  0  0  0
 32 33  1  0  0  0
 33 34  1  0  0  0
 34 35  2  0  0  0
  3 37  1  0  0  0
  5 38  1  0  0  0
  7 39  1  0  0  0
 10 40  1  0  0  0
 12 41  1  0  0  0
 13 42  1  0  0  0
 17 43  1  0  0  0
 17 44  1  0  0  0
 18 45  1  0  0  0
 18 46  1  0  0  0
 19 47  1  0  0  0
 20 48  1  0  0  0
 20 49  1  0  0  0
 21 50  1  0  0  0
 21 51  1  0  0  0
 22 52  1  0  0  0
 22 53  1  0  0  0
 22 54  1  0  0  0
 28 55  1  0  0  0
 31 56  1  0  0  0
 31 57  1  0  0  0
 32 58  1  0  0  0
 32 59  1  0  0  0
 33 60  1  0  0  0
 36 61  1  0  0  0
 36 62  1  0  0  0
 36 63  1  0  0  0
M  END
$$$$
