4omk_ligand
  -I-interpret- 

 92 91  0  0  0  0  0  0  0  0999 V2000
   13.8780   -0.2390    8.9390 C   0  0  0  0  0
   14.1480    0.7280    7.8130 C   0  0  0  0  0
   13.1270    0.9070    6.6950 C   0  0  0  0  0
   15.4190    1.5320    7.8130 C   0  0  0  0  0
   16.4610    1.4020    8.9240 C   0  0  0  0  0
   17.7360    1.8440    8.2750 C   0  0  0  0  0
   18.9070    1.8990    9.2240 C   0  0  0  0  0
   19.3430    0.6440    9.9740 C   0  0  0  0  0
   19.6530    3.2210    9.3220 C   0  0  0  0  0
   20.8860    3.2480   10.2150 C   0  0  0  0  0
   21.3690    4.6760   10.3880 C   0  0  0  0  0
   21.8830    5.2340    9.0600 C   0  0  0  0  0
   22.9020    4.4690    8.2430 C   0  0  0  0  0
   21.4130    6.5620    8.5200 C   0  0  0  0  0
   20.4330    7.4230    9.2810 C   0  0  0  0  0
   20.8800    8.8520    9.0650 C   0  0  0  0  0
   20.5960    9.3130    7.6260 C   0  0  0  0  0
   19.5790   10.4280    7.3550 C   0  0  0  0  0
   18.8290   11.0820    8.4950 C   0  0  0  0  0
   19.2960   10.8950    5.9330 C   0  0  0  0  0
   17.7800   11.0310    5.7510 C   0  0  0  0  0
   17.5010   11.6650    4.4110 C   0  0  0  0  0
   16.3880   12.6900    4.2230 C   0  0  0  0  0
   15.5280   13.1540    5.4110 C   0  0  0  0  0
   14.1800   13.7590    4.9880 C   0  0  0  0  0
   13.1470   12.6640    4.7800 C   0  0  0  0  0
   12.4070   11.6140    3.9670 C   0  0  0  0  0
   11.2100   10.9320    4.6050 C   0  0  0  0  0
   12.8750   11.1800    2.5730 C   0  0  0  0  0
   16.2170   13.2820    2.8260 C   0  0  0  0  0
   14.6692   -0.9881    8.9705 H   0  0  0  0  0
   13.8520    0.3037    9.8839 H   0  0  0  0  0
   12.9185   -0.7288    8.7733 H   0  0  0  0  0
   14.3695    0.0408    6.9964 H   0  0  0  0  0
   12.7829    1.9412    6.6811 H   0  0  0  0  0
   13.5907    0.6641    5.7389 H   0  0  0  0  0
   12.2800    0.2432    6.8685 H   0  0  0  0  0
   15.0710    2.5606    7.9077 H   0  0  0  0  0
   15.9452    1.1788    6.9262 H   0  0  0  0  0
   16.5255    0.3863    9.3143 H   0  0  0  0  0
   16.2113    2.0032    9.7982 H   0  0  0  0  0
   17.5765    2.8523    7.8929 H   0  0  0  0  0
   17.9773    1.1177    7.4989 H   0  0  0  0  0
   18.9097    1.7509   10.3039 H   0  0  0  0  0
   20.3510    0.3686    9.6637 H   0  0  0  0  0
   19.3325    0.8409   11.0460 H   0  0  0  0  0
   18.6559   -0.1710    9.7462 H   0  0  0  0  0
   18.9503    3.9298    9.7601 H   0  0  0  0  0
   20.0077    3.4402    8.3149 H   0  0  0  0  0
   21.6761    2.6552    9.7541 H   0  0  0  0  0
   20.6316    2.8344   11.1909 H   0  0  0  0  0
   22.1811    4.6889   11.1149 H   0  0  0  0  0
   20.5375    5.2912   10.7318 H   0  0  0  0  0
   21.1894    4.9633    9.8561 H   0  0  0  0  0
   23.8086    4.3311    8.8322 H   0  0  0  0  0
   22.4920    3.4962    7.9717 H   0  0  0  0  0
   23.1366    5.0308    7.3389 H   0  0  0  0  0
   20.8737    6.2964    7.6108 H   0  0  0  0  0
   22.3201    7.1657    8.4898 H   0  0  0  0  0
   20.4228    7.1680   10.3407 H   0  0  0  0  0
   19.4138    7.2698    8.9262 H   0  0  0  0  0
   21.9537    8.9110    9.2434 H   0  0  0  0  0
   20.3297    9.4958    9.7512 H   0  0  0  0  0
   20.1686    8.4351    7.1415 H   0  0  0  0  0
   21.5451    9.7250    7.2830 H   0  0  0  0  0
   20.4864    9.8489    7.5265 H   0  0  0  0  0
   18.2488   10.3277    9.0266 H   0  0  0  0  0
   19.5410   11.5435    9.1793 H   0  0  0  0  0
   18.1589   11.8442    8.0974 H   0  0  0  0  0
   19.6903   10.1703    5.2206 H   0  0  0  0  0
   19.7772   11.8571    5.7573 H   0  0  0  0  0
   17.3690   11.6543    6.5452 H   0  0  0  0  0
   17.3147   10.0463    5.7957 H   0  0  0  0  0
   17.1868   10.8264    3.7895 H   0  0  0  0  0
   18.4093   12.2289    4.1986 H   0  0  0  0  0
   15.3897   12.4001    4.5508 H   0  0  0  0  0
   16.0853   13.9286    5.9378 H   0  0  0  0  0
   15.3173   12.2791    6.0260 H   0  0  0  0  0
   14.3136   14.3021    4.0525 H   0  0  0  0  0
   13.8313   14.4303    5.7727 H   0  0  0  0  0
   12.3267   13.3778    4.7048 H   0  0  0  0  0
   13.7569   11.9176    5.2889 H   0  0  0  0  0
   12.3438   12.3456    3.1615 H   0  0  0  0  0
   11.5274   10.4173    5.5119 H   0  0  0  0  0
   10.4576   11.6801    4.8547 H   0  0  0  0  0
   10.7886   10.2107    3.9049 H   0  0  0  0  0
   12.8786   12.0431    1.9073 H   0  0  0  0  0
   13.8818   10.7679    2.6411 H   0  0  0  0  0
   12.1962   10.4216    2.1830 H   0  0  0  0  0
   17.1357   13.7902    2.5332 H   0  0  0  0  0
   16.0012   12.4821    2.1177 H   0  0  0  0  0
   15.3924   13.9948    2.8333 H   0  0  0  0  0
  1  2  1  0  0  0
  2  3  1  0  0  0
  2  4  1  0  0  0
  4  5  1  0  0  0
  5  6  1  0  0  0
  6  7  1  0  0  0
  7  8  1  0  0  0
  7  9  1  0  0  0
  9 10  1  0  0  0
 10 11  1  0  0  0
 11 12  1  0  0  0
 12 13  1  0  0  0
 12 14  1  0  0  0
 14 15  1  0  0  0
 15 16  1  0  0  0
 16 17  1  0  0  0
 17 18  1  0  0  0
 18 19  1  0  0  0
 18 20  1  0  0  0
 20 21  1  0  0  0
 21 22  1  0  0  0
 22 23  1  0  0  0
 23 24  1  0  0  0
 23 30  1  0  0  0
 24 25  1  0  0  0
 25 26  1  0  0  0
 26 27  1  0  0  0
 27 28  1  0  0  0
 27 29  1  0  0  0
  1 31  1  0  0  0
  1 32  1  0  0  0
  1 33  1  0  0  0
  2 34  1  0  0  0
  3 35  1  0  0  0
  3 36  1  0  0  0
  3 37  1  0  0  0
  4 38  1  0  0  0
  4 39  1  0  0  0
  5 40  1  0  0  0
  5 41  1  0  0  0
  6 42  1  0  0  0
  6 43  1  0  0  0
  7 44  1  0  0  0
  8 45  1  0  0  0
  8 46  1  0  0  0
  8 47  1  0  0  0
  9 48  1  0  0  0
  9 49  1  0  0  0
 10 50  1  0  0  0
 10 51  1  0  0  0
 11 52  1  0  0  0
 11 53  1  0  0  0
 12 54  1  0  0  0
 13 55  1  0  0  0
 13 56  1  0  0  0
 13 57  1  0  0  0
 14 58  1  0  0  0
 14 59  1  0  0  0
 15 60  1  0  0  0
 15 61  1  0  0  0
 16 62  1  0  0  0
 16 63  1  0  0  0
 17 64  1  0  0  0
 17 65  1  0  0  0
 18 66  1  0  0  0
 19 67  1  0  0  0
 19 68  1  0  0  0
 19 69  1  0  0  0
 20 70  1  0  0  0
 20 71  1  0  0  0
 21 72  1  0  0  0
 21 73  1  0  0  0
 22 74  1  0  0  0
 22 75  1  0  0  0
 23 76  1  0  0  0
 24 77  1  0  0  0
 24 78  1  0  0  0
 25 79  1  0  0  0
 25 80  1  0  0  0
 26 81  1  0  0  0
 26 82  1  0  0  0
 27 83  1  0  0  0
 28 84  1  0  0  0
 28 85  1  0  0  0
 28 86  1  0  0  0
 29 87  1  0  0  0
 29 88  1  0  0  0
 29 89  1  0  0  0
 30 90  1  0  0  0
 30 91  1  0  0  0
 30 92  1  0  0  0
M  END
$$$$
