4aia_ligand
  -I-interpret- 

 18 19  0  0  0  0  0  0  0  0999 V2000
   30.5610  -19.8250    2.7660 N   0  0  0  0  0
   29.7040  -20.8150    2.4760 C   0  0  0  0  0
   29.9060  -22.1390    2.2820 N   0  0  0  0  0
   28.8360  -22.9570    1.9950 C   0  0  0  0  0
   27.6130  -22.4810    1.9080 N   0  0  0  0  0
   27.4230  -21.1340    2.1200 C   0  0  0  0  0
   26.1920  -20.6440    2.0520 N   0  0  0  0  0
   28.4630  -20.3160    2.4140 C   0  0  0  0  0
   28.5560  -19.0100    2.6660 N   0  0  0  0  0
   29.8380  -18.6900    2.8940 C   0  0  0  0  0
   31.2850  -22.7350    2.3440 C   0  0  0  0  0
   29.0063  -24.0219    1.8365 H   0  0  0  0  0
   25.4076  -21.2625    1.8458 H   0  0  0  0  0
   26.0300  -19.6488    2.2059 H   0  0  0  0  0
   30.2247  -17.7003    3.1370 H   0  0  0  0  0
   31.9146  -22.2705    1.5851 H   0  0  0  0  0
   31.7122  -22.5572    3.3309 H   0  0  0  0  0
   31.2243  -23.8078    2.1608 H   0  0  0  0  0
  1  2  4  0  0  0
  1 10  4  0  0  0
  2  3  4  0  0  0
  2  8  1  0  0  0
  3  4  4  0  0  0
  3 11  1  0  0  0
  4  5  4  0  0  0
  5  6  4  0  0  0
  6  7  1  0  0  0
  6  8  4  0  0  0
  8  9  4  0  0  0
  9 10  4  0  0  0
  4 12  1  0  0  0
  7 13  1  0  0  0
  7 14  1  0  0  0
 10 15  1  0  0  0
 11 16  1  0  0  0
 11 17  1  0  0  0
 11 18  1  0  0  0
M  END
$$$$
