3ft2_ligand
  -I-interpret- 

151150  0  0  0  0  0  0  0  0999 V2000
  -15.2950    1.6420    8.2170 N   0  3  0  0  0
  -15.8900    2.9780    7.9470 C   0  0  0  0  0
  -15.3140    4.0570    8.8880 C   0  0  0  0  0
  -15.1460    3.8100   10.0810 O   0  0  0  0  0
  -17.4450    2.8460    7.9950 C   0  0  0  0  0
  -18.1130    3.7700    9.0000 C   0  0  0  0  0
  -18.0440    2.9000    6.5910 C   0  0  0  0  0
  -15.0140    5.2390    8.3390 N   0  0  0  0  0
  -14.5550    6.3830    9.1340 C   0  0  0  0  0
  -15.6660    6.8910   10.0420 C   0  0  0  0  0
  -16.8460    6.6480    9.7720 O   0  0  0  0  0
  -14.0880    7.5290    8.2320 C   0  0  0  0  0
  -12.8400    7.3740    7.3700 C   0  0  0  0  0
  -12.8140    8.5410    6.4220 C   0  0  0  0  0
  -11.5730    7.3530    8.2320 C   0  0  0  0  0
  -16.9790    9.4040   11.0390 C   0  0  0  0  0
  -16.3870    9.9630   10.0850 O   0  0  0  0  0
  -16.2180    8.4370   11.9110 C   0  0  0  0  0
  -15.3170    7.5960   11.1270 N   0  0  0  0  0
  -15.4280    9.2450   12.9420 C   0  0  0  0  0
  -14.8390    8.3730   14.0350 C   0  0  0  0  0
  -14.0770    9.2770   15.0070 C   0  0  0  0  0
  -13.2020    8.5330   15.9010 N   0  0  0  0  0
  -13.5960    7.8530   16.9700 C   0  0  0  0  0
  -12.7670    7.3270   17.7000 O   0  0  0  0  0
  -14.9030    7.7720   17.2300 N   0  0  0  0  0
  -18.2090    9.6960   11.4620 N   0  0  0  0  0
  -19.0720   10.6990   10.7640 C   0  0  0  0  0
  -18.4930   12.1100   10.8040 C   0  0  0  0  0
  -18.6890   12.8840    9.8620 O   0  0  0  0  0
  -20.4810   10.7220   11.3620 C   0  0  0  0  0
  -21.3300    9.5260   10.9400 C   0  0  0  0  0
  -20.9150    8.7570   10.0410 O   0  0  0  0  0
  -22.4300    9.3590   11.5140 O   0  0  0  0  0
  -17.8030   12.4470   11.8960 N   0  0  0  0  0
  -17.2750   13.8020   12.0770 C   0  0  0  0  0
  -16.1150   13.8540   13.0840 C   0  0  0  0  0
  -15.9890   12.9810   13.9470 O   0  0  0  0  0
  -18.4080   14.7410   12.5210 C   0  0  0  0  0
  -18.0150   16.2160   12.4610 C   0  0  0  0  0
  -17.3210   16.6300   11.5040 O   0  0  0  0  0
  -18.4080   16.9610   13.3830 O   0  0  0  0  0
  -15.2660   14.8740   12.9590 N   0  0  0  0  0
  -14.2570   15.1660   13.9820 C   0  0  0  0  0
  -14.3400   16.6250   14.4070 C   0  0  0  0  0
  -14.3650   17.5250   13.5540 O   0  0  0  0  0
  -12.8400   14.8770   13.4790 C   0  0  0  0  0
  -12.3200   13.4630   13.2360 C   0  0  0  0  0
  -10.8980   13.5580   12.7390 C   0  0  0  0  0
  -12.4040   12.5990   14.4860 C   0  0  0  0  0
  -14.3660   16.8580   15.7150 N   0  0  0  0  0
  -14.3640   18.2170   16.2510 C   0  0  0  0  0
  -12.9350   18.7590   16.3190 C   0  0  0  0  0
  -11.9880   18.0230   16.6190 O   0  0  0  0  0
  -15.0290   18.2820   17.6310 C   0  0  0  0  0
  -15.3080   19.6820   18.2240 C   0  0  0  0  0
  -16.6220   20.2480   17.7180 C   0  0  0  0  0
  -15.3030   19.6690   19.7440 C   0  0  0  0  0
  -12.8040   20.0530   16.0450 N   0  0  0  0  0
  -11.5160   20.7450   16.0870 C   0  0  0  0  0
  -10.9530   20.7830   17.5130 C   0  0  0  0  0
  -11.7060   20.8430   18.4820 O   0  0  0  0  0
  -11.6610   22.1640   15.5010 C   0  0  0  0  0
  -12.0770   22.1620   14.0100 C   0  0  0  0  0
  -12.5560   23.5160   13.4660 C   0  0  0  0  0
  -12.5970   24.5250   14.2140 O   0  0  0  0  0
  -12.8960   23.5640   12.2590 O   0  0  0  0  0
   -9.6260   20.7330   17.6150 N   0  0  0  0  0
   -8.8840   20.7960   18.8810 C   0  0  0  0  0
   -8.8100   22.1890   19.4960 C   0  0  0  0  0
   -9.2590   23.1670   18.9090 O   0  0  0  0  0
   -7.4710   20.2660   18.6680 C   0  0  0  0  0
   -8.2690   22.3800   20.6050 O   0  0  0  0  0
  -14.2778    1.7122    8.1890 H   0  0  0  0  0
  -15.5895    1.3200    9.1390 H   0  0  0  0  0
  -15.6111    0.9807    7.5076 H   0  0  0  0  0
  -15.6197    3.3225    6.9488 H   0  0  0  0  0
  -17.6688    1.8544    8.3883 H   0  0  0  0  0
  -18.0269    4.8010    8.6569 H   0  0  0  0  0
  -19.1658    3.5034    9.0929 H   0  0  0  0  0
  -17.6237    3.6659    9.9684 H   0  0  0  0  0
  -19.0953    2.6156    6.6347 H   0  0  0  0  0
  -17.9564    3.9132    6.1987 H   0  0  0  0  0
  -17.5062    2.2096    5.9411 H   0  0  0  0  0
  -15.1079    5.3491    7.3293 H   0  0  0  0  0
  -13.7171    6.0399    9.7409 H   0  0  0  0  0
  -13.8380    8.3321    8.9253 H   0  0  0  0  0
  -14.8978    7.6524    7.5130 H   0  0  0  0  0
  -12.8678    6.4297    6.8264 H   0  0  0  0  0
  -13.7130    8.5270    5.8058 H   0  0  0  0  0
  -12.7769    9.4695    6.9917 H   0  0  0  0  0
  -11.9333    8.4694    5.7837 H   0  0  0  0  0
  -11.4987    8.2868    8.7893 H   0  0  0  0  0
  -11.6226    6.5158    8.9283 H   0  0  0  0  0
  -10.6997    7.2414    7.5894 H   0  0  0  0  0
  -16.9240    7.7703   12.4061 H   0  0  0  0  0
  -14.3445    7.5409   11.4295 H   0  0  0  0  0
  -16.1113    9.9544   13.4089 H   0  0  0  0  0
  -14.6050    9.7378   12.4245 H   0  0  0  0  0
  -14.1646    7.6337   13.6028 H   0  0  0  0  0
  -15.6329    7.8420   14.5602 H   0  0  0  0  0
  -14.8103    9.8027   15.6186 H   0  0  0  0  0
  -13.4564    9.9523   14.4181 H   0  0  0  0  0
  -12.2044    8.5345   15.6883 H   0  0  0  0  0
  -15.2289    7.2634   18.0519 H   0  0  0  0  0
  -15.5756    8.2187   16.6068 H   0  0  0  0  0
  -18.5732    9.2205   12.2876 H   0  0  0  0  0
  -19.1144   10.3813    9.7222 H   0  0  0  0  0
  -20.9780   11.6237   11.0042 H   0  0  0  0  0
  -20.3809   10.6908   12.4469 H   0  0  0  0  0
  -20.0570    9.0590    9.7341 H   0  0  0  0  0
  -17.6399   11.7467   12.6195 H   0  0  0  0  0
  -16.8743   14.1293   11.1176 H   0  0  0  0  0
  -18.6513   14.5030   13.5565 H   0  0  0  0  0
  -19.2486   14.5924   11.8432 H   0  0  0  0  0
  -17.1284   15.9003   10.9107 H   0  0  0  0  0
  -15.3196   15.4665   12.1305 H   0  0  0  0  0
  -14.4650   14.5164   14.8322 H   0  0  0  0  0
  -12.2087   15.2387   14.2906 H   0  0  0  0  0
  -12.8340   15.3195   12.4829 H   0  0  0  0  0
  -12.9474   12.9785   12.4878 H   0  0  0  0  0
  -10.8763   14.1289   11.8107 H   0  0  0  0  0
  -10.2850   14.0579   13.4889 H   0  0  0  0  0
  -10.5094   12.5555   12.5597 H   0  0  0  0  0
  -11.8063   13.0495   15.2784 H   0  0  0  0  0
  -13.4429   12.5285   14.8082 H   0  0  0  0  0
  -12.0228   11.6024   14.2635 H   0  0  0  0  0
  -14.3879   16.0686   16.3606 H   0  0  0  0  0
  -14.9480   18.8415   15.5750 H   0  0  0  0  0
  -14.3276   17.8074   18.3172 H   0  0  0  0  0
  -16.0065   17.8156   17.5077 H   0  0  0  0  0
  -14.4960   20.3264   17.8872 H   0  0  0  0  0
  -16.5851   20.3336   16.6320 H   0  0  0  0  0
  -17.4368   19.5828   18.0038 H   0  0  0  0  0
  -16.7846   21.2328   18.1560 H   0  0  0  0  0
  -16.0741   18.9873   20.1028 H   0  0  0  0  0
  -14.3279   19.3364   20.1000 H   0  0  0  0  0
  -15.5034   20.6740   20.1153 H   0  0  0  0  0
  -13.6369   20.5860   15.7949 H   0  0  0  0  0
  -10.8033   20.1914   15.4756 H   0  0  0  0  0
  -10.6905   22.6548   15.5747 H   0  0  0  0  0
  -12.4410   22.6776   16.0630 H   0  0  0  0  0
  -12.9162   21.4724   13.9191 H   0  0  0  0  0
  -11.1907   21.8892   13.4371 H   0  0  0  0  0
  -12.2989   24.2822   15.0936 H   0  0  0  0  0
   -9.0872   20.6448   16.7534 H   0  0  0  0  0
   -9.4393   20.1786   19.5871 H   0  0  0  0  0
   -7.5198   19.2323   18.3256 H   0  0  0  0  0
   -6.9651   20.8748   17.9187 H   0  0  0  0  0
   -6.9211   20.3131   19.6080 H   0  0  0  0  0
   -7.9612   21.5421   20.9582 H   0  0  0  0  0
  2  1  1  0  0  0
  3  2  1  0  0  0
  2  5  1  0  0  0
  3  4  2  0  0  0
  8  3  1  0  0  0
  5  6  1  0  0  0
  5  7  1  0  0  0
  9  8  1  0  0  0
 10  9  1  0  0  0
  9 12  1  0  0  0
 10 11  2  0  0  0
 19 10  1  0  0  0
 12 13  1  0  0  0
 13 14  1  0  0  0
 13 15  1  0  0  0
 16 17  2  0  0  0
 18 16  1  0  0  0
 16 27  1  0  0  0
 18 19  1  0  0  0
 18 20  1  0  0  0
 20 21  1  0  0  0
 21 22  1  0  0  0
 22 23  1  0  0  0
 23 24  1  0  0  0
 24 25  2  0  0  0
 24 26  1  0  0  0
 27 28  1  0  0  0
 28 29  1  0  0  0
 28 31  1  0  0  0
 29 30  2  0  0  0
 29 35  1  0  0  0
 31 32  1  0  0  0
 32 33  1  0  0  0
 32 34  2  0  0  0
 35 36  1  0  0  0
 36 37  1  0  0  0
 36 39  1  0  0  0
 37 38  2  0  0  0
 37 43  1  0  0  0
 39 40  1  0  0  0
 40 41  1  0  0  0
 40 42  2  0  0  0
 43 44  1  0  0  0
 44 45  1  0  0  0
 44 47  1  0  0  0
 45 46  2  0  0  0
 45 51  1  0  0  0
 47 48  1  0  0  0
 48 49  1  0  0  0
 48 50  1  0  0  0
 51 52  1  0  0  0
 52 53  1  0  0  0
 52 55  1  0  0  0
 53 54  2  0  0  0
 53 59  1  0  0  0
 55 56  1  0  0  0
 56 57  1  0  0  0
 56 58  1  0  0  0
 59 60  1  0  0  0
 60 61  1  0  0  0
 60 63  1  0  0  0
 61 62  2  0  0  0
 61 68  1  0  0  0
 63 64  1  0  0  0
 64 65  1  0  0  0
 65 66  1  0  0  0
 65 67  2  0  0  0
 68 69  1  0  0  0
 69 70  1  0  0  0
 69 72  1  0  0  0
 70 71  2  0  0  0
 70 73  1  0  0  0
  1 74  1  0  0  0
  1 75  1  0  0  0
  1 76  1  0  0  0
  2 77  1  0  0  0
  5 78  1  0  0  0
  6 79  1  0  0  0
  6 80  1  0  0  0
  6 81  1  0  0  0
  7 82  1  0  0  0
  7 83  1  0  0  0
  7 84  1  0  0  0
  8 85  1  0  0  0
  9 86  1  0  0  0
 12 87  1  0  0  0
 12 88  1  0  0  0
 13 89  1  0  0  0
 14 90  1  0  0  0
 14 91  1  0  0  0
 14 92  1  0  0  0
 15 93  1  0  0  0
 15 94  1  0  0  0
 15 95  1  0  0  0
 18 96  1  0  0  0
 19 97  1  0  0  0
 20 98  1  0  0  0
 20 99  1  0  0  0
 21100  1  0  0  0
 21101  1  0  0  0
 22102  1  0  0  0
 22103  1  0  0  0
 23104  1  0  0  0
 26105  1  0  0  0
 26106  1  0  0  0
 27107  1  0  0  0
 28108  1  0  0  0
 31109  1  0  0  0
 31110  1  0  0  0
 33111  1  0  0  0
 35112  1  0  0  0
 36113  1  0  0  0
 39114  1  0  0  0
 39115  1  0  0  0
 41116  1  0  0  0
 43117  1  0  0  0
 44118  1  0  0  0
 47119  1  0  0  0
 47120  1  0  0  0
 48121  1  0  0  0
 49122  1  0  0  0
 49123  1  0  0  0
 49124  1  0  0  0
 50125  1  0  0  0
 50126  1  0  0  0
 50127  1  0  0  0
 51128  1  0  0  0
 52129  1  0  0  0
 55130  1  0  0  0
 55131  1  0  0  0
 56132  1  0  0  0
 57133  1  0  0  0
 57134  1  0  0  0
 57135  1  0  0  0
 58136  1  0  0  0
 58137  1  0  0  0
 58138  1  0  0  0
 59139  1  0  0  0
 60140  1  0  0  0
 63141  1  0  0  0
 63142  1  0  0  0
 64143  1  0  0  0
 64144  1  0  0  0
 66145  1  0  0  0
 68146  1  0  0  0
 69147  1  0  0  0
 72148  1  0  0  0
 72149  1  0  0  0
 72150  1  0  0  0
 73151  1  0  0  0
M  END
$$$$
