### 
### Created by X-TOOL on Mon Sep 10 21:13:00 2018
### 

@<TRIPOS>MOLECULE
3ft2_ligand
  147   146     1     0     0
SMALL
GAST_HUCK


@<TRIPOS>ATOM
      1 N         -15.2950    1.6420    8.2170 N.4       1 VAL         0.2381
      2 CA        -15.8900    2.9780    7.9470 C.3       1 VAL         0.0673
      3 C         -15.3140    4.0570    8.8880 C.2       1 VAL         0.2270
      4 O         -15.1460    3.8100   10.0810 O.2       1 VAL        -0.3907
      5 CB        -17.4450    2.8460    7.9950 C.3       1 VAL         0.0139
      6 CG1       -18.1130    3.7700    9.0000 C.3       1 VAL        -0.0553
      7 CG2       -18.0440    2.9000    6.5910 C.3       1 VAL        -0.0553
      8 N         -15.0140    5.2390    8.3390 N.am      1 LEU        -0.2610
      9 CA        -14.5550    6.3830    9.1340 C.3       1 LEU         0.1313
     10 C         -15.6660    6.8910   10.0420 C.2       1 LEU         0.2039
     11 O         -16.8460    6.6480    9.7720 O.2       1 LEU        -0.3944
     12 CB        -14.0880    7.5290    8.2320 C.3       1 LEU        -0.0101
     13 CG        -12.8400    7.3740    7.3700 C.3       1 LEU        -0.0425
     14 CD1       -12.8140    8.5410    6.4220 C.3       1 LEU        -0.0625
     15 CD2       -11.5730    7.3530    8.2320 C.3       1 LEU        -0.0625
     16 C1        -16.9790    9.4040   11.0390 C.2       1 CIR         0.2040
     17 O1        -16.3870    9.9630   10.0850 O.2       1 CIR        -0.3944
     18 C2        -16.2180    8.4370   11.9110 C.3       1 CIR         0.1310
     19 N2        -15.3170    7.5960   11.1270 N.am      1 CIR        -0.2637
     20 C3        -15.4280    9.2450   12.9420 C.3       1 CIR        -0.0106
     21 C4        -14.8390    8.3730   14.0350 C.3       1 CIR        -0.0288
     22 C5        -14.0770    9.2770   15.0070 C.3       1 CIR         0.0314
     23 N6        -13.2020    8.5330   15.9010 N.am      1 CIR        -0.2733
     24 C7        -13.5960    7.8530   16.9700 C.2       1 CIR         0.2548
     25 O7        -12.7670    7.3270   17.7000 O.2       1 CIR        -0.4010
     26 N8        -14.9030    7.7720   17.2300 N.am      1 CIR        -0.2870
     27 N         -18.2090    9.6960   11.4620 N.am      1 ASP        -0.2622
     28 CA        -19.0720   10.6990   10.7640 C.3       1 ASP         0.1423
     29 C         -18.4930   12.1100   10.8040 C.2       1 ASP         0.2057
     30 O         -18.6890   12.8840    9.8620 O.2       1 ASP        -0.3943
     31 CB        -20.4810   10.7220   11.3620 C.3       1 ASP         0.0406
     32 CG        -21.3300    9.5260   10.9400 C.2       1 ASP         0.0393
     33 OD1       -20.9150    8.7570   10.0410 O.co2     1 ASP        -0.5688
     34 OD2       -22.4300    9.3590   11.5140 O.co2     1 ASP        -0.5688
     35 N         -17.8030   12.4470   11.8960 N.am      1 ASP        -0.2621
     36 CA        -17.2750   13.8020   12.0770 C.3       1 ASP         0.1423
     37 C         -16.1150   13.8540   13.0840 C.2       1 ASP         0.2056
     38 O         -15.9890   12.9810   13.9470 O.2       1 ASP        -0.3943
     39 CB        -18.4080   14.7410   12.5210 C.3       1 ASP         0.0406
     40 CG        -18.0150   16.2160   12.4610 C.2       1 ASP         0.0393
     41 OD1       -17.3210   16.6300   11.5040 O.co2     1 ASP        -0.5688
     42 OD2       -18.4080   16.9610   13.3830 O.co2     1 ASP        -0.5688
     43 N         -15.2660   14.8740   12.9590 N.am      1 LEU        -0.2636
     44 CA        -14.2570   15.1660   13.9820 C.3       1 LEU         0.1312
     45 C         -14.3400   16.6250   14.4070 C.2       1 LEU         0.2039
     46 O         -14.3650   17.5250   13.5540 O.2       1 LEU        -0.3944
     47 CB        -12.8400   14.8770   13.4790 C.3       1 LEU        -0.0101
     48 CG        -12.3200   13.4630   13.2360 C.3       1 LEU        -0.0425
     49 CD1       -10.8980   13.5580   12.7390 C.3       1 LEU        -0.0625
     50 CD2       -12.4040   12.5990   14.4860 C.3       1 LEU        -0.0625
     51 N         -14.3660   16.8580   15.7150 N.am      1 LEU        -0.2637
     52 CA        -14.3640   18.2170   16.2510 C.3       1 LEU         0.1312
     53 C         -12.9350   18.7590   16.3190 C.2       1 LEU         0.2039
     54 O         -11.9880   18.0230   16.6190 O.2       1 LEU        -0.3944
     55 CB        -15.0290   18.2820   17.6310 C.3       1 LEU        -0.0101
     56 CG        -15.3080   19.6820   18.2240 C.3       1 LEU        -0.0425
     57 CD1       -16.6220   20.2480   17.7180 C.3       1 LEU        -0.0625
     58 CD2       -15.3030   19.6690   19.7440 C.3       1 LEU        -0.0625
     59 N         -12.8040   20.0530   16.0450 N.am      1 GLU        -0.2636
     60 CA        -11.5160   20.7450   16.0870 C.3       1 GLU         0.1324
     61 C         -10.9530   20.7830   17.5130 C.2       1 GLU         0.2034
     62 O         -11.7060   20.8430   18.4820 O.2       1 GLU        -0.3944
     63 CB        -11.6610   22.1640   15.5010 C.3       1 GLU        -0.0008
     64 CG        -12.0770   22.1620   14.0100 C.3       1 GLU         0.0044
     65 CD        -12.5560   23.5160   13.4660 C.2       1 GLU         0.0350
     66 OE1       -12.5970   24.5250   14.2140 O.co2     1 GLU        -0.5690
     67 OE2       -12.8960   23.5640   12.2590 O.co2     1 GLU        -0.5690
     68 N          -9.6260   20.7330   17.6150 N.am      1 ALA        -0.2698
     69 CA         -8.8840   20.7960   18.8810 C.3       1 ALA         0.0916
     70 C          -8.8100   22.1890   19.4960 C.2       1 ALA         0.0598
     71 O          -9.2590   23.1670   18.9090 O.co2     1 ALA        -0.5666
     72 CB         -7.4710   20.2660   18.6680 C.3       1 ALA        -0.0300
     73 OXT        -8.2690   22.3800   20.6050 O.co2     1 ALA        -0.5666
     74 H1        -14.2897    1.7102    8.1895 H         1 VAL         0.2015
     75 H2        -15.6066    0.9876    7.5165 H         1 VAL         0.2015
     76 H3        -15.5853    1.3227    9.1280 H         1 VAL         0.2015
     77 H4        -15.6161    3.2705    6.9226 H         1 VAL         0.1101
     78 H5        -17.6463    1.8295    8.3639 H         1 VAL         0.0376
     79 H6        -19.2018    3.6163    8.9721 H         1 VAL         0.0236
     80 H7        -17.8837    4.8154    8.7459 H         1 VAL         0.0236
     81 H8        -17.7370    3.5471   10.0094 H         1 VAL         0.0236
     82 H9        -17.5021    2.2037    5.9342 H         1 VAL         0.0236
     83 H10       -17.9562    3.9220    6.1939 H         1 VAL         0.0236
     84 H11       -19.1051    2.6131    6.6337 H         1 VAL         0.0236
     85 H12       -15.1061    5.3470    7.3491 H         1 LEU         0.1884
     86 H13       -13.7094    6.0559    9.7568 H         1 LEU         0.0800
     87 H14       -13.9132    8.3951    8.8873 H         1 LEU         0.0315
     88 H15       -14.9194    7.7498    7.5464 H         1 LEU         0.0315
     89 H16       -12.8990    6.4346    6.8007 H         1 LEU         0.0298
     90 H17       -11.9256    8.4699    5.7772 H         1 LEU         0.0232
     91 H18       -12.7765    9.4788    6.9957 H         1 LEU         0.0232
     92 H19       -13.7208    8.5280    5.7995 H         1 LEU         0.0232
     93 H20       -11.6104    6.4938    8.9178 H         1 LEU         0.0232
     94 H21       -11.5100    8.2842    8.8141 H         1 LEU         0.0232
     95 H22       -10.6893    7.2658    7.5829 H         1 LEU         0.0232
     96 H23       -16.9355    7.7872   12.4334 H         1 CIR         0.0800
     97 H24       -14.3635    7.5420   11.4236 H         1 CIR         0.1883
     98 H25       -16.1011    9.9826   13.4034 H         1 CIR         0.0313
     99 H26       -14.6083    9.7680   12.4277 H         1 CIR         0.0313
    100 H27       -14.1512    7.6364   13.5941 H         1 CIR         0.0287
    101 H28       -15.6454    7.8484   14.5683 H         1 CIR         0.0287
    102 H29       -14.8060    9.8351   15.6129 H         1 CIR         0.0517
    103 H30       -13.4665    9.9832   14.4251 H         1 CIR         0.0517
    104 H31       -12.2240    8.5345   15.6925 H         1 CIR         0.1845
    105 H32       -15.2231    7.2648   18.0302 H         1 CIR         0.1808
    106 H33       -15.5618    8.2186   16.6246 H         1 CIR         0.1808
    107 H34       -18.5661    9.2299   12.2715 H         1 ASP         0.1884
    108 H35       -19.1488   10.3940    9.7099 H         1 ASP         0.0819
    109 H36       -20.9856   11.6427   11.0339 H         1 ASP         0.0478
    110 H37       -20.3959   10.7214   12.4587 H         1 ASP         0.0478
    111 H38       -17.6431   11.7605   12.6053 H         1 ASP         0.1884
    112 H39       -16.8943   14.1508   11.1057 H         1 ASP         0.0819
    113 H40       -18.6839   14.4931   13.5566 H         1 ASP         0.0478
    114 H41       -19.2745   14.5816   11.8624 H         1 ASP         0.0478
    115 H42       -15.3186   15.4549   12.1467 H         1 LEU         0.1883
    116 H43       -14.4562   14.5286   14.8561 H         1 LEU         0.0800
    117 H44       -12.1584   15.3290   14.2147 H         1 LEU         0.0315
    118 H45       -12.7451   15.4047   12.5185 H         1 LEU         0.0315
    119 H46       -12.9367   12.9931   12.4557 H         1 LEU         0.0298
    120 H47       -10.5047   12.5469   12.5577 H         1 LEU         0.0232
    121 H48       -10.2782   14.0623   13.4950 H         1 LEU         0.0232
    122 H49       -10.8747   14.1339   11.8021 H         1 LEU         0.0232
    123 H50       -13.4488   12.5468   14.8261 H         1 LEU         0.0232
    124 H51       -11.7819   13.0398   15.2789 H         1 LEU         0.0232
    125 H52       -12.0421   11.5859   14.2565 H         1 LEU         0.0232
    126 H53       -14.3875   16.0841   16.3479 H         1 LEU         0.1883
    127 H54       -14.9418   18.8541   15.5653 H         1 LEU         0.0800
    128 H55       -14.3750   17.7495   18.3372 H         1 LEU         0.0315
    129 H56       -15.9931   17.7575   17.5571 H         1 LEU         0.0315
    130 H57       -14.5003   20.3499   17.8902 H         1 LEU         0.0298
    131 H58       -16.7873   21.2419   18.1594 H         1 LEU         0.0232
    132 H59       -17.4452   19.5775   18.0059 H         1 LEU         0.0232
    133 H60       -16.5860   20.3349   16.6220 H         1 LEU         0.0232
    134 H61       -14.3484   19.2578   20.1040 H         1 LEU         0.0232
    135 H62       -16.1319   19.0442   20.1081 H         1 LEU         0.0232
    136 H63       -15.4251   20.6955   20.1199 H         1 LEU         0.0232
    137 H64       -13.6206   20.5756   15.7998 H         1 GLU         0.1883
    138 H65       -10.8064   20.1866   15.4588 H         1 GLU         0.0801
    139 H66       -10.6955   22.6826   15.5950 H         1 GLU         0.0330
    140 H67       -12.4256   22.7052   16.0776 H         1 GLU         0.0330
    141 H68       -12.8940   21.4362   13.8850 H         1 GLU         0.0433
    142 H69       -11.2090   21.8432   13.4143 H         1 GLU         0.0433
    143 H70        -9.0977   20.6465   16.7703 H         1 ALA         0.1875
    144 H71        -9.3987   20.1419   19.6001 H         1 ALA         0.0723
    145 H72        -6.9150   20.3130   19.6160 H         1 ALA         0.0270
    146 H73        -6.9593   20.8796   17.9120 H         1 ALA         0.0270
    147 H74        -7.5189   19.2228   18.3224 H         1 ALA         0.0270
@<TRIPOS>BOND
     1    2    1 1  
     2    3    2 1  
     3    2    5 1  
     4    3    4 2  
     5    8    3 am 
     6    5    6 1  
     7    5    7 1  
     8    9    8 1  
     9   10    9 1  
    10    9   12 1  
    11   10   11 2  
    12   19   10 am 
    13   12   13 1  
    14   13   14 1  
    15   13   15 1  
    16   16   17 2  
    17   18   16 1  
    18   16   27 am 
    19   18   19 1  
    20   18   20 1  
    21   20   21 1  
    22   21   22 1  
    23   22   23 1  
    24   23   24 am 
    25   24   25 2  
    26   24   26 am 
    27   27   28 1  
    28   28   29 1  
    29   28   31 1  
    30   29   30 2  
    31   29   35 am 
    32   31   32 1  
    33   32   33 ar 
    34   32   34 ar 
    35   35   36 1  
    36   36   37 1  
    37   36   39 1  
    38   37   38 2  
    39   37   43 am 
    40   39   40 1  
    41   40   41 ar 
    42   40   42 ar 
    43   43   44 1  
    44   44   45 1  
    45   44   47 1  
    46   45   46 2  
    47   45   51 am 
    48   47   48 1  
    49   48   49 1  
    50   48   50 1  
    51   51   52 1  
    52   52   53 1  
    53   52   55 1  
    54   53   54 2  
    55   53   59 am 
    56   55   56 1  
    57   56   57 1  
    58   56   58 1  
    59   59   60 1  
    60   60   61 1  
    61   60   63 1  
    62   61   62 2  
    63   61   68 am 
    64   63   64 1  
    65   64   65 1  
    66   65   66 ar 
    67   65   67 ar 
    68   68   69 1  
    69   69   70 1  
    70   69   72 1  
    71   70   71 ar 
    72   70   73 ar 
    73    1   74 1  
    74    1   75 1  
    75    1   76 1  
    76    2   77 1  
    77    5   78 1  
    78    6   79 1  
    79    6   80 1  
    80    6   81 1  
    81    7   82 1  
    82    7   83 1  
    83    7   84 1  
    84    8   85 1  
    85    9   86 1  
    86   12   87 1  
    87   12   88 1  
    88   13   89 1  
    89   14   90 1  
    90   14   91 1  
    91   14   92 1  
    92   15   93 1  
    93   15   94 1  
    94   15   95 1  
    95   18   96 1  
    96   19   97 1  
    97   20   98 1  
    98   20   99 1  
    99   21  100 1  
   100   21  101 1  
   101   22  102 1  
   102   22  103 1  
   103   23  104 1  
   104   26  105 1  
   105   26  106 1  
   106   27  107 1  
   107   28  108 1  
   108   31  109 1  
   109   31  110 1  
   110   35  111 1  
   111   36  112 1  
   112   39  113 1  
   113   39  114 1  
   114   43  115 1  
   115   44  116 1  
   116   47  117 1  
   117   47  118 1  
   118   48  119 1  
   119   49  120 1  
   120   49  121 1  
   121   49  122 1  
   122   50  123 1  
   123   50  124 1  
   124   50  125 1  
   125   51  126 1  
   126   52  127 1  
   127   55  128 1  
   128   55  129 1  
   129   56  130 1  
   130   57  131 1  
   131   57  132 1  
   132   57  133 1  
   133   58  134 1  
   134   58  135 1  
   135   58  136 1  
   136   59  137 1  
   137   60  138 1  
   138   63  139 1  
   139   63  140 1  
   140   64  141 1  
   141   64  142 1  
   142   68  143 1  
   143   69  144 1  
   144   72  145 1  
   145   72  146 1  
   146   72  147 1  
@<TRIPOS>SUBSTRUCTURE
     1 VAL         1

