1kuk_ligand
  -I-interpret- 

 61 63  0  0  0  0  0  0  0  0999 V2000
   14.4660    8.9470    3.5740 N   0  0  0  0  0
   14.2340    9.1570    5.0140 C   0  0  0  0  0
   12.7310    9.1110    5.1970 C   0  0  0  0  0
   12.0110    9.8100    4.4960 O   0  0  0  0  0
   14.7620   10.5400    5.3750 C   0  0  0  0  0
   14.9680   11.2060    4.0720 C   0  0  0  0  0
   14.8050   10.1240    3.0490 C   0  0  0  0  0
   14.9810   10.3060    1.8320 O   0  0  0  0  0
   12.2500    8.3040    6.1380 N   0  0  0  0  0
   10.8270    8.2100    6.3910 C   0  0  0  0  0
   10.5100    8.9110    7.6950 C   0  0  0  0  0
   11.1900    8.7320    8.7000 O   0  0  0  0  0
   10.3460    6.7390    6.4710 C   0  0  0  0  0
   10.4510    5.9290    5.1680 C   0  0  0  0  0
    9.7910    4.5470    5.3530 C   0  0  0  0  0
   10.0040    3.6890    4.0930 C   0  0  0  0  0
   11.4620    3.6570    3.7520 N   0  3  0  0  0
    9.4740    9.7370    7.6780 N   0  0  0  0  0
    9.0230   10.4400    8.9000 C   0  0  0  0  0
    7.4940   10.6660    8.9110 C   0  0  0  0  0
    6.9190   11.0100    9.9430 O   0  0  0  0  0
    9.7590   11.7870    9.0590 C   0  0  0  0  0
    9.4310   12.9170    8.0850 C   0  0  0  0  0
    8.7080   12.8480    6.9260 C   0  0  0  0  0
    9.8540   14.2760    8.2150 C   0  0  0  0  0
    8.6610   14.0940    6.3280 N   0  0  0  0  0
    9.3550   14.9850    7.1000 C   0  0  0  0  0
   10.6100   14.9630    9.1780 C   0  0  0  0  0
    9.5750   16.3620    6.9200 C   0  0  0  0  0
   10.8380   16.3310    9.0130 C   0  0  0  0  0
   10.3180   17.0270    7.8890 C   0  0  0  0  0
    6.8580   10.5450    7.8220 O   0  0  0  0  0
   14.3825    8.0633    3.0715 H   0  0  0  0  0
   14.7277    8.4140    5.6404 H   0  0  0  0  0
   15.6813   10.4880    5.9583 H   0  0  0  0  0
   14.0684   11.0900    6.0110 H   0  0  0  0  0
   15.9505   11.6739    4.0100 H   0  0  0  0  0
   14.2560   12.0167    3.9173 H   0  0  0  0  0
   12.8951    7.7407    6.6920 H   0  0  0  0  0
   10.3058    8.6845    5.5595 H   0  0  0  0  0
    9.2870    6.7748    6.7268 H   0  0  0  0  0
   10.9922    6.2427    7.1950 H   0  0  0  0  0
   11.5021    5.7938    4.9129 H   0  0  0  0  0
    9.9407    6.4666    4.3688 H   0  0  0  0  0
    8.7221    4.6796    5.5201 H   0  0  0  0  0
   10.2427    4.0455    6.2089 H   0  0  0  0  0
    9.4456    4.1192    3.2616 H   0  0  0  0  0
    9.6521    2.6745    4.2803 H   0  0  0  0  0
   11.6022    3.0883    2.9170 H   0  0  0  0  0
   11.7899    4.6068    3.5769 H   0  0  0  0  0
   11.9833    3.2542    4.5307 H   0  0  0  0  0
    8.9754    9.8921    6.8018 H   0  0  0  0  0
    9.2683    9.7971    9.7453 H   0  0  0  0  0
   10.8108   11.5588    8.8865 H   0  0  0  0  0
    9.4611   12.1603   10.0388 H   0  0  0  0  0
    8.2391   11.9460    6.5327 H   0  0  0  0  0
   11.0135   14.4360   10.0426 H   0  0  0  0  0
    9.1776   16.8889    6.0525 H   0  0  0  0  0
   11.4229   16.8720    9.7568 H   0  0  0  0  0
   10.5039   18.0960    7.7849 H   0  0  0  0  0
    7.4626   10.2713    7.1283 H   0  0  0  0  0
  3  2  1  0  0  0
  2  5  1  0  0  0
  2  1  1  0  0  0
  5  6  1  0  0  0
  6  7  1  0  0  0
  7  8  2  0  0  0
  3  4  2  0  0  0
 11 10  1  0  0  0
 10 13  1  0  0  0
 10  9  1  0  0  0
 13 14  1  0  0  0
 14 15  1  0  0  0
 15 16  1  0  0  0
 16 17  1  0  0  0
 11 12  2  0  0  0
 19 20  1  0  0  0
 19 22  1  0  0  0
 18 19  1  0  0  0
 22 23  1  0  0  0
 23 25  4  0  0  0
 23 24  4  0  0  0
 24 26  4  0  0  0
 26 27  4  0  0  0
 27 29  4  0  0  0
 25 27  4  0  0  0
 25 28  4  0  0  0
 28 30  4  0  0  0
 30 31  4  0  0  0
 29 31  4  0  0  0
 20 32  1  0  0  0
 20 21  2  0  0  0
  9  3  1  0  0  0
 11 18  1  0  0  0
  7  1  1  0  0  0
  1 33  1  0  0  0
  2 34  1  0  0  0
  5 35  1  0  0  0
  5 36  1  0  0  0
  6 37  1  0  0  0
  6 38  1  0  0  0
  9 39  1  0  0  0
 10 40  1  0  0  0
 13 41  1  0  0  0
 13 42  1  0  0  0
 14 43  1  0  0  0
 14 44  1  0  0  0
 15 45  1  0  0  0
 15 46  1  0  0  0
 16 47  1  0  0  0
 16 48  1  0  0  0
 17 49  1  0  0  0
 17 50  1  0  0  0
 17 51  1  0  0  0
 18 52  1  0  0  0
 19 53  1  0  0  0
 22 54  1  0  0  0
 22 55  1  0  0  0
 24 56  1  0  0  0
 28 57  1  0  0  0
 29 58  1  0  0  0
 30 59  1  0  0  0
 31 60  1  0  0  0
 32 61  1  0  0  0
M  END
$$$$
