4x7i_ligand
  -I-interpret- 

 43 46  0  0  0  0  0  0  0  0999 V2000
   27.4950   56.0890   85.0200 O   0  0  0  0  0
   23.6810   55.0450   86.7300 C   0  0  0  0  0
   22.3890   55.3350   86.2880 C   0  0  0  0  0
   21.2760   57.3060   88.5720 C   0  0  0  0  0
   22.4260   53.9190   90.5200 N   0  0  0  0  0
   21.2430   55.1030   87.2680 C   0  0  0  0  0
   20.0530   54.4220   86.5720 C   0  0  0  0  0
   19.1380   55.9920   88.0080 C   0  0  0  0  0
   20.5220   56.4290   87.5760 C   0  0  0  0  0
   31.3570   53.6920   89.3930 F   0  0  0  0  0
   30.3900   54.1520   88.5510 C   0  0  0  0  0
   29.0880   53.6830   88.6900 C   0  0  0  0  0
   28.1070   54.0950   87.8850 N   0  0  0  0  0
   30.7170   55.0190   87.5380 C   0  0  0  0  0
   29.7260   55.3620   86.6310 C   0  0  0  0  0
   28.4210   54.9420   86.8930 C   0  0  0  0  0
   27.2930   55.3760   86.0050 C   0  0  0  0  0
   26.0780   54.9320   86.4100 N   0  0  0  0  0
   24.7930   55.2680   85.9220 C   0  0  0  0  0
   24.6220   55.7600   84.6290 C   0  0  0  0  0
   23.3550   56.0570   84.1680 C   0  0  0  0  0
   22.2870   55.8500   85.0010 C   0  0  0  0  0
   21.0470   56.1340   84.5200 F   0  0  0  0  0
   21.6670   54.3170   88.4140 N   0  0  0  0  0
   18.8950   54.7130   87.3420 O   0  0  0  0  0
   21.8770   56.4370   90.0410 S   0  0  0  0  0
   21.9930   54.7520   89.5670 C   0  0  0  0  0
   23.8226   54.6348   87.7299 H   0  0  0  0  0
   20.5764   58.0671   88.9176 H   0  0  0  0  0
   22.1520   57.6947   88.0528 H   0  0  0  0  0
   22.4992   52.9197   90.3292 H   0  0  0  0  0
   20.2106   53.3454   86.5067 H   0  0  0  0  0
   19.9402   54.7926   85.5531 H   0  0  0  0  0
   18.3858   56.7309   87.7318 H   0  0  0  0  0
   19.0751   55.8919   89.0916 H   0  0  0  0  0
   20.4660   57.0979   86.7172 H   0  0  0  0  0
   28.8637   52.9614   89.4756 H   0  0  0  0  0
   31.7246   55.4252   87.4495 H   0  0  0  0  0
   29.9594   55.9431   85.7388 H   0  0  0  0  0
   26.0920   54.2592   87.1765 H   0  0  0  0  0
   25.4871   55.9100   83.9831 H   0  0  0  0  0
   23.2072   56.4483   83.1615 H   0  0  0  0  0
   21.7083   53.3065   88.2814 H   0  0  0  0  0
 17  1  2  0  0  0
  3  2  4  0  0  0
  2 19  4  0  0  0
  6  3  1  0  0  0
  3 22  4  0  0  0
  9  4  1  0  0  0
  4 26  1  0  0  0
 27  5  2  0  0  0
  6  7  1  0  0  0
  6  9  1  0  0  0
 24  6  1  0  0  0
  7 25  1  0  0  0
  9  8  1  0  0  0
  8 25  1  0  0  0
 11 10  1  0  0  0
 12 11  4  0  0  0
 14 11  4  0  0  0
 13 12  4  0  0  0
 16 13  4  0  0  0
 15 14  4  0  0  0
 16 15  4  0  0  0
 17 16  1  0  0  0
 18 17  1  0  0  0
 19 18  1  0  0  0
 19 20  4  0  0  0
 21 20  4  0  0  0
 22 21  4  0  0  0
 22 23  1  0  0  0
 24 27  1  0  0  0
 26 27  1  0  0  0
  2 28  1  0  0  0
  4 29  1  0  0  0
  4 30  1  0  0  0
  5 31  1  0  0  0
  7 32  1  0  0  0
  7 33  1  0  0  0
  8 34  1  0  0  0
  8 35  1  0  0  0
  9 36  1  0  0  0
 12 37  1  0  0  0
 14 38  1  0  0  0
 15 39  1  0  0  0
 18 40  1  0  0  0
 20 41  1  0  0  0
 21 42  1  0  0  0
 24 43  1  0  0  0
M  END
$$$$
