5k0c_ligand
  -I-interpret- 

 39 41  0  0  0  0  0  0  0  0999 V2000
   15.8290  -22.8520   12.8640 C   0  0  0  0  0
   14.7500  -20.7210   12.6120 C   0  0  0  0  0
   16.4760  -23.8740   12.1600 C   0  0  0  0  0
   16.1380  -25.2040   12.3960 C   0  0  0  0  0
   15.1520  -25.5370   13.3060 C   0  0  0  0  0
   14.4940  -24.5260   14.0020 C   0  0  0  0  0
   12.9440  -19.4980   13.1270 N   0  0  0  0  0
   13.7660  -20.9790   11.6720 C   0  0  0  0  0
   10.3610  -19.1040   11.3580 C   0  0  0  0  0
   10.4060  -17.8350   12.1450 C   0  0  0  0  0
   11.3560  -20.1700   11.2550 C   0  0  0  0  0
    8.4630  -21.4520    8.9550 C   0  0  0  0  0
   16.8600  -20.8110   13.8390 C   0  0  0  0  0
   16.8930  -21.0560   11.4070 C   0  0  0  0  0
   16.1240  -21.3600   12.6680 C   0  0  0  0  0
   14.8320  -23.1950   13.7790 C   0  0  0  0  0
   14.2470  -19.8330   13.5040 N   0  0  0  0  0
   12.6760  -20.1890   11.9950 C   0  0  0  0  0
    9.1540  -19.5300   10.4680 N   0  0  0  0  0
    9.4430  -20.7940    9.8620 C   0  0  0  0  0
   10.8690  -21.3030   10.3150 S   0  0  0  0  0
   17.2445  -23.6288   11.4269 H   0  0  0  0  0
   16.6586  -25.9943   11.8552 H   0  0  0  0  0
   14.8919  -26.5816   13.4772 H   0  0  0  0  0
   13.7145  -24.7774   14.7212 H   0  0  0  0  0
   13.8366  -21.6737   10.8350 H   0  0  0  0  0
   10.5089  -18.0695   13.2045 H   0  0  0  0  0
   11.2573  -17.2371   11.8195 H   0  0  0  0  0
    9.4845  -17.2757   11.9832 H   0  0  0  0  0
    7.5354  -21.6364    9.4968 H   0  0  0  0  0
    8.2646  -20.8015    8.1032 H   0  0  0  0  0
    8.8740  -22.3983    8.6032 H   0  0  0  0  0
   17.8471  -21.2700   13.8939 H   0  0  0  0  0
   16.9654  -19.7319   13.7269 H   0  0  0  0  0
   16.3047  -21.0304   14.7509 H   0  0  0  0  0
   16.9984  -19.9765   11.2985 H   0  0  0  0  0
   17.8801  -21.5146   11.4654 H   0  0  0  0  0
   16.3545  -21.4579   10.5487 H   0  0  0  0  0
   14.3112  -22.4092   14.3262 H   0  0  0  0  0
  1  3  4  0  0  0
 15  1  1  0  0  0
  1 16  4  0  0  0
  8  2  4  0  0  0
  2 15  1  0  0  0
  2 17  4  0  0  0
  3  4  4  0  0  0
  4  5  4  0  0  0
  6  5  4  0  0  0
 16  6  4  0  0  0
  7 17  4  0  0  0
 18  7  4  0  0  0
 18  8  4  0  0  0
  9 10  1  0  0  0
  9 11  4  0  0  0
 19  9  4  0  0  0
 11 18  1  0  0  0
 11 21  4  0  0  0
 20 12  1  0  0  0
 15 13  1  0  0  0
 15 14  1  0  0  0
 19 20  4  0  0  0
 20 21  4  0  0  0
  3 22  1  0  0  0
  4 23  1  0  0  0
  5 24  1  0  0  0
  6 25  1  0  0  0
  8 26  1  0  0  0
 10 27  1  0  0  0
 10 28  1  0  0  0
 10 29  1  0  0  0
 12 30  1  0  0  0
 12 31  1  0  0  0
 12 32  1  0  0  0
 13 33  1  0  0  0
 13 34  1  0  0  0
 13 35  1  0  0  0
 14 36  1  0  0  0
 14 37  1  0  0  0
 14 38  1  0  0  0
 16 39  1  0  0  0
M  END
$$$$
