5etn_ligand
  -I-interpret- 

 29 31  0  0  0  0  0  0  0  0999 V2000
   -0.2370    3.8710    0.7530 C   0  0  0  0  0
    1.4280    2.2540    0.2630 C   0  0  0  0  0
    0.7350    4.8240    1.0110 C   0  0  0  0  0
    2.4120    3.2060    0.5060 C   0  0  0  0  0
    0.0820    2.5750    0.3900 C   0  0  0  0  0
   -0.1060   -2.2240    2.0800 C   0  0  0  0  0
    2.0600    4.4620    0.8870 C   0  0  0  0  0
    0.4050   -1.2790    2.9910 C   0  0  0  0  0
    0.4180   -3.4470    1.9980 C   0  0  0  0  0
    1.8510   -2.7160    3.7480 C   0  0  0  0  0
   -1.1980   -0.3560    1.8640 C   0  0  0  0  0
   -1.0180    1.5180    0.1010 C   0  0  0  0  0
    1.4360   -1.4560    3.8560 N   0  0  0  0  0
   -0.2790   -0.1230    2.7750 N   0  0  0  0  0
    1.4430   -3.6630    2.8470 N   0  0  0  0  0
   -1.1350   -1.6410    1.4020 N   0  0  0  0  0
    2.9640   -3.0730    4.5100 N   0  0  0  0  0
    0.0190   -4.4710    1.1760 O   0  0  0  0  0
   -2.2840    0.9000    1.3460 S   0  0  0  0  0
    3.2210    5.6400    1.2020 Cl  0  0  0  0  0
   -1.2868    4.1516    0.8388 H   0  0  0  0  0
    1.7158    1.2445   -0.0304 H   0  0  0  0  0
    0.4588    5.8366    1.3052 H   0  0  0  0  0
    3.4641    2.9452    0.3910 H   0  0  0  0  0
   -0.4300    0.6212   -0.0939 H   0  0  0  0  0
   -1.6443    2.0311   -0.6288 H   0  0  0  0  0
    1.9293   -4.5591    2.8172 H   0  0  0  0  0
    3.4147   -2.3817    5.1094 H   0  0  0  0  0
    3.3269   -4.0253    4.4676 H   0  0  0  0  0
  1  3  4  0  0  0
  5  1  4  0  0  0
  2  4  4  0  0  0
  5  2  4  0  0  0
  3  7  4  0  0  0
  4  7  4  0  0  0
 12  5  1  0  0  0
  6  8  4  0  0  0
  6  9  1  0  0  0
 16  6  4  0  0  0
  7 20  1  0  0  0
  8 13  1  0  0  0
 14  8  4  0  0  0
  9 15  1  0  0  0
  9 18  2  0  0  0
 13 10  2  0  0  0
 15 10  1  0  0  0
 10 17  1  0  0  0
 11 14  4  0  0  0
 11 16  4  0  0  0
 19 11  1  0  0  0
 12 19  1  0  0  0
  1 21  1  0  0  0
  2 22  1  0  0  0
  3 23  1  0  0  0
  4 24  1  0  0  0
 12 25  1  0  0  0
 12 26  1  0  0  0
 15 27  1  0  0  0
 17 28  1  0  0  0
 17 29  1  0  0  0
M  END
$$$$
