5n6s_ligand
  -I-interpret- 

 44 45  0  0  0  0  0  0  0  0999 V2000
   -3.3900   -9.1360   10.5130 O   0  0  0  0  0
   -4.9820   -7.9110    9.2330 C   0  0  0  0  0
   -6.4480   -7.7600    8.9320 C   0  0  0  0  0
   -4.4490   -6.6490    9.6920 O   0  0  0  0  0
   -6.6150   -6.7980    7.7860 C   0  0  0  0  0
  -10.9980  -12.6240   -0.6680 N   0  0  0  0  0
   -7.0760   -9.0590    8.4860 C   0  0  0  0  0
   -6.2590   -9.7700    7.3750 C   0  0  0  0  0
   -7.0660  -10.0780    6.1480 C   0  0  0  0  0
   -7.1540   -5.5840    8.2850 O   0  0  0  0  0
   -9.1890  -10.9820    5.6720 C   0  0  0  0  0
   -9.1970  -11.6750    4.3520 C   0  0  0  0  0
   -9.4190  -10.7010    3.2260 C   0  0  0  0  0
   -9.1630  -11.4470    1.9360 C   0  0  0  0  0
   -7.1200   -9.2540    5.2240 O   0  0  0  0  0
   -7.8710  -11.1070    6.2380 N   0  0  0  0  0
  -10.1770  -12.4620    1.6970 N   0  0  0  0  0
  -10.6640  -12.5890    0.4220 N   0  0  0  0  0
   -6.4710  -10.4200    8.7560 C   0  0  0  0  0
   -5.3080  -10.4550    9.7580 C   0  0  0  0  0
   -5.7280  -11.2470   10.8750 O   0  0  0  0  0
   -4.7930   -9.0690   10.2340 C   0  0  0  0  0
   -3.0817   -8.2754   10.8061 H   0  0  0  0  0
   -4.4177   -8.1715    8.3376 H   0  0  0  0  0
   -6.9273   -7.4159    9.8485 H   0  0  0  0  0
   -4.6004   -5.9769    9.0235 H   0  0  0  0  0
   -7.2879   -7.2230    7.0412 H   0  0  0  0  0
   -5.6490   -6.6091    7.3178 H   0  0  0  0  0
   -8.0838   -8.6856    8.6680 H   0  0  0  0  0
   -5.3559   -9.6432    6.7780 H   0  0  0  0  0
   -7.2645   -4.9629    7.5614 H   0  0  0  0  0
   -9.9263  -11.4328    6.3363 H   0  0  0  0  0
   -9.4436   -9.9299    5.5443 H   0  0  0  0  0
  -10.0081  -12.4031    4.3467 H   0  0  0  0  0
   -8.2310  -12.1588    4.2076 H   0  0  0  0  0
   -8.7467   -9.8479    3.3170 H   0  0  0  0  0
  -10.4366  -10.3111    3.2496 H   0  0  0  0  0
   -8.1928  -11.9385    2.0081 H   0  0  0  0  0
   -9.1888  -10.7327    1.1131 H   0  0  0  0  0
   -7.5738  -11.9694    6.6944 H   0  0  0  0  0
   -6.8428  -11.3944    9.0728 H   0  0  0  0  0
   -4.4509  -10.8866    9.2410 H   0  0  0  0  0
   -5.0194  -11.2878   11.5214 H   0  0  0  0  0
   -5.4002   -8.8515   11.1127 H   0  0  0  0  0
 22  1  1  0  0  0
  3  2  1  0  0  0
  2  4  1  0  0  0
  2 22  1  0  0  0
  3  5  1  0  0  0
  7  3  1  0  0  0
  5 10  1  0  0  0
 18  6  3  0  0  0
  8  7  1  0  0  0
 19  7  1  0  0  0
  9  8  1  0  0  0
  8 19  1  0  0  0
  9 15  2  0  0  0
 16  9  1  0  0  0
 12 11  1  0  0  0
 11 16  1  0  0  0
 13 12  1  0  0  0
 14 13  1  0  0  0
 17 14  1  0  0  0
 17 18  2  0  0  0
 19 20  1  0  0  0
 20 21  1  0  0  0
 20 22  1  0  0  0
  1 23  1  0  0  0
  2 24  1  0  0  0
  3 25  1  0  0  0
  4 26  1  0  0  0
  5 27  1  0  0  0
  5 28  1  0  0  0
  7 29  1  0  0  0
  8 30  1  0  0  0
 10 31  1  0  0  0
 11 32  1  0  0  0
 11 33  1  0  0  0
 12 34  1  0  0  0
 12 35  1  0  0  0
 13 36  1  0  0  0
 13 37  1  0  0  0
 14 38  1  0  0  0
 14 39  1  0  0  0
 16 40  1  0  0  0
 19 41  1  0  0  0
 20 42  1  0  0  0
 21 43  1  0  0  0
 22 44  1  0  0  0
M  END
$$$$
