5u9i_ligand
  -I-interpret- 

 41 40  0  0  0  0  0  0  0  0999 V2000
    1.8270    6.6040    6.2950 C   0  0  0  0  0
    2.9910    7.3980    5.7880 C   0  0  0  0  0
    3.5330    8.3900    6.5100 C   0  0  0  0  0
    2.9790    8.7410    7.9080 C   0  0  0  0  0
    3.0820   10.2720    8.0720 C   0  0  0  0  0
    1.9860   10.7850    8.9140 C   0  0  0  0  0
    2.1070   10.9920   10.2460 C   0  0  0  0  0
    0.9080   11.5190   11.0410 C   0  0  0  0  0
    1.3190   12.6500   11.9900 C   0  0  0  0  0
    0.5810   13.8330   11.5560 C   0  0  0  0  0
    0.1790   14.7920   12.3620 C   0  0  0  0  0
    0.4410   14.7540   13.7850 C   0  0  0  0  0
   -0.5580   15.9880   11.8210 C   0  0  0  0  0
    4.7110    9.1710    5.9990 C   0  0  0  0  0
    3.3490   10.6540   11.0450 C   0  0  0  0  0
    2.1037    6.1103    7.2265 H   0  0  0  0  0
    0.9835    7.2711    6.4725 H   0  0  0  0  0
    1.5495    5.8547    5.5537 H   0  0  0  0  0
    3.4080    7.1641    4.8084 H   0  0  0  0  0
    3.5510    8.2335    8.6848 H   0  0  0  0  0
    1.9432    8.4148    8.0022 H   0  0  0  0  0
    3.0147   10.7356    7.0878 H   0  0  0  0  0
    4.0324   10.5105    8.5495 H   0  0  0  0  0
    1.0303   11.0088    8.4400 H   0  0  0  0  0
    0.4997   10.7008   11.6343 H   0  0  0  0  0
    0.1709   11.9077   10.3383 H   0  0  0  0  0
    2.3947   12.8223   11.9540 H   0  0  0  0  0
    1.0865   12.3991   13.0249 H   0  0  0  0  0
    0.3481   13.9276   10.4954 H   0  0  0  0  0
   -0.0188   13.8638   14.2142 H   0  0  0  0  0
    1.5174   14.7261   13.9543 H   0  0  0  0  0
    0.0210   15.6436   14.2544 H   0  0  0  0  0
    0.0727   16.5054   11.0980 H   0  0  0  0  0
   -1.4756   15.6580   11.3340 H   0  0  0  0  0
   -0.8028   16.6636   12.6406 H   0  0  0  0  0
    5.5489    8.4943    5.8314 H   0  0  0  0  0
    4.4430    9.6586    5.0617 H   0  0  0  0  0
    4.9924    9.9245    6.7346 H   0  0  0  0  0
    3.5518    9.5861   10.9645 H   0  0  0  0  0
    4.1962   11.2165   10.6526 H   0  0  0  0  0
    3.1895   10.9171   12.0907 H   0  0  0  0  0
  1  2  1  0  0  0
  2  3  2  0  0  0
  3  4  1  0  0  0
  3 14  1  0  0  0
  4  5  1  0  0  0
  5  6  1  0  0  0
  6  7  2  0  0  0
  7  8  1  0  0  0
  7 15  1  0  0  0
  8  9  1  0  0  0
  9 10  1  0  0  0
 10 11  2  0  0  0
 11 12  1  0  0  0
 11 13  1  0  0  0
  1 16  1  0  0  0
  1 17  1  0  0  0
  1 18  1  0  0  0
  2 19  1  0  0  0
  4 20  1  0  0  0
  4 21  1  0  0  0
  5 22  1  0  0  0
  5 23  1  0  0  0
  6 24  1  0  0  0
  8 25  1  0  0  0
  8 26  1  0  0  0
  9 27  1  0  0  0
  9 28  1  0  0  0
 10 29  1  0  0  0
 12 30  1  0  0  0
 12 31  1  0  0  0
 12 32  1  0  0  0
 13 33  1  0  0  0
 13 34  1  0  0  0
 13 35  1  0  0  0
 14 36  1  0  0  0
 14 37  1  0  0  0
 14 38  1  0  0  0
 15 39  1  0  0  0
 15 40  1  0  0  0
 15 41  1  0  0  0
M  END
$$$$
