1jh1_ligand
  -I-interpret- 

 29 30  0  0  0  0  0  0  0  0999 V2000
   27.0330   60.8770   55.6740 S   0  0  0  0  0
   23.7900   65.7540   61.7490 Cl  0  0  0  0  0
   24.1810   61.0610   56.8510 N   0  0  0  0  0
   24.4670   60.1020   55.8440 N   0  0  0  0  0
   25.6460   59.3460   53.9770 N   0  0  0  0  0
   25.0980   62.3230   60.0750 C   0  0  0  0  0
   24.7790   63.3310   61.0260 C   0  0  0  0  0
   24.1830   64.5270   60.5870 C   0  0  0  0  0
   23.8950   64.7470   59.2200 C   0  0  0  0  0
   24.2250   63.7200   58.2830 C   0  0  0  0  0
   24.8340   62.4790   58.6800 C   0  0  0  0  0
   25.1540   61.4520   57.6190 C   0  0  0  0  0
   26.5540   60.8940   57.4360 C   0  0  0  0  0
   25.6210   60.0370   55.1100 C   0  0  0  0  0
   26.1410   59.8650   52.6910 C   0  0  0  0  0
   26.4580   58.7690   51.7200 C   0  0  0  0  0
   26.9230   58.9690   50.4900 C   0  0  0  0  0
   23.7514   59.4013   55.6507 H   0  0  0  0  0
   25.5601   61.3991   60.4228 H   0  0  0  0  0
   24.9940   63.1784   62.0836 H   0  0  0  0  0
   23.4327   65.6771   58.8893 H   0  0  0  0  0
   24.0070   63.8832   57.2276 H   0  0  0  0  0
   27.2547   61.5266   57.9809 H   0  0  0  0  0
   26.5726   59.8709   57.8115 H   0  0  0  0  0
   27.0574   60.4234   52.8818 H   0  0  0  0  0
   25.3604   60.4882   52.2547 H   0  0  0  0  0
   26.2970   57.7404   52.0427 H   0  0  0  0  0
   27.0968   59.9835   50.1313 H   0  0  0  0  0
   27.1303   58.1184   49.8407 H   0  0  0  0  0
  1 13  1  0  0  0
 14  1  1  0  0  0
  8  2  1  0  0  0
  3  4  1  0  0  0
 12  3  2  0  0  0
  4 14  1  0  0  0
 14  5  2  0  0  0
  5 15  1  0  0  0
  6  7  4  0  0  0
 11  6  4  0  0  0
  7  8  4  0  0  0
  9  8  4  0  0  0
 10  9  4  0  0  0
 11 10  4  0  0  0
 11 12  1  0  0  0
 12 13  1  0  0  0
 15 16  1  0  0  0
 16 17  2  0  0  0
  4 18  1  0  0  0
  6 19  1  0  0  0
  7 20  1  0  0  0
  9 21  1  0  0  0
 10 22  1  0  0  0
 13 23  1  0  0  0
 13 24  1  0  0  0
 15 25  1  0  0  0
 15 26  1  0  0  0
 16 27  1  0  0  0
 17 28  1  0  0  0
 17 29  1  0  0  0
M  END
$$$$
