5fwj_ligand
  -I-interpret- 

 48 48  0  0  0  0  0  0  0  0999 V2000
   21.6700   63.5360  -10.3800 O   0  0  0  0  0
   20.6950   63.4760   -9.5270 C   0  0  0  0  0
   19.5450   63.2070   -9.8430 O   0  0  0  0  0
   21.0570   63.8890   -8.1430 C   0  0  0  0  0
   20.1290   63.7900   -7.1110 C   0  0  0  0  0
   22.2940   64.4560   -7.8770 C   0  0  0  0  0
   22.5480   64.9170   -6.6030 C   0  0  0  0  0
   21.6770   64.8140   -5.5910 N   0  0  0  0  0
   20.4990   64.2240   -5.8470 C   0  0  0  0  0
   19.6600   63.8880   -4.6380 C   0  0  0  0  0
   20.4860   63.7320   -3.4310 N   0  3  0  0  0
   21.0940   62.4130   -3.3430 C   0  0  0  0  0
   20.2290   61.5110   -2.5230 C   0  0  0  0  0
   19.2220   61.9570   -2.0020 O   0  0  0  0  0
   20.6130   60.2200   -2.3900 N   0  0  0  0  0
   21.8500   59.8370   -3.0920 C   0  0  0  0  0
   23.0110   59.6530   -2.1490 C   0  0  0  0  0
   19.9860   59.1440   -1.6000 C   0  0  0  0  0
   18.5600   59.3870   -1.0960 C   0  0  0  0  0
   17.5640   59.6320   -2.1360 N   0  3  0  0  0
   16.4390   60.3930   -1.6030 C   0  0  0  0  0
   17.0880   58.3780   -2.7020 C   0  0  0  0  0
   22.4822   63.7614   -9.9206 H   0  0  0  0  0
   19.1349   63.3811   -7.2918 H   0  0  0  0  0
   23.0495   64.5355   -8.6586 H   0  0  0  0  0
   23.5101   65.3911   -6.4087 H   0  0  0  0  0
   19.1458   62.9457   -4.8272 H   0  0  0  0  0
   18.9562   64.7033   -4.4703 H   0  0  0  0  0
   19.8836   63.8572   -2.6175 H   0  0  0  0  0
   21.2350   64.4233   -3.4692 H   0  0  0  0  0
   22.0738   62.4982   -2.8730 H   0  0  0  0  0
   21.2005   61.9975   -4.3450 H   0  0  0  0  0
   22.1041   60.6360   -3.7885 H   0  0  0  0  0
   21.6715   58.8877   -3.5970 H   0  0  0  0  0
   23.1987   60.5870   -1.6193 H   0  0  0  0  0
   22.7734   58.8680   -1.4310 H   0  0  0  0  0
   23.8977   59.3714   -2.7170 H   0  0  0  0  0
   20.6014   59.0349   -0.7070 H   0  0  0  0  0
   19.9219   58.2849   -2.2678 H   0  0  0  0  0
   18.5955   60.2854   -0.4798 H   0  0  0  0  0
   18.2531   58.4787   -0.5775 H   0  0  0  0  0
   18.0102   60.1762   -2.8743 H   0  0  0  0  0
   15.9732   59.8314   -0.7933 H   0  0  0  0  0
   16.7966   61.3504   -1.2240 H   0  0  0  0  0
   15.7097   60.5637   -2.3949 H   0  0  0  0  0
   17.9270   57.8364   -3.1389 H   0  0  0  0  0
   16.6345   57.7748   -1.9155 H   0  0  0  0  0
   16.3474   58.5872   -3.4739 H   0  0  0  0  0
  1  2  1  0  0  0
  2  3  2  0  0  0
  2  4  1  0  0  0
  4  5  4  0  0  0
  4  6  4  0  0  0
  5  9  4  0  0  0
  6  7  4  0  0  0
  7  8  4  0  0  0
  8  9  4  0  0  0
  9 10  1  0  0  0
 10 11  1  0  0  0
 11 12  1  0  0  0
 12 13  1  0  0  0
 13 14  2  0  0  0
 13 15  1  0  0  0
 15 16  1  0  0  0
 15 18  1  0  0  0
 16 17  1  0  0  0
 18 19  1  0  0  0
 19 20  1  0  0  0
 20 21  1  0  0  0
 20 22  1  0  0  0
  1 23  1  0  0  0
  5 24  1  0  0  0
  6 25  1  0  0  0
  7 26  1  0  0  0
 10 27  1  0  0  0
 10 28  1  0  0  0
 11 29  1  0  0  0
 11 30  1  0  0  0
 12 31  1  0  0  0
 12 32  1  0  0  0
 16 33  1  0  0  0
 16 34  1  0  0  0
 17 35  1  0  0  0
 17 36  1  0  0  0
 17 37  1  0  0  0
 18 38  1  0  0  0
 18 39  1  0  0  0
 19 40  1  0  0  0
 19 41  1  0  0  0
 20 42  1  0  0  0
 21 43  1  0  0  0
 21 44  1  0  0  0
 21 45  1  0  0  0
 22 46  1  0  0  0
 22 47  1  0  0  0
 22 48  1  0  0  0
M  END
$$$$
