6hgx_ligand
  -I-interpret- 

 64 66  0  0  0  0  0  0  0  0999 V2000
   -9.4030  -30.9250  -35.4790 C   0  0  0  0  0
  -10.4340  -33.3000  -34.5350 C   0  0  0  0  0
  -10.2800  -32.2770  -32.4670 C   0  0  0  0  0
  -11.1660  -31.3060  -31.6680 C   0  0  0  0  0
  -10.7540  -28.0410  -35.8280 C   0  0  0  0  0
  -11.7830  -27.1790  -36.1400 C   0  0  0  0  0
  -16.2270  -23.2620  -38.8250 C   0  0  0  0  0
  -18.5960  -23.9990  -39.4370 C   0  0  0  0  0
  -17.4810  -24.8730  -37.3260 C   0  0  0  0  0
  -14.0920  -25.3370  -36.7380 C   0  0  0  0  0
  -11.9800  -26.0440  -35.3860 C   0  0  0  0  0
  -11.1320  -25.7790  -34.3170 C   0  0  0  0  0
  -10.0970  -26.6520  -33.9990 C   0  0  0  0  0
   -9.8980  -27.7960  -34.7610 C   0  0  0  0  0
   -8.4700  -29.6900  -35.3720 C   0  0  0  0  0
   -9.0930  -33.3020  -35.2690 C   0  0  0  0  0
  -10.5130  -33.6920  -31.9210 C   0  0  0  0  0
   -8.8180  -31.8860  -32.1870 C   0  0  0  0  0
  -10.3970  -30.9730  -34.3010 C   0  0  0  0  0
  -16.1270  -24.5070  -37.9430 C   0  0  0  0  0
  -17.2270  -23.5220  -39.9510 C   0  0  0  0  0
  -18.5080  -25.1450  -38.4220 C   0  0  0  0  0
  -13.0650  -25.1320  -35.7130 N   0  0  0  0  0
  -10.6150  -32.2000  -33.7090 N   0  3  0  0  0
  -15.1100  -24.3160  -36.9180 N   0  0  0  0  0
  -14.1300  -26.2960  -37.4320 O   0  0  0  0  0
   -8.8550  -28.6990  -34.4380 O   0  0  0  0  0
   -8.6510  -32.0730  -35.7490 O   0  0  0  0  0
  -10.0679  -30.8498  -36.3394 H   0  0  0  0  0
  -10.4626  -34.1892  -33.9052 H   0  0  0  0  0
  -11.2194  -33.2736  -35.2904 H   0  0  0  0  0
  -12.2120  -31.5883  -31.7877 H   0  0  0  0  0
  -10.8942  -31.3522  -30.6134 H   0  0  0  0  0
  -11.0174  -30.2918  -32.0387 H   0  0  0  0  0
  -10.6081  -28.9362  -36.4325 H   0  0  0  0  0
  -12.4399  -27.3955  -36.9824 H   0  0  0  0  0
  -15.2491  -23.0354  -39.2497 H   0  0  0  0  0
  -16.5630  -22.4156  -38.2259 H   0  0  0  0  0
  -19.1567  -24.3669  -40.2963 H   0  0  0  0  0
  -19.0680  -23.1544  -38.9350 H   0  0  0  0  0
  -17.8281  -24.0419  -36.7121 H   0  0  0  0  0
  -17.3637  -25.7703  -36.7183 H   0  0  0  0  0
  -11.2796  -24.8778  -33.7219 H   0  0  0  0  0
   -9.4432  -26.4387  -33.1533 H   0  0  0  0  0
   -8.4851  -29.2100  -36.3505 H   0  0  0  0  0
   -7.5029  -30.0657  -35.0377 H   0  0  0  0  0
   -9.2265  -33.9391  -36.1433 H   0  0  0  0  0
   -8.3496  -33.6291  -34.5420 H   0  0  0  0  0
   -9.8374  -34.3878  -32.4185 H   0  0  0  0  0
  -10.3216  -33.7021  -30.8480 H   0  0  0  0  0
  -11.5450  -33.9876  -32.1101 H   0  0  0  0  0
   -8.6370  -31.9072  -31.1123 H   0  0  0  0  0
   -8.1528  -32.5930  -32.6828 H   0  0  0  0  0
   -8.6324  -30.8818  -32.5682 H   0  0  0  0  0
  -11.3590  -30.6684  -34.7131 H   0  0  0  0  0
   -9.9654  -30.3422  -33.5239 H   0  0  0  0  0
  -15.8292  -25.3460  -38.5719 H   0  0  0  0  0
  -16.8172  -24.3079  -40.5855 H   0  0  0  0  0
  -17.3799  -22.5835  -40.4839 H   0  0  0  0  0
  -18.2023  -26.0453  -38.9551 H   0  0  0  0  0
  -19.4845  -25.2536  -37.9501 H   0  0  0  0  0
  -13.1159  -24.2658  -35.1768 H   0  0  0  0  0
  -11.6266  -32.2678  -33.5971 H   0  0  0  0  0
  -15.1124  -23.4786  -36.3356 H   0  0  0  0  0
 15  1  1  0  0  0
  1 19  1  0  0  0
  1 28  1  0  0  0
 16  2  1  0  0  0
 24  2  1  0  0  0
  3  4  1  0  0  0
  3 17  1  0  0  0
  3 18  1  0  0  0
 24  3  1  0  0  0
  6  5  4  0  0  0
  5 14  4  0  0  0
 11  6  4  0  0  0
 20  7  1  0  0  0
  7 21  1  0  0  0
 21  8  1  0  0  0
 22  8  1  0  0  0
 20  9  1  0  0  0
  9 22  1  0  0  0
 10 23  1  0  0  0
 25 10  1  0  0  0
 10 26  2  0  0  0
 11 12  4  0  0  0
 23 11  1  0  0  0
 12 13  4  0  0  0
 13 14  4  0  0  0
 14 27  1  0  0  0
 27 15  1  0  0  0
 28 16  1  0  0  0
 19 24  1  0  0  0
 20 25  1  0  0  0
  1 29  1  0  0  0
  2 30  1  0  0  0
  2 31  1  0  0  0
  4 32  1  0  0  0
  4 33  1  0  0  0
  4 34  1  0  0  0
  5 35  1  0  0  0
  6 36  1  0  0  0
  7 37  1  0  0  0
  7 38  1  0  0  0
  8 39  1  0  0  0
  8 40  1  0  0  0
  9 41  1  0  0  0
  9 42  1  0  0  0
 12 43  1  0  0  0
 13 44  1  0  0  0
 15 45  1  0  0  0
 15 46  1  0  0  0
 16 47  1  0  0  0
 16 48  1  0  0  0
 17 49  1  0  0  0
 17 50  1  0  0  0
 17 51  1  0  0  0
 18 52  1  0  0  0
 18 53  1  0  0  0
 18 54  1  0  0  0
 19 55  1  0  0  0
 19 56  1  0  0  0
 20 57  1  0  0  0
 21 58  1  0  0  0
 21 59  1  0  0  0
 22 60  1  0  0  0
 22 61  1  0  0  0
 23 62  1  0  0  0
 24 63  1  0  0  0
 25 64  1  0  0  0
M  END
$$$$
