6ajh_ligand
  -I-interpret- 

 42 45  0  0  0  0  0  0  0  0999 V2000
   34.4020    3.8660  -21.5540 C   0  0  0  0  0
   36.6060    2.6570  -15.8170 C   0  0  0  0  0
   36.6590    1.8210  -14.7020 C   0  0  0  0  0
   35.8420    2.3060  -16.9290 C   0  0  0  0  0
   35.0620    3.0280  -19.2880 C   0  0  0  0  0
   35.9480    0.6270  -14.6920 C   0  0  0  0  0
   35.1320    1.1040  -16.9090 C   0  0  0  0  0
   35.1820    0.2680  -15.7980 C   0  0  0  0  0
   34.9990    5.6740  -24.3700 C   0  0  0  0  0
   35.7980    5.7740  -23.0380 C   0  0  0  0  0
   36.3390    4.4150  -22.5500 C   0  0  0  0  0
   35.2820    3.2900  -22.6380 C   0  0  0  0  0
   34.6370    3.2140  -23.9720 C   0  0  0  0  0
   34.0070    4.4850  -24.3720 C   0  0  0  0  0
   33.1010    5.1010  -23.3260 C   0  0  0  0  0
   33.7760    5.2080  -21.9850 C   0  0  0  0  0
   34.8070    6.1600  -21.9930 C   0  0  0  0  0
   35.1580    4.0330  -20.3210 N   0  0  0  0  0
   34.3420    2.0630  -19.4860 O   0  0  0  0  0
   35.8200    3.2040  -18.0570 N   0  0  0  0  0
   36.0000   -0.1790  -13.6160 F   0  0  0  0  0
   37.3990    2.1710  -13.6360 F   0  0  0  0  0
   37.2960    3.8090  -15.8170 F   0  0  0  0  0
   33.5892    3.1612  -21.3785 H   0  0  0  0  0
   34.5322    0.8175  -17.7729 H   0  0  0  0  0
   34.6220   -0.6672  -15.7934 H   0  0  0  0  0
   35.7111    5.5218  -25.1810 H   0  0  0  0  0
   34.4256    6.5932  -24.4903 H   0  0  0  0  0
   36.6273    6.4625  -23.2000 H   0  0  0  0  0
   36.6275    4.5240  -21.5045 H   0  0  0  0  0
   37.1780    4.1385  -23.1885 H   0  0  0  0  0
   35.6079    2.2570  -22.5164 H   0  0  0  0  0
   33.8569    2.4542  -23.9239 H   0  0  0  0  0
   35.4091    2.9780  -24.7043 H   0  0  0  0  0
   33.5481    4.1802  -25.3125 H   0  0  0  0  0
   32.2250    4.4618  -23.2158 H   0  0  0  0  0
   32.8362    6.1060  -23.6547 H   0  0  0  0  0
   32.9933    5.5052  -21.2870 H   0  0  0  0  0
   34.4005    7.1474  -22.2119 H   0  0  0  0  0
   35.2899    6.1942  -21.0164 H   0  0  0  0  0
   35.7503    4.8526  -20.1878 H   0  0  0  0  0
   36.3918    4.0456  -17.9857 H   0  0  0  0  0
 12  1  1  0  0  0
  1 16  1  0  0  0
  1 18  1  0  0  0
  2  3  4  0  0  0
  4  2  4  0  0  0
  2 23  1  0  0  0
  3  6  4  0  0  0
  3 22  1  0  0  0
  4  7  4  0  0  0
 20  4  1  0  0  0
 18  5  1  0  0  0
  5 19  2  0  0  0
  5 20  1  0  0  0
  8  6  4  0  0  0
  6 21  1  0  0  0
  7  8  4  0  0  0
 10  9  1  0  0  0
  9 14  1  0  0  0
 11 10  1  0  0  0
 10 17  1  0  0  0
 11 12  1  0  0  0
 12 13  1  0  0  0
 13 14  1  0  0  0
 14 15  1  0  0  0
 15 16  1  0  0  0
 16 17  1  0  0  0
  1 24  1  0  0  0
  7 25  1  0  0  0
  8 26  1  0  0  0
  9 27  1  0  0  0
  9 28  1  0  0  0
 10 29  1  0  0  0
 11 30  1  0  0  0
 11 31  1  0  0  0
 12 32  1  0  0  0
 13 33  1  0  0  0
 13 34  1  0  0  0
 14 35  1  0  0  0
 15 36  1  0  0  0
 15 37  1  0  0  0
 16 38  1  0  0  0
 17 39  1  0  0  0
 17 40  1  0  0  0
 18 41  1  0  0  0
 20 42  1  0  0  0
M  END
$$$$
