4jx7_ligand
  -I-interpret- 

 52 55  0  0  0  0  0  0  0  0999 V2000
   22.2860  -41.6210   -5.8780 F   0  0  0  0  0
   21.5900  -40.8570   -4.9470 C   0  0  0  0  0
   20.4030  -41.4230   -4.7580 F   0  0  0  0  0
   21.3960  -39.5570   -5.4060 F   0  0  0  0  0
   22.3030  -40.8130   -3.7300 C   0  0  0  0  0
   21.6370  -40.4090   -2.5590 C   0  0  0  0  0
   23.6640  -41.1630   -3.6830 C   0  0  0  0  0
   24.3500  -41.1130   -2.4670 C   0  0  0  0  0
   23.6670  -40.7110   -1.3040 C   0  0  0  0  0
   22.3140  -40.3410   -1.3380 C   0  0  0  0  0
   21.7100  -39.9900   -0.1840 N   0  0  0  0  0
   20.8550  -38.9490   -0.0160 C   0  0  0  0  0
   20.3180  -38.1920   -1.0210 N   0  0  0  0  0
   20.5170  -38.6700    1.3260 C   0  0  0  0  0
   21.0130  -39.4050    2.4310 C   0  0  0  0  0
   21.8000  -40.3590    2.2860 O   0  0  0  0  0
   20.5940  -39.0470    3.7470 N   0  0  0  0  0
   19.7540  -38.0380    3.9540 C   0  0  0  0  0
   19.2560  -37.3000    2.8910 C   0  0  0  0  0
   19.6320  -37.6160    1.5850 C   0  0  0  0  0
   19.1370  -36.9000    0.5620 N   0  0  0  0  0
   19.4540  -37.1830   -0.7250 C   0  0  0  0  0
   18.8940  -36.3490   -1.6100 N   0  0  0  0  0
   18.3950  -36.5190   -2.9820 C   0  0  0  0  0
   19.1890  -35.5330   -3.8510 C   0  0  0  0  0
   18.5770  -35.4660   -5.2470 C   0  0  0  0  0
   18.6310  -36.8560   -5.8910 C   0  0  0  0  0
   18.0680  -36.7850   -7.2340 N   0  3  0  0  0
   17.9440  -37.9530   -5.0130 C   0  0  0  0  0
   18.4610  -37.9400   -3.5590 C   0  0  0  0  0
   20.5802  -40.1458   -2.6041 H   0  0  0  0  0
   24.1815  -41.4719   -4.5912 H   0  0  0  0  0
   25.4050  -41.3830   -2.4194 H   0  0  0  0  0
   24.2017  -40.6865   -0.3545 H   0  0  0  0  0
   21.9144  -40.5589    0.6376 H   0  0  0  0  0
   19.4531  -37.7877    4.9713 H   0  0  0  0  0
   19.6458  -36.2947    3.0510 H   0  0  0  0  0
   18.1810  -37.4782    2.9156 H   0  0  0  0  0
   18.7924  -35.3968   -1.2588 H   0  0  0  0  0
   17.3235  -36.3190   -2.9721 H   0  0  0  0  0
   20.2227  -35.8705   -3.9264 H   0  0  0  0  0
   19.1562  -34.5434   -3.3951 H   0  0  0  0  0
   19.1381  -34.7588   -5.8578 H   0  0  0  0  0
   17.5403  -35.1370   -5.1755 H   0  0  0  0  0
   19.6740  -37.1640   -5.9641 H   0  0  0  0  0
   18.1026  -37.7088   -7.6651 H   0  0  0  0  0
   17.0994  -36.4702   -7.1791 H   0  0  0  0  0
   18.6095  -36.1266   -7.7940 H   0  0  0  0  0
   18.1713  -38.9271   -5.4462 H   0  0  0  0  0
   16.8727  -37.7526   -4.9949 H   0  0  0  0  0
   17.8378  -38.5987   -2.9541 H   0  0  0  0  0
   19.4962  -38.2811   -3.5466 H   0  0  0  0  0
  1  2  1  0  0  0
  2  3  1  0  0  0
  2  4  1  0  0  0
  2  5  1  0  0  0
  5  6  4  0  0  0
  5  7  4  0  0  0
  6 10  4  0  0  0
  7  8  4  0  0  0
  8  9  4  0  0  0
  9 10  4  0  0  0
 10 11  1  0  0  0
 11 12  1  0  0  0
 12 13  4  0  0  0
 12 14  4  0  0  0
 13 22  4  0  0  0
 14 15  1  0  0  0
 14 20  4  0  0  0
 15 16  2  0  0  0
 15 17  1  0  0  0
 17 18  2  0  0  0
 18 19  1  0  0  0
 19 20  1  0  0  0
 20 21  4  0  0  0
 21 22  4  0  0  0
 22 23  1  0  0  0
 23 24  1  0  0  0
 24 25  1  0  0  0
 24 30  1  0  0  0
 25 26  1  0  0  0
 26 27  1  0  0  0
 27 28  1  0  0  0
 27 29  1  0  0  0
 29 30  1  0  0  0
  6 31  1  0  0  0
  7 32  1  0  0  0
  8 33  1  0  0  0
  9 34  1  0  0  0
 11 35  1  0  0  0
 18 36  1  0  0  0
 19 37  1  0  0  0
 19 38  1  0  0  0
 23 39  1  0  0  0
 24 40  1  0  0  0
 25 41  1  0  0  0
 25 42  1  0  0  0
 26 43  1  0  0  0
 26 44  1  0  0  0
 27 45  1  0  0  0
 28 46  1  0  0  0
 28 47  1  0  0  0
 28 48  1  0  0  0
 29 49  1  0  0  0
 29 50  1  0  0  0
 30 51  1  0  0  0
 30 52  1  0  0  0
M  END
$$$$
