### 
### Created by X-TOOL on Mon Sep 10 21:13:28 2018
### 

@<TRIPOS>MOLECULE
5esq_ligand
  185   185     1     0     0
SMALL
GAST_HUCK


@<TRIPOS>ATOM
      1 N          17.6840  -34.0090  -28.7190 N.4       1 GLN         0.2380
      2 CA         18.1070  -35.3900  -28.5050 C.3       1 GLN         0.0671
      3 C          19.5340  -35.6200  -29.0050 C.2       1 GLN         0.2270
      4 O          19.9140  -35.1590  -30.0830 O.2       1 GLN        -0.3907
      5 CB         17.1180  -36.3620  -29.1600 C.3       1 GLN         0.0247
      6 CG         17.5240  -37.8280  -29.1210 C.3       1 GLN         0.0443
      7 CD         16.3310  -38.7640  -29.2410 C.2       1 GLN         0.1738
      8 OE1        15.1950  -38.3800  -28.9570 O.2       1 GLN        -0.3973
      9 NE2        16.5850  -40.0010  -29.6600 N.am      1 GLN        -0.3009
     10 N          20.3090  -36.3400  -28.2010 N.am      1 PHE        -0.2592
     11 CA         21.7370  -36.5380  -28.4250 C.3       1 PHE         0.1406
     12 C          22.0560  -37.2090  -29.7550 C.2       1 PHE         0.2060
     13 O          21.3700  -38.1380  -30.1710 O.2       1 PHE        -0.3942
     14 CB         22.3050  -37.3680  -27.2750 C.3       1 PHE         0.0214
     15 CG         23.7970  -37.5070  -27.2960 C.ar      1 PHE        -0.0386
     16 CD1        24.6090  -36.4210  -27.0240 C.ar      1 PHE        -0.0601
     17 CD2        24.3870  -38.7330  -27.5550 C.ar      1 PHE        -0.0601
     18 CE1        25.9810  -36.5480  -27.0290 C.ar      1 PHE        -0.0686
     19 CE2        25.7610  -38.8680  -27.5600 C.ar      1 PHE        -0.0686
     20 CZ         26.5600  -37.7750  -27.2960 C.ar      1 PHE        -0.0687
     21 N          23.1030  -36.7310  -30.4190 N.am      1 ASP        -0.2620
     22 CA         23.5710  -37.3500  -31.6540 C.3       1 ASP         0.1423
     23 C          24.9440  -37.9750  -31.4410 C.2       1 ASP         0.2056
     24 O          25.9060  -37.2830  -31.1140 O.2       1 ASP        -0.3943
     25 CB         23.6200  -36.3300  -32.7940 C.3       1 ASP         0.0406
     26 CG         24.1110  -36.9360  -34.0980 C.2       1 ASP         0.0393
     27 OD1        23.9620  -38.1640  -34.2800 O.co2     1 ASP        -0.5688
     28 OD2        24.6420  -36.1860  -34.9430 O.co2     1 ASP        -0.5688
     29 N          25.0220  -39.2880  -31.6330 N.am      1 LEU        -0.2636
     30 CA         26.2580  -40.0370  -31.4290 C.3       1 LEU         0.1312
     31 C          27.3880  -39.5830  -32.3470 C.2       1 LEU         0.2040
     32 O          28.5630  -39.7150  -32.0070 O.2       1 LEU        -0.3944
     33 CB         26.0060  -41.5290  -31.6410 C.3       1 LEU        -0.0101
     34 CG         25.0280  -42.1830  -30.6690 C.3       1 LEU        -0.0425
     35 CD1        24.6220  -43.5570  -31.1700 C.3       1 LEU        -0.0625
     36 CD2        25.6530  -42.2760  -29.2880 C.3       1 LEU        -0.0625
     37 N          27.0280  -39.0560  -33.5120 N.am      1 SER        -0.2616
     38 CA         28.0160  -38.6510  -34.5050 C.3       1 SER         0.1539
     39 C          28.8040  -37.4190  -34.0670 C.2       1 SER         0.2063
     40 O          30.0330  -37.4080  -34.1200 O.2       1 SER        -0.3943
     41 CB         27.3420  -38.3880  -35.8540 C.3       1 SER         0.0843
     42 OG         26.6470  -39.5350  -36.3090 O.3       1 SER        -0.3903
     43 N          28.0890  -36.3870  -33.6300 N.am      1 THR        -0.2613
     44 CA         28.7100  -35.1110  -33.2890 C.3       1 THR         0.1565
     45 C          28.8610  -34.8990  -31.7840 C.2       1 THR         0.2065
     46 O          29.4760  -33.9230  -31.3500 O.2       1 THR        -0.3943
     47 CB         27.9050  -33.9340  -33.8700 C.3       1 THR         0.0924
     48 OG1        26.5300  -34.0560  -33.4810 O.3       1 THR        -0.3874
     49 CG2        27.9920  -33.9260  -35.3840 C.3       1 THR        -0.0346
     50 N          28.2990  -35.8150  -31.0000 N.am      1 ARG        -0.2636
     51 CA         28.2270  -35.6730  -29.5450 C.3       1 ARG         0.1311
     52 C          27.5210  -34.3820  -29.1360 C.2       1 ARG         0.2039
     53 O          27.7840  -33.8270  -28.0700 O.2       1 ARG        -0.3944
     54 CB         29.6130  -35.7610  -28.8990 C.3       1 ARG        -0.0092
     55 CG         30.3820  -37.0150  -29.2630 C.3       1 ARG        -0.0156
     56 CD         31.5200  -37.2640  -28.2920 C.3       1 ARG         0.0627
     57 NE         32.2280  -38.5050  -28.5920 N.pl3     1 ARG        -0.2723
     58 CZ         33.2170  -38.9970  -27.8550 C.cat     1 ARG         0.2882
     59 NH1        33.6180  -38.3530  -26.7660 N.pl3     1 ARG        -0.2849
     60 NH2        33.8050  -40.1330  -28.2040 N.pl3     1 ARG        -0.2849
     61 N          26.6220  -33.9130  -29.9950 N.am      1 ARG        -0.2637
     62 CA         25.8600  -32.7010  -29.7330 C.3       1 ARG         0.1311
     63 C          24.3670  -32.9910  -29.7690 C.2       1 ARG         0.2039
     64 O          23.9320  -33.9840  -30.3520 O.2       1 ARG        -0.3944
     65 CB         26.1960  -31.6250  -30.7660 C.3       1 ARG        -0.0092
     66 CG         27.6400  -31.1600  -30.7380 C.3       1 ARG        -0.0156
     67 CD         27.9570  -30.4220  -29.4490 C.3       1 ARG         0.0627
     68 NE         26.9860  -29.3670  -29.1760 N.pl3     1 ARG        -0.2723
     69 CZ         27.0050  -28.1650  -29.7440 C.cat     1 ARG         0.2882
     70 NH1        27.9460  -27.8570  -30.6270 N.pl3     1 ARG        -0.2849
     71 NH2        26.0780  -27.2700  -29.4310 N.pl3     1 ARG        -0.2849
     72 N          23.5860  -32.1170  -29.1430 N.am      1 LEU        -0.2637
     73 CA         22.1350  -32.2310  -29.1630 C.3       1 LEU         0.1312
     74 C          21.5820  -31.5730  -30.4220 C.2       1 LEU         0.2033
     75 O          21.9970  -30.4740  -30.7880 O.2       1 LEU        -0.3944
     76 CB         21.5330  -31.5750  -27.9200 C.3       1 LEU        -0.0101
     77 CG         22.0080  -32.1230  -26.5730 C.3       1 LEU        -0.0425
     78 CD1        21.5150  -31.2490  -25.4280 C.3       1 LEU        -0.0625
     79 CD2        21.5530  -33.5620  -26.3850 C.3       1 LEU        -0.0625
     80 N          20.6500  -32.2510  -31.0840 N.am      1 LYS        -0.2695
     81 CA         20.0560  -31.7360  -32.3130 C.3       1 LYS         0.0944
     82 C          18.8680  -30.8240  -32.0260 C.2       1 LYS         0.0601
     83 O          19.0160  -29.6040  -31.9510 O.co2     1 LYS        -0.5666
     84 CB         19.6330  -32.8850  -33.2320 C.3       1 LYS        -0.0177
     85 CG         20.7990  -33.6710  -33.8090 C.3       1 LYS        -0.0446
     86 CD         20.3320  -34.7560  -34.7660 C.3       1 LYS        -0.0125
     87 CE         19.5920  -35.8630  -34.0350 C.3       1 LYS        -0.0354
     88 NZ         19.2140  -36.9680  -34.9580 N.4       1 LYS         0.2185
     89 OXT        17.7410  -31.2920  -31.8640 O.co2     1 LYS        -0.5666
     90 H1         16.7422  -33.8897  -28.3800 H         1 GLN         0.2015
     91 H2         17.7160  -33.7965  -29.7038 H         1 GLN         0.2015
     92 H3         18.3016  -33.3874  -28.2208 H         1 GLN         0.2015
     93 H4         18.0987  -35.5809  -27.4217 H         1 GLN         0.1100
     94 H5         17.0018  -36.0696  -30.2140 H         1 GLN         0.0370
     95 H6         16.1519  -36.2632  -28.6434 H         1 GLN         0.0370
     96 H7         18.0350  -38.0277  -28.1676 H         1 GLN         0.0506
     97 H8         18.2134  -38.0259  -29.9550 H         1 GLN         0.0506
     98 H9         15.8384  -40.6591  -29.7575 H         1 GLN         0.1814
     99 H10        17.5225  -40.2726  -29.8774 H         1 GLN         0.1814
    100 H11        19.8914  -36.7689  -27.4000 H         1 PHE         0.1886
    101 H12        22.2220  -35.5507  -28.4215 H         1 PHE         0.0823
    102 H13        21.8641  -38.3745  -27.3254 H         1 PHE         0.0474
    103 H14        22.0166  -36.8883  -26.3281 H         1 PHE         0.0474
    104 H15        24.1609  -35.4587  -26.8043 H         1 PHE         0.0557
    105 H16        23.7630  -39.5963  -27.7560 H         1 PHE         0.0557
    106 H17        26.6061  -35.6865  -26.8237 H         1 PHE         0.0599
    107 H18        26.2111  -39.8313  -27.7710 H         1 PHE         0.0599
    108 H19        27.6391  -37.8777  -27.2978 H         1 PHE         0.0559
    109 H20        23.5814  -35.9280  -30.0636 H         1 ASP         0.1884
    110 H21        22.8647  -38.1460  -31.9323 H         1 ASP         0.0819
    111 H22        24.2987  -35.5132  -32.5073 H         1 ASP         0.0478
    112 H23        22.6082  -35.9280  -32.9511 H         1 ASP         0.0478
    113 H24        24.2035  -39.7809  -31.9282 H         1 LEU         0.1883
    114 H25        26.5803  -39.8796  -30.3891 H         1 LEU         0.0800
    115 H26        26.9705  -42.0502  -31.5508 H         1 LEU         0.0315
    116 H27        25.6105  -41.6631  -32.6586 H         1 LEU         0.0315
    117 H28        24.1265  -41.5561  -30.6033 H         1 LEU         0.0298
    118 H29        23.9180  -44.0134  -30.4586 H         1 LEU         0.0232
    119 H30        25.5150  -44.1928  -31.2611 H         1 LEU         0.0232
    120 H31        24.1386  -43.4607  -32.1534 H         1 LEU         0.0232
    121 H32        25.9386  -41.2702  -28.9463 H         1 LEU         0.0232
    122 H33        26.5467  -42.9157  -29.3323 H         1 LEU         0.0232
    123 H34        24.9263  -42.7094  -28.5851 H         1 LEU         0.0232
    124 H35        26.0560  -38.9341  -33.7129 H         1 SER         0.1884
    125 H36        28.7271  -39.4808  -34.6306 H         1 SER         0.0823
    126 H37        28.1106  -38.1171  -36.5929 H         1 SER         0.0606
    127 H38        26.6300  -37.5568  -35.7439 H         1 SER         0.0606
    128 H39        27.2583  -40.2552  -36.4095 H         1 SER         0.2097
    129 H40        27.0989  -36.4877  -33.5323 H         1 THR         0.1884
    130 H41        29.7147  -35.1009  -33.7367 H         1 THR         0.0826
    131 H42        28.3133  -32.9904  -33.4791 H         1 THR         0.0639
    132 H43        26.0348  -33.3292  -33.8402 H         1 THR         0.2101
    133 H44        27.4118  -33.0796  -35.7801 H         1 THR         0.0257
    134 H45        27.5836  -34.8676  -35.7797 H         1 THR         0.0257
    135 H46        29.0436  -33.8249  -35.6903 H         1 THR         0.0257
    136 H47        27.9099  -36.6339  -31.4219 H         1 ARG         0.1883
    137 H48        27.6289  -36.5132  -29.1626 H         1 ARG         0.0800
    138 H49        29.4880  -35.7364  -27.8064 H         1 ARG         0.0313
    139 H50        30.2010  -34.8887  -29.2206 H         1 ARG         0.0313
    140 H51        30.7941  -36.9013  -30.2765 H         1 ARG         0.0301
    141 H52        29.6967  -37.8751  -29.2401 H         1 ARG         0.0301
    142 H53        31.1112  -37.3250  -27.2726 H         1 ARG         0.0689
    143 H54        32.2297  -36.4258  -28.3529 H         1 ARG         0.0689
    144 H55        31.9420  -39.0328  -29.4290 H         1 ARG         0.2642
    145 H56        34.3852  -38.7352  -26.1948 H         1 ARG         0.2615
    146 H57        33.1620  -37.4710  -26.4920 H         1 ARG         0.2615
    147 H58        33.4957  -40.6347  -29.0487 H         1 ARG         0.2615
    148 H59        34.5711  -40.5138  -27.6304 H         1 ARG         0.2615
    149 H60        26.4640  -34.4088  -30.8489 H         1 ARG         0.1883
    150 H61        26.1252  -32.3283  -28.7327 H         1 ARG         0.0800
    151 H62        25.5503  -30.7544  -30.5787 H         1 ARG         0.0313
    152 H63        25.9842  -32.0302  -31.7665 H         1 ARG         0.0313
    153 H64        27.8160  -30.4860  -31.5893 H         1 ARG         0.0301
    154 H65        28.3002  -32.0359  -30.8211 H         1 ARG         0.0301
    155 H66        28.9573  -29.9722  -29.5329 H         1 ARG         0.0689
    156 H67        27.9464  -31.1400  -28.6157 H         1 ARG         0.0689
    157 H68        26.2364  -29.5669  -28.4985 H         1 ARG         0.2642
    158 H69        27.9565  -26.9245  -31.0643 H         1 ARG         0.2615
    159 H70        28.6661  -28.5504  -30.8752 H         1 ARG         0.2615
    160 H71        25.3457  -27.5051  -28.7459 H         1 ARG         0.2615
    161 H72        26.0903  -26.3397  -29.8729 H         1 ARG         0.2615
    162 H73        24.0070  -31.3595  -28.6440 H         1 LEU         0.1883
    163 H74        21.8623  -33.2966  -29.1686 H         1 LEU         0.0800
    164 H75        20.4414  -31.7018  -27.9683 H         1 LEU         0.0315
    165 H76        21.7795  -30.5035  -27.9527 H         1 LEU         0.0315
    166 H77        23.1079  -32.1078  -26.5662 H         1 LEU         0.0298
    167 H78        21.8688  -31.6629  -24.4722 H         1 LEU         0.0232
    168 H79        20.4153  -31.2248  -25.4324 H         1 LEU         0.0232
    169 H80        21.9048  -30.2279  -25.5520 H         1 LEU         0.0232
    170 H81        21.9195  -34.1747  -27.2218 H         1 LEU         0.0232
    171 H82        20.4540  -33.5985  -26.3577 H         1 LEU         0.0232
    172 H83        21.9565  -33.9536  -25.4396 H         1 LEU         0.0232
    173 H84        20.3483  -33.1365  -30.7307 H         1 LYS         0.1875
    174 H85        20.8210  -31.1427  -32.8354 H         1 LYS         0.0726
    175 H86        19.0511  -32.4657  -34.0660 H         1 LYS         0.0305
    176 H87        19.0010  -33.5759  -32.6548 H         1 LYS         0.0305
    177 H88        21.3551  -34.1398  -32.9838 H         1 LYS         0.0269
    178 H89        21.4608  -32.9794  -34.3510 H         1 LYS         0.0269
    179 H90        21.2080  -35.1863  -35.2733 H         1 LYS         0.0317
    180 H91        19.6590  -34.3087  -35.5124 H         1 LYS         0.0317
    181 H92        18.6794  -35.4459  -33.5842 H         1 LYS         0.0813
    182 H93        20.2414  -36.2649  -33.2433 H         1 LYS         0.0813
    183 H94        18.7261  -37.6840  -34.4428 H         1 LYS         0.1994
    184 H95        20.0456  -37.3594  -35.3719 H         1 LYS         0.1994
    185 H96        18.6143  -36.6089  -35.6842 H         1 LYS         0.1994
@<TRIPOS>BOND
     1    1    2 1  
     2    2    3 1  
     3    2    5 1  
     4    3    4 2  
     5    3   10 am 
     6    5    6 1  
     7    6    7 1  
     8    7    8 2  
     9    7    9 am 
    10   10   11 1  
    11   11   12 1  
    12   11   14 1  
    13   12   13 2  
    14   12   21 am 
    15   14   15 1  
    16   15   16 ar 
    17   15   17 ar 
    18   16   18 ar 
    19   17   19 ar 
    20   18   20 ar 
    21   19   20 ar 
    22   21   22 1  
    23   22   23 1  
    24   22   25 1  
    25   23   24 2  
    26   23   29 am 
    27   25   26 1  
    28   26   27 ar 
    29   26   28 ar 
    30   29   30 1  
    31   30   31 1  
    32   30   33 1  
    33   31   32 2  
    34   31   37 am 
    35   33   34 1  
    36   34   35 1  
    37   34   36 1  
    38   37   38 1  
    39   38   39 1  
    40   38   41 1  
    41   39   40 2  
    42   39   43 am 
    43   41   42 1  
    44   43   44 1  
    45   44   45 1  
    46   44   47 1  
    47   45   46 2  
    48   45   50 am 
    49   47   48 1  
    50   47   49 1  
    51   50   51 1  
    52   51   52 1  
    53   51   54 1  
    54   52   53 2  
    55   52   61 am 
    56   54   55 1  
    57   55   56 1  
    58   56   57 1  
    59   57   58 ar 
    60   58   59 ar 
    61   58   60 ar 
    62   61   62 1  
    63   62   63 1  
    64   62   65 1  
    65   63   64 2  
    66   63   72 am 
    67   65   66 1  
    68   66   67 1  
    69   67   68 1  
    70   68   69 ar 
    71   69   70 ar 
    72   69   71 ar 
    73   72   73 1  
    74   73   74 1  
    75   73   76 1  
    76   74   75 2  
    77   74   80 am 
    78   76   77 1  
    79   77   78 1  
    80   77   79 1  
    81   80   81 1  
    82   81   82 1  
    83   81   84 1  
    84   82   83 ar 
    85   82   89 ar 
    86   84   85 1  
    87   85   86 1  
    88   86   87 1  
    89   87   88 1  
    90    1   90 1  
    91    1   91 1  
    92    1   92 1  
    93    2   93 1  
    94    5   94 1  
    95    5   95 1  
    96    6   96 1  
    97    6   97 1  
    98    9   98 1  
    99    9   99 1  
   100   10  100 1  
   101   11  101 1  
   102   14  102 1  
   103   14  103 1  
   104   16  104 1  
   105   17  105 1  
   106   18  106 1  
   107   19  107 1  
   108   20  108 1  
   109   21  109 1  
   110   22  110 1  
   111   25  111 1  
   112   25  112 1  
   113   29  113 1  
   114   30  114 1  
   115   33  115 1  
   116   33  116 1  
   117   34  117 1  
   118   35  118 1  
   119   35  119 1  
   120   35  120 1  
   121   36  121 1  
   122   36  122 1  
   123   36  123 1  
   124   37  124 1  
   125   38  125 1  
   126   41  126 1  
   127   41  127 1  
   128   42  128 1  
   129   43  129 1  
   130   44  130 1  
   131   47  131 1  
   132   48  132 1  
   133   49  133 1  
   134   49  134 1  
   135   49  135 1  
   136   50  136 1  
   137   51  137 1  
   138   54  138 1  
   139   54  139 1  
   140   55  140 1  
   141   55  141 1  
   142   56  142 1  
   143   56  143 1  
   144   57  144 1  
   145   59  145 1  
   146   59  146 1  
   147   60  147 1  
   148   60  148 1  
   149   61  149 1  
   150   62  150 1  
   151   65  151 1  
   152   65  152 1  
   153   66  153 1  
   154   66  154 1  
   155   67  155 1  
   156   67  156 1  
   157   68  157 1  
   158   70  158 1  
   159   70  159 1  
   160   71  160 1  
   161   71  161 1  
   162   72  162 1  
   163   73  163 1  
   164   76  164 1  
   165   76  165 1  
   166   77  166 1  
   167   78  167 1  
   168   78  168 1  
   169   78  169 1  
   170   79  170 1  
   171   79  171 1  
   172   79  172 1  
   173   80  173 1  
   174   81  174 1  
   175   84  175 1  
   176   84  176 1  
   177   85  177 1  
   178   85  178 1  
   179   86  179 1  
   180   86  180 1  
   181   87  181 1  
   182   87  182 1  
   183   88  183 1  
   184   88  184 1  
   185   88  185 1  
@<TRIPOS>SUBSTRUCTURE
     1 GLN         1

