5esq_ligand
  -I-interpret- 

185185  0  0  0  0  0  0  0  0999 V2000
   17.6840  -34.0090  -28.7190 N   0  3  0  0  0
   18.1070  -35.3900  -28.5050 C   0  0  0  0  0
   19.5340  -35.6200  -29.0050 C   0  0  0  0  0
   19.9140  -35.1590  -30.0830 O   0  0  0  0  0
   17.1180  -36.3620  -29.1600 C   0  0  0  0  0
   17.5240  -37.8280  -29.1210 C   0  0  0  0  0
   16.3310  -38.7640  -29.2410 C   0  0  0  0  0
   15.1950  -38.3800  -28.9570 O   0  0  0  0  0
   16.5850  -40.0010  -29.6600 N   0  0  0  0  0
   20.3090  -36.3400  -28.2010 N   0  0  0  0  0
   21.7370  -36.5380  -28.4250 C   0  0  0  0  0
   22.0560  -37.2090  -29.7550 C   0  0  0  0  0
   21.3700  -38.1380  -30.1710 O   0  0  0  0  0
   22.3050  -37.3680  -27.2750 C   0  0  0  0  0
   23.7970  -37.5070  -27.2960 C   0  0  0  0  0
   24.6090  -36.4210  -27.0240 C   0  0  0  0  0
   24.3870  -38.7330  -27.5550 C   0  0  0  0  0
   25.9810  -36.5480  -27.0290 C   0  0  0  0  0
   25.7610  -38.8680  -27.5600 C   0  0  0  0  0
   26.5600  -37.7750  -27.2960 C   0  0  0  0  0
   23.1030  -36.7310  -30.4190 N   0  0  0  0  0
   23.5710  -37.3500  -31.6540 C   0  0  0  0  0
   24.9440  -37.9750  -31.4410 C   0  0  0  0  0
   25.9060  -37.2830  -31.1140 O   0  0  0  0  0
   23.6200  -36.3300  -32.7940 C   0  0  0  0  0
   24.1110  -36.9360  -34.0980 C   0  0  0  0  0
   23.9620  -38.1640  -34.2800 O   0  0  0  0  0
   24.6420  -36.1860  -34.9430 O   0  0  0  0  0
   25.0220  -39.2880  -31.6330 N   0  0  0  0  0
   26.2580  -40.0370  -31.4290 C   0  0  0  0  0
   27.3880  -39.5830  -32.3470 C   0  0  0  0  0
   28.5630  -39.7150  -32.0070 O   0  0  0  0  0
   26.0060  -41.5290  -31.6410 C   0  0  0  0  0
   25.0280  -42.1830  -30.6690 C   0  0  0  0  0
   24.6220  -43.5570  -31.1700 C   0  0  0  0  0
   25.6530  -42.2760  -29.2880 C   0  0  0  0  0
   27.0280  -39.0560  -33.5120 N   0  0  0  0  0
   28.0160  -38.6510  -34.5050 C   0  0  0  0  0
   28.8040  -37.4190  -34.0670 C   0  0  0  0  0
   30.0330  -37.4080  -34.1200 O   0  0  0  0  0
   27.3420  -38.3880  -35.8540 C   0  0  0  0  0
   26.6470  -39.5350  -36.3090 O   0  0  0  0  0
   28.0890  -36.3870  -33.6300 N   0  0  0  0  0
   28.7100  -35.1110  -33.2890 C   0  0  0  0  0
   28.8610  -34.8990  -31.7840 C   0  0  0  0  0
   29.4760  -33.9230  -31.3500 O   0  0  0  0  0
   27.9050  -33.9340  -33.8700 C   0  0  0  0  0
   26.5300  -34.0560  -33.4810 O   0  0  0  0  0
   27.9920  -33.9260  -35.3840 C   0  0  0  0  0
   28.2990  -35.8150  -31.0000 N   0  0  0  0  0
   28.2270  -35.6730  -29.5450 C   0  0  0  0  0
   27.5210  -34.3820  -29.1360 C   0  0  0  0  0
   27.7840  -33.8270  -28.0700 O   0  0  0  0  0
   29.6130  -35.7610  -28.8990 C   0  0  0  0  0
   30.3820  -37.0150  -29.2630 C   0  0  0  0  0
   31.5200  -37.2640  -28.2920 C   0  0  0  0  0
   32.2280  -38.5050  -28.5920 N   0  0  0  0  0
   33.2170  -38.9970  -27.8550 C   0  0  0  0  0
   33.6180  -38.3530  -26.7660 N   0  0  0  0  0
   33.8050  -40.1330  -28.2040 N   0  0  0  0  0
   26.6220  -33.9130  -29.9950 N   0  0  0  0  0
   25.8600  -32.7010  -29.7330 C   0  0  0  0  0
   24.3670  -32.9910  -29.7690 C   0  0  0  0  0
   23.9320  -33.9840  -30.3520 O   0  0  0  0  0
   26.1960  -31.6250  -30.7660 C   0  0  0  0  0
   27.6400  -31.1600  -30.7380 C   0  0  0  0  0
   27.9570  -30.4220  -29.4490 C   0  0  0  0  0
   26.9860  -29.3670  -29.1760 N   0  0  0  0  0
   27.0050  -28.1650  -29.7440 C   0  0  0  0  0
   27.9460  -27.8570  -30.6270 N   0  0  0  0  0
   26.0780  -27.2700  -29.4310 N   0  0  0  0  0
   23.5860  -32.1170  -29.1430 N   0  0  0  0  0
   22.1350  -32.2310  -29.1630 C   0  0  0  0  0
   21.5820  -31.5730  -30.4220 C   0  0  0  0  0
   21.9970  -30.4740  -30.7880 O   0  0  0  0  0
   21.5330  -31.5750  -27.9200 C   0  0  0  0  0
   22.0080  -32.1230  -26.5730 C   0  0  0  0  0
   21.5150  -31.2490  -25.4280 C   0  0  0  0  0
   21.5530  -33.5620  -26.3850 C   0  0  0  0  0
   20.6500  -32.2510  -31.0840 N   0  0  0  0  0
   20.0560  -31.7360  -32.3130 C   0  0  0  0  0
   18.8680  -30.8240  -32.0260 C   0  0  0  0  0
   19.0160  -29.6040  -31.9510 O   0  0  0  0  0
   19.6330  -32.8850  -33.2320 C   0  0  0  0  0
   20.7990  -33.6710  -33.8090 C   0  0  0  0  0
   20.3320  -34.7560  -34.7660 C   0  0  0  0  0
   19.5920  -35.8630  -34.0350 C   0  0  0  0  0
   19.2140  -36.9680  -34.9580 N   0  3  0  0  0
   17.7410  -31.2920  -31.8640 O   0  0  0  0  0
   18.3523  -33.3776  -28.2773 H   0  0  0  0  0
   17.6445  -33.8180  -29.7202 H   0  0  0  0  0
   16.7607  -33.8700  -28.3085 H   0  0  0  0  0
   18.1089  -35.5826  -27.4321 H   0  0  0  0  0
   17.0569  -36.0831  -30.2119 H   0  0  0  0  0
   16.1854  -36.2816  -28.6015 H   0  0  0  0  0
   18.0069  -38.0186  -28.1626 H   0  0  0  0  0
   18.1868  -38.0168  -29.9655 H   0  0  0  0  0
   15.8238  -40.6731  -29.7567 H   0  0  0  0  0
   17.5409  -40.2772  -29.8845 H   0  0  0  0  0
   19.8830  -36.7775  -27.3839 H   0  0  0  0  0
   22.1994  -35.5517  -28.4637 H   0  0  0  0  0
   21.8873  -38.3707  -27.3653 H   0  0  0  0  0
   22.0427  -36.8563  -26.3490 H   0  0  0  0  0
   24.1584  -35.4534  -26.8031 H   0  0  0  0  0
   23.7595  -39.6010  -27.7572 H   0  0  0  0  0
   26.6096  -35.6818  -26.8226 H   0  0  0  0  0
   26.2136  -39.8366  -27.7722 H   0  0  0  0  0
   27.6451  -37.8783  -27.2979 H   0  0  0  0  0
   23.5909  -35.9119  -30.0565 H   0  0  0  0  0
   22.8661  -38.1335  -31.9322 H   0  0  0  0  0
   24.3146  -35.5401  -32.5082 H   0  0  0  0  0
   22.6081  -35.9588  -32.9562 H   0  0  0  0  0
   23.5353  -38.5507  -33.5119 H   0  0  0  0  0
   24.1871  -39.7907  -31.9341 H   0  0  0  0  0
   26.5734  -39.8441  -30.4036 H   0  0  0  0  0
   26.9646  -42.0267  -31.4941 H   0  0  0  0  0
   25.5662  -41.6286  -32.6333 H   0  0  0  0  0
   24.1306  -41.5679  -30.6031 H   0  0  0  0  0
   24.1432  -43.4602  -32.1444 H   0  0  0  0  0
   25.5077  -44.1859  -31.2598 H   0  0  0  0  0
   23.9245  -44.0082  -30.4643 H   0  0  0  0  0
   26.5617  -42.8756  -29.3415 H   0  0  0  0  0
   25.8972  -41.2748  -28.9329 H   0  0  0  0  0
   24.9471  -42.7441  -28.6019 H   0  0  0  0  0
   26.0366  -38.9316  -33.7169 H   0  0  0  0  0
   28.7228  -39.4745  -34.6068 H   0  0  0  0  0
   28.1103  -38.1333  -36.5840 H   0  0  0  0  0
   26.6286  -37.5726  -35.7344 H   0  0  0  0  0
   26.2347  -39.3435  -37.1545 H   0  0  0  0  0
   27.0791  -36.4897  -33.5303 H   0  0  0  0  0
   29.7069  -35.1449  -33.7284 H   0  0  0  0  0
   28.3222  -33.0037  -33.4845 H   0  0  0  0  0
   26.0296  -33.3216  -33.8440 H   0  0  0  0  0
   29.0345  -33.8259  -35.6862 H   0  0  0  0  0
   27.5871  -34.8595  -35.7749 H   0  0  0  0  0
   27.4167  -33.0869  -35.7753 H   0  0  0  0  0
   27.9021  -36.6503  -31.4303 H   0  0  0  0  0
   27.6321  -36.5087  -29.1766 H   0  0  0  0  0
   29.4669  -35.7725  -27.8189 H   0  0  0  0  0
   30.1922  -34.9101  -29.2576 H   0  0  0  0  0
   30.7993  -36.8887  -30.2620 H   0  0  0  0  0
   29.6999  -37.8643  -29.2237 H   0  0  0  0  0
   31.1025  -37.3421  -27.2881 H   0  0  0  0  0
   32.2268  -36.4383  -28.3740 H   0  0  0  0  0
   31.9448  -39.0277  -29.4209 H   0  0  0  0  0
   34.3769  -38.7321  -26.1997 H   0  0  0  0  0
   33.1673  -37.4789  -26.4954 H   0  0  0  0  0
   33.4978  -40.6305  -29.0398 H   0  0  0  0  0
   26.4608  -34.4187  -30.8660 H   0  0  0  0  0
   26.1288  -32.3401  -28.7402 H   0  0  0  0  0
   25.5759  -30.7579  -30.5386 H   0  0  0  0  0
   26.0183  -32.0590  -31.7499 H   0  0  0  0  0
   27.8024  -30.4814  -31.5754 H   0  0  0  0  0
   28.2875  -32.0342  -30.8056 H   0  0  0  0  0
   28.9412  -29.9644  -29.5492 H   0  0  0  0  0
   27.9254  -31.1378  -28.6276 H   0  0  0  0  0
   26.2437  -29.5650  -28.5050 H   0  0  0  0  0
   27.9546  -26.9346  -31.0624 H   0  0  0  0  0
   28.6609  -28.5426  -30.8705 H   0  0  0  0  0
   25.3510  -27.5039  -28.7549 H   0  0  0  0  0
   24.0154  -31.3444  -28.6341 H   0  0  0  0  0
   21.8647  -33.2870  -29.1639 H   0  0  0  0  0
   20.4603  -31.7629  -27.9649 H   0  0  0  0  0
   21.8381  -30.5290  -27.9488 H   0  0  0  0  0
   23.0979  -32.1068  -26.5674 H   0  0  0  0  0
   21.9018  -30.2375  -25.5521 H   0  0  0  0  0
   20.4253  -31.2258  -25.4335 H   0  0  0  0  0
   21.8662  -31.6601  -24.4816 H   0  0  0  0  0
   20.4644  -33.6048  -26.4184 H   0  0  0  0  0
   21.9668  -34.1796  -27.1821 H   0  0  0  0  0
   21.9029  -33.9292  -25.4202 H   0  0  0  0  0
   20.3423  -33.1542  -30.7237 H   0  0  0  0  0
   20.8175  -31.1422  -32.8185 H   0  0  0  0  0
   19.9392  -29.3852  -32.0974 H   0  0  0  0  0
   19.0898  -32.4477  -34.0698 H   0  0  0  0  0
   19.0389  -33.5767  -32.6348 H   0  0  0  0  0
   21.3314  -34.1471  -32.9856 H   0  0  0  0  0
   21.4376  -32.9806  -34.3600 H   0  0  0  0  0
   21.2071  -35.1880  -35.2514 H   0  0  0  0  0
   19.6531  -34.3076  -35.4913 H   0  0  0  0  0
   18.6815  -35.4448  -33.6058 H   0  0  0  0  0
   20.2483  -36.2664  -33.2638 H   0  0  0  0  0
   18.7204  -37.6919  -34.4357 H   0  0  0  0  0
   18.6072  -36.6034  -35.6924 H   0  0  0  0  0
   20.0562  -37.3632  -35.3762 H   0  0  0  0  0
  1  2  1  0  0  0
  2  3  1  0  0  0
  2  5  1  0  0  0
  3  4  2  0  0  0
  3 10  1  0  0  0
  5  6  1  0  0  0
  6  7  1  0  0  0
  7  8  2  0  0  0
  7  9  1  0  0  0
 10 11  1  0  0  0
 11 12  1  0  0  0
 11 14  1  0  0  0
 12 13  2  0  0  0
 12 21  1  0  0  0
 14 15  1  0  0  0
 15 16  4  0  0  0
 15 17  4  0  0  0
 16 18  4  0  0  0
 17 19  4  0  0  0
 18 20  4  0  0  0
 19 20  4  0  0  0
 21 22  1  0  0  0
 22 23  1  0  0  0
 22 25  1  0  0  0
 23 24  2  0  0  0
 23 29  1  0  0  0
 25 26  1  0  0  0
 26 27  1  0  0  0
 26 28  2  0  0  0
 29 30  1  0  0  0
 30 31  1  0  0  0
 30 33  1  0  0  0
 31 32  2  0  0  0
 31 37  1  0  0  0
 33 34  1  0  0  0
 34 35  1  0  0  0
 34 36  1  0  0  0
 37 38  1  0  0  0
 38 39  1  0  0  0
 38 41  1  0  0  0
 39 40  2  0  0  0
 39 43  1  0  0  0
 41 42  1  0  0  0
 43 44  1  0  0  0
 44 45  1  0  0  0
 44 47  1  0  0  0
 45 46  2  0  0  0
 45 50  1  0  0  0
 47 48  1  0  0  0
 47 49  1  0  0  0
 50 51  1  0  0  0
 51 52  1  0  0  0
 51 54  1  0  0  0
 52 53  2  0  0  0
 52 61  1  0  0  0
 54 55  1  0  0  0
 55 56  1  0  0  0
 56 57  1  0  0  0
 57 58  1  0  0  0
 58 59  1  0  0  0
 58 60  2  0  0  0
 61 62  1  0  0  0
 62 63  1  0  0  0
 62 65  1  0  0  0
 63 64  2  0  0  0
 63 72  1  0  0  0
 65 66  1  0  0  0
 66 67  1  0  0  0
 67 68  1  0  0  0
 68 69  1  0  0  0
 69 70  1  0  0  0
 69 71  2  0  0  0
 72 73  1  0  0  0
 73 74  1  0  0  0
 73 76  1  0  0  0
 74 75  2  0  0  0
 74 80  1  0  0  0
 76 77  1  0  0  0
 77 78  1  0  0  0
 77 79  1  0  0  0
 80 81  1  0  0  0
 81 82  1  0  0  0
 81 84  1  0  0  0
 82 83  1  0  0  0
 82 89  2  0  0  0
 84 85  1  0  0  0
 85 86  1  0  0  0
 86 87  1  0  0  0
 87 88  1  0  0  0
  1 90  1  0  0  0
  1 91  1  0  0  0
  1 92  1  0  0  0
  2 93  1  0  0  0
  5 94  1  0  0  0
  5 95  1  0  0  0
  6 96  1  0  0  0
  6 97  1  0  0  0
  9 98  1  0  0  0
  9 99  1  0  0  0
 10100  1  0  0  0
 11101  1  0  0  0
 14102  1  0  0  0
 14103  1  0  0  0
 16104  1  0  0  0
 17105  1  0  0  0
 18106  1  0  0  0
 19107  1  0  0  0
 20108  1  0  0  0
 21109  1  0  0  0
 22110  1  0  0  0
 25111  1  0  0  0
 25112  1  0  0  0
 27113  1  0  0  0
 29114  1  0  0  0
 30115  1  0  0  0
 33116  1  0  0  0
 33117  1  0  0  0
 34118  1  0  0  0
 35119  1  0  0  0
 35120  1  0  0  0
 35121  1  0  0  0
 36122  1  0  0  0
 36123  1  0  0  0
 36124  1  0  0  0
 37125  1  0  0  0
 38126  1  0  0  0
 41127  1  0  0  0
 41128  1  0  0  0
 42129  1  0  0  0
 43130  1  0  0  0
 44131  1  0  0  0
 47132  1  0  0  0
 48133  1  0  0  0
 49134  1  0  0  0
 49135  1  0  0  0
 49136  1  0  0  0
 50137  1  0  0  0
 51138  1  0  0  0
 54139  1  0  0  0
 54140  1  0  0  0
 55141  1  0  0  0
 55142  1  0  0  0
 56143  1  0  0  0
 56144  1  0  0  0
 57145  1  0  0  0
 59146  1  0  0  0
 59147  1  0  0  0
 60148  1  0  0  0
 61149  1  0  0  0
 62150  1  0  0  0
 65151  1  0  0  0
 65152  1  0  0  0
 66153  1  0  0  0
 66154  1  0  0  0
 67155  1  0  0  0
 67156  1  0  0  0
 68157  1  0  0  0
 70158  1  0  0  0
 70159  1  0  0  0
 71160  1  0  0  0
 72161  1  0  0  0
 73162  1  0  0  0
 76163  1  0  0  0
 76164  1  0  0  0
 77165  1  0  0  0
 78166  1  0  0  0
 78167  1  0  0  0
 78168  1  0  0  0
 79169  1  0  0  0
 79170  1  0  0  0
 79171  1  0  0  0
 80172  1  0  0  0
 81173  1  0  0  0
 83174  1  0  0  0
 84175  1  0  0  0
 84176  1  0  0  0
 85177  1  0  0  0
 85178  1  0  0  0
 86179  1  0  0  0
 86180  1  0  0  0
 87181  1  0  0  0
 87182  1  0  0  0
 88183  1  0  0  0
 88184  1  0  0  0
 88185  1  0  0  0
M  END
$$$$
