### 
### Created by X-TOOL on Mon Sep 10 21:13:18 2018
### 

@<TRIPOS>MOLECULE
4lph_ligand
   34    36     1     0     0
SMALL
GAST_HUCK


@<TRIPOS>ATOM
      1 OAT         9.4640   71.5080   26.8230 O.co2     1 YL3        -0.5608
      2 PAS         8.1020   71.9090   25.9810 P.3       1 YL3         0.0817
      3 OAU         7.6670   73.3090   26.4040 O.co2     1 YL3        -0.5608
      4 OAV         8.2080   71.5190   24.5460 O.co2     1 YL3        -0.5608
      5 CAR         6.9960   70.7540   26.5990 C.3       1 YL3         0.1016
      6 NAJ         6.3720   71.5650   27.6570 N.pl3     1 YL3        -0.2849
      7 C4          5.1220   71.3740   27.9910 C.ar      1 YL3         0.1292
      8 N3          4.7410   70.0950   28.1780 N.ar      1 YL3        -0.2639
      9 C2          3.4360   69.8210   28.5490 C.ar      1 YL3         0.0586
     10 N1          2.5990   70.9200   28.6980 N.ar      1 YL3        -0.2773
     11 C6          3.0600   72.1780   28.4940 C.ar      1 YL3         0.1085
     12 SAE         2.2850   73.5430   28.6340 S.3       1 YL3        -0.0140
     13 C5          4.3280   72.4640   28.1280 C.ar      1 YL3         0.0469
     14 CAC         4.5830   73.8320   27.9770 C.2       1 YL3        -0.0456
     15 CAD         3.5170   74.6600   28.2220 C.2       1 YL3         0.0373
     16 CAK         3.3550   76.0570   28.1690 C.ar      1 YL3        -0.0128
     17 CAL         4.3920   77.0300   28.2180 C.ar      1 YL3        -0.0592
     18 CAM         4.1380   78.4170   28.1240 C.ar      1 YL3        -0.0593
     19 CAN         2.8400   78.9150   28.0190 C.ar      1 YL3        -0.0451
     20 CAQ         2.5660   80.3080   27.9670 C.3       1 YL3        -0.0306
     21 CAO         1.8030   77.9870   27.9740 C.ar      1 YL3        -0.0593
     22 CAP         2.0640   76.6130   28.0670 C.ar      1 YL3        -0.0592
     23 H           7.5090   69.8705   27.0067 H         1 YL3         0.0721
     24 H           6.2660   70.4364   25.8399 H         1 YL3         0.0721
     25 H           6.9244   72.2890   28.1383 H         1 YL3         0.1881
     26 H           3.0872   68.8079   28.7137 H         1 YL3         0.1012
     27 H           5.5606   74.2129   27.6851 H         1 YL3         0.0448
     28 H           5.4164   76.6944   28.3318 H         1 YL3         0.0607
     29 H           4.9717   79.1098   28.1338 H         1 YL3         0.0561
     30 H           1.4804   80.4653   27.8852 H         1 YL3         0.0395
     31 H           3.0672   80.7479   27.0922 H         1 YL3         0.0395
     32 H           2.9382   80.7894   28.8834 H         1 YL3         0.0395
     33 H           0.7809   78.3315   27.8657 H         1 YL3         0.0561
     34 H           1.2186   75.9345   28.0600 H         1 YL3         0.0607
@<TRIPOS>BOND
     1    1    2 ar 
     2    2    3 ar 
     3    2    4 ar 
     4    2    5 1  
     5    5    6 1  
     6    6    7 1  
     7    7    8 ar 
     8    7   13 ar 
     9    8    9 ar 
    10    9   10 ar 
    11   10   11 ar 
    12   11   12 1  
    13   11   13 ar 
    14   12   15 1  
    15   13   14 1  
    16   14   15 2  
    17   15   16 1  
    18   16   17 ar 
    19   16   22 ar 
    20   17   18 ar 
    21   18   19 ar 
    22   19   20 1  
    23   19   21 ar 
    24   21   22 ar 
    25    5   23 1  
    26    5   24 1  
    27    6   25 1  
    28    9   26 1  
    29   14   27 1  
    30   17   28 1  
    31   18   29 1  
    32   20   30 1  
    33   20   31 1  
    34   20   32 1  
    35   21   33 1  
    36   22   34 1  
@<TRIPOS>SUBSTRUCTURE
     1 YL3         1

