1c5p_ligand
  -I-interpret- 

 17 17  0  0  0  0  0  0  0  0999 V2000
   45.5430   19.2870   52.9170 C   0  0  0  0  0
   45.6420   20.6680   53.1640 C   0  0  0  0  0
   45.2920   21.6160   52.2010 C   0  0  0  0  0
   44.8250   21.1990   50.9620 C   0  0  0  0  0
   44.7100   19.8370   50.6840 C   0  0  0  0  0
   45.0610   18.8980   51.6450 C   0  0  0  0  0
   45.9020   18.3560   53.8920 C   0  0  0  0  0
   46.7420   18.6980   54.8210 N   0  0  0  0  0
   45.4030   17.1580   53.8400 N   0  0  0  0  0
   46.0023   21.0077   54.1350 H   0  0  0  0  0
   45.3850   22.6795   52.4210 H   0  0  0  0  0
   44.5485   21.9351   50.2072 H   0  0  0  0  0
   44.3441   19.5092   49.7110 H   0  0  0  0  0
   44.9629   17.8373   51.4141 H   0  0  0  0  0
   47.0227   18.0200   55.5295 H   0  0  0  0  0
   45.6695   16.4638   54.5381 H   0  0  0  0  0
   44.7446   16.9114   53.1010 H   0  0  0  0  0
  7  1  1  0  0  0
  1  6  4  0  0  0
  1  2  4  0  0  0
  2  3  4  0  0  0
  3  4  4  0  0  0
  4  5  4  0  0  0
  6  5  4  0  0  0
  7  9  1  0  0  0
  7  8  2  0  0  0
  2 10  1  0  0  0
  3 11  1  0  0  0
  4 12  1  0  0  0
  5 13  1  0  0  0
  6 14  1  0  0  0
  8 15  1  0  0  0
  9 16  1  0  0  0
  9 17  1  0  0  0
M  END
$$$$
