1v41_ligand
  -I-interpret- 

 13 14  0  0  0  0  0  0  0  0999 V2000
   53.2130   47.2580   27.1640 C   0  0  0  0  0
   54.3140   46.6660   27.6860 N   0  0  0  0  0
   55.4170   46.9960   27.0110 C   0  0  0  0  0
   56.5870   46.5030   27.3780 N   0  0  0  0  0
   55.4500   47.8230   25.9230 N   0  0  0  0  0
   54.3400   48.4560   25.3500 C   0  0  0  0  0
   54.4920   49.1930   24.3490 O   0  0  0  0  0
   53.1260   48.1130   26.0580 C   0  0  0  0  0
   51.7870   48.5190   25.8340 N   0  0  0  0  0
   51.0800   47.9060   26.7860 N   0  0  0  0  0
   51.8950   47.1160   27.6310 N   0  0  0  0  0
   54.3015   46.0448   28.4949 H   0  0  0  0  0
   57.4296   46.7484   26.8581 H   0  0  0  0  0
  1  2  1  0  0  0
  1  8  4  0  0  0
  1 11  4  0  0  0
  2  3  1  0  0  0
  3  4  2  0  0  0
  3  5  4  0  0  0
  5  6  1  0  0  0
  6  7  2  0  0  0
  6  8  1  0  0  0
  8  9  4  0  0  0
  9 10  4  0  0  0
 10 11  4  0  0  0
  2 12  1  0  0  0
  4 13  1  0  0  0
M  END
$$$$
