5iq6_ligand
  -I-interpret- 

 72 77  0  0  0  0  0  0  0  0999 V2000
  -32.5390  -62.1820  -12.7810 O   0  0  0  0  0
  -31.7200  -67.9100  -11.0650 C   0  0  0  0  0
  -33.1790  -66.2220  -12.1670 C   0  0  0  0  0
  -29.4520  -65.2810  -10.3340 O   0  0  0  0  0
  -34.0860  -65.4540  -12.8910 C   0  0  0  0  0
  -31.2220  -66.6100  -10.9650 N   0  0  0  0  0
  -33.8520  -64.1030  -13.0640 C   0  0  0  0  0
  -32.7260  -63.5200  -12.5030 C   0  0  0  0  0
  -31.1800  -61.6280  -12.7200 C   0  0  0  0  0
  -29.7760  -65.7110  -14.6350 O   0  0  0  0  0
  -31.0300  -60.7800  -13.9630 C   0  0  0  0  0
  -32.0350  -59.6320  -13.9690 C   0  0  0  0  0
  -31.9350  -58.7990  -12.7030 C   0  0  0  0  0
  -32.0710  -59.6660  -11.4660 C   0  0  0  0  0
  -31.0500  -60.7980  -11.4650 C   0  0  0  0  0
  -31.8330  -64.2690  -11.7470 C   0  0  0  0  0
  -29.9750  -66.3870  -10.3160 C   0  0  0  0  0
  -32.0420  -65.6370  -11.5930 C   0  0  0  0  0
  -33.2440  -67.9440  -11.8990 S   0  0  0  0  0
  -29.3600  -67.5400   -9.6650 C   0  0  0  0  0
  -28.1830  -67.3500   -8.7810 C   0  0  0  0  0
  -28.3150  -67.4410   -7.3960 C   0  0  0  0  0
  -27.2210  -67.2400   -6.5720 C   0  0  0  0  0
  -25.9850  -66.9490   -7.1140 C   0  0  0  0  0
  -25.8410  -66.8600   -8.4840 C   0  0  0  0  0
  -26.9300  -67.0600   -9.3160 C   0  0  0  0  0
  -29.8810  -68.7720   -9.8550 C   0  0  0  0  0
  -31.0810  -69.0070  -10.5780 C   0  0  0  0  0
  -31.5540  -70.4060  -10.7880 C   0  0  0  0  0
  -32.6950  -70.7460  -10.4790 O   0  0  0  0  0
  -30.6440  -71.2480  -11.3120 N   0  0  0  0  0
  -30.7650  -71.8740  -12.6240 C   0  0  0  0  0
  -29.4090  -72.3050  -13.1760 C   0  0  0  0  0
  -28.3650  -72.1210  -12.5810 O   0  0  0  0  0
  -29.4930  -72.9000  -14.3320 O   0  0  0  0  0
  -31.5440  -71.0090  -13.6410 C   0  0  0  0  0
  -31.0330  -69.6160  -13.9370 C   0  0  0  0  0
  -31.8250  -68.7240  -14.6470 C   0  0  0  0  0
  -31.4110  -67.4250  -14.8820 C   0  0  0  0  0
  -30.1790  -66.9960  -14.4140 C   0  0  0  0  0
  -29.3660  -67.8790  -13.7180 C   0  0  0  0  0
  -29.7940  -69.1750  -13.4850 C   0  0  0  0  0
  -34.9759  -65.9154  -13.3192 H   0  0  0  0  0
  -34.5512  -63.4970  -13.6403 H   0  0  0  0  0
  -30.4061  -62.3948  -12.6860 H   0  0  0  0  0
  -28.9069  -65.5786  -14.2493 H   0  0  0  0  0
  -31.2106  -61.4064  -14.8366 H   0  0  0  0  0
  -30.0233  -60.3625  -13.9811 H   0  0  0  0  0
  -33.0391  -60.0521  -14.0278 H   0  0  0  0  0
  -31.8207  -58.9896  -14.8231 H   0  0  0  0  0
  -32.7406  -58.0647  -12.7043 H   0  0  0  0  0
  -30.9599  -58.3123  -12.6821 H   0  0  0  0  0
  -33.0703  -60.1012  -11.4566 H   0  0  0  0  0
  -31.8995  -59.0445  -10.5872 H   0  0  0  0  0
  -30.0478  -60.3712  -11.4247 H   0  0  0  0  0
  -31.2283  -61.4352  -10.5988 H   0  0  0  0  0
  -30.9744  -63.7889  -11.2775 H   0  0  0  0  0
  -29.2865  -67.6720   -6.9590 H   0  0  0  0  0
  -27.3359  -67.3118   -5.4905 H   0  0  0  0  0
  -25.1258  -66.7901   -6.4624 H   0  0  0  0  0
  -24.8655  -66.6312   -8.9131 H   0  0  0  0  0
  -26.8058  -66.9900  -10.3966 H   0  0  0  0  0
  -29.3546  -69.6279   -9.4327 H   0  0  0  0  0
  -29.8163  -71.4622  -10.7557 H   0  0  0  0  0
  -31.3606  -72.7739  -12.4709 H   0  0  0  0  0
  -30.4119  -72.9323  -14.6080 H   0  0  0  0  0
  -32.5300  -70.8650  -13.1992 H   0  0  0  0  0
  -31.4755  -71.5466  -14.5867 H   0  0  0  0  0
  -32.7921  -69.0535  -15.0268 H   0  0  0  0  0
  -32.0533  -66.7394  -15.4348 H   0  0  0  0  0
  -28.3914  -67.5528  -13.3550 H   0  0  0  0  0
  -29.1484  -69.8618  -12.9376 H   0  0  0  0  0
  8  1  1  0  0  0
  1  9  1  0  0  0
  2  6  1  0  0  0
  2 19  1  0  0  0
 28  2  2  0  0  0
  3  5  4  0  0  0
  3 18  4  0  0  0
 19  3  1  0  0  0
 17  4  2  0  0  0
  5  7  4  0  0  0
  6 17  1  0  0  0
  6 18  1  0  0  0
  7  8  4  0  0  0
 16  8  4  0  0  0
  9 11  1  0  0  0
  9 15  1  0  0  0
 40 10  1  0  0  0
 11 12  1  0  0  0
 12 13  1  0  0  0
 14 13  1  0  0  0
 15 14  1  0  0  0
 18 16  4  0  0  0
 20 17  1  0  0  0
 20 21  1  0  0  0
 27 20  2  0  0  0
 21 22  4  0  0  0
 21 26  4  0  0  0
 22 23  4  0  0  0
 23 24  4  0  0  0
 25 24  4  0  0  0
 26 25  4  0  0  0
 28 27  1  0  0  0
 29 28  1  0  0  0
 29 30  2  0  0  0
 31 29  1  0  0  0
 32 31  1  0  0  0
 32 33  1  0  0  0
 36 32  1  0  0  0
 33 34  2  0  0  0
 33 35  1  0  0  0
 37 36  1  0  0  0
 38 37  4  0  0  0
 37 42  4  0  0  0
 39 38  4  0  0  0
 39 40  4  0  0  0
 40 41  4  0  0  0
 41 42  4  0  0  0
  5 43  1  0  0  0
  7 44  1  0  0  0
  9 45  1  0  0  0
 10 46  1  0  0  0
 11 47  1  0  0  0
 11 48  1  0  0  0
 12 49  1  0  0  0
 12 50  1  0  0  0
 13 51  1  0  0  0
 13 52  1  0  0  0
 14 53  1  0  0  0
 14 54  1  0  0  0
 15 55  1  0  0  0
 15 56  1  0  0  0
 16 57  1  0  0  0
 22 58  1  0  0  0
 23 59  1  0  0  0
 24 60  1  0  0  0
 25 61  1  0  0  0
 26 62  1  0  0  0
 27 63  1  0  0  0
 31 64  1  0  0  0
 32 65  1  0  0  0
 35 66  1  0  0  0
 36 67  1  0  0  0
 36 68  1  0  0  0
 38 69  1  0  0  0
 39 70  1  0  0  0
 41 71  1  0  0  0
 42 72  1  0  0  0
M  END
$$$$
