2f3f_ligand
  -I-interpret- 

 77 78  0  0  0  0  0  0  0  0999 V2000
   29.8450    9.0120   18.6550 C   0  0  0  0  0
   29.3620    7.7690   19.4580 C   0  0  0  0  0
   28.4360   10.0720   18.0740 S   0  0  0  0  0
   28.7000    8.1460   20.7160 N   0  3  0  0  0
   29.6930    8.8200   21.5910 C   0  0  0  0  0
   30.1850   10.1310   20.9180 C   0  0  0  0  0
   30.8370    9.8110   19.5370 C   0  0  0  0  0
   28.6160    6.7610   18.6510 C   0  0  0  0  0
   29.0010    6.7150   17.3600 N   0  0  0  0  0
   28.4610    5.7200   16.4560 C   0  0  0  0  0
   29.4150    5.7380   15.3050 C   0  0  0  0  0
   30.7250    5.5380   15.6250 N   0  0  0  0  0
   31.7330    5.5930   14.5890 C   0  0  0  0  0
   32.9930    6.3810   15.0680 C   0  0  0  0  0
   32.4950    7.8800   15.9940 S   0  0  0  0  0
   31.8310    8.9710   14.6630 C   0  0  0  0  0
   31.2130   10.0830   15.4810 C   0  0  0  0  0
   29.9120   10.0580   15.7800 C   0  0  0  0  0
   29.2940   11.0740   16.7000 C   0  0  0  0  0
   32.1960    4.2100   14.0730 C   0  0  0  0  0
   32.9280    3.5000   15.0810 O   0  0  0  0  0
   31.0430    3.3210   13.5870 C   0  0  0  0  0
   31.6770    2.3250   12.5970 C   0  0  0  0  0
   30.7900    1.0840   12.4130 C   0  0  0  0  0
   31.8080    2.9790   11.2440 C   0  0  0  0  0
   30.8950    3.6790   10.8270 O   0  0  0  0  0
   32.9440    2.7540   10.5720 N   0  0  0  0  0
   33.1350    3.3500    9.2610 C   0  0  0  0  0
   34.3780    2.7180    8.6150 C   0  0  0  0  0
   34.4340    2.9740    7.0740 C   0  0  0  0  0
   34.7510    4.4300    6.7610 C   0  0  0  0  0
   29.0190    5.9260   14.1770 O   0  0  0  0  0
   26.9820    5.9990   16.1140 C   0  0  0  0  0
   27.7480    6.0530   19.1530 O   0  0  0  0  0
   30.3482    8.6739   17.7491 H   0  0  0  0  0
   30.2673    7.2331   19.7432 H   0  0  0  0  0
   28.3368    7.3135   21.1802 H   0  0  0  0  0
   27.9221    8.7771   20.5234 H   0  0  0  0  0
   30.5426    8.1558   21.7494 H   0  0  0  0  0
   29.2269    9.0590   22.5469 H   0  0  0  0  0
   30.9243   10.6083   21.5612 H   0  0  0  0  0
   29.3354   10.7970   20.7673 H   0  0  0  0  0
   31.0909   10.7448   19.0354 H   0  0  0  0  0
   31.7365    9.2158   19.6944 H   0  0  0  0  0
   29.6825    7.3907   17.0145 H   0  0  0  0  0
   28.4010    4.7158   16.8755 H   0  0  0  0  0
   30.9933    5.3503   16.5910 H   0  0  0  0  0
   31.2419    6.1056   13.7619 H   0  0  0  0  0
   33.5771    6.6794   14.1974 H   0  0  0  0  0
   33.5849    5.7404   15.7217 H   0  0  0  0  0
   31.1285    8.4730   13.9947 H   0  0  0  0  0
   32.5865    9.3123   13.9553 H   0  0  0  0  0
   31.8332   10.9094   15.8283 H   0  0  0  0  0
   29.2820    9.2814   15.3462 H   0  0  0  0  0
   30.0461   11.7478   17.1103 H   0  0  0  0  0
   28.5848   11.7101   16.1704 H   0  0  0  0  0
   32.8373    4.4242   13.2180 H   0  0  0  0  0
   33.2025    2.6476   14.7349 H   0  0  0  0  0
   30.2584    3.9101   13.1121 H   0  0  0  0  0
   30.5603    2.8052   14.4171 H   0  0  0  0  0
   32.6468    2.0322   12.9993 H   0  0  0  0  0
   30.6607    0.5857   13.3738 H   0  0  0  0  0
   29.8174    1.3883   12.0263 H   0  0  0  0  0
   31.2648    0.4007   11.7089 H   0  0  0  0  0
   33.6721    2.1667   10.9787 H   0  0  0  0  0
   33.2728    4.4269    9.3581 H   0  0  0  0  0
   32.2589    3.1686    8.6384 H   0  0  0  0  0
   34.3365    1.6413    8.7796 H   0  0  0  0  0
   35.2620    3.1679    9.0668 H   0  0  0  0  0
   33.4596    2.7338    6.6486 H   0  0  0  0  0
   35.2205    2.3505    6.6489 H   0  0  0  0  0
   33.9788    5.0689    7.1895 H   0  0  0  0  0
   35.7188    4.6901    7.1898 H   0  0  0  0  0
   34.7816    4.5697    5.6804 H   0  0  0  0  0
   26.3904    5.9877   17.0294 H   0  0  0  0  0
   26.8985    6.9760   15.6380 H   0  0  0  0  0
   26.6163    5.2297   15.4339 H   0  0  0  0  0
  1  2  1  0  0  0
  1  3  1  0  0  0
  1  7  1  0  0  0
  2  4  1  0  0  0
  2  8  1  0  0  0
  3 19  1  0  0  0
  4  5  1  0  0  0
  5  6  1  0  0  0
  6  7  1  0  0  0
  8  9  1  0  0  0
  8 34  2  0  0  0
  9 10  1  0  0  0
 10 11  1  0  0  0
 10 33  1  0  0  0
 11 12  1  0  0  0
 11 32  2  0  0  0
 12 13  1  0  0  0
 13 14  1  0  0  0
 13 20  1  0  0  0
 14 15  1  0  0  0
 15 16  1  0  0  0
 16 17  1  0  0  0
 17 18  2  0  0  0
 18 19  1  0  0  0
 20 21  1  0  0  0
 20 22  1  0  0  0
 22 23  1  0  0  0
 23 24  1  0  0  0
 23 25  1  0  0  0
 25 26  2  0  0  0
 25 27  1  0  0  0
 27 28  1  0  0  0
 28 29  1  0  0  0
 29 30  1  0  0  0
 30 31  1  0  0  0
  1 35  1  0  0  0
  2 36  1  0  0  0
  4 37  1  0  0  0
  4 38  1  0  0  0
  5 39  1  0  0  0
  5 40  1  0  0  0
  6 41  1  0  0  0
  6 42  1  0  0  0
  7 43  1  0  0  0
  7 44  1  0  0  0
  9 45  1  0  0  0
 10 46  1  0  0  0
 12 47  1  0  0  0
 13 48  1  0  0  0
 14 49  1  0  0  0
 14 50  1  0  0  0
 16 51  1  0  0  0
 16 52  1  0  0  0
 17 53  1  0  0  0
 18 54  1  0  0  0
 19 55  1  0  0  0
 19 56  1  0  0  0
 20 57  1  0  0  0
 21 58  1  0  0  0
 22 59  1  0  0  0
 22 60  1  0  0  0
 23 61  1  0  0  0
 24 62  1  0  0  0
 24 63  1  0  0  0
 24 64  1  0  0  0
 27 65  1  0  0  0
 28 66  1  0  0  0
 28 67  1  0  0  0
 29 68  1  0  0  0
 29 69  1  0  0  0
 30 70  1  0  0  0
 30 71  1  0  0  0
 31 72  1  0  0  0
 31 73  1  0  0  0
 31 74  1  0  0  0
 33 75  1  0  0  0
 33 76  1  0  0  0
 33 77  1  0  0  0
M  END
$$$$
