4yh4_ligand
  -I-interpret- 

 40 43  0  0  0  0  0  0  0  0999 V2000
   11.3280   -5.9740    1.0380 O   0  0  0  0  0
   11.2890   -6.3620   -0.0520 C   0  0  0  0  0
   12.4400   -6.6360   -0.6160 N   0  0  0  0  0
   13.7160   -6.3000    0.1390 C   0  0  0  0  0
   12.6220   -7.3560   -1.8520 C   0  0  0  0  0
   13.7460   -7.0990   -2.6130 C   0  0  0  0  0
   13.9970   -7.8020   -3.8210 C   0  0  0  0  0
   13.1390   -8.8420   -4.2550 C   0  0  0  0  0
   12.0780   -9.1340   -3.4610 C   0  0  0  0  0
   11.8110   -8.3680   -2.3090 C   0  0  0  0  0
   14.5250   -6.1700   -2.1960 N   0  0  0  0  0
   14.5240   -5.6400   -0.8780 C   0  0  0  0  0
   15.2460   -4.6390   -0.5130 O   0  0  0  0  0
    9.9340   -6.3220   -0.8330 C   0  0  0  0  0
    9.8850   -5.8430   -2.1300 C   0  0  0  0  0
    8.6920   -5.7650   -2.7840 C   0  0  0  0  0
    7.6310   -6.1770   -2.0580 C   0  0  0  0  0
    7.6580   -6.5760   -0.7400 N   0  0  0  0  0
    8.8240   -6.7110   -0.1710 C   0  0  0  0  0
    8.5840   -5.2630   -4.1790 C   0  0  0  0  0
    7.4940   -4.5130   -4.5870 C   0  0  0  0  0
    7.2610   -4.1450   -5.9340 C   0  0  0  0  0
    8.2590   -4.4900   -6.8360 C   0  0  0  0  0
    9.4030   -5.2720   -6.4380 C   0  0  0  0  0
    9.5030   -5.6330   -5.0980 C   0  0  0  0  0
   14.2019   -7.1776    0.5654 H   0  0  0  0  0
   13.5405   -5.6753    1.0148 H   0  0  0  0  0
   14.8649   -7.5367   -4.4247 H   0  0  0  0  0
   13.3224   -9.3826   -5.1835 H   0  0  0  0  0
   11.4260   -9.9692   -3.7169 H   0  0  0  0  0
   10.9054   -8.5915   -1.7451 H   0  0  0  0  0
   15.1954   -5.7826   -2.8600 H   0  0  0  0  0
   10.8013   -5.5278   -2.6291 H   0  0  0  0  0
    6.6642   -6.1956   -2.5611 H   0  0  0  0  0
    8.9012   -7.1343    0.8305 H   0  0  0  0  0
    6.7780   -4.1890   -3.8317 H   0  0  0  0  0
    6.3552   -3.6237   -6.2437 H   0  0  0  0  0
    8.1752   -4.1610   -7.8718 H   0  0  0  0  0
   10.1624   -5.5698   -7.1610 H   0  0  0  0  0
   10.3530   -6.2358   -4.7781 H   0  0  0  0  0
  1  2  2  0  0  0
  2  3  1  0  0  0
  2 14  1  0  0  0
  3  4  1  0  0  0
  3  5  1  0  0  0
  4 12  1  0  0  0
  5  6  4  0  0  0
  5 10  4  0  0  0
  6  7  4  0  0  0
  6 11  1  0  0  0
  7  8  4  0  0  0
  8  9  4  0  0  0
  9 10  4  0  0  0
 11 12  1  0  0  0
 12 13  2  0  0  0
 14 15  4  0  0  0
 14 19  4  0  0  0
 15 16  4  0  0  0
 16 17  4  0  0  0
 16 20  1  0  0  0
 17 18  4  0  0  0
 18 19  4  0  0  0
 20 21  4  0  0  0
 20 25  4  0  0  0
 21 22  4  0  0  0
 22 23  4  0  0  0
 23 24  4  0  0  0
 24 25  4  0  0  0
  4 26  1  0  0  0
  4 27  1  0  0  0
  7 28  1  0  0  0
  8 29  1  0  0  0
  9 30  1  0  0  0
 10 31  1  0  0  0
 11 32  1  0  0  0
 15 33  1  0  0  0
 17 34  1  0  0  0
 19 35  1  0  0  0
 21 36  1  0  0  0
 22 37  1  0  0  0
 23 38  1  0  0  0
 24 39  1  0  0  0
 25 40  1  0  0  0
M  END
$$$$
