4rxc_ligand
  -I-interpret- 

 31 31  0  0  0  0  0  0  0  0999 V2000
   32.3860   -1.0570   13.9020 O   0  0  0  0  0
   33.6360   -0.3830   13.5180 P   0  0  0  0  0
   34.8410   -1.1970   13.3260 O   0  0  0  0  0
   33.8130    1.0350   13.8730 O   0  0  0  0  0
   33.2090   -0.1330   11.6930 C   0  0  0  0  0
   34.7510    0.1770   10.7560 P   0  0  0  0  0
   35.4160    1.1350   11.6680 O   0  0  0  0  0
   34.2820    0.7680    9.4960 O   0  0  0  0  0
   35.4030   -1.1410   10.6630 O   0  0  0  0  0
   32.5710   -1.3080   11.1880 O   0  0  0  0  0
   32.3130    1.0670   11.4680 C   0  0  0  0  0
   31.1710    0.9680   12.4560 C   0  0  0  0  0
   30.0680    1.4150   11.7210 C   0  0  0  0  0
   29.2310    2.3820   12.2740 C   0  0  0  0  0
   28.1270    2.8500   11.5700 C   0  0  0  0  0
   27.8530    2.3570   10.3000 C   0  0  0  0  0
   28.6900    1.3880    9.7340 N   0  0  0  0  0
   29.8000    0.9180   10.4490 C   0  0  0  0  0
   31.6868   -0.4053   13.9916 H   0  0  0  0  0
   32.9524    1.4496   13.9686 H   0  0  0  0  0
   35.6928    0.6769   12.4649 H   0  0  0  0  0
   35.6671   -1.4287   11.5400 H   0  0  0  0  0
   33.1408   -2.0671   11.3318 H   0  0  0  0  0
   31.9350    1.0761   10.4457 H   0  0  0  0  0
   32.8687    1.9929   11.6167 H   0  0  0  0  0
   31.3426    1.5592   13.3555 H   0  0  0  0  0
   31.0363   -0.0429   12.8409 H   0  0  0  0  0
   29.4437    2.7754   13.2680 H   0  0  0  0  0
   27.4766    3.6035   12.0143 H   0  0  0  0  0
   26.9888    2.7237    9.7461 H   0  0  0  0  0
   30.4528    0.1639   10.0092 H   0  0  0  0  0
  1  2  1  0  0  0
  2  3  2  0  0  0
  2  4  1  0  0  0
  2  5  1  0  0  0
  5  6  1  0  0  0
  5 10  1  0  0  0
  5 11  1  0  0  0
  6  7  1  0  0  0
  6  8  2  0  0  0
  6  9  1  0  0  0
 11 12  1  0  0  0
 12 13  1  0  0  0
 13 14  4  0  0  0
 13 18  4  0  0  0
 14 15  4  0  0  0
 15 16  4  0  0  0
 16 17  4  0  0  0
 17 18  4  0  0  0
  1 19  1  0  0  0
  4 20  1  0  0  0
  7 21  1  0  0  0
  9 22  1  0  0  0
 10 23  1  0  0  0
 11 24  1  0  0  0
 11 25  1  0  0  0
 12 26  1  0  0  0
 12 27  1  0  0  0
 14 28  1  0  0  0
 15 29  1  0  0  0
 16 30  1  0  0  0
 18 31  1  0  0  0
M  END
$$$$
