### 
### Created by X-TOOL on Mon Sep 10 21:13:24 2018
### 

@<TRIPOS>MOLECULE
4rxc_ligand
   27    27     1     0     0
SMALL
GAST_HUCK


@<TRIPOS>ATOM
      1 O17        32.3860   -1.0570   13.9020 O.co2     1 HRX        -0.5594
      2 P14        33.6360   -0.3830   13.5180 P.3       1 HRX         0.1100
      3 O16        34.8410   -1.1970   13.3260 O.co2     1 HRX        -0.5594
      4 O15        33.8130    1.0350   13.8730 O.co2     1 HRX        -0.5594
      5 C8         33.2090   -0.1330   11.6930 C.3       1 HRX         0.2066
      6 P9         34.7510    0.1770   10.7560 P.3       1 HRX         0.1100
      7 O11        35.4160    1.1350   11.6680 O.co2     1 HRX        -0.5594
      8 O12        34.2820    0.7680    9.4960 O.co2     1 HRX        -0.5594
      9 O10        35.4030   -1.1410   10.6630 O.co2     1 HRX        -0.5594
     10 O13        32.5710   -1.3080   11.1880 O.3       1 HRX        -0.3593
     11 C7         32.3130    1.0670   11.4680 C.3       1 HRX         0.0186
     12 C9         31.1710    0.9680   12.4560 C.3       1 HRX        -0.0075
     13 C6         30.0680    1.4150   11.7210 C.ar      1 HRX        -0.0148
     14 C5         29.2310    2.3820   12.2740 C.ar      1 HRX        -0.0404
     15 C2         28.1270    2.8500   11.5700 C.ar      1 HRX        -0.0405
     16 C3         27.8530    2.3570   10.3000 C.ar      1 HRX         0.0042
     17 N4         28.6900    1.3880    9.7340 N.ar      1 HRX        -0.3044
     18 C1         29.8000    0.9180   10.4490 C.ar      1 HRX         0.0125
     19 H1         31.7753   -1.4715   11.6806 H         1 HRX         0.2133
     20 H2         31.9227    1.0578   10.4396 H         1 HRX         0.0346
     21 H3         32.8778    1.9955   11.6376 H         1 HRX         0.0346
     22 H4         31.3492    1.6121   13.3297 H         1 HRX         0.0443
     23 H5         31.0275   -0.0704   12.7892 H         1 HRX         0.0443
     24 H6         29.4425    2.7732   13.2626 H         1 HRX         0.0678
     25 H7         27.4802    3.5993   12.0118 H         1 HRX         0.0693
     26 H8         26.9936    2.7217    9.7491 H         1 HRX         0.0767
     27 H9         30.4492    0.1681   10.0117 H         1 HRX         0.0765
@<TRIPOS>BOND
     1    1    2 ar 
     2    2    3 ar 
     3    2    4 ar 
     4    2    5 1  
     5    5    6 1  
     6    5   10 1  
     7    5   11 1  
     8    6    7 ar 
     9    6    8 ar 
    10    6    9 ar 
    11   11   12 1  
    12   12   13 1  
    13   13   14 ar 
    14   13   18 ar 
    15   14   15 ar 
    16   15   16 ar 
    17   16   17 ar 
    18   17   18 ar 
    19   10   19 1  
    20   11   20 1  
    21   11   21 1  
    22   12   22 1  
    23   12   23 1  
    24   14   24 1  
    25   15   25 1  
    26   16   26 1  
    27   18   27 1  
@<TRIPOS>SUBSTRUCTURE
     1 HRX         1

