5ais_ligand
  -I-interpret- 

 46 48  0  0  0  0  0  0  0  0999 V2000
   36.8150  -22.0320   -0.3500 C   0  0  0  0  0
   36.4500  -20.7910   -1.0120 N   0  3  0  0  0
   36.1290  -21.1330   -2.3880 C   0  0  0  0  0
   35.2250  -20.3150   -0.3920 C   0  0  0  0  0
   35.4710  -18.9510    0.2080 C   0  0  0  0  0
   34.1570  -18.2160    0.3150 C   0  0  0  0  0
   33.9900  -17.6840    1.7020 C   0  0  0  0  0
   34.2040  -18.3500    2.7060 O   0  0  0  0  0
   33.5640  -16.3770    1.6490 N   0  0  0  0  0
   33.0270  -15.6720    2.7360 C   0  0  0  0  0
   33.1100  -14.3000    2.7240 C   0  0  0  0  0
   32.5870  -13.5810    3.7760 C   0  0  0  0  0
   32.0000  -14.2990    4.7960 C   0  0  0  0  0
   31.8930  -15.6320    4.8480 N   0  0  0  0  0
   32.4130  -16.2870    3.8050 C   0  0  0  0  0
   32.6580  -12.1400    3.7680 C   0  0  0  0  0
   33.8140  -11.4620    3.4500 C   0  0  0  0  0
   33.8830  -10.0890    3.4220 C   0  0  0  0  0
   32.7970   -9.2960    3.7100 C   0  0  0  0  0
   31.6500   -9.9830    4.0310 C   0  0  0  0  0
   31.5490  -11.3630    4.0640 C   0  0  0  0  0
   30.2110  -11.6630    4.4280 C   0  0  0  0  0
   29.5330  -10.4810    4.6070 C   0  0  0  0  0
   30.4240   -9.4790    4.3600 N   0  0  0  0  0
   36.9712  -21.8434    0.7121 H   0  0  0  0  0
   36.0133  -22.7595   -0.4771 H   0  0  0  0  0
   37.7333  -22.4207   -0.7902 H   0  0  0  0  0
   37.1929  -20.0946   -0.9532 H   0  0  0  0  0
   35.3652  -21.9105   -2.3991 H   0  0  0  0  0
   35.7559  -20.2480   -2.9034 H   0  0  0  0  0
   37.0261  -21.4960   -2.8896 H   0  0  0  0  0
   34.9167  -21.0089    0.3900 H   0  0  0  0  0
   34.4368  -20.2485   -1.1420 H   0  0  0  0  0
   36.1557  -18.3886   -0.4268 H   0  0  0  0  0
   35.9127  -19.0597    1.1985 H   0  0  0  0  0
   33.3399  -18.9013    0.0896 H   0  0  0  0  0
   34.1470  -17.3879   -0.3937 H   0  0  0  0  0
   33.6442  -15.8870    0.7580 H   0  0  0  0  0
   33.5856  -13.7854    1.8891 H   0  0  0  0  0
   31.5879  -13.7328    5.6313 H   0  0  0  0  0
   32.3471  -17.3750    3.8001 H   0  0  0  0  0
   34.7091  -12.0363    3.2112 H   0  0  0  0  0
   34.8292   -9.6137    3.1631 H   0  0  0  0  0
   32.8420   -8.2072    3.6857 H   0  0  0  0  0
   29.7916  -12.6622    4.5458 H   0  0  0  0  0
   28.4869  -10.3669    4.8911 H   0  0  0  0  0
  1  2  1  0  0  0
  2  3  1  0  0  0
  2  4  1  0  0  0
  4  5  1  0  0  0
  5  6  1  0  0  0
  6  7  1  0  0  0
  7  8  2  0  0  0
  7  9  1  0  0  0
  9 10  1  0  0  0
 10 11  4  0  0  0
 10 15  4  0  0  0
 11 12  4  0  0  0
 12 13  4  0  0  0
 12 16  1  0  0  0
 13 14  4  0  0  0
 14 15  4  0  0  0
 16 17  4  0  0  0
 16 21  4  0  0  0
 17 18  4  0  0  0
 18 19  4  0  0  0
 19 20  4  0  0  0
 20 21  4  0  0  0
 20 24  4  0  0  0
 21 22  4  0  0  0
 22 23  4  0  0  0
 23 24  4  0  0  0
  1 25  1  0  0  0
  1 26  1  0  0  0
  1 27  1  0  0  0
  2 28  1  0  0  0
  3 29  1  0  0  0
  3 30  1  0  0  0
  3 31  1  0  0  0
  4 32  1  0  0  0
  4 33  1  0  0  0
  5 34  1  0  0  0
  5 35  1  0  0  0
  6 36  1  0  0  0
  6 37  1  0  0  0
  9 38  1  0  0  0
 11 39  1  0  0  0
 13 40  1  0  0  0
 15 41  1  0  0  0
 17 42  1  0  0  0
 18 43  1  0  0  0
 19 44  1  0  0  0
 22 45  1  0  0  0
 23 46  1  0  0  0
M  END
$$$$
