2xuf_ligand
  -I-interpret- 

 92 99  0  0  0  0  0  0  0  0999 V2000
   40.3520   29.9790    7.1050 N   0  0  0  0  0
   40.1810   28.8520    7.8840 C   0  0  0  0  0
   41.2360   28.3930    8.7520 C   0  0  0  0  0
   41.0520   27.2600    9.5310 C   0  0  0  0  0
   39.8210   26.4990    9.5120 C   0  0  0  0  0
   38.7650   26.9610    8.6390 C   0  0  0  0  0
   38.9820   28.1460    7.8270 C   0  0  0  0  0
   37.5850   26.1660    8.4510 C   0  0  0  0  0
   36.5150   26.7210    7.5420 C   0  0  0  0  0
   35.6660   27.7100    8.0930 C   0  0  0  0  0
   34.6660   28.2960    7.3130 C   0  0  0  0  0
   34.5180   27.8820    5.9860 C   0  0  0  0  0
   35.3590   26.8960    5.4320 C   0  0  0  0  0
   36.3650   26.3110    6.2060 C   0  0  0  0  0
   39.6620   25.2160   10.1890 C   0  0  0  0  0
   40.6680   24.6430   11.0600 C   0  0  0  0  0
   40.5000   23.4150   11.6690 C   0  0  0  0  0
   39.3020   22.6650   11.4600 C   0  0  0  0  0
   39.1150   21.4340   12.0450 N   0  0  0  0  0
   38.4520   24.4450    9.9780 C   0  0  0  0  0
   38.3070   23.1830   10.6360 C   0  0  0  0  0
   37.4640   24.9760    9.1100 N   0  0  0  0  0
   36.2510   24.1310    8.8930 C   0  0  0  0  0
   35.0330   24.2700    9.8040 C   0  0  0  0  0
   33.8580   23.6680    9.0270 C   0  0  0  0  0
   33.3770   22.2960    9.4880 C   0  0  0  0  0
   31.8650   22.0570    9.3390 C   0  0  0  0  0
   30.9490   22.8370   10.3050 C   0  0  0  0  0
   29.6390   22.0960   10.4890 C   0  0  0  0  0
   29.6010   20.9660   11.1990 N   0  0  0  0  0
   28.3460   20.5680   11.1880 N   0  0  0  0  0
   27.5830   21.3980   10.4930 N   0  0  0  0  0
   28.3600   22.4080   10.0090 C   0  0  0  0  0
   26.1250   21.2980   10.2430 C   0  0  0  0  0
   25.1940   22.1270   11.1740 C   0  0  0  0  0
   25.2580   21.8440   12.6340 N   0  0  0  0  0
   26.4500   21.8340   13.3760 C   0  0  0  0  0
   26.6590   20.6940   14.2360 C   0  0  0  0  0
   25.7730   19.5370   14.3060 C   0  0  0  0  0
   27.8940   20.5880   14.9800 C   0  0  0  0  0
   28.2310   19.3700   15.7140 C   0  0  0  0  0
   27.3550   18.2940   15.7460 C   0  0  0  0  0
   26.1190   18.3910   15.0230 C   0  0  0  0  0
   28.8420   21.5430   14.9330 N   0  0  0  0  0
   28.6760   22.6210   14.1210 C   0  0  0  0  0
   29.7250   23.6280   14.1580 C   0  0  0  0  0
   27.4700   22.8370   13.3500 C   0  0  0  0  0
   27.3330   24.1280   12.7050 C   0  0  0  0  0
   28.3300   25.0820   12.7730 C   0  0  0  0  0
   29.5950   24.7770   13.4060 C   0  0  0  0  0
   41.2312   30.4950    7.1405 H   0  0  0  0  0
   39.5992   30.2956    6.4939 H   0  0  0  0  0
   42.1796   28.9368    8.7964 H   0  0  0  0  0
   41.8633   26.9312   10.1805 H   0  0  0  0  0
   38.1910   28.4891    7.1602 H   0  0  0  0  0
   37.1112   25.2089    8.2328 H   0  0  0  0  0
   35.7929   28.0162    9.1314 H   0  0  0  0  0
   34.0131   29.0620    7.7315 H   0  0  0  0  0
   33.7387   28.3295    5.3691 H   0  0  0  0  0
   35.2242   26.5883    4.3951 H   0  0  0  0  0
   37.0210   25.5510    5.7815 H   0  0  0  0  0
   41.5877   25.1995   11.2406 H   0  0  0  0  0
   41.2847   23.0162   12.3119 H   0  0  0  0  0
   39.8403   21.0380   12.6429 H   0  0  0  0  0
   38.2510   20.9173   11.8809 H   0  0  0  0  0
   37.3912   22.6108   10.4878 H   0  0  0  0  0
   36.5998   23.1130    9.0663 H   0  0  0  0  0
   35.8866   24.4334    7.9113 H   0  0  0  0  0
   34.8462   25.3132   10.0590 H   0  0  0  0  0
   35.1866   23.7544   10.7520 H   0  0  0  0  0
   34.2052   23.5398    8.0018 H   0  0  0  0  0
   33.0185   24.3484    9.1699 H   0  0  0  0  0
   33.6051   22.2222   10.5513 H   0  0  0  0  0
   33.8767   21.5586    8.8597 H   0  0  0  0  0
   31.7027   21.0009    9.5543 H   0  0  0  0  0
   31.6028   22.3927    8.3357 H   0  0  0  0  0
   30.7473   23.8243    9.8895 H   0  0  0  0  0
   31.4453   22.9334   11.2707 H   0  0  0  0  0
   28.0583   23.2564    9.3948 H   0  0  0  0  0
   25.8637   20.2534   10.4123 H   0  0  0  0  0
   25.9667   21.6883    9.2377 H   0  0  0  0  0
   24.1771   21.8785   10.8703 H   0  0  0  0  0
   25.5118   23.1635   11.0608 H   0  0  0  0  0
   24.3855   21.6459   13.1237 H   0  0  0  0  0
   24.8162   19.5686   13.7848 H   0  0  0  0  0
   29.1820   19.3059   16.2428 H   0  0  0  0  0
   27.6007   17.3935   16.3088 H   0  0  0  0  0
   25.4311   17.5456   15.0343 H   0  0  0  0  0
   30.6093   23.4754   14.7768 H   0  0  0  0  0
   26.4204   24.3517   12.1525 H   0  0  0  0  0
   28.1626   26.0712   12.3469 H   0  0  0  0  0
   30.4421   25.4528   13.2890 H   0  0  0  0  0
  1  2  1  0  0  0
  2  3  4  0  0  0
  2  7  4  0  0  0
  3  4  4  0  0  0
  4  5  4  0  0  0
  5  6  4  0  0  0
  5 15  1  0  0  0
  6  7  4  0  0  0
  6  8  1  0  0  0
  8  9  1  0  0  0
  8 22  1  0  0  0
  9 10  4  0  0  0
  9 14  4  0  0  0
 10 11  4  0  0  0
 11 12  4  0  0  0
 12 13  4  0  0  0
 13 14  4  0  0  0
 15 16  4  0  0  0
 15 20  4  0  0  0
 16 17  4  0  0  0
 17 18  4  0  0  0
 18 19  1  0  0  0
 18 21  4  0  0  0
 20 21  4  0  0  0
 20 22  1  0  0  0
 22 23  1  0  0  0
 23 24  1  0  0  0
 24 25  1  0  0  0
 25 26  1  0  0  0
 26 27  1  0  0  0
 27 28  1  0  0  0
 28 29  1  0  0  0
 29 30  4  0  0  0
 29 33  4  0  0  0
 30 31  4  0  0  0
 31 32  4  0  0  0
 32 33  4  0  0  0
 32 34  1  0  0  0
 34 35  1  0  0  0
 35 36  1  0  0  0
 36 37  1  0  0  0
 37 38  4  0  0  0
 37 47  4  0  0  0
 38 39  4  0  0  0
 38 40  4  0  0  0
 39 43  4  0  0  0
 40 41  4  0  0  0
 40 44  4  0  0  0
 41 42  4  0  0  0
 42 43  4  0  0  0
 44 45  4  0  0  0
 45 46  4  0  0  0
 45 47  4  0  0  0
 46 50  4  0  0  0
 47 48  4  0  0  0
 48 49  4  0  0  0
 49 50  4  0  0  0
  1 51  1  0  0  0
  1 52  1  0  0  0
  3 53  1  0  0  0
  4 54  1  0  0  0
  7 55  1  0  0  0
  8 56  1  0  0  0
 10 57  1  0  0  0
 11 58  1  0  0  0
 12 59  1  0  0  0
 13 60  1  0  0  0
 14 61  1  0  0  0
 16 62  1  0  0  0
 17 63  1  0  0  0
 19 64  1  0  0  0
 19 65  1  0  0  0
 21 66  1  0  0  0
 23 67  1  0  0  0
 23 68  1  0  0  0
 24 69  1  0  0  0
 24 70  1  0  0  0
 25 71  1  0  0  0
 25 72  1  0  0  0
 26 73  1  0  0  0
 26 74  1  0  0  0
 27 75  1  0  0  0
 27 76  1  0  0  0
 28 77  1  0  0  0
 28 78  1  0  0  0
 33 79  1  0  0  0
 34 80  1  0  0  0
 34 81  1  0  0  0
 35 82  1  0  0  0
 35 83  1  0  0  0
 36 84  1  0  0  0
 39 85  1  0  0  0
 41 86  1  0  0  0
 42 87  1  0  0  0
 43 88  1  0  0  0
 46 89  1  0  0  0
 48 90  1  0  0  0
 49 91  1  0  0  0
 50 92  1  0  0  0
M  END
$$$$
