4jfi_ligand
  -I-interpret- 

 70 74  0  0  0  0  0  0  0  0999 V2000
   33.0840   13.0470  -16.9900 O   0  0  0  0  0
   32.0100   12.5710  -17.2590 C   0  0  0  0  0
   30.8540   13.1660  -16.7030 C   0  0  0  0  0
   31.8830   11.4380  -17.9970 N   0  0  0  0  0
   32.9930   10.9040  -18.7870 C   0  0  0  0  0
   32.6740   11.5930  -20.1930 C   0  0  0  0  0
   31.3540   11.0640  -20.6970 C   0  0  0  0  0
   31.1020   10.9140  -22.0410 C   0  0  0  0  0
   29.8900   10.3820  -22.4720 C   0  0  0  0  0
   29.6080   10.2390  -23.8220 O   0  0  0  0  0
   30.5780   10.8570  -24.6730 C   0  0  0  0  0
   28.9590    9.8650  -21.5870 C   0  0  0  0  0
   29.2280    9.9710  -20.2340 C   0  0  0  0  0
   28.4510    9.4330  -19.2870 O   0  0  0  0  0
   27.2110    8.7150  -19.6970 C   0  0  0  0  0
   30.4090   10.6070  -19.7590 C   0  0  0  0  0
   30.6300   10.7290  -18.2680 C   0  0  0  0  0
   29.4540   11.3930  -17.5040 C   0  0  0  0  0
   29.2470   10.8670  -16.1040 C   0  0  0  0  0
   30.3620   11.2500  -15.1880 C   0  0  0  0  0
   30.6830   12.7360  -15.2690 C   0  0  0  0  0
   29.6570   12.8580  -17.4740 N   0  0  0  0  0
   28.8370   13.7640  -18.0640 C   0  0  0  0  0
   29.1160   15.0100  -18.0200 O   0  0  0  0  0
   27.5860   13.2880  -18.7420 C   0  0  0  0  0
   26.6450   13.0260  -18.0230 O   0  0  0  0  0
   27.5690   13.1990  -20.2020 C   0  0  0  0  0
   28.6880   13.6840  -20.9280 C   0  0  0  0  0
   26.4380   12.6320  -20.8260 C   0  0  0  0  0
   26.3970   12.5900  -22.2240 C   0  0  0  0  0
   25.3040   12.0790  -22.8960 O   0  0  0  0  0
   24.1430   11.6720  -22.1800 C   0  0  0  0  0
   27.4830   13.0840  -22.9650 C   0  0  0  0  0
   27.4770   13.0680  -24.3690 O   0  0  0  0  0
   26.9690   11.9060  -25.0510 C   0  0  0  0  0
   28.6040   13.5960  -22.3340 C   0  0  0  0  0
   29.5990   13.9730  -23.1600 O   0  0  0  0  0
   30.7460   14.5130  -22.5550 C   0  0  0  0  0
   30.9926   14.2466  -16.7374 H   0  0  0  0  0
   33.0477    9.8158  -18.8163 H   0  0  0  0  0
   33.9827   11.1245  -18.3871 H   0  0  0  0  0
   33.4642   11.3631  -20.9077 H   0  0  0  0  0
   32.6198   12.6750  -20.0732 H   0  0  0  0  0
   31.8541   11.2128  -22.7711 H   0  0  0  0  0
   30.6205   11.9247  -24.4578 H   0  0  0  0  0
   31.5554   10.4095  -24.4926 H   0  0  0  0  0
   30.2945   10.7060  -25.7146 H   0  0  0  0  0
   28.0450    9.3905  -21.9442 H   0  0  0  0  0
   26.5561    9.4011  -20.2341 H   0  0  0  0  0
   27.4741    7.8793  -20.3455 H   0  0  0  0  0
   26.6990    8.3413  -18.8102 H   0  0  0  0  0
   30.6898    9.7087  -17.8892 H   0  0  0  0  0
   28.5457   11.1366  -18.0494 H   0  0  0  0  0
   29.2063    9.7789  -16.1528 H   0  0  0  0  0
   28.3242   11.2958  -15.7133 H   0  0  0  0  0
   31.2514   10.6930  -15.4827 H   0  0  0  0  0
   30.0569   11.0227  -14.1666 H   0  0  0  0  0
   29.8605   13.2989  -14.8278 H   0  0  0  0  0
   31.6117   12.9259  -14.7308 H   0  0  0  0  0
   29.5624   14.1007  -20.4281 H   0  0  0  0  0
   25.6144   12.2354  -20.2323 H   0  0  0  0  0
   24.4091   10.8818  -21.4779 H   0  0  0  0  0
   23.7374   12.5236  -21.6338 H   0  0  0  0  0
   23.3966   11.3000  -22.8819 H   0  0  0  0  0
   27.5591   11.0340  -24.7692 H   0  0  0  0  0
   25.9277   11.7478  -24.7703 H   0  0  0  0  0
   27.0370   12.0597  -26.1280 H   0  0  0  0  0
   30.4722   15.4049  -21.9914 H   0  0  0  0  0
   31.1813   13.7752  -21.8811 H   0  0  0  0  0
   31.4714   14.7765  -23.3247 H   0  0  0  0  0
  1  2  2  0  0  0
  2  3  1  0  0  0
  2  4  1  0  0  0
  3 21  1  0  0  0
  3 22  1  0  0  0
  4  5  1  0  0  0
  4 17  1  0  0  0
  5  6  1  0  0  0
  6  7  1  0  0  0
  7  8  4  0  0  0
  7 16  4  0  0  0
  8  9  4  0  0  0
  9 10  1  0  0  0
  9 12  4  0  0  0
 10 11  1  0  0  0
 12 13  4  0  0  0
 13 14  1  0  0  0
 13 16  4  0  0  0
 14 15  1  0  0  0
 16 17  1  0  0  0
 17 18  1  0  0  0
 18 19  1  0  0  0
 18 22  1  0  0  0
 19 20  1  0  0  0
 20 21  1  0  0  0
 22 23  1  0  0  0
 23 24  2  0  0  0
 23 25  1  0  0  0
 25 26  2  0  0  0
 25 27  1  0  0  0
 27 28  4  0  0  0
 27 29  4  0  0  0
 28 36  4  0  0  0
 29 30  4  0  0  0
 30 31  1  0  0  0
 30 33  4  0  0  0
 31 32  1  0  0  0
 33 34  1  0  0  0
 33 36  4  0  0  0
 34 35  1  0  0  0
 36 37  1  0  0  0
 37 38  1  0  0  0
  3 39  1  0  0  0
  5 40  1  0  0  0
  5 41  1  0  0  0
  6 42  1  0  0  0
  6 43  1  0  0  0
  8 44  1  0  0  0
 11 45  1  0  0  0
 11 46  1  0  0  0
 11 47  1  0  0  0
 12 48  1  0  0  0
 15 49  1  0  0  0
 15 50  1  0  0  0
 15 51  1  0  0  0
 17 52  1  0  0  0
 18 53  1  0  0  0
 19 54  1  0  0  0
 19 55  1  0  0  0
 20 56  1  0  0  0
 20 57  1  0  0  0
 21 58  1  0  0  0
 21 59  1  0  0  0
 28 60  1  0  0  0
 29 61  1  0  0  0
 32 62  1  0  0  0
 32 63  1  0  0  0
 32 64  1  0  0  0
 35 65  1  0  0  0
 35 66  1  0  0  0
 35 67  1  0  0  0
 38 68  1  0  0  0
 38 69  1  0  0  0
 38 70  1  0  0  0
M  END
$$$$
