4d09_ligand
  -I-interpret- 

 49 53  0  0  0  0  0  0  0  0999 V2000
   37.4020  -25.1420   24.6430 O   0  0  0  0  0
   37.2210  -24.5530   25.7090 C   0  0  0  0  0
   37.5590  -23.2720   25.8860 N   0  0  0  0  0
   38.4190  -22.5530   24.9590 C   0  0  0  0  0
   37.6270  -21.8460   23.8900 C   0  0  0  0  0
   36.5670  -21.0220   24.2310 C   0  0  0  0  0
   35.7930  -20.4210   23.2540 C   0  0  0  0  0
   36.0720  -20.6330   21.9210 C   0  0  0  0  0
   37.1310  -21.4450   21.5670 C   0  0  0  0  0
   37.9050  -22.0450   22.5460 C   0  0  0  0  0
   36.5950  -25.2460   26.8790 C   0  0  0  0  0
   37.0120  -24.9190   28.1610 C   0  0  0  0  0
   35.5700  -26.1690   26.7110 C   0  0  0  0  0
   34.9680  -26.7710   27.8180 C   0  0  0  0  0
   33.8820  -27.6900   27.7080 N   0  0  0  0  0
   33.1840  -28.3170   26.6900 C   0  0  0  0  0
   33.4950  -28.2710   25.2460 C   0  0  0  0  0
   34.7840  -28.5250   24.7830 C   0  0  0  0  0
   35.0650  -28.4820   23.4270 C   0  0  0  0  0
   34.0710  -28.1910   22.5190 C   0  0  0  0  0
   32.7910  -27.9430   22.9620 C   0  0  0  0  0
   32.4980  -27.9840   24.3140 C   0  0  0  0  0
   32.2250  -29.0570   27.1980 N   0  0  0  0  0
   32.2890  -28.9610   28.5870 N   0  0  0  0  0
   33.2890  -28.1530   28.8800 C   0  0  0  0  0
   33.8100  -27.7590   30.1590 C   0  0  0  0  0
   33.2040  -28.3440   31.3910 C   0  0  0  0  0
   34.8060  -26.9500   30.2640 N   0  0  0  0  0
   35.3950  -26.4280   29.1180 C   0  0  0  0  0
   36.4220  -25.4980   29.2680 C   0  0  0  0  0
   37.1996  -22.7791   26.7035 H   0  0  0  0  0
   39.0780  -23.2740   24.4753 H   0  0  0  0  0
   38.9774  -21.8048   25.5215 H   0  0  0  0  0
   36.3397  -20.8448   25.2822 H   0  0  0  0  0
   34.9603  -19.7781   23.5394 H   0  0  0  0  0
   35.4604  -20.1625   21.1511 H   0  0  0  0  0
   37.3583  -21.6142   20.5145 H   0  0  0  0  0
   38.7420  -22.6807   22.2571 H   0  0  0  0  0
   37.8159  -24.1956   28.2968 H   0  0  0  0  0
   35.2329  -26.4254   25.7066 H   0  0  0  0  0
   35.5774  -28.7593   25.4927 H   0  0  0  0  0
   36.0782  -28.6795   23.0769 H   0  0  0  0  0
   34.2969  -28.1571   21.4532 H   0  0  0  0  0
   32.0040  -27.7131   22.2437 H   0  0  0  0  0
   31.4803  -27.7905   24.6530 H   0  0  0  0  0
   32.1458  -28.0860   31.4316 H   0  0  0  0  0
   33.3143  -29.4282   31.3690 H   0  0  0  0  0
   33.7109  -27.9436   32.2690 H   0  0  0  0  0
   36.7626  -25.2252   30.2668 H   0  0  0  0  0
  1  2  2  0  0  0
  2  3  1  0  0  0
  2 11  1  0  0  0
  3  4  1  0  0  0
  4  5  1  0  0  0
  5  6  4  0  0  0
  5 10  4  0  0  0
  6  7  4  0  0  0
  7  8  4  0  0  0
  8  9  4  0  0  0
  9 10  4  0  0  0
 11 12  4  0  0  0
 11 13  4  0  0  0
 12 30  4  0  0  0
 13 14  4  0  0  0
 14 15  4  0  0  0
 14 29  4  0  0  0
 15 16  4  0  0  0
 15 25  4  0  0  0
 16 17  1  0  0  0
 16 23  4  0  0  0
 17 18  4  0  0  0
 17 22  4  0  0  0
 18 19  4  0  0  0
 19 20  4  0  0  0
 20 21  4  0  0  0
 21 22  4  0  0  0
 23 24  4  0  0  0
 24 25  4  0  0  0
 25 26  4  0  0  0
 26 27  1  0  0  0
 26 28  4  0  0  0
 28 29  4  0  0  0
 29 30  4  0  0  0
  3 31  1  0  0  0
  4 32  1  0  0  0
  4 33  1  0  0  0
  6 34  1  0  0  0
  7 35  1  0  0  0
  8 36  1  0  0  0
  9 37  1  0  0  0
 10 38  1  0  0  0
 12 39  1  0  0  0
 13 40  1  0  0  0
 18 41  1  0  0  0
 19 42  1  0  0  0
 20 43  1  0  0  0
 21 44  1  0  0  0
 22 45  1  0  0  0
 27 46  1  0  0  0
 27 47  1  0  0  0
 27 48  1  0  0  0
 30 49  1  0  0  0
M  END
$$$$
