### 
### Created by X-TOOL on Mon Sep 10 21:12:49 2018
### 

@<TRIPOS>MOLECULE
1m74_ligand
   39    41     1     0     0
SMALL
GAST_HUCK


@<TRIPOS>ATOM
      1 PB         38.4390   88.5820   48.7110 P.3       1 ADP         0.2069
      2 O1B        38.5850   87.4220   49.6490 O.co2     1 ADP        -0.5891
      3 O2B        39.8780   89.2740   48.3780 O.co2     1 ADP        -0.5891
      4 O3B        37.7740   88.1150   47.4650 O.co2     1 ADP        -0.5891
      5 PA         37.8050   90.9050   50.2870 P.3       1 ADP         0.3276
      6 O1A        39.2310   91.0010   50.6860 O.co2     1 ADP        -0.5556
      7 O2A        36.8960   90.8110   51.4230 O.co2     1 ADP        -0.5556
      8 O3A        37.5610   89.6870   49.3490 O.3       1 ADP        -0.1548
      9 O5         37.3620   92.0630   49.3550 O.3       1 ADP        -0.2436
     10 C5         38.0730   92.4010   48.1910 C.3       1 ADP         0.1132
     11 C4         38.2100   93.9310   48.2550 C.3       1 ADP         0.1189
     12 O4         37.2740   94.5590   47.3570 O.3       1 ADP        -0.3364
     13 C3         37.9570   94.5390   49.6520 C.3       1 ADP         0.1149
     14 O3         39.1220   95.1630   50.1970 O.3       1 ADP        -0.3864
     15 C2         36.8350   95.5630   49.5290 C.3       1 ADP         0.1385
     16 O2         37.2240   96.8600   50.0410 O.3       1 ADP        -0.3836
     17 C1         36.4730   95.5530   48.0500 C.3       1 ADP         0.2010
     18 N9         34.9960   95.3340   47.7930 N.pl3     1 ADP        -0.1919
     19 C8         34.2810   94.2390   48.1550 C.2       1 ADP         0.1123
     20 N7         33.0030   94.4120   47.7680 N.2       1 ADP        -0.2958
     21 C5         32.8630   95.6100   47.1980 C.ar      1 ADP         0.1045
     22 C6         31.8090   96.3480   46.6150 C.ar      1 ADP         0.1298
     23 N6         30.5490   95.8580   46.5540 N.pl3     1 ADP        -0.3152
     24 N1         32.0660   97.6010   46.0970 N.ar      1 ADP        -0.2698
     25 C2         33.3070   98.1370   46.1310 C.ar      1 ADP         0.0533
     26 N3         34.3250   97.4400   46.6800 N.ar      1 ADP        -0.2714
     27 C4         34.1580   96.1970   47.2290 C.ar      1 ADP         0.1613
     28 H1         37.5152   92.0978   47.2927 H         1 ADP         0.0648
     29 H2         39.0631   91.9217   48.1871 H         1 ADP         0.0648
     30 H3         39.2343   94.1867   47.9462 H         1 ADP         0.0651
     31 H4         37.6420   93.7358   50.3344 H         1 ADP         0.0648
     32 H5         39.8157   94.5191   50.2790 H         1 ADP         0.2100
     33 H6         35.9655   95.2250   50.1118 H         1 ADP         0.0676
     34 H7         37.9730   97.1805   49.5524 H         1 ADP         0.2101
     35 H8         36.7310   96.5409   47.6409 H         1 ADP         0.0996
     36 H9         34.6752   93.3656   48.6724 H         1 ADP         0.1349
     37 H10        29.7991   96.4175   46.1233 H         1 ADP         0.1820
     38 H11        30.3399   94.9255   46.9383 H         1 ADP         0.1820
     39 H12        33.4842   99.1237   45.7186 H         1 ADP         0.0996
@<TRIPOS>BOND
     1    1    2 ar 
     2    1    3 ar 
     3    1    4 ar 
     4    8    1 1  
     5    5    6 ar 
     6    5    7 ar 
     7    5    8 1  
     8    5    9 1  
     9    9   10 1  
    10   10   11 1  
    11   11   12 1  
    12   11   13 1  
    13   12   17 1  
    14   13   14 1  
    15   13   15 1  
    16   15   16 1  
    17   15   17 1  
    18   17   18 1  
    19   18   19 1  
    20   18   27 1  
    21   19   20 2  
    22   20   21 1  
    23   21   22 ar 
    24   21   27 ar 
    25   22   23 1  
    26   22   24 ar 
    27   24   25 ar 
    28   25   26 ar 
    29   26   27 ar 
    30   10   28 1  
    31   10   29 1  
    32   11   30 1  
    33   13   31 1  
    34   14   32 1  
    35   15   33 1  
    36   16   34 1  
    37   17   35 1  
    38   19   36 1  
    39   23   37 1  
    40   23   38 1  
    41   25   39 1  
@<TRIPOS>SUBSTRUCTURE
     1 ADP         1

