1m74_ligand
  -I-interpret- 

 42 44  0  0  0  0  0  0  0  0999 V2000
   38.4390   88.5820   48.7110 P   0  0  0  0  0
   38.5850   87.4220   49.6490 O   0  0  0  0  0
   39.8780   89.2740   48.3780 O   0  0  0  0  0
   37.7740   88.1150   47.4650 O   0  0  0  0  0
   37.8050   90.9050   50.2870 P   0  0  0  0  0
   39.2310   91.0010   50.6860 O   0  0  0  0  0
   36.8960   90.8110   51.4230 O   0  0  0  0  0
   37.5610   89.6870   49.3490 O   0  0  0  0  0
   37.3620   92.0630   49.3550 O   0  0  0  0  0
   38.0730   92.4010   48.1910 C   0  0  0  0  0
   38.2100   93.9310   48.2550 C   0  0  0  0  0
   37.2740   94.5590   47.3570 O   0  0  0  0  0
   37.9570   94.5390   49.6520 C   0  0  0  0  0
   39.1220   95.1630   50.1970 O   0  0  0  0  0
   36.8350   95.5630   49.5290 C   0  0  0  0  0
   37.2240   96.8600   50.0410 O   0  0  0  0  0
   36.4730   95.5530   48.0500 C   0  0  0  0  0
   34.9960   95.3340   47.7930 N   0  0  0  0  0
   34.2810   94.2390   48.1550 C   0  0  0  0  0
   33.0030   94.4120   47.7680 N   0  0  0  0  0
   32.8630   95.6100   47.1980 C   0  0  0  0  0
   31.8090   96.3480   46.6150 C   0  0  0  0  0
   30.5490   95.8580   46.5540 N   0  0  0  0  0
   32.0660   97.6010   46.0970 N   0  0  0  0  0
   33.3070   98.1370   46.1310 C   0  0  0  0  0
   34.3250   97.4400   46.6800 N   0  0  0  0  0
   34.1580   96.1970   47.2290 C   0  0  0  0  0
   39.0138   87.7164   50.4559 H   0  0  0  0  0
   40.2877   89.5669   49.1953 H   0  0  0  0  0
   39.7788   91.0600   49.8999 H   0  0  0  0  0
   37.5577   92.0742   47.2878 H   0  0  0  0  0
   39.0427   91.9053   48.1459 H   0  0  0  0  0
   39.2472   94.1215   47.9794 H   0  0  0  0  0
   37.6835   93.7331   50.3330 H   0  0  0  0  0
   38.9151   95.5241   51.0621 H   0  0  0  0  0
   35.9651   95.3164   50.1378 H   0  0  0  0  0
   36.4918   97.4734   49.9451 H   0  0  0  0  0
   36.6970   96.5452   47.6583 H   0  0  0  0  0
   34.6756   93.3648   48.6729 H   0  0  0  0  0
   30.3419   94.9346   46.9346 H   0  0  0  0  0
   29.8064   96.4121   46.1274 H   0  0  0  0  0
   33.4852   99.1292   45.7163 H   0  0  0  0  0
  1  2  1  0  0  0
  1  3  1  0  0  0
  1  4  2  0  0  0
  8  1  1  0  0  0
  5  6  1  0  0  0
  5  7  2  0  0  0
  5  8  1  0  0  0
  5  9  1  0  0  0
  9 10  1  0  0  0
 10 11  1  0  0  0
 11 12  1  0  0  0
 11 13  1  0  0  0
 12 17  1  0  0  0
 13 14  1  0  0  0
 13 15  1  0  0  0
 15 16  1  0  0  0
 15 17  1  0  0  0
 17 18  1  0  0  0
 18 19  4  0  0  0
 18 27  4  0  0  0
 19 20  4  0  0  0
 20 21  4  0  0  0
 21 22  4  0  0  0
 21 27  4  0  0  0
 22 23  1  0  0  0
 22 24  4  0  0  0
 24 25  4  0  0  0
 25 26  4  0  0  0
 26 27  4  0  0  0
  2 28  1  0  0  0
  3 29  1  0  0  0
  6 30  1  0  0  0
 10 31  1  0  0  0
 10 32  1  0  0  0
 11 33  1  0  0  0
 13 34  1  0  0  0
 14 35  1  0  0  0
 15 36  1  0  0  0
 16 37  1  0  0  0
 17 38  1  0  0  0
 19 39  1  0  0  0
 23 40  1  0  0  0
 23 41  1  0  0  0
 25 42  1  0  0  0
M  END
$$$$
