### 
### Created by X-TOOL on Mon Sep 10 21:13:34 2018
### 

@<TRIPOS>MOLECULE
5nx2_ligand
  200   205     1     0     0
SMALL
GAST_HUCK


@<TRIPOS>ATOM
      1 C67       -19.4640   23.9220   10.1420 C.2       1 9DK         0.2095
      2 C69       -20.2570   24.8710   11.0930 C.3       1 9DK         0.1250
      3 C70       -19.3000   25.9900   11.6240 C.3       1 9DK        -0.0458
      4 C71       -20.7920   24.0960   12.3300 C.3       1 9DK        -0.0458
      5 C72       -21.4720   25.4870   10.3380 C.2       1 9DK         0.2073
      6 C75       -23.4620   27.0740   10.6130 C.3       1 9DK         0.0420
      7 C76       -24.2950   26.5400    9.4420 C.3       1 9DK         0.0226
      8 C77       -24.9610   25.2420    9.7850 C.2       1 9DK         0.0536
      9 C78       -24.5890   23.9480    9.4590 C.2       1 9DK        -0.0277
     10 C80       -26.4270   24.0150   10.6340 C.2       1 9DK         0.0875
     11 N74       -22.2670   26.3260   11.0310 N.am      1 9DK        -0.2847
     12 N79       -25.5540   23.1600   10.0210 N.2       1 9DK        -0.3437
     13 N81       -26.0760   25.2670   10.4940 N.pl3     1 9DK        -0.2625
     14 O68       -19.9470   22.8600    9.7430 O.2       1 9DK        -0.3468
     15 O73       -21.6670   25.2050    9.1490 O.2       1 9DK        -0.3470
     16 C57       -17.4810   24.1010    7.4470 C.2       1 9DQ         0.2059
     17 C59       -17.2210   23.7130    8.9120 C.3       1 9DQ         0.1423
     18 C60       -16.9590   22.1800    9.0040 C.3       1 9DQ         0.0465
     19 C61       -17.1170   21.5880   10.3820 C.2       1 9DQ         0.1223
     20 N62       -16.8640   22.2760   11.5330 N.2       1 9DQ        -0.1625
     21 N63       -17.0860   21.5020   12.5930 N.pl3     1 9DQ        -0.1153
     22 N64       -17.4880   20.2960   12.0520 N.2       1 9DQ        -0.0595
     23 N65       -17.5000   20.3710   10.6660 N.2       1 9DQ        -0.1813
     24 N66       -18.2310   24.3360    9.7840 N.am      1 9DQ        -0.2636
     25 O58       -16.6530   24.8020    6.8750 O.2       1 9DQ        -0.3942
     26 N         -18.6020   23.6580    6.8610 N.am      1 GLY        -0.2663
     27 CA        -19.0050   23.9340    5.4850 C.3       1 GLY         0.1201
     28 C         -19.1930   25.4410    5.2710 C.2       1 GLY         0.2008
     29 O         -18.7690   25.9540    4.2400 O.2       1 GLY        -0.3947
     30 N         -19.8120   26.1550    6.2240 N.am      1 THR        -0.2616
     31 CA        -20.0390   27.6040    6.1140 C.3       1 THR         0.1562
     32 C         -18.7300   28.4130    6.2770 C.2       1 THR         0.2037
     33 O         -18.4990   29.3420    5.5050 O.2       1 THR        -0.3946
     34 CB        -21.1550   28.1120    7.0840 C.3       1 THR         0.0924
     35 OG1       -21.7580   29.3280    6.6900 O.3       1 THR        -0.3874
     36 CG2       -20.7450   28.2970    8.5550 C.3       1 THR        -0.0346
     37 C36       -15.5740   28.4840    6.4980 C.2       1 9DT         0.2284
     38 C38       -16.5990   28.6230    7.6810 C.3       1 9DT         0.1392
     39 C39       -16.8290   30.1100    8.0610 C.3       1 9DT        -0.0301
     40 C40       -16.0790   27.8820    8.9540 C.3       1 9DT         0.0146
     41 C41       -14.5740   27.5900    8.9480 C.ar      1 9DT        -0.0078
     42 C42       -14.1020   26.3400    8.5290 C.ar      1 9DT        -0.0621
     43 C43       -12.7320   26.0810    8.5180 C.ar      1 9DT        -0.0726
     44 C44       -11.8250   27.0590    8.9210 C.ar      1 9DT        -0.0706
     45 C45       -12.2870   28.3050    9.3350 C.ar      1 9DT        -0.0349
     46 C46       -13.6530   28.5690    9.3470 C.ar      1 9DT         0.1330
     47 F47       -14.0770   29.7860    9.7530 F         1 9DT        -0.1891
     48 N48       -17.9020   28.0360    7.2780 N.am      1 9DT        -0.2726
     49 O37       -14.7630   29.3790    6.2790 O.2       1 9DT        -0.3417
     50 N         -15.6050   27.3680    5.7450 N.am      1 THR        -0.2604
     51 CA        -14.7240   27.0850    4.6100 C.3       1 THR         0.1567
     52 C         -14.8060   28.1630    3.5220 C.2       1 THR         0.2067
     53 O         -13.7770   28.5130    2.9460 O.2       1 THR        -0.3943
     54 CB        -15.1090   25.7760    3.8740 C.3       1 THR         0.0925
     55 OG1       -16.4910   25.5430    4.0010 O.3       1 THR        -0.3874
     56 CG2       -14.4080   24.5130    4.3710 C.3       1 THR        -0.0345
     57 N         -16.0330   28.6400    3.2750 N.am      1 SER        -0.2615
     58 CA        -16.3520   29.6550    2.2880 C.3       1 SER         0.1539
     59 C         -15.4910   30.9220    2.4830 C.2       1 SER         0.2063
     60 O         -14.6480   31.1990    1.6300 O.2       1 SER        -0.3943
     61 CB        -17.8900   29.8570    2.2440 C.3       1 SER         0.0843
     62 OG        -18.5110   29.1300    1.2000 O.3       1 SER        -0.3903
     63 N         -15.7000   31.6660    3.5830 N.am      1 ASP        -0.2621
     64 CA        -14.9440   32.8930    3.8890 C.3       1 ASP         0.1423
     65 C         -13.4250   32.6340    3.9650 C.2       1 ASP         0.2057
     66 O         -12.6350   33.5430    3.7110 O.2       1 ASP        -0.3943
     67 CB        -15.3860   33.6500    5.1700 C.3       1 ASP         0.0406
     68 CG        -16.8400   33.4900    5.6290 C.2       1 ASP         0.0393
     69 OD1       -17.1480   34.0350    6.7120 O.co2     1 ASP        -0.5688
     70 OD2       -17.6420   32.8420    4.9270 O.co2     1 ASP        -0.5688
     71 C01        -7.9410   25.8230    8.2370 C.3       1 9DW        -0.0553
     72 C02        -6.7260   25.8260    7.2930 C.3       1 9DW        -0.0232
     73 C05        -3.6090   27.9570    7.8550 C.ar      1 9DW         0.0852
     74 C07        -5.3270   29.4240    7.0250 C.ar      1 9DW        -0.0690
     75 C08        -6.2350   28.3650    6.9430 C.ar      1 9DW        -0.0293
     76 C09        -7.6010   28.6640    6.4610 C.ar      1 9DW        -0.0343
     77 C11        -9.3160   28.5320    4.7750 C.ar      1 9DW        -0.0615
     78 C12       -10.1820   29.2370    5.6140 C.ar      1 9DW        -0.0400
     79 C13        -9.7570   29.6610    6.8720 C.ar      1 9DW        -0.0615
     80 C14        -8.4690   29.3710    7.2960 C.ar      1 9DW        -0.0643
     81 C15       -11.5960   29.5720    5.1650 C.3       1 9DW         0.0207
     82 C03        -5.8240   27.0710    7.3340 C.ar      1 9DW        -0.0432
     83 C04        -4.5110   26.8890    7.7830 C.ar      1 9DW        -0.0307
     84 C06        -4.0280   29.2240    7.4740 C.ar      1 9DW        -0.0388
     85 C10        -8.0260   28.2440    5.2010 C.ar      1 9DW        -0.0643
     86 C16       -11.6720   30.9360    4.4380 C.3       1 9DW         0.1403
     87 C88       -10.9840   30.8480    3.0700 C.2       1 9DW         0.2059
     88 CA7        -2.0160   26.6690    9.0630 C.3       1 9DW         0.0596
     89 N17       -13.0520   31.3970    4.3130 N.am      1 9DW        -0.2618
     90 O89        -9.8940   31.3990    2.9230 O.2       1 9DW        -0.3942
     91 OA6        -2.3120   27.8250    8.2910 O.3       1 9DW        -0.3223
     92 C91       -11.1770   29.9360    0.7520 C.3       1 9DZ         0.1308
     93 C92       -12.2480   29.2060   -0.0960 C.3       1 9DZ        -0.0106
     94 C93       -11.8690   28.8900   -1.5670 C.3       1 9DZ        -0.0393
     95 C94       -11.0510   27.5990   -1.7450 C.3       1 9DZ        -0.0221
     96 C95       -10.5340   27.4290   -3.1640 C.ar      1 9DZ        -0.0565
     97 C96       -11.2470   26.6630   -4.0890 C.ar      1 9DZ        -0.0663
     98 C97       -10.7530   26.5260   -5.3860 C.ar      1 9DZ        -0.0595
     99 C98        -9.5740   27.1370   -5.7690 C.ar      1 9DZ        -0.0666
    100 C99        -8.8620   27.8980   -4.8650 C.ar      1 9DZ        -0.0595
    101 CA0        -9.3390   28.0490   -3.5560 C.ar      1 9DZ        -0.0663
    102 CA1        -7.5880   28.5300   -5.3710 C.3       1 9DZ        -0.0343
    103 CA2       -11.4570   25.7230   -6.4270 C.3       1 9DZ        -0.0343
    104 CA3       -10.7570   31.2880    0.1600 C.2       1 9DZ         0.1992
    105 N90       -11.6300   30.1540    2.1200 N.am      1 9DZ        -0.2636
    106 NA5        -9.4670   31.5350    0.0830 N.am      1 9DZ        -0.2990
    107 OA4       -11.5770   32.1130   -0.2090 O.2       1 9DZ        -0.3947
    108 H1        -18.4528   25.5278   12.1518 H         1 9DK         0.0210
    109 H2        -19.8499   26.6448   12.3160 H         1 9DK         0.0210
    110 H3        -18.9248   26.5837   10.7774 H         1 9DK         0.0210
    111 H4        -21.4712   23.2975   11.9968 H         1 9DK         0.0210
    112 H5        -21.3357   24.7884   12.9895 H         1 9DK         0.0210
    113 H6        -19.9476   23.6537   12.8789 H         1 9DK         0.0210
    114 H7        -24.1296   27.1306   11.4854 H         1 9DK         0.0544
    115 H8        -23.1303   28.0863   10.3388 H         1 9DK         0.0544
    116 H9        -23.6348   26.3845    8.5760 H         1 9DK         0.0463
    117 H10       -25.0671   27.2806    9.1862 H         1 9DK         0.0463
    118 H11       -23.7212   23.6296    8.8833 H         1 9DK         0.0324
    119 H12       -27.3135   23.6906   11.1769 H         1 9DK         0.1149
    120 H13       -22.0008   26.4621   11.9853 H         1 9DK         0.1856
    121 H14       -26.5650   26.0968   10.8590 H         1 9DK         0.2386
    122 H15       -16.2694   24.1816    9.2032 H         1 9DQ         0.0825
    123 H16       -15.9297   21.9889    8.6665 H         1 9DQ         0.0492
    124 H17       -17.6657   21.6720    8.3313 H         1 9DQ         0.0492
    125 H18       -16.9819   21.7462   13.5882 H         1 9DQ         0.2882
    126 H19       -17.9567   25.2137   10.1769 H         1 9DQ         0.1888
    127 H20       -19.2138   23.0908    7.4124 H         1 GLY         0.1881
    128 H21       -19.9534   23.4178    5.2753 H         1 GLY         0.0763
    129 H22       -18.2276   23.5655    4.7995 H         1 GLY         0.0763
    130 H23       -20.1327   25.6814    7.0443 H         1 THR         0.1884
    131 H24       -20.4011   27.7885    5.0918 H         1 THR         0.0826
    132 H25       -21.9351   27.3368    7.0633 H         1 THR         0.0639
    133 H26       -22.4218   29.5712    7.3245 H         1 THR         0.2101
    134 H27       -21.6089   28.6553    9.1341 H         1 THR         0.0257
    135 H28       -19.9301   29.0331    8.6188 H         1 THR         0.0257
    136 H29       -20.4029   27.3349    8.9641 H         1 THR         0.0257
    137 H30       -17.5498   30.1693    8.8898 H         1 9DT         0.0243
    138 H31       -17.2254   30.6538    7.1908 H         1 9DT         0.0243
    139 H32       -15.8750   30.5609    8.3718 H         1 9DT         0.0243
    140 H33       -16.6145   26.9248    9.0374 H         1 9DT         0.0430
    141 H34       -16.3046   28.5061    9.8313 H         1 9DT         0.0430
    142 H35       -14.8013   25.5742    8.2134 H         1 9DT         0.0545
    143 H36       -12.3700   25.1121    8.1937 H         1 9DT         0.0565
    144 H37       -10.7614   26.8498    8.9121 H         1 9DT         0.0549
    145 H38       -11.5837   29.0684    9.6475 H         1 9DT         0.0585
    146 H39       -18.2096   27.2547    7.8212 H         1 9DT         0.1840
    147 H40       -16.2863   26.6749    5.9805 H         1 THR         0.1890
    148 H41       -13.6928   27.0120    4.9857 H         1 THR         0.0828
    149 H42       -14.8600   25.9095    2.8109 H         1 THR         0.0640
    150 H43       -16.7143   25.4629    4.9209 H         1 THR         0.2101
    151 H44       -14.7514   23.6481    3.7845 H         1 THR         0.0257
    152 H45       -14.6476   24.3543    5.4328 H         1 THR         0.0257
    153 H46       -13.3203   24.6270    4.2536 H         1 THR         0.0257
    154 H47       -16.7889   28.2673    3.8132 H         1 SER         0.1884
    155 H48       -16.0689   29.2518    1.3045 H         1 SER         0.0823
    156 H49       -18.0996   30.9271    2.0995 H         1 SER         0.0606
    157 H50       -18.3151   29.5263    3.2031 H         1 SER         0.0606
    158 H51       -19.4475   29.2887    1.2186 H         1 SER         0.2097
    159 H52       -16.4056   31.3712    4.2274 H         1 ASP         0.1884
    160 H53       -15.1184   33.5754    3.0440 H         1 ASP         0.0819
    161 H54       -15.2138   34.7220    4.9935 H         1 ASP         0.0478
    162 H55       -14.7424   33.3058    5.9930 H         1 ASP         0.0478
    163 H56        -8.5002   24.8841    8.1118 H         1 9DW         0.0252
    164 H57        -8.5948   26.6741    7.9958 H         1 9DW         0.0252
    165 H58        -7.5966   25.9086    9.2782 H         1 9DW         0.0252
    166 H59        -7.1022   25.7205    6.2648 H         1 9DW         0.0426
    167 H60        -6.1040   24.9550    7.5471 H         1 9DW         0.0426
    168 H61        -5.6421   30.4193    6.7330 H         1 9DW         0.0575
    169 H62        -9.6496   28.2108    3.7949 H         1 9DW         0.0554
    170 H63       -10.4304   30.2150    7.5160 H         1 9DW         0.0554
    171 H64        -8.1357   29.6932    8.2759 H         1 9DW         0.0585
    172 H65       -12.2497   29.6052    6.0491 H         1 9DW         0.0472
    173 H66       -11.9455   28.7857    4.4798 H         1 9DW         0.0472
    174 H67        -4.1853   25.8991    8.0816 H         1 9DW         0.0481
    175 H68        -3.3396   30.0597    7.5270 H         1 9DW         0.0492
    176 H69        -7.3509   27.6939    4.5555 H         1 9DW         0.0585
    177 H70       -11.1265   31.6740    5.0445 H         1 9DW         0.0823
    178 H71        -0.9537   26.6809    9.3484 H         1 9DW         0.0578
    179 H72        -2.2259   25.7675    8.4687 H         1 9DW         0.0578
    180 H73        -2.6392   26.6639    9.9694 H         1 9DW         0.0578
    181 H74       -13.7768   30.7347    4.5028 H         1 9DW         0.1885
    182 H75       -10.2879   29.2891    0.7830 H         1 9DZ         0.0800
    183 H76       -13.1492   29.8366   -0.1112 H         1 9DZ         0.0314
    184 H77       -12.4761   28.2524    0.4025 H         1 9DZ         0.0314
    185 H78       -11.2768   29.7302   -1.9586 H         1 9DZ         0.0289
    186 H79       -12.7973   28.7930   -2.1491 H         1 9DZ         0.0289
    187 H80       -11.6906   26.7391   -1.4972 H         1 9DZ         0.0424
    188 H81       -10.1925   27.6277   -1.0578 H         1 9DZ         0.0424
    189 H82       -12.1742   26.1803   -3.8019 H         1 9DZ         0.0438
    190 H83        -9.2078   27.0180   -6.7823 H         1 9DZ         0.0438
    191 H84        -8.7821   28.6473   -2.8439 H         1 9DZ         0.0438
    192 H85        -7.4385   28.2592   -6.4266 H         1 9DZ         0.0389
    193 H86        -6.7372   28.1675   -4.7755 H         1 9DZ         0.0389
    194 H87        -7.6599   29.6238   -5.2797 H         1 9DZ         0.0389
    195 H88       -12.3744   25.2922   -5.9995 H         1 9DZ         0.0389
    196 H89       -10.7982   24.9129   -6.7729 H         1 9DZ         0.0389
    197 H90       -11.7177   26.3716   -7.2763 H         1 9DZ         0.0389
    198 H91       -12.5070   29.7471    2.3756 H         1 9DZ         0.1883
    199 H92        -9.1458   32.4030   -0.2957 H         1 9DZ         0.1815
    200 H93        -8.8077   30.8547    0.4032 H         1 9DZ         0.1815
@<TRIPOS>BOND
     1    1    2 1  
     2    1   14 2  
     3   24    1 am 
     4    2    3 1  
     5    2    4 1  
     6    2    5 1  
     7    5   11 am 
     8    5   15 2  
     9    6    7 1  
    10   11    6 1  
    11    7    8 1  
    12    8    9 2  
    13    8   13 1  
    14    9   12 1  
    15   10   12 2  
    16   13   10 1  
    17   16   17 1  
    18   16   25 2  
    19   26   16 am 
    20   17   18 1  
    21   17   24 1  
    22   18   19 1  
    23   19   20 2  
    24   19   23 1  
    25   20   21 1  
    26   22   21 1  
    27   23   22 2  
    28   27   26 1  
    29   28   27 1  
    30   28   29 2  
    31   30   28 am 
    32   31   30 1  
    33   32   31 1  
    34   31   34 1  
    35   32   33 2  
    36   48   32 am 
    37   34   35 1  
    38   34   36 1  
    39   37   38 1  
    40   37   49 2  
    41   50   37 am 
    42   38   39 1  
    43   38   40 1  
    44   38   48 1  
    45   40   41 1  
    46   41   42 ar 
    47   41   46 ar 
    48   42   43 ar 
    49   43   44 ar 
    50   45   44 ar 
    51   46   45 ar 
    52   46   47 1  
    53   51   50 1  
    54   52   51 1  
    55   51   54 1  
    56   52   53 2  
    57   57   52 am 
    58   54   55 1  
    59   54   56 1  
    60   58   57 1  
    61   59   58 1  
    62   58   61 1  
    63   59   60 2  
    64   63   59 am 
    65   61   62 1  
    66   64   63 1  
    67   65   64 1  
    68   64   67 1  
    69   65   66 2  
    70   89   65 am 
    71   67   68 1  
    72   68   69 ar 
    73   68   70 ar 
    74   72   71 1  
    75   82   72 1  
    76   83   73 ar 
    77   84   73 ar 
    78   73   91 1  
    79   75   74 ar 
    80   74   84 ar 
    81   76   75 1  
    82   75   82 ar 
    83   80   76 ar 
    84   85   76 ar 
    85   78   77 ar 
    86   77   85 ar 
    87   78   79 ar 
    88   81   78 1  
    89   79   80 ar 
    90   86   81 1  
    91   82   83 ar 
    92   87   86 1  
    93   86   89 1  
    94   87   90 2  
    95  105   87 am 
    96   91   88 1  
    97   92   93 1  
    98   92  104 1  
    99   92  105 1  
   100   93   94 1  
   101   94   95 1  
   102   95   96 1  
   103   96   97 ar 
   104   96  101 ar 
   105   97   98 ar 
   106   98   99 ar 
   107   98  103 1  
   108   99  100 ar 
   109  100  101 ar 
   110  100  102 1  
   111  104  106 am 
   112  104  107 2  
   113    3  108 1  
   114    3  109 1  
   115    3  110 1  
   116    4  111 1  
   117    4  112 1  
   118    4  113 1  
   119    6  114 1  
   120    6  115 1  
   121    7  116 1  
   122    7  117 1  
   123    9  118 1  
   124   10  119 1  
   125   11  120 1  
   126   13  121 1  
   127   17  122 1  
   128   18  123 1  
   129   18  124 1  
   130   21  125 1  
   131   24  126 1  
   132   26  127 1  
   133   27  128 1  
   134   27  129 1  
   135   30  130 1  
   136   31  131 1  
   137   34  132 1  
   138   35  133 1  
   139   36  134 1  
   140   36  135 1  
   141   36  136 1  
   142   39  137 1  
   143   39  138 1  
   144   39  139 1  
   145   40  140 1  
   146   40  141 1  
   147   42  142 1  
   148   43  143 1  
   149   44  144 1  
   150   45  145 1  
   151   48  146 1  
   152   50  147 1  
   153   51  148 1  
   154   54  149 1  
   155   55  150 1  
   156   56  151 1  
   157   56  152 1  
   158   56  153 1  
   159   57  154 1  
   160   58  155 1  
   161   61  156 1  
   162   61  157 1  
   163   62  158 1  
   164   63  159 1  
   165   64  160 1  
   166   67  161 1  
   167   67  162 1  
   168   71  163 1  
   169   71  164 1  
   170   71  165 1  
   171   72  166 1  
   172   72  167 1  
   173   74  168 1  
   174   77  169 1  
   175   79  170 1  
   176   80  171 1  
   177   81  172 1  
   178   81  173 1  
   179   83  174 1  
   180   84  175 1  
   181   85  176 1  
   182   86  177 1  
   183   88  178 1  
   184   88  179 1  
   185   88  180 1  
   186   89  181 1  
   187   92  182 1  
   188   93  183 1  
   189   93  184 1  
   190   94  185 1  
   191   94  186 1  
   192   95  187 1  
   193   95  188 1  
   194   97  189 1  
   195   99  190 1  
   196  101  191 1  
   197  102  192 1  
   198  102  193 1  
   199  102  194 1  
   200  103  195 1  
   201  103  196 1  
   202  103  197 1  
   203  105  198 1  
   204  106  199 1  
   205  106  200 1  
@<TRIPOS>SUBSTRUCTURE
     1 9DK         1

