5nx2_ligand
  -I-interpret- 

199204  0  0  0  0  0  0  0  0999 V2000
  -19.4640   23.9220   10.1420 C   0  0  0  0  0
  -20.2570   24.8710   11.0930 C   0  0  0  0  0
  -19.3000   25.9900   11.6240 C   0  0  0  0  0
  -20.7920   24.0960   12.3300 C   0  0  0  0  0
  -21.4720   25.4870   10.3380 C   0  0  0  0  0
  -23.4620   27.0740   10.6130 C   0  0  0  0  0
  -24.2950   26.5400    9.4420 C   0  0  0  0  0
  -24.9610   25.2420    9.7850 C   0  0  0  0  0
  -24.5890   23.9480    9.4590 C   0  0  0  0  0
  -26.4270   24.0150   10.6340 C   0  0  0  0  0
  -22.2670   26.3260   11.0310 N   0  0  0  0  0
  -25.5540   23.1600   10.0210 N   0  0  0  0  0
  -26.0760   25.2670   10.4940 N   0  0  0  0  0
  -19.9470   22.8600    9.7430 O   0  0  0  0  0
  -21.6670   25.2050    9.1490 O   0  0  0  0  0
  -17.4810   24.1010    7.4470 C   0  0  0  0  0
  -17.2210   23.7130    8.9120 C   0  0  0  0  0
  -16.9590   22.1800    9.0040 C   0  0  0  0  0
  -17.1170   21.5880   10.3820 C   0  0  0  0  0
  -16.8640   22.2760   11.5330 N   0  0  0  0  0
  -17.0860   21.5020   12.5930 N   0  0  0  0  0
  -17.4880   20.2960   12.0520 N   0  0  0  0  0
  -17.5000   20.3710   10.6660 N   0  0  0  0  0
  -18.2310   24.3360    9.7840 N   0  0  0  0  0
  -16.6530   24.8020    6.8750 O   0  0  0  0  0
  -18.6020   23.6580    6.8610 N   0  0  0  0  0
  -19.0050   23.9340    5.4850 C   0  0  0  0  0
  -19.1930   25.4410    5.2710 C   0  0  0  0  0
  -18.7690   25.9540    4.2400 O   0  0  0  0  0
  -19.8120   26.1550    6.2240 N   0  0  0  0  0
  -20.0390   27.6040    6.1140 C   0  0  0  0  0
  -18.7300   28.4130    6.2770 C   0  0  0  0  0
  -18.4990   29.3420    5.5050 O   0  0  0  0  0
  -21.1550   28.1120    7.0840 C   0  0  0  0  0
  -21.7580   29.3280    6.6900 O   0  0  0  0  0
  -20.7450   28.2970    8.5550 C   0  0  0  0  0
  -15.5740   28.4840    6.4980 C   0  0  0  0  0
  -16.5990   28.6230    7.6810 C   0  0  0  0  0
  -16.8290   30.1100    8.0610 C   0  0  0  0  0
  -16.0790   27.8820    8.9540 C   0  0  0  0  0
  -14.5740   27.5900    8.9480 C   0  0  0  0  0
  -14.1020   26.3400    8.5290 C   0  0  0  0  0
  -12.7320   26.0810    8.5180 C   0  0  0  0  0
  -11.8250   27.0590    8.9210 C   0  0  0  0  0
  -12.2870   28.3050    9.3350 C   0  0  0  0  0
  -13.6530   28.5690    9.3470 C   0  0  0  0  0
  -14.0770   29.7860    9.7530 F   0  0  0  0  0
  -17.9020   28.0360    7.2780 N   0  0  0  0  0
  -14.7630   29.3790    6.2790 O   0  0  0  0  0
  -15.6050   27.3680    5.7450 N   0  0  0  0  0
  -14.7240   27.0850    4.6100 C   0  0  0  0  0
  -14.8060   28.1630    3.5220 C   0  0  0  0  0
  -13.7770   28.5130    2.9460 O   0  0  0  0  0
  -15.1090   25.7760    3.8740 C   0  0  0  0  0
  -16.4910   25.5430    4.0010 O   0  0  0  0  0
  -14.4080   24.5130    4.3710 C   0  0  0  0  0
  -16.0330   28.6400    3.2750 N   0  0  0  0  0
  -16.3520   29.6550    2.2880 C   0  0  0  0  0
  -15.4910   30.9220    2.4830 C   0  0  0  0  0
  -14.6480   31.1990    1.6300 O   0  0  0  0  0
  -17.8900   29.8570    2.2440 C   0  0  0  0  0
  -18.5110   29.1300    1.2000 O   0  0  0  0  0
  -15.7000   31.6660    3.5830 N   0  0  0  0  0
  -14.9440   32.8930    3.8890 C   0  0  0  0  0
  -13.4250   32.6340    3.9650 C   0  0  0  0  0
  -12.6350   33.5430    3.7110 O   0  0  0  0  0
  -15.3860   33.6500    5.1700 C   0  0  0  0  0
  -16.8400   33.4900    5.6290 C   0  0  0  0  0
  -17.1480   34.0350    6.7120 O   0  0  0  0  0
  -17.6420   32.8420    4.9270 O   0  0  0  0  0
   -7.9410   25.8230    8.2370 C   0  0  0  0  0
   -6.7260   25.8260    7.2930 C   0  0  0  0  0
   -3.6090   27.9570    7.8550 C   0  0  0  0  0
   -5.3270   29.4240    7.0250 C   0  0  0  0  0
   -6.2350   28.3650    6.9430 C   0  0  0  0  0
   -7.6010   28.6640    6.4610 C   0  0  0  0  0
   -9.3160   28.5320    4.7750 C   0  0  0  0  0
  -10.1820   29.2370    5.6140 C   0  0  0  0  0
   -9.7570   29.6610    6.8720 C   0  0  0  0  0
   -8.4690   29.3710    7.2960 C   0  0  0  0  0
  -11.5960   29.5720    5.1650 C   0  0  0  0  0
   -5.8240   27.0710    7.3340 C   0  0  0  0  0
   -4.5110   26.8890    7.7830 C   0  0  0  0  0
   -4.0280   29.2240    7.4740 C   0  0  0  0  0
   -8.0260   28.2440    5.2010 C   0  0  0  0  0
  -11.6720   30.9360    4.4380 C   0  0  0  0  0
  -10.9840   30.8480    3.0700 C   0  0  0  0  0
   -2.0160   26.6690    9.0630 C   0  0  0  0  0
  -13.0520   31.3970    4.3130 N   0  0  0  0  0
   -9.8940   31.3990    2.9230 O   0  0  0  0  0
   -2.3120   27.8250    8.2910 O   0  0  0  0  0
  -11.1770   29.9360    0.7520 C   0  0  0  0  0
  -12.2480   29.2060   -0.0960 C   0  0  0  0  0
  -11.8690   28.8900   -1.5670 C   0  0  0  0  0
  -11.0510   27.5990   -1.7450 C   0  0  0  0  0
  -10.5340   27.4290   -3.1640 C   0  0  0  0  0
  -11.2470   26.6630   -4.0890 C   0  0  0  0  0
  -10.7530   26.5260   -5.3860 C   0  0  0  0  0
   -9.5740   27.1370   -5.7690 C   0  0  0  0  0
   -8.8620   27.8980   -4.8650 C   0  0  0  0  0
   -9.3390   28.0490   -3.5560 C   0  0  0  0  0
   -7.5880   28.5300   -5.3710 C   0  0  0  0  0
  -11.4570   25.7230   -6.4270 C   0  0  0  0  0
  -10.7570   31.2880    0.1600 C   0  0  0  0  0
  -11.6300   30.1540    2.1200 N   0  0  0  0  0
   -9.4670   31.5350    0.0830 N   0  0  0  0  0
  -11.5770   32.1130   -0.2090 O   0  0  0  0  0
  -18.9289   26.5776   10.7843 H   0  0  0  0  0
  -19.8460   26.6381   12.3095 H   0  0  0  0  0
  -18.4610   25.5308   12.1467 H   0  0  0  0  0
  -21.3291   24.7835   12.9834 H   0  0  0  0  0
  -21.4661   23.3062   11.9986 H   0  0  0  0  0
  -19.9545   23.6569   12.8721 H   0  0  0  0  0
  -24.1307   27.0420   11.4732 H   0  0  0  0  0
  -23.0869   28.0402   10.2755 H   0  0  0  0  0
  -23.6301   26.3724    8.5947 H   0  0  0  0  0
  -25.0678   27.2720    9.2072 H   0  0  0  0  0
  -23.7204   23.6293    8.8828 H   0  0  0  0  0
  -27.3143   23.6903   11.1774 H   0  0  0  0  0
  -21.9955   26.4648   12.0043 H   0  0  0  0  0
  -16.2980   24.1277    9.3173 H   0  0  0  0  0
  -15.9218   22.0198    8.7097 H   0  0  0  0  0
  -17.6987   21.6955    8.3667 H   0  0  0  0  0
  -17.9512   25.2313   10.1848 H   0  0  0  0  0
  -19.2260   23.0795    7.4235 H   0  0  0  0  0
  -19.9493   23.4278    5.2848 H   0  0  0  0  0
  -18.2279   23.5752    4.8101 H   0  0  0  0  0
  -20.1391   25.6719    7.0607 H   0  0  0  0  0
  -20.4015   27.7780    5.1009 H   0  0  0  0  0
  -21.8567   27.2810    7.0116 H   0  0  0  0  0
  -22.4288   29.5737    7.3312 H   0  0  0  0  0
  -20.4062   27.3431    8.9592 H   0  0  0  0  0
  -19.9375   29.0265    8.6168 H   0  0  0  0  0
  -21.6017   28.6520    9.1277 H   0  0  0  0  0
  -15.8830   30.5556    8.3687 H   0  0  0  0  0
  -17.2217   30.6477    7.1980 H   0  0  0  0  0
  -17.5433   30.1675    8.8823 H   0  0  0  0  0
  -16.5907   26.9205    8.9953 H   0  0  0  0  0
  -16.2744   28.5341    9.8053 H   0  0  0  0  0
  -14.8051   25.5700    8.2116 H   0  0  0  0  0
  -12.3680   25.1067    8.1919 H   0  0  0  0  0
  -10.7555   26.8487    8.9121 H   0  0  0  0  0
  -11.5798   29.0726    9.6493 H   0  0  0  0  0
  -18.2158   27.2391    7.8320 H   0  0  0  0  0
  -16.2999   26.6610    5.9852 H   0  0  0  0  0
  -13.7324   27.0282    5.0590 H   0  0  0  0  0
  -14.7915   25.9470    2.8454 H   0  0  0  0  0
  -16.7209   24.7313    3.5429 H   0  0  0  0  0
  -13.3303   24.6272    4.2541 H   0  0  0  0  0
  -14.6461   24.3570    5.4232 H   0  0  0  0  0
  -14.7491   23.6568    3.7891 H   0  0  0  0  0
  -16.8041   28.2598    3.8240 H   0  0  0  0  0
  -16.0763   29.3309    1.2845 H   0  0  0  0  0
  -18.0821   30.9161    2.0724 H   0  0  0  0  0
  -18.3001   29.4995    3.1885 H   0  0  0  0  0
  -19.4573   29.2904    1.2188 H   0  0  0  0  0
  -16.4197   31.3653    4.2402 H   0  0  0  0  0
  -15.1801   33.5418    3.0456 H   0  0  0  0  0
  -15.2692   34.7084    4.9373 H   0  0  0  0  0
  -14.7794   33.2369    5.9759 H   0  0  0  0  0
  -16.3776   34.4761    7.0774 H   0  0  0  0  0
   -7.5984   25.9079    9.2683 H   0  0  0  0  0
   -8.5880   26.6667    7.9970 H   0  0  0  0  0
   -8.4943   24.8922    8.1121 H   0  0  0  0  0
   -7.1307   25.7811    6.2819 H   0  0  0  0  0
   -6.0998   24.9906    7.6063 H   0  0  0  0  0
   -5.6438   30.4248    6.7314 H   0  0  0  0  0
   -9.6515   28.2091    3.7895 H   0  0  0  0  0
  -10.4341   30.2180    7.5196 H   0  0  0  0  0
   -8.1339   29.6949    8.2813 H   0  0  0  0  0
  -12.2291   29.6245    6.0507 H   0  0  0  0  0
  -11.9227   28.7988    4.4696 H   0  0  0  0  0
   -4.1835   25.8937    8.0833 H   0  0  0  0  0
   -3.3358   30.0643    7.5273 H   0  0  0  0  0
   -7.3472   27.6909    4.5519 H   0  0  0  0  0
  -11.1419   31.6744    5.0396 H   0  0  0  0  0
   -2.6341   26.6652    9.9608 H   0  0  0  0  0
   -2.2244   25.7765    8.4730 H   0  0  0  0  0
   -0.9632   26.6819    9.3452 H   0  0  0  0  0
  -13.7913   30.7215    4.5066 H   0  0  0  0  0
  -10.3124   29.2723    0.7457 H   0  0  0  0  0
  -13.1053   29.8776   -0.1428 H   0  0  0  0  0
  -12.4107   28.2427    0.3874 H   0  0  0  0  0
  -11.2508   29.7138   -1.9236 H   0  0  0  0  0
  -12.8004   28.7587   -2.1177 H   0  0  0  0  0
  -11.7025   26.7543   -1.5209 H   0  0  0  0  0
  -10.1908   27.6510   -1.0775 H   0  0  0  0  0
  -12.1793   26.1776   -3.8004 H   0  0  0  0  0
   -9.2057   27.0173   -6.7879 H   0  0  0  0  0
   -8.7791   28.6506   -2.8400 H   0  0  0  0  0
   -6.9052   27.7495   -5.7067 H   0  0  0  0  0
   -7.8193   29.1947   -6.2033 H   0  0  0  0  0
   -7.1228   29.1005   -4.5671 H   0  0  0  0  0
  -11.5416   24.6895   -6.0912 H   0  0  0  0  0
  -12.4524   26.1358   -6.5909 H   0  0  0  0  0
  -10.8897   25.7589   -7.3570 H   0  0  0  0  0
  -12.5245   29.7390    2.3807 H   0  0  0  0  0
   -9.1398   32.4265   -0.2893 H   0  0  0  0  0
   -8.7942   30.8350    0.3956 H   0  0  0  0  0
  1  2  1  0  0  0
  1 14  2  0  0  0
 24  1  1  0  0  0
  2  3  1  0  0  0
  2  4  1  0  0  0
  2  5  1  0  0  0
  5 11  1  0  0  0
  5 15  2  0  0  0
  6  7  1  0  0  0
 11  6  1  0  0  0
  7  8  1  0  0  0
  8  9  4  0  0  0
  8 13  4  0  0  0
  9 12  4  0  0  0
 10 12  4  0  0  0
 13 10  4  0  0  0
 16 17  1  0  0  0
 16 25  2  0  0  0
 26 16  1  0  0  0
 17 18  1  0  0  0
 17 24  1  0  0  0
 18 19  1  0  0  0
 19 20  4  0  0  0
 19 23  4  0  0  0
 20 21  4  0  0  0
 22 21  4  0  0  0
 23 22  4  0  0  0
 27 26  1  0  0  0
 28 27  1  0  0  0
 28 29  2  0  0  0
 30 28  1  0  0  0
 31 30  1  0  0  0
 32 31  1  0  0  0
 31 34  1  0  0  0
 32 33  2  0  0  0
 48 32  1  0  0  0
 34 35  1  0  0  0
 34 36  1  0  0  0
 37 38  1  0  0  0
 37 49  2  0  0  0
 50 37  1  0  0  0
 38 39  1  0  0  0
 38 40  1  0  0  0
 38 48  1  0  0  0
 40 41  1  0  0  0
 41 42  4  0  0  0
 41 46  4  0  0  0
 42 43  4  0  0  0
 43 44  4  0  0  0
 45 44  4  0  0  0
 46 45  4  0  0  0
 46 47  1  0  0  0
 51 50  1  0  0  0
 52 51  1  0  0  0
 51 54  1  0  0  0
 52 53  2  0  0  0
 57 52  1  0  0  0
 54 55  1  0  0  0
 54 56  1  0  0  0
 58 57  1  0  0  0
 59 58  1  0  0  0
 58 61  1  0  0  0
 59 60  2  0  0  0
 63 59  1  0  0  0
 61 62  1  0  0  0
 64 63  1  0  0  0
 65 64  1  0  0  0
 64 67  1  0  0  0
 65 66  2  0  0  0
 89 65  1  0  0  0
 67 68  1  0  0  0
 68 69  1  0  0  0
 68 70  2  0  0  0
 72 71  1  0  0  0
 82 72  1  0  0  0
 83 73  4  0  0  0
 84 73  4  0  0  0
 73 91  1  0  0  0
 75 74  4  0  0  0
 74 84  4  0  0  0
 76 75  1  0  0  0
 75 82  4  0  0  0
 80 76  4  0  0  0
 85 76  4  0  0  0
 78 77  4  0  0  0
 77 85  4  0  0  0
 78 79  4  0  0  0
 81 78  1  0  0  0
 79 80  4  0  0  0
 86 81  1  0  0  0
 82 83  4  0  0  0
 87 86  1  0  0  0
 86 89  1  0  0  0
 87 90  2  0  0  0
105 87  1  0  0  0
 91 88  1  0  0  0
 92 93  1  0  0  0
 92104  1  0  0  0
 92105  1  0  0  0
 93 94  1  0  0  0
 94 95  1  0  0  0
 95 96  1  0  0  0
 96 97  4  0  0  0
 96101  4  0  0  0
 97 98  4  0  0  0
 98 99  4  0  0  0
 98103  1  0  0  0
 99100  4  0  0  0
100101  4  0  0  0
100102  1  0  0  0
104106  1  0  0  0
104107  2  0  0  0
  3108  1  0  0  0
  3109  1  0  0  0
  3110  1  0  0  0
  4111  1  0  0  0
  4112  1  0  0  0
  4113  1  0  0  0
  6114  1  0  0  0
  6115  1  0  0  0
  7116  1  0  0  0
  7117  1  0  0  0
  9118  1  0  0  0
 10119  1  0  0  0
 11120  1  0  0  0
 17121  1  0  0  0
 18122  1  0  0  0
 18123  1  0  0  0
 24124  1  0  0  0
 26125  1  0  0  0
 27126  1  0  0  0
 27127  1  0  0  0
 30128  1  0  0  0
 31129  1  0  0  0
 34130  1  0  0  0
 35131  1  0  0  0
 36132  1  0  0  0
 36133  1  0  0  0
 36134  1  0  0  0
 39135  1  0  0  0
 39136  1  0  0  0
 39137  1  0  0  0
 40138  1  0  0  0
 40139  1  0  0  0
 42140  1  0  0  0
 43141  1  0  0  0
 44142  1  0  0  0
 45143  1  0  0  0
 48144  1  0  0  0
 50145  1  0  0  0
 51146  1  0  0  0
 54147  1  0  0  0
 55148  1  0  0  0
 56149  1  0  0  0
 56150  1  0  0  0
 56151  1  0  0  0
 57152  1  0  0  0
 58153  1  0  0  0
 61154  1  0  0  0
 61155  1  0  0  0
 62156  1  0  0  0
 63157  1  0  0  0
 64158  1  0  0  0
 67159  1  0  0  0
 67160  1  0  0  0
 69161  1  0  0  0
 71162  1  0  0  0
 71163  1  0  0  0
 71164  1  0  0  0
 72165  1  0  0  0
 72166  1  0  0  0
 74167  1  0  0  0
 77168  1  0  0  0
 79169  1  0  0  0
 80170  1  0  0  0
 81171  1  0  0  0
 81172  1  0  0  0
 83173  1  0  0  0
 84174  1  0  0  0
 85175  1  0  0  0
 86176  1  0  0  0
 88177  1  0  0  0
 88178  1  0  0  0
 88179  1  0  0  0
 89180  1  0  0  0
 92181  1  0  0  0
 93182  1  0  0  0
 93183  1  0  0  0
 94184  1  0  0  0
 94185  1  0  0  0
 95186  1  0  0  0
 95187  1  0  0  0
 97188  1  0  0  0
 99189  1  0  0  0
101190  1  0  0  0
102191  1  0  0  0
102192  1  0  0  0
102193  1  0  0  0
103194  1  0  0  0
103195  1  0  0  0
103196  1  0  0  0
105197  1  0  0  0
106198  1  0  0  0
106199  1  0  0  0
M  END
$$$$
