4inr_ligand
  -I-interpret- 

 96 97  0  0  0  0  0  0  0  0999 V2000
   59.9250 -135.1340   34.4390 C   0  0  0  0  0
   60.0380 -136.3170   34.7400 O   0  0  0  0  0
   58.5980 -134.6670   33.9020 C   0  0  0  0  0
   58.5820 -135.2860   32.5910 N   0  0  0  0  0
   59.2490 -134.9040   31.6760 N   0  0  0  0  0
   59.8850 -134.5850   30.7180 N   0  0  0  0  0
   57.3680 -135.1210   34.7340 C   0  0  0  0  0
   56.0810 -134.5060   34.1550 C   0  0  0  0  0
   55.3860 -135.1330   33.1040 C   0  0  0  0  0
   54.2150 -134.5620   32.5860 C   0  0  0  0  0
   55.5800 -133.3040   34.6840 C   0  0  0  0  0
   54.4080 -132.7310   34.1690 C   0  0  0  0  0
   53.7250 -133.3620   33.1190 C   0  0  0  0  0
   60.9120 -134.2080   34.5420 N   0  0  0  0  0
   62.1280 -134.4550   35.3200 C   0  0  0  0  0
   61.7590 -134.6570   36.7580 C   0  0  0  0  0
   61.2290 -133.7240   37.3460 O   0  0  0  0  0
   63.0850 -133.2410   35.1000 C   0  0  0  0  0
   64.2950 -133.5010   34.1520 C   0  0  0  0  0
   65.5360 -132.7170   34.6800 C   0  0  0  0  0
   64.0390 -133.0560   32.6760 C   0  0  0  0  0
   62.0250 -135.8730   37.2940 N   0  0  0  0  0
   61.7950 -136.1310   38.7070 C   0  0  0  0  0
   63.0830 -136.1430   39.4960 C   0  0  0  0  0
   64.1090 -136.5370   38.9580 O   0  0  0  0  0
   61.0350 -137.4690   38.9280 C   0  0  0  0  0
   59.5460 -137.5000   38.4490 C   0  0  0  0  0
   58.5190 -136.9860   39.5070 C   0  0  0  0  0
   59.1710 -138.9650   38.0700 C   0  0  0  0  0
   62.7240 -139.4960   42.4990 O   0  0  0  0  0
   61.8950 -138.6090   43.2940 S   0  0  0  0  0
   61.7300 -138.8890   44.7100 O   0  0  0  0  0
   60.2610 -138.5080   42.5510 C   0  0  0  0  0
   62.4440 -136.8950   43.0720 C   0  0  0  0  0
   63.9690 -136.7020   42.7880 C   0  0  0  0  0
   64.1360 -135.5950   41.6820 C   0  0  0  0  0
   64.1090 -134.2250   42.4280 C   0  0  0  0  0
   64.7910 -132.9650   41.8790 C   0  0  0  0  0
   64.4900 -131.7640   42.5450 C   0  0  0  0  0
   65.0550 -130.5560   42.1320 C   0  0  0  0  0
   65.9380 -130.5240   41.0410 C   0  0  0  0  0
   66.5160 -129.1510   40.6520 C   0  0  0  0  0
   65.8950 -128.4910   39.4830 N   0  3  0  0  0
   66.2440 -131.7240   40.3730 C   0  0  0  0  0
   65.6760 -132.9420   40.7870 C   0  0  0  0  0
   62.9940 -135.7020   40.7760 N   0  0  0  0  0
   58.5155 -133.5802   33.9144 H   0  0  0  0  0
   57.4910 -134.7884   35.7647 H   0  0  0  0  0
   57.2929 -136.2078   34.6973 H   0  0  0  0  0
   55.7607 -136.0690   32.6899 H   0  0  0  0  0
   53.6856 -135.0515   31.7686 H   0  0  0  0  0
   56.1071 -132.8127   35.5019 H   0  0  0  0  0
   54.0287 -131.7972   34.5840 H   0  0  0  0  0
   52.8134 -132.9192   32.7177 H   0  0  0  0  0
   60.8036 -133.3138   34.0635 H   0  0  0  0  0
   62.6449 -135.3595   34.9993 H   0  0  0  0  0
   63.5034 -132.9956   36.0761 H   0  0  0  0  0
   62.4886 -132.4571   34.6331 H   0  0  0  0  0
   64.4582 -134.5787   34.1497 H   0  0  0  0  0
   65.3088 -131.6512   34.7011 H   0  0  0  0  0
   65.7784 -133.0581   35.6865 H   0  0  0  0  0
   66.3849 -132.8958   34.0200 H   0  0  0  0  0
   63.1865 -133.6044   32.2752 H   0  0  0  0  0
   63.8289 -131.9867   32.6515 H   0  0  0  0  0
   64.9237 -133.2676   32.0754 H   0  0  0  0  0
   62.3910 -136.6165   36.6993 H   0  0  0  0  0
   61.1759 -135.3110   39.0710 H   0  0  0  0  0
   61.0132 -137.6341   40.0052 H   0  0  0  0  0
   61.5613 -138.2205   38.3395 H   0  0  0  0  0
   59.4845 -136.8214   37.5982 H   0  0  0  0  0
   58.5796 -137.6060   40.4014 H   0  0  0  0  0
   58.7503 -135.9522   39.7637 H   0  0  0  0  0
   57.5127 -137.0422   39.0919 H   0  0  0  0  0
   59.8247 -139.3104   37.2691 H   0  0  0  0  0
   59.2926 -139.6071   38.9424 H   0  0  0  0  0
   58.1344 -138.9982   37.7345 H   0  0  0  0  0
   60.3479 -138.1186   41.5367 H   0  0  0  0  0
   59.8140 -139.5017   42.5230 H   0  0  0  0  0
   59.6339 -137.8427   43.1445 H   0  0  0  0  0
   62.2378 -136.3811   44.0109 H   0  0  0  0  0
   61.9168 -136.5132   42.1977 H   0  0  0  0  0
   64.4046 -137.6400   42.4437 H   0  0  0  0  0
   64.4811 -136.3962   43.7003 H   0  0  0  0  0
   65.0581 -135.6984   41.1101 H   0  0  0  0  0
   64.6626 -134.4291   43.3445 H   0  0  0  0  0
   63.0520 -133.9589   42.4227 H   0  0  0  0  0
   63.8070 -131.7762   43.3944 H   0  0  0  0  0
   64.8095 -129.6339   42.6588 H   0  0  0  0  0
   67.5592 -129.3230   40.3869 H   0  0  0  0  0
   66.3396 -128.4933   41.5032 H   0  0  0  0  0
   66.3529 -127.5948   39.3171 H   0  0  0  0  0
   66.0020 -129.0861   38.6615 H   0  0  0  0  0
   64.9034 -128.3386   39.6671 H   0  0  0  0  0
   66.9289 -131.7093   39.5252 H   0  0  0  0  0
   65.9212 -133.8656   40.2627 H   0  0  0  0  0
   62.0759 -135.4290   41.1268 H   0  0  0  0  0
  1  2  2  0  0  0
  1  3  1  0  0  0
 14  1  1  0  0  0
  3  4  1  0  0  0
  3  7  1  0  0  0
  4  5  2  0  0  0
  5  6  3  0  0  0
  7  8  1  0  0  0
  8  9  4  0  0  0
  8 11  4  0  0  0
  9 10  4  0  0  0
 10 13  4  0  0  0
 11 12  4  0  0  0
 12 13  4  0  0  0
 15 14  1  0  0  0
 16 15  1  0  0  0
 15 18  1  0  0  0
 16 17  2  0  0  0
 22 16  1  0  0  0
 18 19  1  0  0  0
 19 20  1  0  0  0
 19 21  1  0  0  0
 23 22  1  0  0  0
 24 23  1  0  0  0
 23 26  1  0  0  0
 24 25  2  0  0  0
 46 24  1  0  0  0
 26 27  1  0  0  0
 27 28  1  0  0  0
 27 29  1  0  0  0
 31 30  2  0  0  0
 31 32  2  0  0  0
 31 33  1  0  0  0
 34 31  1  0  0  0
 35 34  1  0  0  0
 36 35  1  0  0  0
 36 37  1  0  0  0
 36 46  1  0  0  0
 37 38  1  0  0  0
 38 39  4  0  0  0
 38 45  4  0  0  0
 39 40  4  0  0  0
 40 41  4  0  0  0
 41 42  1  0  0  0
 41 44  4  0  0  0
 42 43  1  0  0  0
 44 45  4  0  0  0
  3 47  1  0  0  0
  7 48  1  0  0  0
  7 49  1  0  0  0
  9 50  1  0  0  0
 10 51  1  0  0  0
 11 52  1  0  0  0
 12 53  1  0  0  0
 13 54  1  0  0  0
 14 55  1  0  0  0
 15 56  1  0  0  0
 18 57  1  0  0  0
 18 58  1  0  0  0
 19 59  1  0  0  0
 20 60  1  0  0  0
 20 61  1  0  0  0
 20 62  1  0  0  0
 21 63  1  0  0  0
 21 64  1  0  0  0
 21 65  1  0  0  0
 22 66  1  0  0  0
 23 67  1  0  0  0
 26 68  1  0  0  0
 26 69  1  0  0  0
 27 70  1  0  0  0
 28 71  1  0  0  0
 28 72  1  0  0  0
 28 73  1  0  0  0
 29 74  1  0  0  0
 29 75  1  0  0  0
 29 76  1  0  0  0
 33 77  1  0  0  0
 33 78  1  0  0  0
 33 79  1  0  0  0
 34 80  1  0  0  0
 34 81  1  0  0  0
 35 82  1  0  0  0
 35 83  1  0  0  0
 36 84  1  0  0  0
 37 85  1  0  0  0
 37 86  1  0  0  0
 39 87  1  0  0  0
 40 88  1  0  0  0
 42 89  1  0  0  0
 42 90  1  0  0  0
 43 91  1  0  0  0
 43 92  1  0  0  0
 43 93  1  0  0  0
 44 94  1  0  0  0
 45 95  1  0  0  0
 46 96  1  0  0  0
M  END
$$$$
