5wdc_ligand
  -I-interpret- 

 60 63  0  0  0  0  0  0  0  0999 V2000
  493.4200  197.2150  556.5200 C   0  0  0  0  0
  497.4000  190.2520  553.6030 C   0  0  0  0  0
  497.1080  190.5040  552.2840 C   0  0  0  0  0
  497.3350  191.7630  551.7490 C   0  0  0  0  0
  493.1180  195.1510  555.3450 C   0  0  0  0  0
  492.2960  193.9260  555.0070 C   0  0  0  0  0
  492.2700  192.8690  556.1220 C   0  0  0  0  0
  493.5970  192.1570  555.9110 C   0  0  0  0  0
  493.6000  191.9510  554.4120 C   0  0  0  0  0
  492.8270  193.5200  552.6260 C   0  0  0  0  0
  493.5960  192.7040  551.6110 C   0  0  0  0  0
  494.6750  197.2970  555.9210 C   0  0  0  0  0
  494.1390  194.3500  549.9540 C   0  0  0  0  0
  494.8710  195.1430  550.8370 C   0  0  0  0  0
  495.5150  196.2810  550.3840 C   0  0  0  0  0
  495.4540  196.6420  549.0560 C   0  0  0  0  0
  494.7460  195.8740  548.1670 C   0  0  0  0  0
  494.0960  194.7360  548.6160 C   0  0  0  0  0
  495.0950  196.3130  555.0770 C   0  0  0  0  0
  496.4480  196.3830  554.4150 C   0  0  0  0  0
  498.0540  195.2550  552.9750 C   0  0  0  0  0
  498.1040  194.1530  551.9450 C   0  0  0  0  0
  497.8540  192.7830  552.5310 C   0  0  0  0  0
  498.1470  192.5100  553.8580 C   0  0  0  0  0
  497.9170  191.2510  554.3900 C   0  0  0  0  0
  496.7380  195.3740  553.5970 N   0  0  0  0  0
  494.3290  195.2500  554.7920 N   0  0  0  0  0
  492.9060  193.1470  553.9140 N   0  0  0  0  0
  492.6570  196.1120  556.2040 N   0  0  0  0  0
  492.9750  198.0690  557.3000 O   0  0  0  0  0
  495.4030  198.3760  556.2370 O   0  0  0  0  0
  497.2120  197.3210  554.6360 O   0  0  0  0  0
  493.4680  193.2110  550.2860 O   0  0  0  0  0
  492.1530  194.4930  552.2970 O   0  0  0  0  0
  493.2010  193.7680  547.4820 Cl  0  0  0  0  0
  497.2217  189.2621  554.0230 H   0  0  0  0  0
  496.6971  189.7126  551.6571 H   0  0  0  0  0
  497.1026  191.9528  550.7011 H   0  0  0  0  0
  491.3156  194.3504  554.7905 H   0  0  0  0  0
  491.4086  192.2034  556.0668 H   0  0  0  0  0
  492.1618  193.2952  557.1194 H   0  0  0  0  0
  493.6874  191.2299  556.4771 H   0  0  0  0  0
  494.4557  192.7221  556.2735 H   0  0  0  0  0
  493.1127  191.0234  554.1116 H   0  0  0  0  0
  494.6041  191.8432  554.0019 H   0  0  0  0  0
  493.1932  191.6912  551.6218 H   0  0  0  0  0
  494.6510  192.7407  551.8826 H   0  0  0  0  0
  494.9362  194.8652  551.8890 H   0  0  0  0  0
  496.0764  196.8982  551.0854 H   0  0  0  0  0
  495.9688  197.5388  548.7113 H   0  0  0  0  0
  494.6952  196.1569  547.1156 H   0  0  0  0  0
  498.2771  196.1967  552.4734 H   0  0  0  0  0
  498.7770  195.0204  553.7562 H   0  0  0  0  0
  499.1038  194.1503  551.5108 H   0  0  0  0  0
  497.3207  194.3481  551.2126 H   0  0  0  0  0
  498.5630  193.2944  554.4903 H   0  0  0  0  0
  498.1474  191.0534  555.4369 H   0  0  0  0  0
  496.0269  194.6697  553.4006 H   0  0  0  0  0
  491.7306  196.0096  556.6182 H   0  0  0  0  0
  494.9065  198.9288  556.8448 H   0  0  0  0  0
 12  1  1  0  0  0
  1 29  1  0  0  0
  1 30  2  0  0  0
  3  2  4  0  0  0
  2 25  4  0  0  0
  4  3  4  0  0  0
 23  4  4  0  0  0
  5  6  1  0  0  0
 27  5  2  0  0  0
  5 29  1  0  0  0
  6  7  1  0  0  0
  6 28  1  0  0  0
  7  8  1  0  0  0
  9  8  1  0  0  0
 28  9  1  0  0  0
 10 11  1  0  0  0
 28 10  1  0  0  0
 10 34  2  0  0  0
 11 33  1  0  0  0
 19 12  2  0  0  0
 12 31  1  0  0  0
 13 14  4  0  0  0
 13 18  4  0  0  0
 33 13  1  0  0  0
 14 15  4  0  0  0
 15 16  4  0  0  0
 17 16  4  0  0  0
 18 17  4  0  0  0
 18 35  1  0  0  0
 20 19  1  0  0  0
 19 27  1  0  0  0
 26 20  1  0  0  0
 20 32  2  0  0  0
 22 21  1  0  0  0
 21 26  1  0  0  0
 22 23  1  0  0  0
 23 24  4  0  0  0
 24 25  4  0  0  0
  2 36  1  0  0  0
  3 37  1  0  0  0
  4 38  1  0  0  0
  6 39  1  0  0  0
  7 40  1  0  0  0
  7 41  1  0  0  0
  8 42  1  0  0  0
  8 43  1  0  0  0
  9 44  1  0  0  0
  9 45  1  0  0  0
 11 46  1  0  0  0
 11 47  1  0  0  0
 14 48  1  0  0  0
 15 49  1  0  0  0
 16 50  1  0  0  0
 17 51  1  0  0  0
 21 52  1  0  0  0
 21 53  1  0  0  0
 22 54  1  0  0  0
 22 55  1  0  0  0
 24 56  1  0  0  0
 25 57  1  0  0  0
 26 58  1  0  0  0
 29 59  1  0  0  0
 31 60  1  0  0  0
M  END
$$$$
