5lvq_ligand
  -I-interpret- 

 34 35  0  0  0  0  0  0  0  0999 V2000
   22.2200    3.9050   55.9270 C   0  0  0  0  0
   21.7180    2.5420   55.9760 N   0  0  0  0  0
   21.7090    1.8350   57.1070 C   0  0  0  0  0
   21.0980    0.4530   57.0810 C   0  0  0  0  0
   21.1910   -0.2600   58.2810 C   0  0  0  0  0
   20.8110   -1.5970   58.3590 C   0  0  0  0  0
   20.3170   -2.2560   57.2420 C   0  0  0  0  0
   20.1670   -1.5790   56.0430 C   0  0  0  0  0
   20.5290   -0.2170   55.9670 C   0  0  0  0  0
   20.2520    0.5740   54.8690 O   0  0  0  0  0
   20.0470   -0.0900   53.5790 C   0  0  0  0  0
   21.3890   -0.1670   52.8920 C   0  0  0  0  0
   21.2170   -0.7220   51.4930 C   0  0  0  0  0
   20.3200    0.0690   50.7290 O   0  0  0  0  0
   19.0330    0.1230   51.3810 C   0  0  0  0  0
   19.0490    0.7190   52.7740 C   0  0  0  0  0
   22.1500    2.3100   58.1560 O   0  0  0  0  0
   21.6364    4.5303   56.6026 H   0  0  0  0  0
   23.2664    3.9166   56.2320 H   0  0  0  0  0
   22.1324    4.2867   54.9098 H   0  0  0  0  0
   21.3625    2.1139   55.1212 H   0  0  0  0  0
   21.5684    0.2411   59.1724 H   0  0  0  0  0
   20.9022   -2.1306   59.3051 H   0  0  0  0  0
   20.0462   -3.3097   57.3085 H   0  0  0  0  0
   19.7731   -2.0933   55.1664 H   0  0  0  0  0
   19.6478   -1.0979   53.6928 H   0  0  0  0  0
   22.0487   -0.8218   53.4613 H   0  0  0  0  0
   21.8221    0.8316   52.8333 H   0  0  0  0  0
   20.8111   -1.7308   51.5682 H   0  0  0  0  0
   22.1881   -0.7201   50.9980 H   0  0  0  0  0
   18.6864   -0.9055   51.4815 H   0  0  0  0  0
   18.3964    0.7636   50.7707 H   0  0  0  0  0
   19.3336    1.7708   52.7445 H   0  0  0  0  0
   18.0584    0.6776   53.2268 H   0  0  0  0  0
  1  2  1  0  0  0
  2  3  1  0  0  0
  3  4  1  0  0  0
  3 17  2  0  0  0
  4  5  4  0  0  0
  4  9  4  0  0  0
  5  6  4  0  0  0
  6  7  4  0  0  0
  7  8  4  0  0  0
  8  9  4  0  0  0
  9 10  1  0  0  0
 10 11  1  0  0  0
 11 12  1  0  0  0
 11 16  1  0  0  0
 12 13  1  0  0  0
 13 14  1  0  0  0
 14 15  1  0  0  0
 15 16  1  0  0  0
  1 18  1  0  0  0
  1 19  1  0  0  0
  1 20  1  0  0  0
  2 21  1  0  0  0
  5 22  1  0  0  0
  6 23  1  0  0  0
  7 24  1  0  0  0
  8 25  1  0  0  0
 11 26  1  0  0  0
 12 27  1  0  0  0
 12 28  1  0  0  0
 13 29  1  0  0  0
 13 30  1  0  0  0
 15 31  1  0  0  0
 15 32  1  0  0  0
 16 33  1  0  0  0
 16 34  1  0  0  0
M  END
$$$$
