3zv7_ligand
  -I-interpret- 

 29 31  0  0  0  0  0  0  0  0999 V2000
    4.8490   65.3380   62.5980 C   0  0  0  0  0
    4.0400   66.3360   63.1300 C   0  0  0  0  0
    3.8840   67.8070   62.7450 C   0  0  0  0  0
    3.4270   67.9780   61.2940 C   0  0  0  0  0
    5.1690   68.5790   63.0450 C   0  0  0  0  0
    5.0610   68.6620   64.5660 C   0  0  0  0  0
    3.6820   69.1500   64.7100 N   0  3  0  0  0
    2.8880   68.3240   63.7850 C   0  0  0  0  0
    2.4050   67.1090   64.4600 N   0  0  0  0  0
    3.1100   66.0300   64.1210 C   0  0  0  0  0
    2.9960   64.7140   64.5560 C   0  0  0  0  0
    3.8030   63.7130   64.0270 C   0  0  0  0  0
    4.7380   64.0270   63.0470 C   0  0  0  0  0
    5.5700   63.0680   62.5570 O   0  0  0  0  0
    5.5752   65.5853   61.8236 H   0  0  0  0  0
    2.4950   67.4338   61.1414 H   0  0  0  0  0
    3.2694   69.0364   61.0864 H   0  0  0  0  0
    4.1924   67.5852   60.6247 H   0  0  0  0  0
    5.2508   69.5418   62.5405 H   0  0  0  0  0
    6.0805   68.1074   62.6777 H   0  0  0  0  0
    5.8110   69.3011   65.0320 H   0  0  0  0  0
    5.2565   67.7203   65.0789 H   0  0  0  0  0
    3.6071   70.1431   64.4898 H   0  0  0  0  0
    3.3499   69.0677   65.6709 H   0  0  0  0  0
    2.0550   68.9065   63.3915 H   0  0  0  0  0
    1.6209   67.0943   65.1122 H   0  0  0  0  0
    2.2631   64.4636   65.3230 H   0  0  0  0  0
    3.7031   62.6863   64.3791 H   0  0  0  0  0
    5.3624   62.2255   62.9677 H   0  0  0  0  0
  1  2  4  0  0  0
  1 13  4  0  0  0
  2  3  1  0  0  0
  2 10  4  0  0  0
  3  4  1  0  0  0
  3  5  1  0  0  0
  3  8  1  0  0  0
  5  6  1  0  0  0
  6  7  1  0  0  0
  7  8  1  0  0  0
  8  9  1  0  0  0
  9 10  1  0  0  0
 10 11  4  0  0  0
 11 12  4  0  0  0
 12 13  4  0  0  0
 13 14  1  0  0  0
  1 15  1  0  0  0
  4 16  1  0  0  0
  4 17  1  0  0  0
  4 18  1  0  0  0
  5 19  1  0  0  0
  5 20  1  0  0  0
  6 21  1  0  0  0
  6 22  1  0  0  0
  7 23  1  0  0  0
  7 24  1  0  0  0
  8 25  1  0  0  0
  9 26  1  0  0  0
 11 27  1  0  0  0
 12 28  1  0  0  0
 14 29  1  0  0  0
M  END
$$$$
