4ahs_ligand
  -I-interpret- 

 18 19  0  0  0  0  0  0  0  0999 V2000
  -15.5130   20.2680  -10.7570 C   0  0  0  0  0
  -16.5350   19.9790  -11.6690 C   0  0  0  0  0
  -17.4470   20.9660  -12.3540 C   0  0  0  0  0
  -18.2890   20.0010  -13.1750 C   0  0  0  0  0
  -14.7740   19.2290  -10.2400 C   0  0  0  0  0
  -15.0580   17.9310  -10.6550 C   0  0  0  0  0
  -16.0660   17.6140  -11.5690 C   0  0  0  0  0
  -16.3240   16.1750  -11.9280 C   0  0  0  0  0
  -17.0720   15.9140  -12.9330 O   0  0  0  0  0
  -16.8200   18.6790  -12.0610 C   0  0  0  0  0
  -15.8020   15.2980  -11.1610 O   0  0  0  0  0
  -17.8760   18.6150  -12.9730 O   0  0  0  0  0
  -15.3066   21.2968  -10.4620 H   0  0  0  0  0
  -17.4901   22.0528  -12.2819 H   0  0  0  0  0
  -19.1017   20.3069  -13.8339 H   0  0  0  0  0
  -13.9799   19.4190   -9.5179 H   0  0  0  0  0
  -14.4609   17.1169  -10.2441 H   0  0  0  0  0
  -17.3414   16.7348  -13.3517 H   0  0  0  0  0
  1  2  4  0  0  0
  1  5  4  0  0  0
  2  3  4  0  0  0
  2 10  4  0  0  0
  3  4  4  0  0  0
  4 12  4  0  0  0
  5  6  4  0  0  0
  6  7  4  0  0  0
  7  8  1  0  0  0
  7 10  4  0  0  0
  8  9  1  0  0  0
  8 11  2  0  0  0
 10 12  4  0  0  0
  1 13  1  0  0  0
  3 14  1  0  0  0
  4 15  1  0  0  0
  5 16  1  0  0  0
  6 17  1  0  0  0
  9 18  1  0  0  0
M  END
$$$$
