### 
### Created by X-TOOL on Mon Sep 10 21:13:33 2018
### 

@<TRIPOS>MOLECULE
5nwi_ligand
   83    84     1     0     0
SMALL
GAST_HUCK


@<TRIPOS>ATOM
      1 N         -30.8120   31.2480   -3.9940 N.4       1 TYR         0.2392
      2 CA        -31.2110   31.8650   -2.7250 C.3       1 TYR         0.0730
      3 C         -29.9850   31.9450   -1.8040 C.2       1 TYR         0.2287
      4 O         -29.4640   30.9290   -1.3430 O.2       1 TYR        -0.3905
      5 CB        -32.3710   31.0810   -2.0800 C.3       1 TYR         0.0365
      6 CG        -33.5410   30.8310   -3.0370 C.ar      1 TYR        -0.0460
      7 CD1       -34.0490   31.8590   -3.8450 C.ar      1 TYR        -0.0684
      8 CD2       -34.1080   29.5560   -3.1670 C.ar      1 TYR        -0.0684
      9 CE1       -35.1110   31.6300   -4.7390 C.ar      1 TYR        -0.0398
     10 CE2       -35.1660   29.3140   -4.0630 C.ar      1 TYR        -0.0398
     11 CZ        -35.6640   30.3540   -4.8460 C.ar      1 TYR         0.0805
     12 OH        -36.7110   30.1120   -5.7290 O.3       1 TYR        -0.3376
     13 N         -29.5110   33.1650   -1.5750 N.am      1 PHE        -0.2591
     14 CA        -28.2680   33.4080   -0.8570 C.3       1 PHE         0.1406
     15 C         -28.5210   33.7210    0.6120 C.2       1 PHE         0.2060
     16 O         -29.6510   33.9470    1.0600 O.2       1 PHE        -0.3942
     17 CB        -27.4930   34.5550   -1.4990 C.3       1 PHE         0.0214
     18 CG        -27.1430   34.2920   -2.9000 C.ar      1 PHE        -0.0386
     19 CD1       -25.9970   33.5850   -3.2150 C.ar      1 PHE        -0.0601
     20 CD2       -27.9830   34.6980   -3.9210 C.ar      1 PHE        -0.0601
     21 CE1       -25.6810   33.3060   -4.5400 C.ar      1 PHE        -0.0686
     22 CE2       -27.6670   34.4230   -5.2550 C.ar      1 PHE        -0.0686
     23 CZ        -26.5160   33.7290   -5.5590 C.ar      1 PHE        -0.0687
     24 N         -27.4240   33.7530    1.3550 N.am      1 SER        -0.2614
     25 CA        -27.4770   33.9890    2.7710 C.3       1 SER         0.1539
     26 C         -27.7500   35.4520    3.0610 C.2       1 SER         0.2063
     27 O         -27.0640   36.3290    2.5330 O.2       1 SER        -0.3943
     28 CB        -26.1620   33.5450    3.4230 C.3       1 SER         0.0843
     29 OG        -25.9050   32.1810    3.1630 O.3       1 SER        -0.3903
     30 N         -28.6780   35.6990    3.9860 N.am      1 SEP        -0.2612
     31 CA        -29.0390   37.0450    4.4090 C.3       1 SEP         0.1586
     32 CB        -30.3250   37.4700    3.7100 C.3       1 SEP         0.1184
     33 OG        -31.4260   36.7510    4.2620 O.3       1 SEP        -0.2714
     34 C         -29.2400   37.0890    5.9070 C.2       1 SEP         0.2061
     35 O         -29.7010   36.0890    6.4980 O.2       1 SEP        -0.3943
     36 P         -32.9370   37.2350    3.9910 P.3       1 SEP         0.2010
     37 O1P       -33.0760   37.1700    2.4880 O.co2     1 SEP        -0.5537
     38 O2P       -33.7810   36.2310    4.7380 O.co2     1 SEP        -0.5537
     39 O3P       -32.9790   38.6320    4.5610 O.co2     1 SEP        -0.5537
     40 N         -28.9070   38.2190    6.5320 N.am      1 ASN        -0.2673
     41 CA        -29.0490   38.4080    7.9680 C.3       1 ASN         0.1110
     42 C         -30.4890   38.8760    8.2500 C.2       1 ASN         0.0624
     43 O         -31.4660   38.3160    7.7220 O.co2     1 ASN        -0.5665
     44 CB        -28.0040   39.4220    8.4650 C.3       1 ASN         0.0718
     45 CG        -27.9940   39.5660    9.9680 C.2       1 ASN         0.1774
     46 OD1       -28.2780   40.6430   10.5080 O.2       1 ASN        -0.3971
     47 ND2       -27.6760   38.4760   10.6590 N.am      1 ASN        -0.3007
     48 OXT       -30.7230   39.8430    8.9830 O.co2     1 ASN        -0.5665
     49 H1        -31.6111   31.1911   -4.6058 H         1 TYR         0.2017
     50 H2        -30.4557   30.3213   -3.8197 H         1 TYR         0.2017
     51 H3        -30.0951   31.8074   -4.4289 H         1 TYR         0.2017
     52 H4        -31.5616   32.8881   -2.9257 H         1 TYR         0.1120
     53 H5        -32.7422   31.6538   -1.2173 H         1 TYR         0.0486
     54 H6        -31.9870   30.1089   -1.7370 H         1 TYR         0.0486
     55 H7        -33.6145   32.8499   -3.7793 H         1 TYR         0.0530
     56 H8        -33.7241   28.7400   -2.5655 H         1 TYR         0.0530
     57 H9        -35.4983   32.4427   -5.3428 H         1 TYR         0.0525
     58 H10       -35.5927   28.3208   -4.1440 H         1 TYR         0.0525
     59 H11       -36.9321   30.9160   -6.1842 H         1 TYR         0.2458
     60 H12       -30.0308   33.9507   -1.9105 H         1 PHE         0.1886
     61 H13       -27.6551   32.4964   -0.9156 H         1 PHE         0.0823
     62 H14       -26.5657   34.7147   -0.9293 H         1 PHE         0.0474
     63 H15       -28.1109   35.4640   -1.4560 H         1 PHE         0.0474
     64 H16       -25.3398   33.2456   -2.4226 H         1 PHE         0.0557
     65 H17       -28.8949   35.2344   -3.6848 H         1 PHE         0.0557
     66 H18       -24.7775   32.7553   -4.7754 H         1 PHE         0.0599
     67 H19       -28.3263   34.7552   -6.0487 H         1 PHE         0.0599
     68 H20       -26.2658   33.5154   -6.5919 H         1 PHE         0.0559
     69 H21       -26.5359   33.6091    0.9184 H         1 SER         0.1884
     70 H22       -28.2976   33.3917    3.1951 H         1 SER         0.0823
     71 H23       -26.2297   33.6976    4.5102 H         1 SER         0.0606
     72 H24       -25.3373   34.1501    3.0184 H         1 SER         0.0606
     73 H25       -25.8422   32.0449    2.2248 H         1 SER         0.2097
     74 H26       -29.1479   34.9241    4.4089 H         1 SEP         0.1884
     75 H27       -28.2302   37.7379    4.1339 H         1 SEP         0.0827
     76 H28       -30.2471   37.2522    2.6346 H         1 SEP         0.0662
     77 H29       -30.4819   38.5490    3.8552 H         1 SEP         0.0662
     78 H30       -28.5417   38.9737    5.9871 H         1 ASN         0.1877
     79 H31       -28.8790   37.4497    8.4806 H         1 ASN         0.0752
     80 H32       -28.2272   40.4028    8.0199 H         1 ASN         0.0544
     81 H33       -27.0081   39.0888    8.1377 H         1 ASN         0.0544
     82 H34       -27.6518   38.5068   11.6582 H         1 ASN         0.1814
     83 H35       -27.4610   37.6251   10.1796 H         1 ASN         0.1814
@<TRIPOS>BOND
     1    1    2 1  
     2    2    3 1  
     3    2    5 1  
     4    3    4 2  
     5    3   13 am 
     6    5    6 1  
     7    6    7 ar 
     8    6    8 ar 
     9    7    9 ar 
    10    8   10 ar 
    11    9   11 ar 
    12   10   11 ar 
    13   11   12 1  
    14   13   14 1  
    15   14   15 1  
    16   14   17 1  
    17   15   16 2  
    18   15   24 am 
    19   17   18 1  
    20   18   19 ar 
    21   18   20 ar 
    22   19   21 ar 
    23   20   22 ar 
    24   21   23 ar 
    25   22   23 ar 
    26   24   25 1  
    27   25   26 1  
    28   25   28 1  
    29   26   27 2  
    30   26   30 am 
    31   28   29 1  
    32   30   31 1  
    33   31   32 1  
    34   31   34 1  
    35   32   33 1  
    36   33   36 1  
    37   34   35 2  
    38   34   40 am 
    39   36   37 ar 
    40   36   38 ar 
    41   36   39 ar 
    42   40   41 1  
    43   41   42 1  
    44   41   44 1  
    45   42   43 ar 
    46   42   48 ar 
    47   44   45 1  
    48   45   46 2  
    49   45   47 am 
    50    1   49 1  
    51    1   50 1  
    52    1   51 1  
    53    2   52 1  
    54    5   53 1  
    55    5   54 1  
    56    7   55 1  
    57    8   56 1  
    58    9   57 1  
    59   10   58 1  
    60   12   59 1  
    61   13   60 1  
    62   14   61 1  
    63   17   62 1  
    64   17   63 1  
    65   19   64 1  
    66   20   65 1  
    67   21   66 1  
    68   22   67 1  
    69   23   68 1  
    70   24   69 1  
    71   25   70 1  
    72   28   71 1  
    73   28   72 1  
    74   29   73 1  
    75   30   74 1  
    76   31   75 1  
    77   32   76 1  
    78   32   77 1  
    79   40   78 1  
    80   41   79 1  
    81   44   80 1  
    82   44   81 1  
    83   47   82 1  
    84   47   83 1  
@<TRIPOS>SUBSTRUCTURE
     1 TYR         1

