5nwi_ligand
  -I-interpret- 

 86 87  0  0  0  0  0  0  0  0999 V2000
  -30.8120   31.2480   -3.9940 N   0  3  0  0  0
  -31.2110   31.8650   -2.7250 C   0  0  0  0  0
  -29.9850   31.9450   -1.8040 C   0  0  0  0  0
  -29.4640   30.9290   -1.3430 O   0  0  0  0  0
  -32.3710   31.0810   -2.0800 C   0  0  0  0  0
  -33.5410   30.8310   -3.0370 C   0  0  0  0  0
  -34.0490   31.8590   -3.8450 C   0  0  0  0  0
  -34.1080   29.5560   -3.1670 C   0  0  0  0  0
  -35.1110   31.6300   -4.7390 C   0  0  0  0  0
  -35.1660   29.3140   -4.0630 C   0  0  0  0  0
  -35.6640   30.3540   -4.8460 C   0  0  0  0  0
  -36.7110   30.1120   -5.7290 O   0  0  0  0  0
  -29.5110   33.1650   -1.5750 N   0  0  0  0  0
  -28.2680   33.4080   -0.8570 C   0  0  0  0  0
  -28.5210   33.7210    0.6120 C   0  0  0  0  0
  -29.6510   33.9470    1.0600 O   0  0  0  0  0
  -27.4930   34.5550   -1.4990 C   0  0  0  0  0
  -27.1430   34.2920   -2.9000 C   0  0  0  0  0
  -25.9970   33.5850   -3.2150 C   0  0  0  0  0
  -27.9830   34.6980   -3.9210 C   0  0  0  0  0
  -25.6810   33.3060   -4.5400 C   0  0  0  0  0
  -27.6670   34.4230   -5.2550 C   0  0  0  0  0
  -26.5160   33.7290   -5.5590 C   0  0  0  0  0
  -27.4240   33.7530    1.3550 N   0  0  0  0  0
  -27.4770   33.9890    2.7710 C   0  0  0  0  0
  -27.7500   35.4520    3.0610 C   0  0  0  0  0
  -27.0640   36.3290    2.5330 O   0  0  0  0  0
  -26.1620   33.5450    3.4230 C   0  0  0  0  0
  -25.9050   32.1810    3.1630 O   0  0  0  0  0
  -28.6780   35.6990    3.9860 N   0  0  0  0  0
  -29.0390   37.0450    4.4090 C   0  0  0  0  0
  -30.3250   37.4700    3.7100 C   0  0  0  0  0
  -31.4260   36.7510    4.2620 O   0  0  0  0  0
  -29.2400   37.0890    5.9070 C   0  0  0  0  0
  -29.7010   36.0890    6.4980 O   0  0  0  0  0
  -32.9370   37.2350    3.9910 P   0  0  0  0  0
  -33.0760   37.1700    2.4880 O   0  0  0  0  0
  -33.7810   36.2310    4.7380 O   0  0  0  0  0
  -32.9790   38.6320    4.5610 O   0  0  0  0  0
  -28.9070   38.2190    6.5320 N   0  0  0  0  0
  -29.0490   38.4080    7.9680 C   0  0  0  0  0
  -30.4890   38.8760    8.2500 C   0  0  0  0  0
  -31.4660   38.3160    7.7220 O   0  0  0  0  0
  -28.0040   39.4220    8.4650 C   0  0  0  0  0
  -27.9940   39.5660    9.9680 C   0  0  0  0  0
  -28.2780   40.6430   10.5080 O   0  0  0  0  0
  -27.6760   38.4760   10.6590 N   0  0  0  0  0
  -30.7230   39.8430    8.9830 O   0  0  0  0  0
  -30.0448   31.7810   -4.4034 H   0  0  0  0  0
  -30.5086   30.2891   -3.8239 H   0  0  0  0  0
  -31.6060   31.2461   -4.6343 H   0  0  0  0  0
  -31.5776   32.8763   -2.9012 H   0  0  0  0  0
  -32.7478   31.6760   -1.2481 H   0  0  0  0  0
  -31.9820   30.1095   -1.7750 H   0  0  0  0  0
  -33.6121   32.8554   -3.7789 H   0  0  0  0  0
  -33.7219   28.7355   -2.5622 H   0  0  0  0  0
  -35.5004   32.4472   -5.3461 H   0  0  0  0  0
  -35.5951   28.3153   -4.1444 H   0  0  0  0  0
  -36.9671   29.1884   -5.6745 H   0  0  0  0  0
  -30.0412   33.9664   -1.9172 H   0  0  0  0  0
  -27.6762   32.4945   -0.9154 H   0  0  0  0  0
  -26.5650   34.6835   -0.9419 H   0  0  0  0  0
  -28.1273   35.4411   -1.4744 H   0  0  0  0  0
  -25.3361   33.2437   -2.4182 H   0  0  0  0  0
  -28.8999   35.2374   -3.6835 H   0  0  0  0  0
  -24.7725   32.7522   -4.7767 H   0  0  0  0  0
  -28.3300   34.7570   -6.0531 H   0  0  0  0  0
  -26.2644   33.5142   -6.5976 H   0  0  0  0  0
  -26.5182   33.6062    0.9096 H   0  0  0  0  0
  -28.2942   33.4044    3.1934 H   0  0  0  0  0
  -26.2400   33.6874    4.5008 H   0  0  0  0  0
  -25.3477   34.1398    3.0093 H   0  0  0  0  0
  -25.0786   31.9270    3.5803 H   0  0  0  0  0
  -29.1573   34.9086    4.4173 H   0  0  0  0  0
  -28.2321   37.7273    4.1415 H   0  0  0  0  0
  -30.2477   37.2543    2.6444 H   0  0  0  0  0
  -30.4805   38.5392    3.8538 H   0  0  0  0  0
  -33.0399   36.2538    2.2038 H   0  0  0  0  0
  -33.7019   35.3719    4.3170 H   0  0  0  0  0
  -28.5344   38.9888    5.9762 H   0  0  0  0  0
  -28.8721   37.4764    8.5055 H   0  0  0  0  0
  -31.1601   37.5851    7.1800 H   0  0  0  0  0
  -28.2539   40.3937    8.0390 H   0  0  0  0  0
  -27.0210   39.0647    8.1581 H   0  0  0  0  0
  -27.6589   38.5053   11.6784 H   0  0  0  0  0
  -27.4491   37.6102   10.1698 H   0  0  0  0  0
  1  2  1  0  0  0
  2  3  1  0  0  0
  2  5  1  0  0  0
  3  4  2  0  0  0
  3 13  1  0  0  0
  5  6  1  0  0  0
  6  7  4  0  0  0
  6  8  4  0  0  0
  7  9  4  0  0  0
  8 10  4  0  0  0
  9 11  4  0  0  0
 10 11  4  0  0  0
 11 12  1  0  0  0
 13 14  1  0  0  0
 14 15  1  0  0  0
 14 17  1  0  0  0
 15 16  2  0  0  0
 15 24  1  0  0  0
 17 18  1  0  0  0
 18 19  4  0  0  0
 18 20  4  0  0  0
 19 21  4  0  0  0
 20 22  4  0  0  0
 21 23  4  0  0  0
 22 23  4  0  0  0
 24 25  1  0  0  0
 25 26  1  0  0  0
 25 28  1  0  0  0
 26 27  2  0  0  0
 26 30  1  0  0  0
 28 29  1  0  0  0
 30 31  1  0  0  0
 31 32  1  0  0  0
 31 34  1  0  0  0
 32 33  1  0  0  0
 33 36  1  0  0  0
 34 35  2  0  0  0
 34 40  1  0  0  0
 36 37  1  0  0  0
 36 38  1  0  0  0
 36 39  2  0  0  0
 40 41  1  0  0  0
 41 42  1  0  0  0
 41 44  1  0  0  0
 42 43  1  0  0  0
 42 48  2  0  0  0
 44 45  1  0  0  0
 45 46  2  0  0  0
 45 47  1  0  0  0
  1 49  1  0  0  0
  1 50  1  0  0  0
  1 51  1  0  0  0
  2 52  1  0  0  0
  5 53  1  0  0  0
  5 54  1  0  0  0
  7 55  1  0  0  0
  8 56  1  0  0  0
  9 57  1  0  0  0
 10 58  1  0  0  0
 12 59  1  0  0  0
 13 60  1  0  0  0
 14 61  1  0  0  0
 17 62  1  0  0  0
 17 63  1  0  0  0
 19 64  1  0  0  0
 20 65  1  0  0  0
 21 66  1  0  0  0
 22 67  1  0  0  0
 23 68  1  0  0  0
 24 69  1  0  0  0
 25 70  1  0  0  0
 28 71  1  0  0  0
 28 72  1  0  0  0
 29 73  1  0  0  0
 30 74  1  0  0  0
 31 75  1  0  0  0
 32 76  1  0  0  0
 32 77  1  0  0  0
 37 78  1  0  0  0
 38 79  1  0  0  0
 40 80  1  0  0  0
 41 81  1  0  0  0
 43 82  1  0  0  0
 44 83  1  0  0  0
 44 84  1  0  0  0
 47 85  1  0  0  0
 47 86  1  0  0  0
M  END
$$$$
