6hm2_ligand
  -I-interpret- 

 39 39  0  0  0  0  0  0  0  0999 V2000
   20.4740  -28.0120   18.7200 O   0  0  0  0  0
   19.2490  -27.8390   18.9150 C   0  0  0  0  0
   18.2880  -28.1720   17.9660 C   0  0  0  0  0
   16.9140  -28.0390   18.5890 C   0  0  0  0  0
   17.1650  -27.3850   19.9220 C   0  0  0  0  0
   16.4240  -28.0660   20.9560 C   0  0  0  0  0
   15.1960  -27.7950   21.0700 O   0  0  0  0  0
   18.6880  -27.4200   20.0580 N   0  0  0  0  0
   19.3970  -27.0100   21.3020 C   0  0  0  0  0
   19.8680  -25.5430   21.1970 C   0  0  0  0  0
   18.6970  -24.7310   20.9760 O   0  0  0  0  0
   20.5870  -25.0910   22.4980 C   0  0  0  0  0
   19.9160  -25.6350   23.6630 O   0  0  0  0  0
   22.1110  -25.4490   22.5040 C   0  0  0  0  0
   22.2780  -26.8820   22.4600 O   0  0  0  0  0
   22.7980  -24.8660   23.7620 C   0  0  0  0  0
   22.5500  -23.4600   23.8390 O   0  0  0  0  0
   24.3360  -25.1230   23.8690 C   0  0  0  0  0
   24.9800  -24.7230   22.6420 O   0  0  0  0  0
   17.0410  -28.8810   21.6840 O   0  0  0  0  0
   18.4421  -29.1976   17.6307 H   0  0  0  0  0
   18.3698  -27.5030   17.1093 H   0  0  0  0  0
   16.4186  -29.0041   18.6947 H   0  0  0  0  0
   16.2388  -27.4515   17.9668 H   0  0  0  0  0
   16.8156  -26.3563   20.0102 H   0  0  0  0  0
   14.9495  -27.1469   20.4061 H   0  0  0  0  0
   20.2665  -27.6521   21.4423 H   0  0  0  0  0
   18.7139  -27.1032   22.1463 H   0  0  0  0  0
   20.5801  -25.4386   20.3784 H   0  0  0  0  0
   18.9566  -23.8094   20.9059 H   0  0  0  0  0
   20.5286  -24.0032   22.5348 H   0  0  0  0  0
   20.3719  -25.3468   24.4571 H   0  0  0  0  0
   22.5793  -25.0106   21.6228 H   0  0  0  0  0
   23.2142  -27.0942   22.4639 H   0  0  0  0  0
   22.3532  -25.4025   24.6001 H   0  0  0  0  0
   22.9780  -23.1030   24.6207 H   0  0  0  0  0
   24.5146  -26.1842   24.0425 H   0  0  0  0  0
   24.7433  -24.5433   24.6974 H   0  0  0  0  0
   25.9242  -24.8821   22.7109 H   0  0  0  0  0
  1  2  2  0  0  0
  2  3  1  0  0  0
  2  8  1  0  0  0
  3  4  1  0  0  0
  4  5  1  0  0  0
  5  6  1  0  0  0
  5  8  1  0  0  0
  6  7  1  0  0  0
  6 20  2  0  0  0
  8  9  1  0  0  0
  9 10  1  0  0  0
 10 11  1  0  0  0
 10 12  1  0  0  0
 12 13  1  0  0  0
 12 14  1  0  0  0
 14 15  1  0  0  0
 14 16  1  0  0  0
 16 17  1  0  0  0
 16 18  1  0  0  0
 18 19  1  0  0  0
  3 21  1  0  0  0
  3 22  1  0  0  0
  4 23  1  0  0  0
  4 24  1  0  0  0
  5 25  1  0  0  0
  7 26  1  0  0  0
  9 27  1  0  0  0
  9 28  1  0  0  0
 10 29  1  0  0  0
 11 30  1  0  0  0
 12 31  1  0  0  0
 13 32  1  0  0  0
 14 33  1  0  0  0
 15 34  1  0  0  0
 16 35  1  0  0  0
 17 36  1  0  0  0
 18 37  1  0  0  0
 18 38  1  0  0  0
 19 39  1  0  0  0
M  END
$$$$
