2cgx_ligand
  -I-interpret- 

 22 23  0  0  0  0  0  0  0  0999 V2000
    5.6220   -4.8390   18.0260 N   0  0  0  0  0
    5.1840   -3.8030   18.7490 C   0  0  0  0  0
    5.7790   -2.6630   19.2010 N   0  0  0  0  0
    5.0290   -1.7970   19.8790 C   0  0  0  0  0
    3.7210   -2.0090   20.1620 N   0  0  0  0  0
    3.1060   -3.1320   19.7230 C   0  0  0  0  0
    1.8070   -3.3790   19.9350 N   0  0  0  0  0
    3.8370   -4.0540   18.9920 C   0  0  0  0  0
    3.4840   -5.2160   18.4510 N   0  0  0  0  0
    4.5900   -5.6630   17.8580 C   0  0  0  0  0
    4.6800   -7.1740   17.0120 S   0  0  0  0  0
    6.2710   -7.0330   16.0730 C   0  0  0  0  0
    6.8200   -8.3470   15.4180 C   0  0  0  0  0
    7.8450   -8.3150   14.7210 O   0  0  0  0  0
    6.1390   -9.4860   15.6480 N   0  0  0  0  0
    5.4900   -0.8714   20.2236 H   0  0  0  0  0
    1.2368   -2.7059   20.4471 H   0  0  0  0  0
    1.3878   -4.2402   19.5844 H   0  0  0  0  0
    7.0221   -6.7229   16.7994 H   0  0  0  0  0
    6.0741   -6.3464   15.2496 H   0  0  0  0  0
    6.4625  -10.3643   15.2427 H   0  0  0  0  0
    5.2997   -9.4703   16.2275 H   0  0  0  0  0
  1  2  4  0  0  0
  1 10  4  0  0  0
  2  3  4  0  0  0
  2  8  4  0  0  0
  3  4  4  0  0  0
  4  5  4  0  0  0
  5  6  4  0  0  0
  6  7  1  0  0  0
  6  8  4  0  0  0
  8  9  4  0  0  0
  9 10  4  0  0  0
 10 11  1  0  0  0
 11 12  1  0  0  0
 12 13  1  0  0  0
 13 14  2  0  0  0
 13 15  1  0  0  0
  4 16  1  0  0  0
  7 17  1  0  0  0
  7 18  1  0  0  0
 12 19  1  0  0  0
 12 20  1  0  0  0
 15 21  1  0  0  0
 15 22  1  0  0  0
M  END
$$$$
