3w5e_ligand
  -I-interpret- 

 61 64  0  0  0  0  0  0  0  0999 V2000
   28.0180   19.2340  -17.2970 N   0  0  0  0  0
   25.5770   18.4020  -16.3630 C   0  0  0  0  0
   25.7000   18.8900  -17.6020 N   0  0  0  0  0
   26.8990   19.2950  -18.0300 C   0  0  0  0  0
   26.9470   19.8550  -19.3960 C   0  0  0  0  0
   24.2950   17.9920  -15.9270 N   0  0  0  0  0
   28.1220   19.9630  -20.1220 C   0  0  0  0  0
   28.1630   20.4620  -21.4140 C   0  0  0  0  0
   27.0170   20.8910  -22.0420 C   0  0  0  0  0
   25.8360   20.7990  -21.3350 C   0  0  0  0  0
   25.8000   20.2900  -20.0490 C   0  0  0  0  0
   27.9050   18.7400  -16.0590 C   0  0  0  0  0
   26.6970   18.3210  -15.5570 C   0  0  0  0  0
   26.6410   17.6930  -13.8970 S   0  0  0  0  0
   28.2360   16.9660  -13.7310 C   0  0  0  0  0
   29.2480   18.0750  -13.9260 C   0  0  0  0  0
   29.1980   18.7030  -15.3040 C   0  0  0  0  0
   26.7150   18.8380  -13.0150 O   0  0  0  0  0
   25.6170   16.6900  -13.8350 O   0  0  0  0  0
   23.2590   17.6400  -16.8310 C   0  0  0  0  0
   22.7560   18.5190  -17.7720 C   0  0  0  0  0
   21.6940   15.9890  -17.6470 C   0  0  0  0  0
   22.7020   16.3820  -16.7850 C   0  0  0  0  0
   21.2000   16.8610  -18.5900 C   0  0  0  0  0
   21.7480   18.1360  -18.6350 C   0  0  0  0  0
   20.1150   16.4210  -19.5270 C   0  0  0  0  0
   20.2970   17.0070  -20.9180 C   0  0  0  0  0
   21.2770   16.3540  -21.6600 N   0  0  0  0  0
   19.6340   17.9710  -21.2980 O   0  0  0  0  0
   21.7920   16.7140  -22.9890 C   0  0  0  0  0
   22.6000   17.9890  -23.0160 C   0  0  0  0  0
   22.7400   15.6330  -23.4350 C   0  0  0  0  0
   20.7000   16.8120  -24.0320 C   0  0  0  0  0
   24.1082   17.9477  -14.9252 H   0  0  0  0  0
   29.0540   19.6417  -19.6570 H   0  0  0  0  0
   29.1163   20.5153  -21.9398 H   0  0  0  0  0
   27.0410   21.2875  -23.0570 H   0  0  0  0  0
   24.9095   21.1352  -21.8005 H   0  0  0  0  0
   24.8424   20.2283  -19.5320 H   0  0  0  0  0
   28.3799   16.1773  -14.4694 H   0  0  0  0  0
   28.3509   16.5062  -12.7494 H   0  0  0  0  0
   30.2394   17.6399  -13.7999 H   0  0  0  0  0
   29.0212   18.8568  -13.2011 H   0  0  0  0  0
   29.4478   19.7507  -15.1369 H   0  0  0  0  0
   29.8532   18.0801  -15.9130 H   0  0  0  0  0
   23.1609   19.5291  -17.8338 H   0  0  0  0  0
   21.2875   14.9799  -17.5787 H   0  0  0  0  0
   23.0677   15.6712  -16.0440 H   0  0  0  0  0
   21.3742   18.8508  -19.3680 H   0  0  0  0  0
   19.1601   16.7676  -19.1318 H   0  0  0  0  0
   20.1508   15.3345  -19.6060 H   0  0  0  0  0
   21.6875   15.5254  -21.2295 H   0  0  0  0  0
   21.9789   18.8185  -22.6779 H   0  0  0  0  0
   23.4614   17.8858  -22.3561 H   0  0  0  0  0
   22.9411   18.1800  -24.0335 H   0  0  0  0  0
   23.5615   15.5554  -22.7228 H   0  0  0  0  0
   22.2084   14.6826  -23.4835 H   0  0  0  0  0
   23.1341   15.8810  -24.4205 H   0  0  0  0  0
   20.1946   15.8501  -24.1185 H   0  0  0  0  0
   19.9818   17.5757  -23.7336 H   0  0  0  0  0
   21.1398   17.0805  -24.9925 H   0  0  0  0  0
  4  1  4  0  0  0
  1 12  4  0  0  0
  3  2  4  0  0  0
  2  6  1  0  0  0
  2 13  4  0  0  0
  3  4  4  0  0  0
  4  5  1  0  0  0
  5  7  4  0  0  0
  5 11  4  0  0  0
  6 20  1  0  0  0
  7  8  4  0  0  0
  8  9  4  0  0  0
  9 10  4  0  0  0
 10 11  4  0  0  0
 12 13  4  0  0  0
 12 17  1  0  0  0
 13 14  1  0  0  0
 14 15  1  0  0  0
 14 18  2  0  0  0
 14 19  2  0  0  0
 15 16  1  0  0  0
 16 17  1  0  0  0
 20 21  4  0  0  0
 20 23  4  0  0  0
 21 25  4  0  0  0
 23 22  4  0  0  0
 22 24  4  0  0  0
 24 25  4  0  0  0
 24 26  1  0  0  0
 26 27  1  0  0  0
 27 28  1  0  0  0
 27 29  2  0  0  0
 28 30  1  0  0  0
 30 31  1  0  0  0
 30 32  1  0  0  0
 30 33  1  0  0  0
  6 34  1  0  0  0
  7 35  1  0  0  0
  8 36  1  0  0  0
  9 37  1  0  0  0
 10 38  1  0  0  0
 11 39  1  0  0  0
 15 40  1  0  0  0
 15 41  1  0  0  0
 16 42  1  0  0  0
 16 43  1  0  0  0
 17 44  1  0  0  0
 17 45  1  0  0  0
 21 46  1  0  0  0
 22 47  1  0  0  0
 23 48  1  0  0  0
 25 49  1  0  0  0
 26 50  1  0  0  0
 26 51  1  0  0  0
 28 52  1  0  0  0
 31 53  1  0  0  0
 31 54  1  0  0  0
 31 55  1  0  0  0
 32 56  1  0  0  0
 32 57  1  0  0  0
 32 58  1  0  0  0
 33 59  1  0  0  0
 33 60  1  0  0  0
 33 61  1  0  0  0
M  END
$$$$
