4r17_ligand
  -I-interpret- 

 14 14  0  0  0  0  0  0  0  0999 V2000
   11.1290 -140.4130    9.9970 C   0  0  0  0  0
   12.3950 -139.7770   10.2820 C   0  0  0  0  0
   12.3640 -141.0120    7.3940 O   0  0  0  0  0
   11.2240 -140.5690    7.5390 C   0  0  0  0  0
   10.4410 -140.8060    8.8470 C   0  0  0  0  0
   10.9430 -141.7960    9.7440 N   0  3  0  0  0
   10.8948 -139.6548   10.7442 H   0  0  0  0  0
   12.8252 -140.2143   11.1830 H   0  0  0  0  0
   13.0738 -139.9294    9.4429 H   0  0  0  0  0
   12.2376 -138.7092   10.4343 H   0  0  0  0  0
   10.7616 -140.0013    6.7315 H   0  0  0  0  0
    9.4607 -140.6184    8.4089 H   0  0  0  0  0
   10.6243 -142.6356   10.2276 H   0  0  0  0  0
   11.4867 -142.6586    9.7195 H   0  0  0  0  0
  1  2  1  0  0  0
  5  1  1  0  0  0
  1  6  1  0  0  0
  4  3  2  0  0  0
  4  5  1  0  0  0
  5  6  1  0  0  0
  1  7  1  0  0  0
  2  8  1  0  0  0
  2  9  1  0  0  0
  2 10  1  0  0  0
  4 11  1  0  0  0
  5 12  1  0  0  0
  6 13  1  0  0  0
  6 14  1  0  0  0
M  END
$$$$
