6ra1_ligand
  -I-interpret- 

 34 36  0  0  0  0  0  0  0  0999 V2000
   -7.0150    7.2570  -22.9670 C   0  0  0  0  0
   -8.1650    7.6310  -23.9190 C   0  0  0  0  0
   -9.6450    5.7170  -24.6280 C   0  0  0  0  0
   -8.8280    4.5110  -24.2260 C   0  0  0  0  0
   -7.9390    4.0310  -25.1810 C   0  0  0  0  0
   -7.1100    2.9510  -24.8920 C   0  0  0  0  0
   -7.1650    2.3340  -23.6390 C   0  0  0  0  0
   -8.0550    2.8090  -22.6680 C   0  0  0  0  0
  -11.1280    4.6930  -22.0100 C   0  0  0  0  0
  -11.4160    6.1680  -22.3360 C   0  0  0  0  0
  -10.1830    7.0200  -22.5900 C   0  0  0  0  0
   -9.3700    6.8030  -23.6730 N   0  0  0  0  0
   -6.2150    2.2980  -25.6720 O   0  0  0  0  0
   -5.5110    1.3620  -24.8310 C   0  0  0  0  0
   -6.2930    1.2780  -23.6300 O   0  0  0  0  0
   -8.8830    3.9060  -22.9450 C   0  0  0  0  0
   -9.6970    4.3800  -21.8880 N   0  0  0  0  0
   -9.9270    7.9100  -21.7810 O   0  0  0  0  0
   -7.3338    7.4109  -21.9361 H   0  0  0  0  0
   -6.7492    6.2102  -23.1140 H   0  0  0  0  0
   -6.1504    7.8860  -23.1790 H   0  0  0  0  0
   -7.8332    7.4597  -24.9431 H   0  0  0  0  0
   -8.4253    8.6759  -23.7500 H   0  0  0  0  0
  -10.7065    5.4695  -24.6162 H   0  0  0  0  0
   -9.3765    6.0303  -25.6369 H   0  0  0  0  0
   -7.8909    4.5034  -26.1621 H   0  0  0  0  0
   -8.1043    2.3241  -21.6931 H   0  0  0  0  0
  -11.5221    4.0958  -22.8323 H   0  0  0  0  0
  -11.5909    4.4769  -21.0471 H   0  0  0  0  0
  -11.9181    6.5912  -21.4660 H   0  0  0  0  0
  -12.0021    6.1794  -23.2549 H   0  0  0  0  0
   -4.4920    1.6907  -24.6266 H   0  0  0  0  0
   -5.4040    0.3895  -25.3115 H   0  0  0  0  0
   -9.2591    4.5139  -20.9766 H   0  0  0  0  0
  2  1  1  0  0  0
 12  2  1  0  0  0
  3  4  1  0  0  0
 12  3  1  0  0  0
  4  5  4  0  0  0
  4 16  4  0  0  0
  5  6  4  0  0  0
  6  7  4  0  0  0
  6 13  1  0  0  0
  8  7  4  0  0  0
  7 15  1  0  0  0
 16  8  4  0  0  0
 10  9  1  0  0  0
  9 17  1  0  0  0
 11 10  1  0  0  0
 11 12  1  0  0  0
 11 18  2  0  0  0
 13 14  1  0  0  0
 14 15  1  0  0  0
 16 17  1  0  0  0
  1 19  1  0  0  0
  1 20  1  0  0  0
  1 21  1  0  0  0
  2 22  1  0  0  0
  2 23  1  0  0  0
  3 24  1  0  0  0
  3 25  1  0  0  0
  5 26  1  0  0  0
  8 27  1  0  0  0
  9 28  1  0  0  0
  9 29  1  0  0  0
 10 30  1  0  0  0
 10 31  1  0  0  0
 14 32  1  0  0  0
 14 33  1  0  0  0
 17 34  1  0  0  0
M  END
$$$$
