3ap4_ligand
  -I-interpret- 

 45 46  0  0  0  0  0  0  0  0999 V2000
   23.4030   29.6820   23.4140 C   0  0  0  0  0
   22.9480   30.9370   24.2170 C   0  0  0  0  0
   21.4280   31.1640   23.9640 C   0  0  0  0  0
   21.1200   31.1730   22.4370 C   0  0  0  0  0
   21.7310   29.9110   21.7820 C   0  0  0  0  0
   21.4970   29.9190   20.2540 C   0  0  0  0  0
   24.8190   29.6450   23.4570 O   0  0  0  0  0
   23.0960   30.7080   25.5930 O   0  0  0  0  0
   20.9460   32.3990   24.4760 O   0  0  0  0  0
   21.6250   32.3030   21.7680 O   0  0  0  0  0
   23.1340   29.8220   22.0300 O   0  0  0  0  0
   21.9810   28.7820   19.6070 O   0  0  0  0  0
   27.6800   26.6120   22.5180 C   0  0  0  0  0
   27.4070   27.7630   21.4890 C   0  0  0  0  0
   26.7350   28.9820   22.1720 C   0  0  0  0  0
   25.4830   28.4860   22.9170 C   0  0  0  0  0
   25.9790   27.5430   24.0490 C   0  0  0  0  0
   24.8020   26.9260   24.8490 C   0  0  0  0  0
   28.9030   26.6730   23.1700 O   0  0  0  0  0
   28.5880   28.2400   20.8750 O   0  0  0  0  0
   26.3040   29.8730   21.1780 O   0  0  0  0  0
   26.6920   26.4210   23.5190 O   0  0  0  0  0
   23.8770   26.2660   24.0270 O   0  0  0  0  0
   22.8935   28.8169   23.8385 H   0  0  0  0  0
   23.5480   31.7910   23.9026 H   0  0  0  0  0
   20.9327   30.3416   24.4802 H   0  0  0  0  0
   20.0342   31.1936   22.3440 H   0  0  0  0  0
   21.2345   29.0488   22.2272 H   0  0  0  0  0
   22.0307   30.7778   19.8469 H   0  0  0  0  0
   20.4201   29.9543   20.0893 H   0  0  0  0  0
   24.0233   30.5624   25.7941 H   0  0  0  0  0
   21.1143   32.4402   25.4202 H   0  0  0  0  0
   21.2564   33.0975   22.1611 H   0  0  0  0  0
   21.8041   28.8510   18.6660 H   0  0  0  0  0
   27.6650   25.7636   21.8339 H   0  0  0  0  0
   26.7533   27.3210   20.7370 H   0  0  0  0  0
   27.4371   29.4654   22.8513 H   0  0  0  0  0
   24.7864   27.9466   22.2752 H   0  0  0  0  0
   26.6088   28.1679   24.6822 H   0  0  0  0  0
   24.2801   27.7373   25.3564 H   0  0  0  0  0
   25.2157   26.1940   25.5427 H   0  0  0  0  0
   28.9789   25.9319   23.7755 H   0  0  0  0  0
   28.3657   28.9403   20.2571 H   0  0  0  0  0
   25.8858   30.6325   21.5901 H   0  0  0  0  0
   23.1715   25.9036   24.5678 H   0  0  0  0  0
  1  2  1  0  0  0
  7  1  1  0  0  0
  1 11  1  0  0  0
  2  3  1  0  0  0
  2  8  1  0  0  0
  3  4  1  0  0  0
  3  9  1  0  0  0
  5  4  1  0  0  0
  4 10  1  0  0  0
  5  6  1  0  0  0
 11  5  1  0  0  0
  6 12  1  0  0  0
 16  7  1  0  0  0
 14 13  1  0  0  0
 13 19  1  0  0  0
 13 22  1  0  0  0
 15 14  1  0  0  0
 14 20  1  0  0  0
 15 16  1  0  0  0
 15 21  1  0  0  0
 16 17  1  0  0  0
 17 18  1  0  0  0
 17 22  1  0  0  0
 18 23  1  0  0  0
  1 24  1  0  0  0
  2 25  1  0  0  0
  3 26  1  0  0  0
  4 27  1  0  0  0
  5 28  1  0  0  0
  6 29  1  0  0  0
  6 30  1  0  0  0
  8 31  1  0  0  0
  9 32  1  0  0  0
 10 33  1  0  0  0
 12 34  1  0  0  0
 13 35  1  0  0  0
 14 36  1  0  0  0
 15 37  1  0  0  0
 16 38  1  0  0  0
 17 39  1  0  0  0
 18 40  1  0  0  0
 18 41  1  0  0  0
 19 42  1  0  0  0
 20 43  1  0  0  0
 21 44  1  0  0  0
 23 45  1  0  0  0
M  END
$$$$
