3avz_ligand
  -I-interpret- 

 86 87  0  0  0  0  0  0  0  0999 V2000
  -27.8050  -29.8220    5.1430 C   0  0  0  0  0
  -27.7050  -30.1000    6.3370 O   0  0  0  0  0
  -27.5080  -28.4570    4.5940 C   0  0  0  0  0
  -27.8850  -30.9440    4.4240 N   0  0  0  0  0
  -27.9660  -32.2160    5.1310 C   0  0  0  0  0
  -26.7220  -33.0640    4.8860 C   0  0  0  0  0
  -25.8850  -32.7270    4.0470 O   0  0  0  0  0
  -29.2180  -32.9860    4.7060 C   0  0  0  0  0
  -28.8950  -34.0210    3.7930 O   0  0  0  0  0
  -26.6060  -34.1630    5.6230 N   0  0  0  0  0
  -25.4650  -35.0610    5.4870 C   0  0  0  0  0
  -25.6830  -36.0640    4.3590 C   0  0  0  0  0
  -26.7780  -36.6020    4.1970 O   0  0  0  0  0
  -25.1990  -35.7830    6.7990 C   0  0  0  0  0
  -24.6330  -36.3100    3.5820 N   0  0  0  0  0
  -24.7070  -37.2490    2.4690 C   0  0  0  0  0
  -23.9340  -38.5250    2.7850 C   0  0  0  0  0
  -22.7410  -38.4810    3.0840 O   0  0  0  0  0
  -24.1530  -36.6310    1.1720 C   0  0  0  0  0
  -23.8570  -35.1530    1.3720 C   0  0  0  0  0
  -22.9050  -37.3750    0.7210 C   0  0  0  0  0
  -24.6230  -39.6600    2.7180 N   0  0  0  0  0
  -24.0070  -40.9420    2.9980 C   0  0  0  0  0
  -23.1380  -41.3590    1.8180 C   0  0  0  0  0
  -23.4960  -40.9830    0.4840 O   0  0  0  0  0
  -25.0920  -41.9770    3.2710 C   0  0  0  0  0
  -26.0210  -41.5130    4.3860 C   0  0  0  0  0
  -26.5260  -42.7230    5.1630 C   0  0  0  0  0
  -27.5670  -42.3100    6.1960 C   0  0  0  0  0
  -27.1050  -41.0760    6.9610 C   0  0  0  0  0
  -25.6070  -40.8600    6.7830 C   0  0  0  0  0
  -25.2620  -40.5810    5.3240 C   0  0  0  0  0
  -22.0560  -42.0760    2.1050 N   0  0  0  0  0
  -21.1440  -42.5360    1.0650 C   0  0  0  0  0
  -19.7840  -41.8490    1.2030 C   0  0  0  0  0
  -19.7830  -40.4180    0.7630 C   0  0  0  0  0
  -18.6990  -39.5850    0.9410 N   0  0  0  0  0
  -20.7330  -39.6720    0.1520 C   0  0  0  0  0
  -18.9820  -38.3880    0.4590 C   0  0  0  0  0
  -20.2110  -38.4140   -0.0260 N   0  0  0  0  0
  -20.9720  -44.0510    1.1130 C   0  0  0  0  0
  -21.3430  -44.7570    0.1750 O   0  0  0  0  0
  -28.1699  -27.7273    5.0604 H   0  0  0  0  0
  -26.4711  -28.1982    4.8085 H   0  0  0  0  0
  -27.6681  -28.4577    3.5158 H   0  0  0  0  0
  -27.8893  -30.9119    3.4045 H   0  0  0  0  0
  -28.0271  -32.0006    6.1978 H   0  0  0  0  0
  -29.9050  -32.2936    4.2196 H   0  0  0  0  0
  -29.6713  -33.4311    5.5918 H   0  0  0  0  0
  -29.6961  -34.4872    3.5430 H   0  0  0  0  0
  -27.3342  -34.3847    6.3020 H   0  0  0  0  0
  -24.5914  -34.4597    5.2353 H   0  0  0  0  0
  -24.9847  -35.0513    7.5779 H   0  0  0  0  0
  -26.0780  -36.3646    7.0769 H   0  0  0  0  0
  -24.3443  -36.4488    6.6791 H   0  0  0  0  0
  -23.7529  -35.8296    3.7691 H   0  0  0  0  0
  -25.7601  -37.4885    2.3218 H   0  0  0  0  0
  -24.9080  -36.7250    0.3915 H   0  0  0  0  0
  -24.7748  -34.6342    1.6489 H   0  0  0  0  0
  -23.1184  -35.0357    2.1650 H   0  0  0  0  0
  -23.4664  -34.7333    0.4450 H   0  0  0  0  0
  -22.1442  -37.3106    1.4989 H   0  0  0  0  0
  -23.1528  -38.4207    0.5391 H   0  0  0  0  0
  -22.5270  -36.9248   -0.1969 H   0  0  0  0  0
  -25.6101  -39.6279    2.4631 H   0  0  0  0  0
  -23.3726  -40.8654    3.8810 H   0  0  0  0  0
  -24.6171  -42.9092    3.5768 H   0  0  0  0  0
  -25.6783  -42.1169    2.3628 H   0  0  0  0  0
  -26.8694  -40.9805    3.9562 H   0  0  0  0  0
  -25.6841  -43.1846    5.6790 H   0  0  0  0  0
  -26.9843  -43.4223    4.4637 H   0  0  0  0  0
  -27.7089  -43.1293    6.9008 H   0  0  0  0  0
  -28.5003  -42.0780    5.6830 H   0  0  0  0  0
  -27.3165  -41.2192    8.0207 H   0  0  0  0  0
  -27.6345  -40.2045    6.5759 H   0  0  0  0  0
  -25.0845  -41.7631    7.0984 H   0  0  0  0  0
  -25.3046  -40.0018    7.3831 H   0  0  0  0  0
  -25.5415  -39.5532    5.0922 H   0  0  0  0  0
  -24.1933  -40.7430    5.1835 H   0  0  0  0  0
  -21.8589  -42.3103    3.0780 H   0  0  0  0  0
  -21.5782  -42.2721    0.1007 H   0  0  0  0  0
  -19.0822  -42.3859    0.5648 H   0  0  0  0  0
  -19.5176  -41.8645    2.2598 H   0  0  0  0  0
  -21.7271  -40.0072   -0.1437 H   0  0  0  0  0
  -18.3153  -37.5257    0.4610 H   0  0  0  0  0
  -20.5154  -44.5139    1.9878 H   0  0  0  0  0
  1  2  2  0  0  0
  1  3  1  0  0  0
  1  4  1  0  0  0
  4  5  1  0  0  0
  5  6  1  0  0  0
  5  8  1  0  0  0
  6  7  2  0  0  0
  6 10  1  0  0  0
  8  9  1  0  0  0
 10 11  1  0  0  0
 11 12  1  0  0  0
 11 14  1  0  0  0
 12 13  2  0  0  0
 12 15  1  0  0  0
 15 16  1  0  0  0
 16 17  1  0  0  0
 16 19  1  0  0  0
 17 18  2  0  0  0
 17 22  1  0  0  0
 19 20  1  0  0  0
 19 21  1  0  0  0
 22 23  1  0  0  0
 23 24  1  0  0  0
 23 26  1  0  0  0
 24 25  2  0  0  0
 24 33  1  0  0  0
 26 27  1  0  0  0
 27 28  1  0  0  0
 27 32  1  0  0  0
 28 29  1  0  0  0
 29 30  1  0  0  0
 30 31  1  0  0  0
 31 32  1  0  0  0
 33 34  1  0  0  0
 34 35  1  0  0  0
 34 41  1  0  0  0
 35 36  1  0  0  0
 36 37  4  0  0  0
 36 38  4  0  0  0
 37 39  4  0  0  0
 38 40  4  0  0  0
 39 40  4  0  0  0
 41 42  2  0  0  0
  3 43  1  0  0  0
  3 44  1  0  0  0
  3 45  1  0  0  0
  4 46  1  0  0  0
  5 47  1  0  0  0
  8 48  1  0  0  0
  8 49  1  0  0  0
  9 50  1  0  0  0
 10 51  1  0  0  0
 11 52  1  0  0  0
 14 53  1  0  0  0
 14 54  1  0  0  0
 14 55  1  0  0  0
 15 56  1  0  0  0
 16 57  1  0  0  0
 19 58  1  0  0  0
 20 59  1  0  0  0
 20 60  1  0  0  0
 20 61  1  0  0  0
 21 62  1  0  0  0
 21 63  1  0  0  0
 21 64  1  0  0  0
 22 65  1  0  0  0
 23 66  1  0  0  0
 26 67  1  0  0  0
 26 68  1  0  0  0
 27 69  1  0  0  0
 28 70  1  0  0  0
 28 71  1  0  0  0
 29 72  1  0  0  0
 29 73  1  0  0  0
 30 74  1  0  0  0
 30 75  1  0  0  0
 31 76  1  0  0  0
 31 77  1  0  0  0
 32 78  1  0  0  0
 32 79  1  0  0  0
 33 80  1  0  0  0
 34 81  1  0  0  0
 35 82  1  0  0  0
 35 83  1  0  0  0
 38 84  1  0  0  0
 39 85  1  0  0  0
 41 86  1  0  0  0
M  END
$$$$
