5td2_ligand
  -I-interpret- 

 60 64  0  0  0  0  0  0  0  0999 V2000
   11.0600   13.3960   18.9690 C   0  0  0  0  0
   10.6960   13.1510   17.4940 C   0  0  0  0  0
   14.3800   12.6250   15.4630 C   0  0  0  0  0
   15.7390   14.5410   14.6520 C   0  0  0  0  0
   16.6980   15.4890   14.0510 C   0  0  0  0  0
   18.5520   17.1610   12.8390 C   0  0  0  0  0
   17.6780   17.6810   13.7840 C   0  0  0  0  0
   16.7310   16.8610   14.3980 C   0  0  0  0  0
   15.8770   18.4460   16.1210 C   0  0  0  0  0
   14.9000   18.6400   17.1880 C   0  0  0  0  0
   13.2030   18.3920   18.4800 C   0  0  0  0  0
   13.5160   13.7030   21.5290 C   0  0  0  0  0
   12.5560   14.9460   20.6370 S   0  0  0  0  0
   11.2770   15.0730   21.2400 O   0  0  0  0  0
   13.3830   16.0900   20.4250 O   0  0  0  0  0
   12.2750   14.2300   19.1600 N   0  0  0  0  0
   11.8840   12.9570   16.7140 O   0  0  0  0  0
   12.7590   14.0960   16.6750 C   0  0  0  0  0
   13.2810   14.4080   18.0850 C   0  0  0  0  0
   13.9660   13.8440   15.8120 C   0  0  0  0  0
   15.8330   12.7970   14.4740 S   0  0  0  0  0
   14.6970   14.8390   15.3720 N   0  0  0  0  0
   17.5760   14.9750   13.0990 C   0  0  0  0  0
   18.5000   15.8010   12.4880 C   0  0  0  0  0
   15.8470   17.3020   15.3990 N   0  0  0  0  0
   16.6780   19.3310   15.9420 O   0  0  0  0  0
   13.8190   17.9240   17.3950 N   0  0  0  0  0
   13.9290   19.4200   18.9920 C   0  0  0  0  0
   15.0130   19.5720   18.1860 N   0  0  0  0  0
   19.3640   15.2210   11.5480 N   0  0  0  0  0
   18.8740   15.0470   10.1610 C   0  0  0  0  0
   19.7250   13.9100    9.5690 C   0  0  0  0  0
   21.1300   14.2080    9.7380 O   0  0  0  0  0
   21.6280   14.4470   11.0700 C   0  0  0  0  0
   20.7940   15.5730   11.6860 C   0  0  0  0  0
   11.2608   12.4236   19.4187 H   0  0  0  0  0
   10.2258   13.9302   19.4239 H   0  0  0  0  0
   10.1568   14.0177   17.1117 H   0  0  0  0  0
   10.0746   12.2582   17.4243 H   0  0  0  0  0
   13.9036   11.6847   15.7404 H   0  0  0  0  0
   19.2853   17.8134   12.3649 H   0  0  0  0  0
   17.7321   18.7372   14.0480 H   0  0  0  0  0
   12.2677   18.0115   18.8905 H   0  0  0  0  0
   13.6309   14.0113   22.5681 H   0  0  0  0  0
   12.9960   12.7459   21.4880 H   0  0  0  0  0
   14.4984   13.6043   21.0672 H   0  0  0  0  0
   12.1768   14.9230   16.2686 H   0  0  0  0  0
   14.0945   13.7114   18.2878 H   0  0  0  0  0
   13.5775   15.4569   18.0930 H   0  0  0  0  0
   17.5339   13.9182   12.8354 H   0  0  0  0  0
   15.0744   16.6705   15.6105 H   0  0  0  0  0
   13.6888   20.0087   19.8774 H   0  0  0  0  0
   18.9734   15.9654    9.5824 H   0  0  0  0  0
   17.8112   14.8061   10.1384 H   0  0  0  0  0
   19.5037   13.8109    8.5063 H   0  0  0  0  0
   19.4902   12.9790   10.0849 H   0  0  0  0  0
   22.6799   14.7304   11.0356 H   0  0  0  0  0
   21.5464   13.5424   11.6726 H   0  0  0  0  0
   21.0492   15.6942   12.7387 H   0  0  0  0  0
   20.9987   16.5130   11.1736 H   0  0  0  0  0
  2  1  1  0  0  0
 16  1  1  0  0  0
 17  2  1  0  0  0
 20  3  4  0  0  0
  3 21  4  0  0  0
  4  5  1  0  0  0
 21  4  4  0  0  0
  4 22  4  0  0  0
  5  8  4  0  0  0
  5 23  4  0  0  0
  7  6  4  0  0  0
  6 24  4  0  0  0
  8  7  4  0  0  0
  8 25  1  0  0  0
  9 10  1  0  0  0
 25  9  1  0  0  0
  9 26  2  0  0  0
 10 27  4  0  0  0
 10 29  4  0  0  0
 27 11  4  0  0  0
 11 28  4  0  0  0
 13 12  1  0  0  0
 13 14  2  0  0  0
 13 15  2  0  0  0
 16 13  1  0  0  0
 19 16  1  0  0  0
 18 17  1  0  0  0
 18 19  1  0  0  0
 18 20  1  0  0  0
 20 22  4  0  0  0
 23 24  4  0  0  0
 24 30  1  0  0  0
 28 29  4  0  0  0
 30 31  1  0  0  0
 30 35  1  0  0  0
 31 32  1  0  0  0
 32 33  1  0  0  0
 33 34  1  0  0  0
 34 35  1  0  0  0
  1 36  1  0  0  0
  1 37  1  0  0  0
  2 38  1  0  0  0
  2 39  1  0  0  0
  3 40  1  0  0  0
  6 41  1  0  0  0
  7 42  1  0  0  0
 11 43  1  0  0  0
 12 44  1  0  0  0
 12 45  1  0  0  0
 12 46  1  0  0  0
 18 47  1  0  0  0
 19 48  1  0  0  0
 19 49  1  0  0  0
 23 50  1  0  0  0
 25 51  1  0  0  0
 28 52  1  0  0  0
 31 53  1  0  0  0
 31 54  1  0  0  0
 32 55  1  0  0  0
 32 56  1  0  0  0
 34 57  1  0  0  0
 34 58  1  0  0  0
 35 59  1  0  0  0
 35 60  1  0  0  0
M  END
$$$$
