4zx9_ligand
  -I-interpret- 

 36 36  0  0  0  0  0  0  0  0999 V2000
  174.5010   15.1510   83.9500 C   0  0  0  0  0
  175.4350   16.2160   84.3530 N   0  0  0  0  0
  176.1830   16.8710   83.4540 C   0  0  0  0  0
  176.1330   16.6660   82.2430 O   0  0  0  0  0
  177.1320   17.9220   84.0310 C   0  0  0  0  0
  178.2480   18.1940   83.0220 C   0  0  0  0  0
  176.3680   19.2170   84.3090 C   0  0  0  0  0
  177.7430   17.3960   85.3320 C   0  0  0  0  0
  174.4900   14.0550   85.0160 C   0  0  0  0  0
  174.1310   14.2930   86.1670 O   0  0  0  0  0
  174.8960   12.8550   84.5840 N   0  0  0  0  0
  174.9070   11.7920   85.5350 O   0  0  0  0  0
  168.8300   17.0440   83.0400 Br  0  0  0  0  0
  173.2030   15.6180   83.7570 C   0  0  0  0  0
  172.3130   14.8270   83.0400 C   0  0  0  0  0
  171.0100   15.2520   82.8260 C   0  0  0  0  0
  170.5940   16.4760   83.3330 C   0  0  0  0  0
  171.4810   17.2700   84.0530 C   0  0  0  0  0
  172.7880   16.8420   84.2680 C   0  0  0  0  0
  174.8508   14.7590   82.9950 H   0  0  0  0  0
  175.5146   16.4611   85.3399 H   0  0  0  0  0
  177.8142   18.5666   82.0940 H   0  0  0  0  0
  178.9313   18.9388   83.4299 H   0  0  0  0  0
  178.7913   17.2698   82.8252 H   0  0  0  0  0
  175.5737   19.0213   85.0294 H   0  0  0  0  0
  177.0530   19.9615   84.7148 H   0  0  0  0  0
  175.9346   19.5882   83.3803 H   0  0  0  0  0
  178.4276   18.1409   85.7376 H   0  0  0  0  0
  176.9484   17.2007   86.0521 H   0  0  0  0  0
  178.2865   16.4731   85.1296 H   0  0  0  0  0
  175.1849   12.7071   83.6170 H   0  0  0  0  0
  175.2144   10.9876   85.1106 H   0  0  0  0  0
  172.6411   13.8663   82.6432 H   0  0  0  0  0
  170.3160   14.6282   82.2626 H   0  0  0  0  0
  171.1515   18.2302   84.4500 H   0  0  0  0  0
  173.4821   17.4633   84.8340 H   0  0  0  0  0
  1  2  1  0  0  0
  1  9  1  0  0  0
 14  1  1  0  0  0
  2  3  1  0  0  0
  3  4  2  0  0  0
  3  5  1  0  0  0
  5  6  1  0  0  0
  5  7  1  0  0  0
  5  8  1  0  0  0
  9 10  2  0  0  0
  9 11  1  0  0  0
 11 12  1  0  0  0
 17 13  1  0  0  0
 15 14  4  0  0  0
 14 19  4  0  0  0
 16 15  4  0  0  0
 16 17  4  0  0  0
 17 18  4  0  0  0
 18 19  4  0  0  0
  1 20  1  0  0  0
  2 21  1  0  0  0
  6 22  1  0  0  0
  6 23  1  0  0  0
  6 24  1  0  0  0
  7 25  1  0  0  0
  7 26  1  0  0  0
  7 27  1  0  0  0
  8 28  1  0  0  0
  8 29  1  0  0  0
  8 30  1  0  0  0
 11 31  1  0  0  0
 12 32  1  0  0  0
 15 33  1  0  0  0
 16 34  1  0  0  0
 18 35  1  0  0  0
 19 36  1  0  0  0
M  END
$$$$
