4xue_ligand
  -I-interpret- 

 37 39  0  0  0  0  0  0  0  0999 V2000
   14.2560   -7.3820   -3.9810 C   0  0  0  0  0
   13.0730   -9.8070   -0.5430 C   0  0  0  0  0
   13.9510  -10.7650   -0.0270 C   0  0  0  0  0
   11.8380   -9.6630    0.1130 C   0  0  0  0  0
   11.4850  -10.4510    1.2160 C   0  0  0  0  0
   12.3880  -11.4060    1.7080 C   0  0  0  0  0
   13.6840   -6.7860   -2.8400 C   0  0  0  0  0
   13.4670   -8.9590   -1.7360 C   0  0  0  0  0
   16.2030  -10.8440   -7.2200 C   0  0  0  0  0
   14.4240   -8.7770   -3.9890 C   0  0  0  0  0
   15.0340   -9.5210   -5.1500 C   0  0  0  0  0
   16.2880   -9.1780   -5.5130 N   0  0  0  0  0
   16.8690   -9.8290   -6.5420 C   0  0  0  0  0
   14.9080  -11.1910   -6.8200 C   0  0  0  0  0
   14.3430  -10.5020   -5.7820 N   0  0  0  0  0
   14.3310  -12.1760   -7.4950 O   0  0  0  0  0
   16.7600  -11.5240   -8.2330 O   0  0  0  0  0
   12.9770  -10.8750   -5.4070 C   0  0  0  0  0
   14.0370   -9.5380   -2.8760 C   0  0  0  0  0
   13.3090   -7.5720   -1.7450 C   0  0  0  0  0
   13.6300  -11.5610    1.0820 C   0  0  0  0  0
   14.5602   -6.7770   -4.8351 H   0  0  0  0  0
   14.9216  -10.8982   -0.5048 H   0  0  0  0  0
   11.1328   -8.9144   -0.2481 H   0  0  0  0  0
   10.5122  -10.3229    1.6906 H   0  0  0  0  0
   12.1247  -12.0207    2.5688 H   0  0  0  0  0
   13.5328   -5.7070   -2.8100 H   0  0  0  0  0
   17.8787   -9.5544   -6.8474 H   0  0  0  0  0
   13.9253  -11.3045   -6.3623 H   0  0  0  0  0
   13.4520  -12.3323   -7.1421 H   0  0  0  0  0
   16.1364  -12.1765   -8.5600 H   0  0  0  0  0
   12.9644  -11.2071   -4.3689 H   0  0  0  0  0
   12.3215  -10.0117   -5.5216 H   0  0  0  0  0
   12.6321  -11.6828   -6.0524 H   0  0  0  0  0
   14.1852  -10.6176   -2.8996 H   0  0  0  0  0
   12.8791   -7.0851   -0.8697 H   0  0  0  0  0
   14.3436  -12.2961    1.4542 H   0  0  0  0  0
  1  7  4  0  0  0
 10  1  4  0  0  0
  2  3  4  0  0  0
  2  4  4  0  0  0
  8  2  1  0  0  0
  3 21  4  0  0  0
  4  5  4  0  0  0
  5  6  4  0  0  0
 21  6  4  0  0  0
  7 20  4  0  0  0
 19  8  4  0  0  0
  8 20  4  0  0  0
 13  9  2  0  0  0
  9 14  1  0  0  0
  9 17  1  0  0  0
 11 10  1  0  0  0
 10 19  4  0  0  0
 12 11  2  0  0  0
 11 15  1  0  0  0
 12 13  1  0  0  0
 14 15  1  0  0  0
 14 16  1  0  0  0
 15 18  1  0  0  0
  1 22  1  0  0  0
  3 23  1  0  0  0
  4 24  1  0  0  0
  5 25  1  0  0  0
  6 26  1  0  0  0
  7 27  1  0  0  0
 13 28  1  0  0  0
 14 29  1  0  0  0
 16 30  1  0  0  0
 17 31  1  0  0  0
 18 32  1  0  0  0
 18 33  1  0  0  0
 18 34  1  0  0  0
 19 35  1  0  0  0
 20 36  1  0  0  0
 21 37  1  0  0  0
M  END
$$$$
