4oee_ligand
  -I-interpret- 

 60 61  0  0  0  0  0  0  0  0999 V2000
  -14.1330   -7.3920   -3.1830 N   0  0  0  0  0
  -12.7420   -5.4580   -3.7380 C   0  0  0  0  0
  -15.0800   -7.2520   -1.9730 S   0  0  0  0  0
  -13.9630   -6.2930   -4.1520 C   0  0  0  0  0
  -13.7600   -6.8930   -5.5470 C   0  0  0  0  0
  -14.9840   -7.4980   -5.9860 O   0  0  0  0  0
  -13.3580   -5.7980   -6.5410 C   0  0  0  0  0
  -12.9600   -6.3950   -7.7840 O   0  0  0  0  0
  -12.2050   -4.9580   -6.0010 C   0  0  0  0  0
  -12.5480   -4.4300   -4.7200 O   0  0  0  0  0
  -11.8520   -3.8020   -6.9370 C   0  0  0  0  0
  -12.9510   -2.8880   -6.9750 O   0  0  0  0  0
  -16.4900   -9.2930   -6.4390 O   0  0  0  0  0
  -15.0510   -8.9610   -6.4380 S   0  0  0  0  0
  -16.4170   -6.9010   -2.4790 O   0  0  0  0  0
  -14.4670   -9.0480   -7.7870 O   0  0  0  0  0
  -15.0820   -8.5460   -1.2650 O   0  0  0  0  0
  -14.3020   -9.7780   -5.4760 O   0  0  0  0  0
  -14.5760   -6.2060   -1.0680 O   0  0  0  0  0
  -11.4800  -10.2560   -1.8970 S   0  0  0  0  0
   -8.9150   -8.0890   -2.0310 C   0  0  0  0  0
   -7.9380   -7.6040   -1.1160 O   0  0  0  0  0
  -10.3190   -7.9980   -1.4420 C   0  0  0  0  0
  -11.2000   -8.7880   -2.2470 O   0  0  0  0  0
  -10.8590   -6.5730   -1.3700 C   0  0  0  0  0
  -10.2470   -5.9010   -0.2600 O   0  0  0  0  0
  -10.6210   -5.7900   -2.6590 C   0  0  0  0  0
  -11.5610   -6.2560   -3.6400 O   0  0  0  0  0
   -9.1890   -5.9830   -3.1520 C   0  0  0  0  0
   -8.8670   -7.3670   -3.2600 O   0  0  0  0  0
   -9.0250   -5.4280   -4.5360 C   0  0  0  0  0
   -6.5410   -7.7280   -1.4770 C   0  0  0  0  0
   -9.0050   -4.1850   -4.6680 O   0  0  0  0  0
   -8.9080   -6.2310   -5.4930 O   0  0  0  0  0
  -12.3320  -10.7620   -2.9760 O   0  0  0  0  0
  -12.1220  -10.2940   -0.5690 O   0  0  0  0  0
  -10.1940  -10.9720   -1.8570 O   0  0  0  0  0
  -13.6149   -8.2606   -3.3153 H   0  0  0  0  0
  -12.9277   -5.0290   -2.7533 H   0  0  0  0  0
  -14.8431   -5.6502   -4.1693 H   0  0  0  0  0
  -12.9688   -7.6412   -5.4987 H   0  0  0  0  0
  -14.2205   -5.1493   -6.6938 H   0  0  0  0  0
  -13.6822   -6.9252   -8.1288 H   0  0  0  0  0
  -11.3360   -5.6113   -5.9228 H   0  0  0  0  0
  -11.6548   -4.1845   -7.9385 H   0  0  0  0  0
  -10.9597   -3.2920   -6.5740 H   0  0  0  0  0
  -12.7384   -2.1579   -7.5609 H   0  0  0  0  0
  -16.8335   -9.2253   -5.5451 H   0  0  0  0  0
  -14.1955   -8.7391   -0.9512 H   0  0  0  0  0
   -8.6832   -9.1364   -2.2241 H   0  0  0  0  0
  -10.2632   -8.3646   -0.4170 H   0  0  0  0  0
  -11.9391   -6.6274   -1.2342 H   0  0  0  0  0
  -10.5815   -5.0027   -0.2073 H   0  0  0  0  0
  -10.7622   -4.7241   -2.4802 H   0  0  0  0  0
   -8.5464   -5.4767   -2.4317 H   0  0  0  0  0
   -6.2959   -8.7805   -1.6195 H   0  0  0  0  0
   -6.3563   -7.1821   -2.4022 H   0  0  0  0  0
   -5.9230   -7.3144   -0.6801 H   0  0  0  0  0
   -8.9519   -7.1308   -5.1614 H   0  0  0  0  0
  -11.5135   -9.9506    0.0893 H   0  0  0  0  0
  1  3  1  0  0  0
  4  1  1  0  0  0
  2  4  1  0  0  0
  2 10  1  0  0  0
 28  2  1  0  0  0
  3 15  2  0  0  0
  3 17  1  0  0  0
  3 19  2  0  0  0
  4  5  1  0  0  0
  5  6  1  0  0  0
  5  7  1  0  0  0
  6 14  1  0  0  0
  7  8  1  0  0  0
  9  7  1  0  0  0
 10  9  1  0  0  0
  9 11  1  0  0  0
 11 12  1  0  0  0
 14 13  1  0  0  0
 14 16  2  0  0  0
 14 18  2  0  0  0
 24 20  1  0  0  0
 20 35  2  0  0  0
 20 36  1  0  0  0
 20 37  2  0  0  0
 21 22  1  0  0  0
 23 21  1  0  0  0
 21 30  1  0  0  0
 22 32  1  0  0  0
 23 24  1  0  0  0
 25 23  1  0  0  0
 25 26  1  0  0  0
 27 25  1  0  0  0
 27 28  1  0  0  0
 27 29  1  0  0  0
 29 30  1  0  0  0
 29 31  1  0  0  0
 31 33  2  0  0  0
 31 34  1  0  0  0
  1 38  1  0  0  0
  2 39  1  0  0  0
  4 40  1  0  0  0
  5 41  1  0  0  0
  7 42  1  0  0  0
  8 43  1  0  0  0
  9 44  1  0  0  0
 11 45  1  0  0  0
 11 46  1  0  0  0
 12 47  1  0  0  0
 13 48  1  0  0  0
 17 49  1  0  0  0
 21 50  1  0  0  0
 23 51  1  0  0  0
 25 52  1  0  0  0
 26 53  1  0  0  0
 27 54  1  0  0  0
 29 55  1  0  0  0
 32 56  1  0  0  0
 32 57  1  0  0  0
 32 58  1  0  0  0
 34 59  1  0  0  0
 36 60  1  0  0  0
M  END
$$$$
