### 
### Created by X-TOOL on Mon Sep 10 21:13:25 2018
### 

@<TRIPOS>MOLECULE
3wut_ligand
  195   199     1     0     0
SMALL
GAST_HUCK


@<TRIPOS>ATOM
      1 N          13.8830   47.3240   16.4810 N.4       1 LEU         0.2379
      2 CA         15.2440   47.7270   16.8350 C.3       1 LEU         0.0652
      3 C          16.2230   46.5640   16.6340 C.2       1 LEU         0.2267
      4 O          15.8220   45.4830   16.1940 O.2       1 LEU        -0.3907
      5 CB         15.2880   48.2450   18.2780 C.3       1 LEU         0.0102
      6 CG         16.5190   49.0640   18.7020 C.3       1 LEU        -0.0394
      7 CD1        16.9270   50.0490   17.6120 C.3       1 LEU        -0.0623
      8 CD2        16.3150   49.7660   20.0500 C.3       1 LEU        -0.0623
      9 N          17.5050   46.7970   16.9190 N.am      1 ALA        -0.2613
     10 CA         18.4940   45.7230   16.9530 C.3       1 ALA         0.1283
     11 C          18.3220   44.8940   18.2180 C.2       1 ALA         0.2036
     12 O          17.9180   45.4070   19.2680 O.2       1 ALA        -0.3944
     13 CB         19.9050   46.2740   16.8650 C.3       1 ALA        -0.0244
     14 N          18.6140   43.6030   18.0980 N.am      1 VAL        -0.2635
     15 CA         18.4740   42.6740   19.2050 C.3       1 VAL         0.1332
     16 C          19.8330   42.0860   19.5580 C.2       1 VAL         0.2039
     17 O          20.5630   41.6040   18.6880 O.2       1 VAL        -0.3944
     18 CB         17.5140   41.5300   18.8430 C.3       1 VAL        -0.0063
     19 CG1        17.1120   40.7550   20.0880 C.3       1 VAL        -0.0584
     20 CG2        16.2830   42.0820   18.1160 C.3       1 VAL        -0.0584
     21 N          20.1790   42.1480   20.8360 N.am      1 GLY        -0.2664
     22 CA         21.4030   41.5410   21.3110 C.3       1 GLY         0.1203
     23 C          21.0990   40.2510   22.0400 C.2       1 GLY         0.2032
     24 O          19.9370   39.9580   22.3300 O.2       1 GLY        -0.3945
     25 N          22.1440   39.4710   22.3400 N.am      1 PRO        -0.2501
     26 CA         22.0230   38.2150   23.0820 C.3       1 PRO         0.1340
     27 C          21.4350   38.4250   24.4780 C.2       1 PRO         0.2066
     28 O          21.6960   39.4440   25.1070 O.2       1 PRO        -0.3942
     29 CB         23.4780   37.7250   23.1720 C.3       1 PRO        -0.0104
     30 CG         24.3190   38.9500   22.9340 C.3       1 PRO        -0.0281
     31 CD         23.5360   39.7450   21.9450 C.3       1 PRO         0.0369
     32 N          20.6570   37.4510   24.9660 N.am      1 PRO        -0.2498
     33 CA         19.9600   37.5100   26.2590 C.3       1 PRO         0.1338
     34 C          20.8870   37.7680   27.4470 C.2       1 PRO         0.2042
     35 O          20.4260   38.1030   28.5400 O.2       1 PRO        -0.3944
     36 CB         19.3220   36.1240   26.3750 C.3       1 PRO        -0.0104
     37 CG         20.0940   35.2510   25.4010 C.3       1 PRO        -0.0281
     38 CD         20.4540   36.1610   24.2840 C.3       1 PRO         0.0369
     39 N          22.1850   37.5940   27.2200 N.am      1 SER        -0.2616
     40 CA         23.2080   37.9400   28.1980 C.3       1 SER         0.1539
     41 C          24.5050   38.1540   27.4530 C.2       1 SER         0.2062
     42 O          24.5880   37.8900   26.2530 O.2       1 SER        -0.3943
     43 CB         23.3690   36.8460   29.2540 C.3       1 SER         0.0843
     44 OG         22.8860   35.6000   28.7740 O.3       1 SER        -0.3903
     45 N          25.5040   38.6710   28.1540 N.am      1 LEU        -0.2636
     46 CA         26.8040   38.9070   27.5470 C.3       1 LEU         0.1312
     47 C          27.5980   37.6040   27.5400 C.2       1 LEU         0.2040
     48 O          28.4010   37.3560   26.6440 O.2       1 LEU        -0.3944
     49 CB         27.5370   40.0270   28.2900 C.3       1 LEU        -0.0101
     50 CG         27.2950   41.4410   27.7410 C.3       1 LEU        -0.0425
     51 CD1        28.1340   41.6620   26.4980 C.3       1 LEU        -0.0625
     52 CD2        25.8180   41.7090   27.4380 C.3       1 LEU        -0.0625
     53 N          27.3310   36.7640   28.5340 N.am      1 ASN        -0.2616
     54 CA         27.9300   35.4400   28.6290 C.3       1 ASN         0.1476
     55 C          26.9040   34.3440   28.3480 C.2       1 ASN         0.2064
     56 O          25.7280   34.4810   28.6910 O.2       1 ASN        -0.3942
     57 CB         28.5550   35.2370   30.0070 C.3       1 ASN         0.0773
     58 CG         29.8030   36.0780   30.2020 C.2       1 ASN         0.1780
     59 OD1        30.3170   36.6770   29.2530 O.2       1 ASN        -0.3970
     60 ND2        30.3070   36.1160   31.4290 N.am      1 ASN        -0.3007
     61 N          27.3450   33.2590   27.7160 N.am      1 TYR        -0.2620
     62 CA         26.4100   32.2010   27.3720 C.3       1 TYR         0.1390
     63 C          25.8830   31.5140   28.6160 C.2       1 TYR         0.2057
     64 O          26.6420   31.0390   29.4580 O.2       1 TYR        -0.3942
     65 CB         26.9910   31.1680   26.3990 C.3       1 TYR         0.0163
     66 CG         25.9390   30.1500   26.0090 C.ar      1 TYR        -0.0493
     67 CD1        24.8800   30.5040   25.1800 C.ar      1 TYR        -0.0685
     68 CD2        25.9660   28.8600   26.5080 C.ar      1 TYR        -0.0685
     69 CE1        23.8960   29.5980   24.8400 C.ar      1 TYR        -0.0398
     70 CE2        24.9750   27.9400   26.1710 C.ar      1 TYR        -0.0398
     71 CZ         23.9460   28.3170   25.3320 C.ar      1 TYR         0.0805
     72 OH         22.9650   27.4190   24.9820 O.3       1 TYR        -0.3376
     73 N          24.5660   31.4810   28.7260 N.am      1 ILE        -0.2633
     74 CA         23.9220   30.7740   29.8080 C.3       1 ILE         0.1337
     75 C          23.0860   29.6640   29.2160 C.2       1 ILE         0.2067
     76 O          22.1560   29.9220   28.4520 O.2       1 ILE        -0.3942
     77 CB         23.0340   31.7230   30.6330 C.3       1 ILE        -0.0037
     78 CG1        23.9060   32.8190   31.2480 C.3       1 ILE        -0.0491
     79 CG2        22.2510   30.9470   31.6890 C.3       1 ILE        -0.0582
     80 CD1        23.1520   33.7960   32.0970 C.3       1 ILE        -0.0648
     81 N          23.4270   28.4150   29.5530 N.am      1 PRO        -0.2498
     82 CA         22.7160   27.2390   29.0460 C.3       1 PRO         0.1339
     83 C          21.2690   27.2330   29.5170 C.2       1 PRO         0.2060
     84 O          20.9890   27.7430   30.6050 O.2       1 PRO        -0.3942
     85 CB         23.4760   26.0750   29.6840 C.3       1 PRO        -0.0104
     86 CG         24.8300   26.6480   30.0560 C.3       1 PRO        -0.0281
     87 CD         24.5360   28.0480   30.4490 C.3       1 PRO         0.0369
     88 N          20.3600   26.6710   28.7090 N.am      1 PRO        -0.2556
     89 CA         18.9510   26.5250   29.0920 C.3       1 PRO         0.0972
     90 C          18.7920   25.6000   30.3030 C.2       1 PRO         0.0603
     91 O          19.7320   24.8530   30.6130 O.co2     1 PRO        -0.5666
     92 CB         18.3170   25.8990   27.8450 C.3       1 PRO        -0.0159
     93 CG         19.4620   25.2400   27.1080 C.3       1 PRO        -0.0288
     94 CD         20.6300   26.1420   27.3600 C.3       1 PRO         0.0362
     95 OXT        17.7280   25.6240   30.9390 O.co2     1 PRO        -0.5666
     96 H1         13.2558   48.1008   16.6197 H         1 LEU         0.2015
     97 H2         13.5980   46.5536   17.0652 H         1 LEU         0.2015
     98 H3         13.8574   47.0400   15.5142 H         1 LEU         0.2015
     99 H4         15.5456   48.5471   16.1668 H         1 LEU         0.1098
    100 H5         15.2286   47.3712   18.9436 H         1 LEU         0.0348
    101 H6         14.4025   48.8803   18.4270 H         1 LEU         0.0348
    102 H7         17.3509   48.3558   18.8301 H         1 LEU         0.0299
    103 H8         17.8077   50.6186   17.9435 H         1 LEU         0.0232
    104 H9         16.0957   50.7416   17.4138 H         1 LEU         0.0232
    105 H10        17.1720   49.4975   16.6923 H         1 LEU         0.0232
    106 H11        16.0224   49.0251   20.8086 H         1 LEU         0.0232
    107 H12        15.5234   50.5235   19.9528 H         1 LEU         0.0232
    108 H13        17.2529   50.2528   20.3556 H         1 LEU         0.0232
    109 H14        17.7971   47.7331   17.1148 H         1 ALA         0.1884
    110 H15        18.3251   45.0703   16.0839 H         1 ALA         0.0797
    111 H16        20.6254   45.4432   16.8929 H         1 ALA         0.0277
    112 H17        20.0892   46.9478   17.7148 H         1 ALA         0.0277
    113 H18        20.0233   46.8304   15.9235 H         1 ALA         0.0277
    114 H19        18.9406   43.2605   17.2171 H         1 VAL         0.1883
    115 H20        18.0752   43.2151   20.0757 H         1 VAL         0.0802
    116 H21        18.0362   40.8410   18.1629 H         1 VAL         0.0343
    117 H22        16.4260   39.9420   19.8082 H         1 VAL         0.0234
    118 H23        16.6096   41.4317   20.7949 H         1 VAL         0.0234
    119 H24        18.0096   40.3307   20.5616 H         1 VAL         0.0234
    120 H25        16.6034   42.6366   17.2217 H         1 VAL         0.0234
    121 H26        15.7322   42.7566   18.7879 H         1 VAL         0.0234
    122 H27        15.6299   41.2491   17.8165 H         1 VAL         0.0234
    123 H28        19.5831   42.6230   21.4835 H         1 GLY         0.1881
    124 H29        21.9100   42.2351   21.9973 H         1 GLY         0.0763
    125 H30        22.0590   41.3279   20.4541 H         1 GLY         0.0763
    126 H31        21.3985   37.4964   22.5310 H         1 PRO         0.0802
    127 H32        23.6776   36.9641   22.4031 H         1 PRO         0.0313
    128 H33        23.6828   37.3033   24.1671 H         1 PRO         0.0313
    129 H34        25.3015   38.6748   22.5230 H         1 PRO         0.0287
    130 H35        24.4573   39.5156   23.8672 H         1 PRO         0.0287
    131 H36        23.7676   40.8173   22.0255 H         1 PRO         0.0524
    132 H37        23.7315   39.4037   20.9177 H         1 PRO         0.0524
    133 H38        19.1889   38.2941   26.2367 H         1 PRO         0.0802
    134 H39        18.2582   36.1640   26.0982 H         1 PRO         0.0313
    135 H40        19.4198   35.7383   27.4005 H         1 PRO         0.0313
    136 H41        19.4660   34.4232   25.0400 H         1 PRO         0.0287
    137 H42        20.9984   34.8445   25.8771 H         1 PRO         0.0287
    138 H43        21.3752   35.8283   23.7832 H         1 PRO         0.0524
    139 H44        19.6393   36.2260   23.5478 H         1 PRO         0.0524
    140 H45        22.4711   37.2099   26.3421 H         1 SER         0.1884
    141 H46        22.9211   38.8740   28.7033 H         1 SER         0.0823
    142 H47        22.8030   37.1286   30.1538 H         1 SER         0.0606
    143 H48        24.4346   36.7450   29.5077 H         1 SER         0.0606
    144 H49        22.9968   34.9383   29.4466 H         1 SER         0.2097
    145 H50        25.3613   38.9026   29.1163 H         1 LEU         0.1883
    146 H51        26.6550   39.2272   26.5052 H         1 LEU         0.0800
    147 H52        28.6163   39.8213   28.2373 H         1 LEU         0.0315
    148 H53        27.2111   40.0091   29.3405 H         1 LEU         0.0315
    149 H54        27.6168   42.1607   28.5081 H         1 LEU         0.0298
    150 H55        27.9556   42.6760   26.1107 H         1 LEU         0.0232
    151 H56        27.8564   40.9229   25.7320 H         1 LEU         0.0232
    152 H57        29.1988   41.5476   26.7492 H         1 LEU         0.0232
    153 H58        25.2215   41.5451   28.3476 H         1 LEU         0.0232
    154 H59        25.4760   41.0253   26.6471 H         1 LEU         0.0232
    155 H60        25.6955   42.7492   27.1018 H         1 LEU         0.0232
    156 H61        26.6919   37.0530   29.2468 H         1 ASN         0.1885
    157 H62        28.7256   35.3682   27.8728 H         1 ASN         0.0826
    158 H63        28.8218   34.1760   30.1218 H         1 ASN         0.0551
    159 H64        27.8176   35.5148   30.7745 H         1 ASN         0.0551
    160 H65        31.1287   36.6545   31.6155 H         1 ASN         0.1814
    161 H66        29.8651   35.6062   32.1671 H         1 ASN         0.1814
    162 H67        28.3128   33.1724   27.4795 H         1 TYR         0.1885
    163 H68        25.5563   32.6773   26.8678 H         1 TYR         0.0821
    164 H69        27.8330   30.6504   26.8819 H         1 TYR         0.0453
    165 H70        27.3473   31.6836   25.4950 H         1 TYR         0.0453
    166 H71        24.8262   31.5147   24.7920 H         1 TYR         0.0530
    167 H72        26.7697   28.5604   27.1708 H         1 TYR         0.0530
    168 H73        23.0851   29.8971   24.1857 H         1 TYR         0.0525
    169 H74        25.0122   26.9314   26.5666 H         1 TYR         0.0525
    170 H75        22.3414   27.8424   24.4038 H         1 TYR         0.2458
    171 H76        24.0051   31.9546   28.0470 H         1 ILE         0.1883
    172 H77        24.6897   30.3421   30.4669 H         1 ILE         0.0803
    173 H78        22.3091   32.1995   29.9567 H         1 ILE         0.0345
    174 H79        24.3911   33.3736   30.4312 H         1 ILE         0.0267
    175 H80        24.6742   32.3396   31.8725 H         1 ILE         0.0267
    176 H81        21.6417   30.1734   31.1988 H         1 ILE         0.0235
    177 H82        21.5942   31.6369   32.2391 H         1 ILE         0.0235
    178 H83        22.9528   30.4714   32.3900 H         1 ILE         0.0235
    179 H84        23.8486   34.5466   32.4987 H         1 ILE         0.0230
    180 H85        22.6685   33.2624   32.9286 H         1 ILE         0.0230
    181 H86        22.3854   34.2964   31.4872 H         1 ILE         0.0230
    182 H87        22.7535   27.1919   27.9477 H         1 PRO         0.0802
    183 H88        23.5897   25.2482   28.9674 H         1 PRO         0.0313
    184 H89        22.9495   25.7141   30.5798 H         1 PRO         0.0313
    185 H90        25.5154   26.6198   29.1961 H         1 PRO         0.0287
    186 H91        25.2720   26.0916   30.8957 H         1 PRO         0.0287
    187 H92        24.2288   28.1068   31.5036 H         1 PRO         0.0524
    188 H93        25.4089   28.6968   30.2846 H         1 PRO         0.0524
    189 H94        18.5009   27.5032   29.3168 H         1 PRO         0.0728
    190 H95        17.8501   26.6737   27.2191 H         1 PRO         0.0306
    191 H96        17.5608   25.1526   28.1297 H         1 PRO         0.0306
    192 H97        19.2460   25.1734   26.0315 H         1 PRO         0.0286
    193 H98        19.6540   24.2329   27.5065 H         1 PRO         0.0286
    194 H99        21.5750   25.5794   27.3384 H         1 PRO         0.0524
    195 H100       20.6693   26.9534   26.6184 H         1 PRO         0.0524
@<TRIPOS>BOND
     1    1    2 1  
     2    2    3 1  
     3    2    5 1  
     4    3    4 2  
     5    3    9 am 
     6    5    6 1  
     7    6    7 1  
     8    6    8 1  
     9    9   10 1  
    10   10   11 1  
    11   10   13 1  
    12   11   12 2  
    13   11   14 am 
    14   14   15 1  
    15   15   16 1  
    16   15   18 1  
    17   16   17 2  
    18   16   21 am 
    19   18   19 1  
    20   18   20 1  
    21   21   22 1  
    22   22   23 1  
    23   23   24 2  
    24   23   25 am 
    25   25   26 1  
    26   25   31 1  
    27   26   27 1  
    28   26   29 1  
    29   27   28 2  
    30   27   32 am 
    31   29   30 1  
    32   30   31 1  
    33   32   33 1  
    34   32   38 1  
    35   33   34 1  
    36   33   36 1  
    37   34   35 2  
    38   34   39 am 
    39   36   37 1  
    40   37   38 1  
    41   39   40 1  
    42   40   41 1  
    43   40   43 1  
    44   41   42 2  
    45   41   45 am 
    46   43   44 1  
    47   45   46 1  
    48   46   47 1  
    49   46   49 1  
    50   47   48 2  
    51   47   53 am 
    52   49   50 1  
    53   50   51 1  
    54   50   52 1  
    55   53   54 1  
    56   54   55 1  
    57   54   57 1  
    58   55   56 2  
    59   55   61 am 
    60   57   58 1  
    61   58   59 2  
    62   58   60 am 
    63   61   62 1  
    64   62   63 1  
    65   62   65 1  
    66   63   64 2  
    67   63   73 am 
    68   65   66 1  
    69   66   67 ar 
    70   66   68 ar 
    71   67   69 ar 
    72   68   70 ar 
    73   69   71 ar 
    74   70   71 ar 
    75   71   72 1  
    76   73   74 1  
    77   74   75 1  
    78   74   77 1  
    79   75   76 2  
    80   75   81 am 
    81   77   78 1  
    82   77   79 1  
    83   78   80 1  
    84   81   82 1  
    85   81   87 1  
    86   82   83 1  
    87   82   85 1  
    88   83   84 2  
    89   83   88 am 
    90   85   86 1  
    91   86   87 1  
    92   88   89 1  
    93   88   94 1  
    94   89   90 1  
    95   89   92 1  
    96   90   91 ar 
    97   90   95 ar 
    98   92   93 1  
    99   93   94 1  
   100    1   96 1  
   101    1   97 1  
   102    1   98 1  
   103    2   99 1  
   104    5  100 1  
   105    5  101 1  
   106    6  102 1  
   107    7  103 1  
   108    7  104 1  
   109    7  105 1  
   110    8  106 1  
   111    8  107 1  
   112    8  108 1  
   113    9  109 1  
   114   10  110 1  
   115   13  111 1  
   116   13  112 1  
   117   13  113 1  
   118   14  114 1  
   119   15  115 1  
   120   18  116 1  
   121   19  117 1  
   122   19  118 1  
   123   19  119 1  
   124   20  120 1  
   125   20  121 1  
   126   20  122 1  
   127   21  123 1  
   128   22  124 1  
   129   22  125 1  
   130   26  126 1  
   131   29  127 1  
   132   29  128 1  
   133   30  129 1  
   134   30  130 1  
   135   31  131 1  
   136   31  132 1  
   137   33  133 1  
   138   36  134 1  
   139   36  135 1  
   140   37  136 1  
   141   37  137 1  
   142   38  138 1  
   143   38  139 1  
   144   39  140 1  
   145   40  141 1  
   146   43  142 1  
   147   43  143 1  
   148   44  144 1  
   149   45  145 1  
   150   46  146 1  
   151   49  147 1  
   152   49  148 1  
   153   50  149 1  
   154   51  150 1  
   155   51  151 1  
   156   51  152 1  
   157   52  153 1  
   158   52  154 1  
   159   52  155 1  
   160   53  156 1  
   161   54  157 1  
   162   57  158 1  
   163   57  159 1  
   164   60  160 1  
   165   60  161 1  
   166   61  162 1  
   167   62  163 1  
   168   65  164 1  
   169   65  165 1  
   170   67  166 1  
   171   68  167 1  
   172   69  168 1  
   173   70  169 1  
   174   72  170 1  
   175   73  171 1  
   176   74  172 1  
   177   77  173 1  
   178   78  174 1  
   179   78  175 1  
   180   79  176 1  
   181   79  177 1  
   182   79  178 1  
   183   80  179 1  
   184   80  180 1  
   185   80  181 1  
   186   82  182 1  
   187   85  183 1  
   188   85  184 1  
   189   86  185 1  
   190   86  186 1  
   191   87  187 1  
   192   87  188 1  
   193   89  189 1  
   194   92  190 1  
   195   92  191 1  
   196   93  192 1  
   197   93  193 1  
   198   94  194 1  
   199   94  195 1  
@<TRIPOS>SUBSTRUCTURE
     1 LEU         1

