3wut_ligand
  -I-interpret- 

196200  0  0  0  0  0  0  0  0999 V2000
   13.8830   47.3240   16.4810 N   0  3  0  0  0
   15.2440   47.7270   16.8350 C   0  0  0  0  0
   16.2230   46.5640   16.6340 C   0  0  0  0  0
   15.8220   45.4830   16.1940 O   0  0  0  0  0
   15.2880   48.2450   18.2780 C   0  0  0  0  0
   16.5190   49.0640   18.7020 C   0  0  0  0  0
   16.9270   50.0490   17.6120 C   0  0  0  0  0
   16.3150   49.7660   20.0500 C   0  0  0  0  0
   17.5050   46.7970   16.9190 N   0  0  0  0  0
   18.4940   45.7230   16.9530 C   0  0  0  0  0
   18.3220   44.8940   18.2180 C   0  0  0  0  0
   17.9180   45.4070   19.2680 O   0  0  0  0  0
   19.9050   46.2740   16.8650 C   0  0  0  0  0
   18.6140   43.6030   18.0980 N   0  0  0  0  0
   18.4740   42.6740   19.2050 C   0  0  0  0  0
   19.8330   42.0860   19.5580 C   0  0  0  0  0
   20.5630   41.6040   18.6880 O   0  0  0  0  0
   17.5140   41.5300   18.8430 C   0  0  0  0  0
   17.1120   40.7550   20.0880 C   0  0  0  0  0
   16.2830   42.0820   18.1160 C   0  0  0  0  0
   20.1790   42.1480   20.8360 N   0  0  0  0  0
   21.4030   41.5410   21.3110 C   0  0  0  0  0
   21.0990   40.2510   22.0400 C   0  0  0  0  0
   19.9370   39.9580   22.3300 O   0  0  0  0  0
   22.1440   39.4710   22.3400 N   0  0  0  0  0
   22.0230   38.2150   23.0820 C   0  0  0  0  0
   21.4350   38.4250   24.4780 C   0  0  0  0  0
   21.6960   39.4440   25.1070 O   0  0  0  0  0
   23.4780   37.7250   23.1720 C   0  0  0  0  0
   24.3190   38.9500   22.9340 C   0  0  0  0  0
   23.5360   39.7450   21.9450 C   0  0  0  0  0
   20.6570   37.4510   24.9660 N   0  0  0  0  0
   19.9600   37.5100   26.2590 C   0  0  0  0  0
   20.8870   37.7680   27.4470 C   0  0  0  0  0
   20.4260   38.1030   28.5400 O   0  0  0  0  0
   19.3220   36.1240   26.3750 C   0  0  0  0  0
   20.0940   35.2510   25.4010 C   0  0  0  0  0
   20.4540   36.1610   24.2840 C   0  0  0  0  0
   22.1850   37.5940   27.2200 N   0  0  0  0  0
   23.2080   37.9400   28.1980 C   0  0  0  0  0
   24.5050   38.1540   27.4530 C   0  0  0  0  0
   24.5880   37.8900   26.2530 O   0  0  0  0  0
   23.3690   36.8460   29.2540 C   0  0  0  0  0
   22.8860   35.6000   28.7740 O   0  0  0  0  0
   25.5040   38.6710   28.1540 N   0  0  0  0  0
   26.8040   38.9070   27.5470 C   0  0  0  0  0
   27.5980   37.6040   27.5400 C   0  0  0  0  0
   28.4010   37.3560   26.6440 O   0  0  0  0  0
   27.5370   40.0270   28.2900 C   0  0  0  0  0
   27.2950   41.4410   27.7410 C   0  0  0  0  0
   28.1340   41.6620   26.4980 C   0  0  0  0  0
   25.8180   41.7090   27.4380 C   0  0  0  0  0
   27.3310   36.7640   28.5340 N   0  0  0  0  0
   27.9300   35.4400   28.6290 C   0  0  0  0  0
   26.9040   34.3440   28.3480 C   0  0  0  0  0
   25.7280   34.4810   28.6910 O   0  0  0  0  0
   28.5550   35.2370   30.0070 C   0  0  0  0  0
   29.8030   36.0780   30.2020 C   0  0  0  0  0
   30.3170   36.6770   29.2530 O   0  0  0  0  0
   30.3070   36.1160   31.4290 N   0  0  0  0  0
   27.3450   33.2590   27.7160 N   0  0  0  0  0
   26.4100   32.2010   27.3720 C   0  0  0  0  0
   25.8830   31.5140   28.6160 C   0  0  0  0  0
   26.6420   31.0390   29.4580 O   0  0  0  0  0
   26.9910   31.1680   26.3990 C   0  0  0  0  0
   25.9390   30.1500   26.0090 C   0  0  0  0  0
   24.8800   30.5040   25.1800 C   0  0  0  0  0
   25.9660   28.8600   26.5080 C   0  0  0  0  0
   23.8960   29.5980   24.8400 C   0  0  0  0  0
   24.9750   27.9400   26.1710 C   0  0  0  0  0
   23.9460   28.3170   25.3320 C   0  0  0  0  0
   22.9650   27.4190   24.9820 O   0  0  0  0  0
   24.5660   31.4810   28.7260 N   0  0  0  0  0
   23.9220   30.7740   29.8080 C   0  0  0  0  0
   23.0860   29.6640   29.2160 C   0  0  0  0  0
   22.1560   29.9220   28.4520 O   0  0  0  0  0
   23.0340   31.7230   30.6330 C   0  0  0  0  0
   23.9060   32.8190   31.2480 C   0  0  0  0  0
   22.2510   30.9470   31.6890 C   0  0  0  0  0
   23.1520   33.7960   32.0970 C   0  0  0  0  0
   23.4270   28.4150   29.5530 N   0  0  0  0  0
   22.7160   27.2390   29.0460 C   0  0  0  0  0
   21.2690   27.2330   29.5170 C   0  0  0  0  0
   20.9890   27.7430   30.6050 O   0  0  0  0  0
   23.4760   26.0750   29.6840 C   0  0  0  0  0
   24.8300   26.6480   30.0560 C   0  0  0  0  0
   24.5360   28.0480   30.4490 C   0  0  0  0  0
   20.3600   26.6710   28.7090 N   0  0  0  0  0
   18.9510   26.5250   29.0920 C   0  0  0  0  0
   18.7920   25.6000   30.3030 C   0  0  0  0  0
   19.7320   24.8530   30.6130 O   0  0  0  0  0
   18.3170   25.8990   27.8450 C   0  0  0  0  0
   19.4620   25.2400   27.1080 C   0  0  0  0  0
   20.6300   26.1420   27.3600 C   0  0  0  0  0
   17.7280   25.6240   30.9390 O   0  0  0  0  0
   13.8700   46.9824   15.5200 H   0  0  0  0  0
   13.5744   46.5833   17.1107 H   0  0  0  0  0
   13.2590   48.1264   16.5664 H   0  0  0  0  0
   15.5505   48.5376   16.1739 H   0  0  0  0  0
   15.2961   47.3559   18.9085 H   0  0  0  0  0
   14.4389   48.9218   18.3725 H   0  0  0  0  0
   17.3396   48.3598   18.8394 H   0  0  0  0  0
   16.1475   50.8018   17.4940 H   0  0  0  0  0
   17.8621   50.5334   17.8933 H   0  0  0  0  0
   17.0620   49.5136   16.6722 H   0  0  0  0  0
   17.2450   50.2480   20.3516 H   0  0  0  0  0
   15.5304   50.5164   19.9524 H   0  0  0  0  0
   16.0251   49.0309   20.8008 H   0  0  0  0  0
   17.8029   47.7519   17.1188 H   0  0  0  0  0
   18.3324   45.0824   16.0860 H   0  0  0  0  0
   20.0209   46.8251   15.9317 H   0  0  0  0  0
   20.0862   46.9414   17.7075 H   0  0  0  0  0
   20.6179   45.4499   16.8928 H   0  0  0  0  0
   18.9471   43.2536   17.1995 H   0  0  0  0  0
   18.0687   43.2199   20.0570 H   0  0  0  0  0
   18.0267   40.8412   18.1716 H   0  0  0  0  0
   18.0022   40.3351   20.5563 H   0  0  0  0  0
   16.6143   41.4266   20.7876 H   0  0  0  0  0
   16.4323   39.9497   19.8094 H   0  0  0  0  0
   15.7668   42.7900   18.7644 H   0  0  0  0  0
   16.5980   42.5867   17.2027 H   0  0  0  0  0
   15.6117   41.2605   17.8657 H   0  0  0  0  0
   19.5712   42.6325   21.4964 H   0  0  0  0  0
   21.8995   42.2287   21.9955 H   0  0  0  0  0
   22.0479   41.3255   20.4591 H   0  0  0  0  0
   21.3500   37.5081   22.5968 H   0  0  0  0  0
   23.6866   36.9443   22.4405 H   0  0  0  0  0
   23.6915   37.2711   24.1397 H   0  0  0  0  0
   25.3140   38.7005   22.5656 H   0  0  0  0  0
   24.5055   39.5057   23.8530 H   0  0  0  0  0
   23.7820   40.8067   21.9622 H   0  0  0  0  0
   23.7479   39.4672   20.9125 H   0  0  0  0  0
   19.2525   38.3387   26.2874 H   0  0  0  0  0
   18.2582   36.1487   26.1386 H   0  0  0  0  0
   19.3773   35.7386   27.3931 H   0  0  0  0  0
   19.5028   34.4014   25.0593 H   0  0  0  0  0
   20.9751   34.8061   25.8635 H   0  0  0  0  0
   21.3343   35.8292   23.7335 H   0  0  0  0  0
   19.6878   36.2063   23.5101 H   0  0  0  0  0
   22.4768   37.2023   26.3246 H   0  0  0  0  0
   22.9157   38.8468   28.7274 H   0  0  0  0  0
   22.7958   37.1261   30.1378 H   0  0  0  0  0
   24.4278   36.7425   29.4915 H   0  0  0  0  0
   22.9980   34.9314   29.4537 H   0  0  0  0  0
   25.3584   38.9072   29.1355 H   0  0  0  0  0
   26.6832   39.2343   26.5143 H   0  0  0  0  0
   28.6034   39.8278   28.1844 H   0  0  0  0  0
   27.1642   40.0202   29.3142 H   0  0  0  0  0
   27.5929   42.1459   28.5172 H   0  0  0  0  0
   29.1888   41.5483   26.7482 H   0  0  0  0  0
   27.8580   40.9291   25.7399 H   0  0  0  0  0
   27.9564   42.6670   26.1152 H   0  0  0  0  0
   25.4658   40.9950   26.6936 H   0  0  0  0  0
   25.2351   41.5996   28.3526 H   0  0  0  0  0
   25.7055   42.7225   27.0530 H   0  0  0  0  0
   26.6792   37.0587   29.2611 H   0  0  0  0  0
   28.7109   35.3721   27.8716 H   0  0  0  0  0
   28.8359   34.1879   30.1000 H   0  0  0  0  0
   27.8239   35.5371   30.7577 H   0  0  0  0  0
   31.1519   36.6556   31.6168 H   0  0  0  0  0
   29.8495   35.6056   32.1843 H   0  0  0  0  0
   28.3321   33.1706   27.4748 H   0  0  0  0  0
   25.5843   32.6892   26.8543 H   0  0  0  0  0
   27.8183   30.6514   26.8856 H   0  0  0  0  0
   27.3336   31.6827   25.5013 H   0  0  0  0  0
   24.8259   31.5203   24.7898 H   0  0  0  0  0
   26.7742   28.5588   27.1745 H   0  0  0  0  0
   23.0806   29.8988   24.1821 H   0  0  0  0  0
   25.0124   26.9259   26.5688 H   0  0  0  0  0
   23.1404   26.5746   25.4037 H   0  0  0  0  0
   23.9939   31.9641   28.0334 H   0  0  0  0  0
   24.6784   30.3637   30.4770 H   0  0  0  0  0
   22.2973   32.1974   29.9847 H   0  0  0  0  0
   24.3469   33.3805   30.4243 H   0  0  0  0  0
   24.6352   32.3275   31.8921 H   0  0  0  0  0
   21.6176   30.2074   31.1992 H   0  0  0  0  0
   22.9478   30.4437   32.3592 H   0  0  0  0  0
   21.6305   31.6378   32.2599 H   0  0  0  0  0
   22.3927   34.2911   31.4917 H   0  0  0  0  0
   22.6733   33.2661   32.9205 H   0  0  0  0  0
   23.8432   34.5392   32.4944 H   0  0  0  0  0
   22.6841   27.2005   27.9571 H   0  0  0  0  0
   23.5683   25.2301   29.0015 H   0  0  0  0  0
   22.9521   25.6786   30.5538 H   0  0  0  0  0
   25.5411   26.5924   29.2318 H   0  0  0  0  0
   25.3081   26.0868   30.8588 H   0  0  0  0  0
   24.2785   28.1464   31.5036 H   0  0  0  0  0
   25.3986   28.7065   30.3466 H   0  0  0  0  0
   18.4929   27.4693   29.3861 H   0  0  0  0  0
   20.4593   24.9847   30.0004 H   0  0  0  0  0
   17.8184   26.6468   27.2283 H   0  0  0  0  0
   17.5396   25.1808   28.1059 H   0  0  0  0  0
   19.2539   25.1247   26.0443 H   0  0  0  0  0
   19.6448   24.2238   27.4572 H   0  0  0  0  0
   21.5856   25.6216   27.2952 H   0  0  0  0  0
   20.7245   26.9279   26.6106 H   0  0  0  0  0
  1  2  1  0  0  0
  2  3  1  0  0  0
  2  5  1  0  0  0
  3  4  2  0  0  0
  3  9  1  0  0  0
  5  6  1  0  0  0
  6  7  1  0  0  0
  6  8  1  0  0  0
  9 10  1  0  0  0
 10 11  1  0  0  0
 10 13  1  0  0  0
 11 12  2  0  0  0
 11 14  1  0  0  0
 14 15  1  0  0  0
 15 16  1  0  0  0
 15 18  1  0  0  0
 16 17  2  0  0  0
 16 21  1  0  0  0
 18 19  1  0  0  0
 18 20  1  0  0  0
 21 22  1  0  0  0
 22 23  1  0  0  0
 23 24  2  0  0  0
 23 25  1  0  0  0
 25 26  1  0  0  0
 25 31  1  0  0  0
 26 27  1  0  0  0
 26 29  1  0  0  0
 27 28  2  0  0  0
 27 32  1  0  0  0
 29 30  1  0  0  0
 30 31  1  0  0  0
 32 33  1  0  0  0
 32 38  1  0  0  0
 33 34  1  0  0  0
 33 36  1  0  0  0
 34 35  2  0  0  0
 34 39  1  0  0  0
 36 37  1  0  0  0
 37 38  1  0  0  0
 39 40  1  0  0  0
 40 41  1  0  0  0
 40 43  1  0  0  0
 41 42  2  0  0  0
 41 45  1  0  0  0
 43 44  1  0  0  0
 45 46  1  0  0  0
 46 47  1  0  0  0
 46 49  1  0  0  0
 47 48  2  0  0  0
 47 53  1  0  0  0
 49 50  1  0  0  0
 50 51  1  0  0  0
 50 52  1  0  0  0
 53 54  1  0  0  0
 54 55  1  0  0  0
 54 57  1  0  0  0
 55 56  2  0  0  0
 55 61  1  0  0  0
 57 58  1  0  0  0
 58 59  2  0  0  0
 58 60  1  0  0  0
 61 62  1  0  0  0
 62 63  1  0  0  0
 62 65  1  0  0  0
 63 64  2  0  0  0
 63 73  1  0  0  0
 65 66  1  0  0  0
 66 67  4  0  0  0
 66 68  4  0  0  0
 67 69  4  0  0  0
 68 70  4  0  0  0
 69 71  4  0  0  0
 70 71  4  0  0  0
 71 72  1  0  0  0
 73 74  1  0  0  0
 74 75  1  0  0  0
 74 77  1  0  0  0
 75 76  2  0  0  0
 75 81  1  0  0  0
 77 78  1  0  0  0
 77 79  1  0  0  0
 78 80  1  0  0  0
 81 82  1  0  0  0
 81 87  1  0  0  0
 82 83  1  0  0  0
 82 85  1  0  0  0
 83 84  2  0  0  0
 83 88  1  0  0  0
 85 86  1  0  0  0
 86 87  1  0  0  0
 88 89  1  0  0  0
 88 94  1  0  0  0
 89 90  1  0  0  0
 89 92  1  0  0  0
 90 91  1  0  0  0
 90 95  2  0  0  0
 92 93  1  0  0  0
 93 94  1  0  0  0
  1 96  1  0  0  0
  1 97  1  0  0  0
  1 98  1  0  0  0
  2 99  1  0  0  0
  5100  1  0  0  0
  5101  1  0  0  0
  6102  1  0  0  0
  7103  1  0  0  0
  7104  1  0  0  0
  7105  1  0  0  0
  8106  1  0  0  0
  8107  1  0  0  0
  8108  1  0  0  0
  9109  1  0  0  0
 10110  1  0  0  0
 13111  1  0  0  0
 13112  1  0  0  0
 13113  1  0  0  0
 14114  1  0  0  0
 15115  1  0  0  0
 18116  1  0  0  0
 19117  1  0  0  0
 19118  1  0  0  0
 19119  1  0  0  0
 20120  1  0  0  0
 20121  1  0  0  0
 20122  1  0  0  0
 21123  1  0  0  0
 22124  1  0  0  0
 22125  1  0  0  0
 26126  1  0  0  0
 29127  1  0  0  0
 29128  1  0  0  0
 30129  1  0  0  0
 30130  1  0  0  0
 31131  1  0  0  0
 31132  1  0  0  0
 33133  1  0  0  0
 36134  1  0  0  0
 36135  1  0  0  0
 37136  1  0  0  0
 37137  1  0  0  0
 38138  1  0  0  0
 38139  1  0  0  0
 39140  1  0  0  0
 40141  1  0  0  0
 43142  1  0  0  0
 43143  1  0  0  0
 44144  1  0  0  0
 45145  1  0  0  0
 46146  1  0  0  0
 49147  1  0  0  0
 49148  1  0  0  0
 50149  1  0  0  0
 51150  1  0  0  0
 51151  1  0  0  0
 51152  1  0  0  0
 52153  1  0  0  0
 52154  1  0  0  0
 52155  1  0  0  0
 53156  1  0  0  0
 54157  1  0  0  0
 57158  1  0  0  0
 57159  1  0  0  0
 60160  1  0  0  0
 60161  1  0  0  0
 61162  1  0  0  0
 62163  1  0  0  0
 65164  1  0  0  0
 65165  1  0  0  0
 67166  1  0  0  0
 68167  1  0  0  0
 69168  1  0  0  0
 70169  1  0  0  0
 72170  1  0  0  0
 73171  1  0  0  0
 74172  1  0  0  0
 77173  1  0  0  0
 78174  1  0  0  0
 78175  1  0  0  0
 79176  1  0  0  0
 79177  1  0  0  0
 79178  1  0  0  0
 80179  1  0  0  0
 80180  1  0  0  0
 80181  1  0  0  0
 82182  1  0  0  0
 85183  1  0  0  0
 85184  1  0  0  0
 86185  1  0  0  0
 86186  1  0  0  0
 87187  1  0  0  0
 87188  1  0  0  0
 89189  1  0  0  0
 91190  1  0  0  0
 92191  1  0  0  0
 92192  1  0  0  0
 93193  1  0  0  0
 93194  1  0  0  0
 94195  1  0  0  0
 94196  1  0  0  0
M  END
$$$$
