4fic_ligand
  -I-interpret- 

 25 27  0  0  0  0  0  0  0  0999 V2000
   13.5420  -38.9770   -0.8960 C   0  0  0  0  0
   14.5390  -39.6870   -0.2190 C   0  0  0  0  0
   15.8680  -39.2490   -0.2400 C   0  0  0  0  0
   16.2000  -38.0890   -0.9440 C   0  0  0  0  0
   15.2090  -37.3680   -1.6230 C   0  0  0  0  0
   13.8750  -37.8120   -1.6060 C   0  0  0  0  0
   12.8810  -37.0830   -2.2740 C   0  0  0  0  0
   11.6090  -37.5390   -2.3400 N   0  0  0  0  0
   10.6040  -36.8140   -3.0030 C   0  0  0  0  0
   10.9060  -35.6420   -3.5790 C   0  0  0  0  0
   10.1700  -34.7640   -4.2580 N   0  0  0  0  0
   11.0050  -33.7770   -4.5730 C   0  0  0  0  0
   10.6340  -32.6910   -5.2560 N   0  0  0  0  0
   12.2370  -34.0360   -4.1130 N   0  0  0  0  0
   12.1630  -35.1730   -3.5190 N   0  0  0  0  0
   13.1950  -35.8610   -2.8700 C   0  0  0  0  0
   12.5099  -39.3268   -0.8726 H   0  0  0  0  0
   14.2780  -40.5912    0.3309 H   0  0  0  0  0
   16.6388  -39.8092    0.2893 H   0  0  0  0  0
   17.2336  -37.7436   -0.9651 H   0  0  0  0  0
   15.4729  -36.4604   -2.1659 H   0  0  0  0  0
    9.5864  -37.2020   -3.0485 H   0  0  0  0  0
    9.6671  -32.5878   -5.5639 H   0  0  0  0  0
   11.3176  -31.9647   -5.4697 H   0  0  0  0  0
   14.2066  -35.4570   -2.8316 H   0  0  0  0  0
  1  2  4  0  0  0
  1  6  4  0  0  0
  2  3  4  0  0  0
  3  4  4  0  0  0
  4  5  4  0  0  0
  5  6  4  0  0  0
  6  7  1  0  0  0
  7  8  4  0  0  0
  7 16  4  0  0  0
  8  9  4  0  0  0
  9 10  4  0  0  0
 10 11  4  0  0  0
 10 15  4  0  0  0
 11 12  4  0  0  0
 12 13  1  0  0  0
 12 14  4  0  0  0
 14 15  4  0  0  0
 15 16  4  0  0  0
  1 17  1  0  0  0
  2 18  1  0  0  0
  3 19  1  0  0  0
  4 20  1  0  0  0
  5 21  1  0  0  0
  9 22  1  0  0  0
 13 23  1  0  0  0
 13 24  1  0  0  0
 16 25  1  0  0  0
M  END
$$$$
