6mqm_ligand
  -I-interpret- 

 89 88  0  0  0  0  0  0  0  0999 V2000
  -11.4750   31.4540  -11.9530 N   0  3  0  0  0
  -11.1980   30.2780  -11.1340 C   0  0  0  0  0
  -11.8730   30.3950   -9.7720 C   0  0  0  0  0
  -11.9670   31.4880   -9.2090 O   0  0  0  0  0
   -9.7060   30.1020  -10.9640 C   0  0  0  0  0
  -12.3500   29.2640   -9.2520 N   0  0  0  0  0
  -13.0770   29.2720   -7.9890 C   0  0  0  0  0
  -12.1320   29.6280   -6.8460 C   0  0  0  0  0
  -11.0410   29.0510   -6.7080 O   0  0  0  0  0
  -13.7720   27.9200   -7.7560 C   0  0  0  0  0
  -12.7670   26.7780   -7.7650 C   0  0  0  0  0
  -14.5460   27.9400   -6.4510 C   0  0  0  0  0
  -12.5410   30.5940   -6.0250 N   0  0  0  0  0
  -11.7830   30.9470   -4.8450 C   0  0  0  0  0
  -10.6340   31.9030   -5.0710 C   0  0  0  0  0
   -9.8910   32.1850   -4.1200 O   0  0  0  0  0
  -10.4590   32.4120   -6.2840 N   0  0  0  0  0
   -9.3430   33.2870   -6.6160 C   0  0  0  0  0
   -9.8970   34.6850   -6.8500 C   0  0  0  0  0
  -10.5730   34.9350   -7.8570 O   0  0  0  0  0
   -8.5770   32.7840   -7.8460 C   0  0  0  0  0
   -8.2140   31.3050   -7.6810 C   0  0  0  0  0
   -7.3300   33.6060   -8.0560 C   0  0  0  0  0
   -7.1940   31.0460   -6.5980 C   0  0  0  0  0
   -9.6130   35.5980   -5.9210 N   0  0  0  0  0
  -10.0480   36.9750   -6.0600 C   0  0  0  0  0
  -10.7640   37.5250   -4.8450 C   0  0  0  0  0
  -10.7390   38.7360   -4.5970 O   0  0  0  0  0
  -11.4270   36.6500   -4.0920 N   0  0  0  0  0
  -11.9410   37.0120   -2.7800 C   0  0  0  0  0
  -10.9250   36.7720   -1.6740 C   0  0  0  0  0
  -11.1410   37.2260   -0.5440 O   0  0  0  0  0
  -13.2250   36.2330   -2.4740 C   0  0  0  0  0
   -9.8410   36.0590   -1.9760 N   0  0  0  0  0
   -8.7390   35.8200   -1.0500 C   0  0  0  0  0
   -8.2620   37.1090   -0.3790 C   0  0  0  0  0
   -7.4490   37.8540   -0.9290 O   0  0  0  0  0
   -7.5690   35.1140   -1.7720 C   0  0  0  0  0
   -7.8250   33.6190   -1.8650 C   0  0  0  0  0
   -7.3800   35.6940   -3.1680 C   0  0  0  0  0
   -8.6760   37.4430    0.7330 O   0  0  0  0  0
  -12.4835   31.5621  -12.0604 H   0  0  0  0  0
  -11.0896   32.2818  -11.4985 H   0  0  0  0  0
  -11.0447   31.3370  -12.8704 H   0  0  0  0  0
  -11.6028   29.4027  -11.6421 H   0  0  0  0  0
   -9.2977   30.9635  -10.4356 H   0  0  0  0  0
   -9.5114   29.1962  -10.3897 H   0  0  0  0  0
   -9.2371   30.0198  -11.9445 H   0  0  0  0  0
  -12.2044   28.3825   -9.7440 H   0  0  0  0  0
  -13.8562   30.0332   -8.0290 H   0  0  0  0  0
  -14.4734   27.7552   -8.5739 H   0  0  0  0  0
  -12.2610   26.7486   -8.7300 H   0  0  0  0  0
  -12.0340   26.9345   -6.9736 H   0  0  0  0  0
  -13.2884   25.8355   -7.5978 H   0  0  0  0  0
  -13.8602   28.1337   -5.6262 H   0  0  0  0  0
  -15.3008   28.7254   -6.4897 H   0  0  0  0  0
  -15.0311   26.9752   -6.3029 H   0  0  0  0  0
  -13.4053   31.0943   -6.2326 H   0  0  0  0  0
  -11.3472   30.0218   -4.4679 H   0  0  0  0  0
  -12.4760   31.4489   -4.1698 H   0  0  0  0  0
  -11.1335   32.1811   -7.0135 H   0  0  0  0  0
   -8.6291   33.2984   -5.7924 H   0  0  0  0  0
   -9.2181   32.8892   -8.7212 H   0  0  0  0  0
   -7.7807   30.9692   -8.6231 H   0  0  0  0  0
   -9.1252   30.7753   -7.4032 H   0  0  0  0  0
   -7.6057   34.6494   -8.2090 H   0  0  0  0  0
   -6.6896   33.5231   -7.1779 H   0  0  0  0  0
   -6.7967   33.2375   -8.9323 H   0  0  0  0  0
   -6.2740   31.5819   -6.8315 H   0  0  0  0  0
   -7.5854   31.3928   -5.6416 H   0  0  0  0  0
   -6.9890   29.9769   -6.5419 H   0  0  0  0  0
   -9.0794   35.3230   -5.0963 H   0  0  0  0  0
  -10.7529   37.0074   -6.8908 H   0  0  0  0  0
   -9.1544   37.5812   -6.2085 H   0  0  0  0  0
  -11.5781   35.7042   -4.4429 H   0  0  0  0  0
  -12.1554   38.0803   -2.8092 H   0  0  0  0  0
  -13.9779   36.4659   -3.2270 H   0  0  0  0  0
  -13.0123   35.1641   -2.4895 H   0  0  0  0  0
  -13.5947   36.5170   -1.4887 H   0  0  0  0  0
   -9.7775   35.6559   -2.9108 H   0  0  0  0  0
   -9.1120   35.1663   -0.2615 H   0  0  0  0  0
   -6.6603   35.2799   -1.1933 H   0  0  0  0  0
   -7.9236   33.2054   -0.8613 H   0  0  0  0  0
   -8.7443   33.4432   -2.4237 H   0  0  0  0  0
   -6.9902   33.1398   -2.3764 H   0  0  0  0  0
   -8.2930   35.5512   -3.7461 H   0  0  0  0  0
   -7.1600   36.7588   -3.0909 H   0  0  0  0  0
   -6.5522   35.1855   -3.6623 H   0  0  0  0  0
   -9.2983   36.7855    1.0523 H   0  0  0  0  0
  1  2  1  0  0  0
  2  3  1  0  0  0
  2  5  1  0  0  0
  3  4  2  0  0  0
  3  6  1  0  0  0
  6  7  1  0  0  0
  7  8  1  0  0  0
  7 10  1  0  0  0
  8  9  2  0  0  0
  8 13  1  0  0  0
 10 11  1  0  0  0
 10 12  1  0  0  0
 13 14  1  0  0  0
 14 15  1  0  0  0
 15 16  2  0  0  0
 15 17  1  0  0  0
 17 18  1  0  0  0
 18 19  1  0  0  0
 18 21  1  0  0  0
 19 20  2  0  0  0
 19 25  1  0  0  0
 21 22  1  0  0  0
 21 23  1  0  0  0
 22 24  1  0  0  0
 25 26  1  0  0  0
 26 27  1  0  0  0
 27 28  2  0  0  0
 27 29  1  0  0  0
 29 30  1  0  0  0
 30 31  1  0  0  0
 30 33  1  0  0  0
 31 32  2  0  0  0
 31 34  1  0  0  0
 34 35  1  0  0  0
 35 36  1  0  0  0
 35 38  1  0  0  0
 36 37  2  0  0  0
 36 41  1  0  0  0
 38 39  1  0  0  0
 38 40  1  0  0  0
  1 42  1  0  0  0
  1 43  1  0  0  0
  1 44  1  0  0  0
  2 45  1  0  0  0
  5 46  1  0  0  0
  5 47  1  0  0  0
  5 48  1  0  0  0
  6 49  1  0  0  0
  7 50  1  0  0  0
 10 51  1  0  0  0
 11 52  1  0  0  0
 11 53  1  0  0  0
 11 54  1  0  0  0
 12 55  1  0  0  0
 12 56  1  0  0  0
 12 57  1  0  0  0
 13 58  1  0  0  0
 14 59  1  0  0  0
 14 60  1  0  0  0
 17 61  1  0  0  0
 18 62  1  0  0  0
 21 63  1  0  0  0
 22 64  1  0  0  0
 22 65  1  0  0  0
 23 66  1  0  0  0
 23 67  1  0  0  0
 23 68  1  0  0  0
 24 69  1  0  0  0
 24 70  1  0  0  0
 24 71  1  0  0  0
 25 72  1  0  0  0
 26 73  1  0  0  0
 26 74  1  0  0  0
 29 75  1  0  0  0
 30 76  1  0  0  0
 33 77  1  0  0  0
 33 78  1  0  0  0
 33 79  1  0  0  0
 34 80  1  0  0  0
 35 81  1  0  0  0
 38 82  1  0  0  0
 39 83  1  0  0  0
 39 84  1  0  0  0
 39 85  1  0  0  0
 40 86  1  0  0  0
 40 87  1  0  0  0
 40 88  1  0  0  0
 41 89  1  0  0  0
M  END
$$$$
