6bef_ligand
  -I-interpret- 

101104  0  0  0  0  0  0  0  0999 V2000
   91.4710  103.0030   42.1970 C   0  0  0  0  0
   92.1160  100.7360   42.4500 N   0  0  0  0  0
   90.7710  102.5480   41.0770 O   0  0  0  0  0
   92.1630  102.0760   42.9480 C   0  0  0  0  0
   90.0460  104.9470   40.5800 O   0  0  0  0  0
   92.8900  102.4770   44.0780 C   0  0  0  0  0
   91.6550  108.4290   43.3210 O   0  0  0  0  0
   92.8910  103.8540   44.4180 C   0  0  0  0  0
   93.4560  106.7870   45.8290 O   0  0  0  0  0
   92.1860  106.2680   43.8830 C   0  0  0  0  0
   93.8750  109.2330   44.1430 O   0  0  0  0  0
   91.5240  107.1120   43.0090 C   0  0  0  0  0
   94.9550  107.8590   39.6090 O   0  0  0  0  0
   90.8020  106.6700   41.9170 C   0  0  0  0  0
   97.6150  106.0050   40.6870 O   0  0  0  0  0
   90.7610  105.3310   41.6680 C   0  0  0  0  0
   97.9420  106.1950   38.4440 O   0  0  0  0  0
   91.4620  104.3870   42.4940 C   0  0  0  0  0
   96.9260  103.3410   38.4860 O   0  0  0  0  0
   92.1910  104.8440   43.6310 C   0  0  0  0  0
   95.3990  101.0520   39.1460 O   0  0  0  0  0
   92.7770  107.1030   44.8790 C   0  0  0  0  0
   91.1460   99.7800   44.2240 O   0  0  0  0  0
   92.5670  108.5450   44.4880 C   0  0  0  0  0
   93.6140  104.2220   45.5150 O   0  0  0  0  0
   91.8480  109.3880   45.5300 C   0  0  0  0  0
   94.8690  101.2880   44.8540 O   0  0  0  0  0
   90.0870  107.6670   41.0290 C   0  0  0  0  0
   91.6310   99.6960   43.1270 C   0  0  0  0  0
   91.7600   98.4010   42.4250 C   0  0  0  0  0
   92.8650   98.1160   41.6890 C   0  0  0  0  0
   94.0160   98.9640   41.5630 C   0  0  0  0  0
   95.0530   98.5980   40.7910 C   0  0  0  0  0
   96.4090   99.3360   40.5930 C   0  0  0  0  0
   96.2120  100.8550   40.2990 C   0  0  0  0  0
   97.5360  101.6660   40.1330 C   0  0  0  0  0
   97.3520  103.1650   39.8400 C   0  0  0  0  0
   96.4020  103.9140   40.7980 C   0  0  0  0  0
   96.3210  105.4150   40.4510 C   0  0  0  0  0
   95.3470  106.2210   41.3270 C   0  0  0  0  0
   95.3360  107.7490   40.9950 C   0  0  0  0  0
   94.4040  108.5470   41.8970 C   0  0  0  0  0
   94.8010  108.4860   43.3430 C   0  0  0  0  0
   90.5890   97.4670   42.5570 C   0  0  0  0  0
   97.2920   99.1530   41.8330 C   0  0  0  0  0
   98.4730  101.0180   39.0710 C   0  0  0  0  0
   96.8740  103.6980   42.2520 C   0  0  0  0  0
   93.9550  105.6390   41.1710 C   0  0  0  0  0
   98.3510  106.3620   39.6100 C   0  0  0  0  0
   99.6770  106.9650   39.9990 C   0  0  0  0  0
   95.8790  108.6020   38.8400 C   0  0  0  0  0
   93.6430  101.5140   44.8820 C   0  0  0  0  0
   92.4787  100.5648   41.5122 H   0  0  0  0  0
   90.3378  103.2899   40.6486 H   0  0  0  0  0
   90.0816  103.9913   40.4961 H   0  0  0  0  0
   96.8122  104.2772   38.3067 H   0  0  0  0  0
   95.2935  101.9929   38.9872 H   0  0  0  0  0
   93.5385  105.1704   45.6432 H   0  0  0  0  0
   92.4725  109.4749   46.4191 H   0  0  0  0  0
   91.6543  110.3801   45.1222 H   0  0  0  0  0
   90.9038  108.9111   45.7928 H   0  0  0  0  0
   89.3587  108.2217   41.6207 H   0  0  0  0  0
   90.8137  108.3589   40.6032 H   0  0  0  0  0
   89.5758  107.1355   40.2263 H   0  0  0  0  0
   92.8789   97.1680   41.1512 H   0  0  0  0  0
   94.0492   99.9130   42.0981 H   0  0  0  0  0
   94.9293   97.6691   40.2343 H   0  0  0  0  0
   96.8986   98.8943   39.7251 H   0  0  0  0  0
   95.7177  101.2424   41.1899 H   0  0  0  0  0
   98.0053  101.6160   41.1155 H   0  0  0  0  0
   98.3302  103.6159   40.0068 H   0  0  0  0  0
   95.3953  103.5112   40.6867 H   0  0  0  0  0
   95.9790  105.4578   39.4169 H   0  0  0  0  0
   95.6871  106.1400   42.3594 H   0  0  0  0  0
   96.3226  108.1767   41.1730 H   0  0  0  0  0
   93.4053  108.1197   41.8067 H   0  0  0  0  0
   94.4472  109.5898   41.5827 H   0  0  0  0  0
   94.7973  107.4463   43.6703 H   0  0  0  0  0
   95.7971  108.9135   43.4577 H   0  0  0  0  0
   90.1652   97.2762   41.5711 H   0  0  0  0  0
   90.9228   96.5279   42.9984 H   0  0  0  0  0
   89.8331   97.9222   43.1969 H   0  0  0  0  0
   96.7827   99.5651   42.7041 H   0  0  0  0  0
   97.4807   98.0909   41.9896 H   0  0  0  0  0
   98.2381   99.6733   41.6837 H   0  0  0  0  0
   98.7254  100.0041   39.3814 H   0  0  0  0  0
   97.9629  100.9882   38.1082 H   0  0  0  0  0
   99.3841  101.6098   38.9828 H   0  0  0  0  0
   96.8616  102.6327   42.4822 H   0  0  0  0  0
   97.8872  104.0836   42.3648 H   0  0  0  0  0
   96.2052  104.2257   42.9319 H   0  0  0  0  0
   93.6515  105.7013   40.1260 H   0  0  0  0  0
   93.9612  104.5959   41.4873 H   0  0  0  0  0
   93.2555  106.2030   41.7880 H   0  0  0  0  0
  100.4846  106.3639   39.5811 H   0  0  0  0  0
   99.7404  107.9814   39.6105 H   0  0  0  0  0
   99.7613  106.9840   41.0856 H   0  0  0  0  0
   95.9571  109.6114   39.2438 H   0  0  0  0  0
   96.8546  108.1173   38.8786 H   0  0  0  0  0
   95.5355  108.6483   37.8066 H   0  0  0  0  0
   93.0625  100.9231   45.5906 H   0  0  0  0  0
  1  3  1  0  0  0
  4  1  4  0  0  0
  1 18  4  0  0  0
  2  4  1  0  0  0
 29  2  1  0  0  0
  4  6  4  0  0  0
 16  5  1  0  0  0
  6  8  4  0  0  0
  6 52  1  0  0  0
 12  7  1  0  0  0
 24  7  1  0  0  0
  8 20  4  0  0  0
  8 25  1  0  0  0
 22  9  2  0  0  0
 10 12  4  0  0  0
 20 10  4  0  0  0
 10 22  1  0  0  0
 24 11  1  0  0  0
 11 43  1  0  0  0
 14 12  4  0  0  0
 41 13  1  0  0  0
 13 51  1  0  0  0
 16 14  4  0  0  0
 14 28  1  0  0  0
 39 15  1  0  0  0
 15 49  1  0  0  0
 18 16  4  0  0  0
 49 17  2  0  0  0
 18 20  4  0  0  0
 37 19  1  0  0  0
 35 21  1  0  0  0
 22 24  1  0  0  0
 29 23  2  0  0  0
 24 26  1  0  0  0
 52 27  2  0  0  0
 30 29  1  0  0  0
 31 30  2  0  0  0
 30 44  1  0  0  0
 32 31  1  0  0  0
 33 32  2  0  0  0
 34 33  1  0  0  0
 35 34  1  0  0  0
 34 45  1  0  0  0
 36 35  1  0  0  0
 37 36  1  0  0  0
 36 46  1  0  0  0
 38 37  1  0  0  0
 39 38  1  0  0  0
 38 47  1  0  0  0
 40 39  1  0  0  0
 40 41  1  0  0  0
 40 48  1  0  0  0
 41 42  1  0  0  0
 42 43  1  0  0  0
 49 50  1  0  0  0
  2 53  1  0  0  0
  3 54  1  0  0  0
  5 55  1  0  0  0
 19 56  1  0  0  0
 21 57  1  0  0  0
 25 58  1  0  0  0
 26 59  1  0  0  0
 26 60  1  0  0  0
 26 61  1  0  0  0
 28 62  1  0  0  0
 28 63  1  0  0  0
 28 64  1  0  0  0
 31 65  1  0  0  0
 32 66  1  0  0  0
 33 67  1  0  0  0
 34 68  1  0  0  0
 35 69  1  0  0  0
 36 70  1  0  0  0
 37 71  1  0  0  0
 38 72  1  0  0  0
 39 73  1  0  0  0
 40 74  1  0  0  0
 41 75  1  0  0  0
 42 76  1  0  0  0
 42 77  1  0  0  0
 43 78  1  0  0  0
 43 79  1  0  0  0
 44 80  1  0  0  0
 44 81  1  0  0  0
 44 82  1  0  0  0
 45 83  1  0  0  0
 45 84  1  0  0  0
 45 85  1  0  0  0
 46 86  1  0  0  0
 46 87  1  0  0  0
 46 88  1  0  0  0
 47 89  1  0  0  0
 47 90  1  0  0  0
 47 91  1  0  0  0
 48 92  1  0  0  0
 48 93  1  0  0  0
 48 94  1  0  0  0
 50 95  1  0  0  0
 50 96  1  0  0  0
 50 97  1  0  0  0
 51 98  1  0  0  0
 51 99  1  0  0  0
 51100  1  0  0  0
 52101  1  0  0  0
M  END
$$$$
