4k43_ligand
  -I-interpret- 

 85 86  0  0  0  0  0  0  0  0999 V2000
  -30.8980  -19.0530   -4.2310 O   0  0  0  0  0
  -32.0030  -18.8060   -3.7540 C   0  0  0  0  0
  -32.1480  -17.8920   -2.7130 N   0  0  0  0  0
  -30.8990  -17.2540   -2.2370 C   0  0  0  0  0
  -33.4100  -17.5760   -2.1280 C   0  0  0  0  0
  -33.5710  -16.6200   -1.1860 C   0  0  0  0  0
  -34.8620  -16.3220   -0.4880 C   0  0  0  0  0
  -35.2830  -14.8180   -0.4820 C   0  0  0  0  0
  -34.3230  -14.1750    0.3160 O   0  0  0  0  0
  -34.8140  -13.6210    1.5050 C   0  0  0  0  0
  -35.2250  -14.1650   -1.9200 C   0  0  0  0  0
  -36.3810  -14.7220   -2.7570 C   0  0  0  0  0
  -35.2380  -12.6270   -1.9430 C   0  0  0  0  0
  -36.1800  -12.0270   -1.4520 O   0  0  0  0  0
  -34.1100  -11.7860   -2.5530 C   0  0  0  0  0
  -34.2500  -10.2490   -2.3490 C   0  0  0  0  0
  -33.0260   -9.3870   -2.7520 C   0  0  0  0  0
  -31.9410   -9.4780   -1.6860 C   0  0  0  0  0
  -33.3830   -7.8620   -2.9650 C   0  0  0  0  0
  -33.7270   -7.3690   -1.6970 O   0  0  0  0  0
  -32.8950   -6.3450   -1.2200 C   0  0  0  0  0
  -34.5980   -7.5380   -3.8980 C   0  0  0  0  0
  -34.4380   -8.1180   -5.2960 C   0  0  0  0  0
  -34.8570   -6.0000   -4.0130 C   0  0  0  0  0
  -35.8020   -5.7260   -5.1980 C   0  0  0  0  0
  -37.2060   -6.2850   -4.9590 C   0  0  0  0  0
  -35.8310   -4.1970   -5.3840 C   0  0  0  0  0
  -34.5150   -3.6660   -5.4610 O   0  0  0  0  0
  -33.7010   -3.9170   -4.3350 C   0  0  0  0  0
  -33.6310   -5.3220   -4.2130 O   0  0  0  0  0
  -32.3050   -3.2600   -4.5510 C   0  0  0  0  0
  -31.2530   -3.9570   -5.1740 C   0  0  0  0  0
  -29.9820   -3.4130   -5.3790 C   0  0  0  0  0
  -29.6920   -2.1170   -4.9600 C   0  0  0  0  0
  -30.7100   -1.3970   -4.3320 C   0  0  0  0  0
  -31.9790   -1.9690   -4.1370 C   0  0  0  0  0
  -28.4460   -1.5520   -5.1450 O   0  0  0  0  0
  -27.3600   -2.1800   -4.4860 C   0  0  0  0  0
  -32.8838  -19.3101   -4.1518 H   0  0  0  0  0
  -30.9724  -16.1741   -2.3653 H   0  0  0  0  0
  -30.7527  -17.4868   -1.1822 H   0  0  0  0  0
  -30.0559  -17.6333   -2.8144 H   0  0  0  0  0
  -34.2876  -18.1327   -2.4567 H   0  0  0  0  0
  -32.6995  -16.0239   -0.9153 H   0  0  0  0  0
  -34.7292  -16.6140    0.5537 H   0  0  0  0  0
  -35.6407  -16.8628   -1.0259 H   0  0  0  0  0
  -36.3082  -14.7228   -0.1242 H   0  0  0  0  0
  -35.5744  -12.8762    1.2704 H   0  0  0  0  0
  -35.2521  -14.4089    2.1177 H   0  0  0  0  0
  -33.9962  -13.1483    2.0490 H   0  0  0  0  0
  -34.2570  -14.4351   -2.3420 H   0  0  0  0  0
  -36.2819  -15.8046   -2.8362 H   0  0  0  0  0
  -37.3276  -14.4768   -2.2755 H   0  0  0  0  0
  -36.3531  -14.2795   -3.7527 H   0  0  0  0  0
  -34.1316  -11.9637   -3.6282 H   0  0  0  0  0
  -33.1887  -12.0867   -2.0542 H   0  0  0  0  0
  -34.3887  -10.0967   -1.2786 H   0  0  0  0  0
  -35.0698   -9.9312   -2.9932 H   0  0  0  0  0
  -32.6764   -9.7894   -3.7028 H   0  0  0  0  0
  -32.3350   -9.1157   -0.7365 H   0  0  0  0  0
  -31.6259  -10.5158   -1.5778 H   0  0  0  0  0
  -31.0887   -8.8674   -1.9839 H   0  0  0  0  0
  -32.5133   -7.4174   -3.4489 H   0  0  0  0  0
  -31.8718   -6.7138   -1.1482 H   0  0  0  0  0
  -32.9306   -5.4998   -1.9074 H   0  0  0  0  0
  -33.2385   -6.0286   -0.2351 H   0  0  0  0  0
  -35.4565   -8.0125   -3.4226 H   0  0  0  0  0
  -33.5419   -7.7048   -5.7590 H   0  0  0  0  0
  -34.3475   -9.2022   -5.2300 H   0  0  0  0  0
  -35.3104   -7.8609   -5.8967 H   0  0  0  0  0
  -35.3171   -5.6410   -3.0924 H   0  0  0  0  0
  -35.4416   -6.2274   -6.0962 H   0  0  0  0  0
  -37.1465   -7.3638   -4.8151 H   0  0  0  0  0
  -37.6337   -5.8216   -4.0699 H   0  0  0  0  0
  -37.8345   -6.0664   -5.8223 H   0  0  0  0  0
  -36.3376   -3.7510   -4.5281 H   0  0  0  0  0
  -36.3543   -3.9684   -6.3125 H   0  0  0  0  0
  -34.1004   -3.4890   -3.4155 H   0  0  0  0  0
  -31.4394   -4.9754   -5.5148 H   0  0  0  0  0
  -29.2120   -4.0076   -5.8705 H   0  0  0  0  0
  -30.5186   -0.3802   -3.9892 H   0  0  0  0  0
  -32.7449   -1.3750   -3.6383 H   0  0  0  0  0
  -27.5345   -2.1696   -3.4101 H   0  0  0  0  0
  -27.2737   -3.2102   -4.8315 H   0  0  0  0  0
  -26.4395   -1.6415   -4.7113 H   0  0  0  0  0
  1  2  2  0  0  0
  2  3  1  0  0  0
  3  4  1  0  0  0
  3  5  1  0  0  0
  5  6  2  0  0  0
  6  7  1  0  0  0
  7  8  1  0  0  0
  8  9  1  0  0  0
  8 11  1  0  0  0
  9 10  1  0  0  0
 11 12  1  0  0  0
 11 13  1  0  0  0
 13 14  2  0  0  0
 13 15  1  0  0  0
 15 16  1  0  0  0
 16 17  1  0  0  0
 17 18  1  0  0  0
 17 19  1  0  0  0
 19 20  1  0  0  0
 19 22  1  0  0  0
 20 21  1  0  0  0
 22 23  1  0  0  0
 22 24  1  0  0  0
 24 25  1  0  0  0
 24 30  1  0  0  0
 25 26  1  0  0  0
 25 27  1  0  0  0
 27 28  1  0  0  0
 28 29  1  0  0  0
 29 30  1  0  0  0
 29 31  1  0  0  0
 31 32  4  0  0  0
 31 36  4  0  0  0
 32 33  4  0  0  0
 33 34  4  0  0  0
 34 35  4  0  0  0
 34 37  1  0  0  0
 35 36  4  0  0  0
 37 38  1  0  0  0
  2 39  1  0  0  0
  4 40  1  0  0  0
  4 41  1  0  0  0
  4 42  1  0  0  0
  5 43  1  0  0  0
  6 44  1  0  0  0
  7 45  1  0  0  0
  7 46  1  0  0  0
  8 47  1  0  0  0
 10 48  1  0  0  0
 10 49  1  0  0  0
 10 50  1  0  0  0
 11 51  1  0  0  0
 12 52  1  0  0  0
 12 53  1  0  0  0
 12 54  1  0  0  0
 15 55  1  0  0  0
 15 56  1  0  0  0
 16 57  1  0  0  0
 16 58  1  0  0  0
 17 59  1  0  0  0
 18 60  1  0  0  0
 18 61  1  0  0  0
 18 62  1  0  0  0
 19 63  1  0  0  0
 21 64  1  0  0  0
 21 65  1  0  0  0
 21 66  1  0  0  0
 22 67  1  0  0  0
 23 68  1  0  0  0
 23 69  1  0  0  0
 23 70  1  0  0  0
 24 71  1  0  0  0
 25 72  1  0  0  0
 26 73  1  0  0  0
 26 74  1  0  0  0
 26 75  1  0  0  0
 27 76  1  0  0  0
 27 77  1  0  0  0
 29 78  1  0  0  0
 32 79  1  0  0  0
 33 80  1  0  0  0
 35 81  1  0  0  0
 36 82  1  0  0  0
 38 83  1  0  0  0
 38 84  1  0  0  0
 38 85  1  0  0  0
M  END
$$$$
