2igx_ligand
  -I-interpret- 

 98103  0  0  0  0  0  0  0  0999 V2000
   56.8700   60.2970   13.1870 O   0  0  0  0  0
   56.9890   60.0360   11.9960 C   0  0  0  0  0
   55.7060   59.9230   11.2280 C   0  0  0  0  0
   55.0440   61.0990   10.8850 C   0  0  0  0  0
   53.8350   61.0220   10.1970 C   0  0  0  0  0
   53.3200   59.7580    9.8930 C   0  0  0  0  0
   52.0070   59.6580    9.1430 C   0  0  0  0  0
   52.2580   59.6210    7.6400 C   0  0  0  0  0
   50.9330   59.4290    6.9130 C   0  0  0  0  0
   51.1620   59.3880    5.4110 C   0  0  0  0  0
   49.8370   59.4690    4.6680 C   0  0  0  0  0
   54.0100   58.6050   10.2670 C   0  0  0  0  0
   55.1760   58.7060   10.9360 N   0  0  0  0  0
   58.1960   59.8610   11.4570 N   0  0  0  0  0
   59.3360   60.0230   12.3800 C   0  0  0  0  0
   60.4290   60.9290   11.8100 C   0  0  0  0  0
   61.5300   61.0750   12.8710 C   0  0  0  0  0
   62.0310   59.7210   13.1010 N   0  3  0  0  0
   63.3790   59.7170   13.6820 C   0  0  0  0  0
   63.4400   59.5760   15.1870 C   0  0  0  0  0
   64.1620   58.5240   15.7460 C   0  0  0  0  0
   64.2280   58.3980   17.1280 C   0  0  0  0  0
   63.5600   59.3310   17.9200 C   0  0  0  0  0
   62.8540   60.3780   17.3190 C   0  0  0  0  0
   62.8160   60.4830   15.9780 N   0  0  0  0  0
   61.0720   58.7950   13.7060 C   0  0  0  0  0
   59.9160   58.6410   12.7110 C   0  0  0  0  0
   58.5200   59.4620   10.0830 C   0  0  0  0  0
   58.8650   60.5590    9.1030 C   0  0  0  0  0
   58.4600   61.9010    9.2250 C   0  0  0  0  0
   58.8340   62.8420    8.2580 C   0  0  0  0  0
   59.6340   60.1690    8.0060 C   0  0  0  0  0
   59.9920   61.1010    7.0380 C   0  0  0  0  0
   59.6100   62.4400    7.1600 C   0  0  0  0  0
   60.0310   63.3330    6.0430 C   0  0  0  0  0
   59.0440   64.0300    5.3530 C   0  0  0  0  0
   59.3620   64.8420    4.2660 C   0  0  0  0  0
   61.3620   63.4100    5.6110 C   0  0  0  0  0
   61.6870   64.2310    4.5230 C   0  0  0  0  0
   60.6870   64.9520    3.8500 C   0  0  0  0  0
   61.0430   65.8210    2.6670 C   0  0  0  0  0
   61.5570   65.2670    1.7080 O   0  0  0  0  0
   60.8160   67.1420    2.6240 N   0  0  0  0  0
   60.1990   67.9130    3.7090 C   0  0  0  0  0
   58.8460   68.3520    3.1450 C   0  0  0  0  0
   59.0660   69.2430    1.9100 C   0  0  0  0  0
   59.8910   68.5040    0.8570 C   0  0  0  0  0
   61.1900   67.9310    1.4430 C   0  0  0  0  0
   55.4665   62.0678   11.1515 H   0  0  0  0  0
   53.3027   61.9264    9.9024 H   0  0  0  0  0
   51.3944   60.5278    9.3802 H   0  0  0  0  0
   51.4957   58.7427    9.4411 H   0  0  0  0  0
   52.9279   58.7947    7.4021 H   0  0  0  0  0
   52.7156   60.5582    7.3232 H   0  0  0  0  0
   50.2706   60.2613    7.1511 H   0  0  0  0  0
   50.4832   58.4888    7.2319 H   0  0  0  0  0
   51.6559   58.4511    5.1534 H   0  0  0  0  0
   51.7817   60.2375    5.1238 H   0  0  0  0  0
   49.2092   58.6253    4.9544 H   0  0  0  0  0
   49.3342   60.4014    4.9250 H   0  0  0  0  0
   50.0216   59.4382    3.5942 H   0  0  0  0  0
   53.6068   57.6232   10.0186 H   0  0  0  0  0
   58.9663   60.5061   13.2844 H   0  0  0  0  0
   60.0150   61.9062   11.5616 H   0  0  0  0  0
   60.8405   60.4937   10.8993 H   0  0  0  0  0
   61.1448   61.5200   13.7884 H   0  0  0  0  0
   62.3230   61.7431   12.5350 H   0  0  0  0  0
   62.1438   59.3078   12.1753 H   0  0  0  0  0
   63.8226   60.6835   13.4429 H   0  0  0  0  0
   63.8924   58.8491   13.2682 H   0  0  0  0  0
   64.6713   57.8052   15.1041 H   0  0  0  0  0
   64.7917   57.5846   17.5848 H   0  0  0  0  0
   63.5880   59.2445   19.0062 H   0  0  0  0  0
   62.3340   61.1097   17.9374 H   0  0  0  0  0
   60.7127   59.1786   14.6609 H   0  0  0  0  0
   61.5393   57.8314   13.9091 H   0  0  0  0  0
   60.2836   58.1736   11.7975 H   0  0  0  0  0
   59.1384   58.0175   13.1521 H   0  0  0  0  0
   57.6173   58.9922    9.6926 H   0  0  0  0  0
   59.4146   58.8440   10.1595 H   0  0  0  0  0
   57.8525   62.2093   10.0759 H   0  0  0  0  0
   58.5238   63.8822    8.3576 H   0  0  0  0  0
   59.9547   59.1319    7.9076 H   0  0  0  0  0
   60.5769   60.7839    6.1746 H   0  0  0  0  0
   58.0045   63.9394    5.6680 H   0  0  0  0  0
   58.5772   65.3888    3.7434 H   0  0  0  0  0
   62.1381   62.8359    6.1172 H   0  0  0  0  0
   62.7239   64.3107    4.1964 H   0  0  0  0  0
   60.8129   68.7630    4.0068 H   0  0  0  0  0
   60.0905   67.3231    4.6191 H   0  0  0  0  0
   58.3021   68.9137    3.9045 H   0  0  0  0  0
   58.2703   67.4719    2.8586 H   0  0  0  0  0
   59.6023   70.1422    2.2131 H   0  0  0  0  0
   58.0971   69.5020    1.4831 H   0  0  0  0  0
   60.1544   69.2121    0.0713 H   0  0  0  0  0
   59.2941   67.6754    0.4758 H   0  0  0  0  0
   61.7027   67.3086    0.7096 H   0  0  0  0  0
   61.8767   68.7323    1.7158 H   0  0  0  0  0
  1  2  2  0  0  0
  2  3  1  0  0  0
  2 14  1  0  0  0
  3  4  4  0  0  0
  3 13  4  0  0  0
  4  5  4  0  0  0
  5  6  4  0  0  0
  6  7  1  0  0  0
  6 12  4  0  0  0
  7  8  1  0  0  0
  8  9  1  0  0  0
  9 10  1  0  0  0
 10 11  1  0  0  0
 12 13  4  0  0  0
 14 15  1  0  0  0
 14 28  1  0  0  0
 15 16  1  0  0  0
 15 27  1  0  0  0
 16 17  1  0  0  0
 17 18  1  0  0  0
 18 19  1  0  0  0
 18 26  1  0  0  0
 19 20  1  0  0  0
 20 21  4  0  0  0
 20 25  4  0  0  0
 21 22  4  0  0  0
 22 23  4  0  0  0
 23 24  4  0  0  0
 24 25  4  0  0  0
 26 27  1  0  0  0
 28 29  1  0  0  0
 29 30  4  0  0  0
 29 32  4  0  0  0
 30 31  4  0  0  0
 31 34  4  0  0  0
 32 33  4  0  0  0
 33 34  4  0  0  0
 34 35  1  0  0  0
 35 36  4  0  0  0
 35 38  4  0  0  0
 36 37  4  0  0  0
 37 40  4  0  0  0
 38 39  4  0  0  0
 39 40  4  0  0  0
 40 41  1  0  0  0
 41 42  2  0  0  0
 41 43  1  0  0  0
 43 44  1  0  0  0
 43 48  1  0  0  0
 44 45  1  0  0  0
 45 46  1  0  0  0
 46 47  1  0  0  0
 47 48  1  0  0  0
  4 49  1  0  0  0
  5 50  1  0  0  0
  7 51  1  0  0  0
  7 52  1  0  0  0
  8 53  1  0  0  0
  8 54  1  0  0  0
  9 55  1  0  0  0
  9 56  1  0  0  0
 10 57  1  0  0  0
 10 58  1  0  0  0
 11 59  1  0  0  0
 11 60  1  0  0  0
 11 61  1  0  0  0
 12 62  1  0  0  0
 15 63  1  0  0  0
 16 64  1  0  0  0
 16 65  1  0  0  0
 17 66  1  0  0  0
 17 67  1  0  0  0
 18 68  1  0  0  0
 19 69  1  0  0  0
 19 70  1  0  0  0
 21 71  1  0  0  0
 22 72  1  0  0  0
 23 73  1  0  0  0
 24 74  1  0  0  0
 26 75  1  0  0  0
 26 76  1  0  0  0
 27 77  1  0  0  0
 27 78  1  0  0  0
 28 79  1  0  0  0
 28 80  1  0  0  0
 30 81  1  0  0  0
 31 82  1  0  0  0
 32 83  1  0  0  0
 33 84  1  0  0  0
 36 85  1  0  0  0
 37 86  1  0  0  0
 38 87  1  0  0  0
 39 88  1  0  0  0
 44 89  1  0  0  0
 44 90  1  0  0  0
 45 91  1  0  0  0
 45 92  1  0  0  0
 46 93  1  0  0  0
 46 94  1  0  0  0
 47 95  1  0  0  0
 47 96  1  0  0  0
 48 97  1  0  0  0
 48 98  1  0  0  0
M  END
$$$$
