1fjs_ligand
  -I-interpret- 

 62 65  0  0  0  0  0  0  0  0999 V2000
    5.1670    9.4980   22.6840 C   0  0  0  0  0
    4.7310    8.9980   21.4340 C   0  0  0  0  0
    5.4490    7.9160   20.8570 C   0  0  0  0  0
    6.5520    7.3730   21.5290 C   0  0  0  0  0
    6.9080    7.8760   22.6980 N   0  0  0  0  0
    6.2790    8.8930   23.3080 C   0  0  0  0  0
    8.7690   10.6520   23.1460 O   0  0  0  0  0
    6.7270    9.3140   24.4840 O   0  0  0  0  0
    7.9970    9.3070   24.8900 C   0  0  0  0  0
    8.2880    8.5680   26.0390 C   0  0  0  0  0
    9.6040    8.4850   26.5530 C   0  0  0  0  0
   10.6400    9.1830   25.8600 C   0  0  0  0  0
   10.3510    9.9210   24.7000 C   0  0  0  0  0
    9.0240    9.9810   24.2100 C   0  0  0  0  0
    9.8480    7.7430   27.7040 C   0  0  0  0  0
    8.8450    7.1710   28.4040 N   0  0  0  0  0
   11.0680    7.5150   28.1710 N   0  0  0  0  0
    7.2120    6.3890   20.9760 O   0  0  0  0  0
    6.9160    5.1320   20.6630 C   0  0  0  0  0
    6.0020    4.4760   21.5340 C   0  0  0  0  0
    5.6300    3.1400   21.2940 C   0  0  0  0  0
    6.1770    2.4660   20.1900 C   0  0  0  0  0
    7.0910    3.1210   19.3150 C   0  0  0  0  0
    7.4470    4.4460   19.5700 C   0  0  0  0  0
    7.6220    2.4620   18.2090 C   0  0  0  0  0
    8.7210    1.6960   18.1090 N   0  0  0  0  0
    9.6460    1.3530   19.1300 C   0  0  0  0  0
    7.0060    2.5470   17.0210 N   0  0  0  0  0
    8.8780    1.2220   16.7790 C   0  0  0  0  0
    7.6770    1.8230   16.0210 C   0  0  0  0  0
    3.6490    9.5560   20.8000 N   0  0  0  0  0
    2.2900    9.1450   21.1650 C   0  0  0  0  0
    1.9080    9.2410   22.6240 C   0  0  0  0  0
    1.3480   10.2660   23.1250 O   0  0  0  0  0
    2.1520    8.1850   23.4590 O   0  0  0  0  0
    3.8580   10.5430   19.7630 C   0  0  0  0  0
    4.5580   10.4970   23.2650 F   0  0  0  0  0
    5.1090    7.4180   19.7160 F   0  0  0  0  0
    9.5800   11.0445   22.8145 H   0  0  0  0  0
    7.4824    8.0427   26.5520 H   0  0  0  0  0
   11.6629    9.1427   26.2342 H   0  0  0  0  0
   11.1490   10.4478   24.1768 H   0  0  0  0  0
    9.0546    6.6097   29.2295 H   0  0  0  0  0
    7.8777    7.3002   28.1073 H   0  0  0  0  0
   11.8800    7.8905   27.6811 H   0  0  0  0  0
    5.5886    5.0098   22.3898 H   0  0  0  0  0
    4.9267    2.6351   21.9562 H   0  0  0  0  0
    5.8990    1.4293   20.0002 H   0  0  0  0  0
    8.1489    4.9516   18.9068 H   0  0  0  0  0
   10.0945    2.2614   19.5323 H   0  0  0  0  0
    9.1257    0.8200   19.9258 H   0  0  0  0  0
   10.4254    0.7153   18.7131 H   0  0  0  0  0
    8.8939    0.1333   16.7288 H   0  0  0  0  0
    9.8315    1.5223   16.3445 H   0  0  0  0  0
    7.0489    1.0648   15.5534 H   0  0  0  0  0
    7.9767    2.4444   15.1771 H   0  0  0  0  0
    2.2222    8.0874   20.9102 H   0  0  0  0  0
    1.6229    9.8278   20.6388 H   0  0  0  0  0
    2.5746    7.4787   22.9648 H   0  0  0  0  0
    3.4340   10.1799   18.8268 H   0  0  0  0  0
    3.3699   11.4754   20.0469 H   0  0  0  0  0
    4.9270   10.7148   19.6368 H   0  0  0  0  0
  1  6  4  0  0  0
  1  2  4  0  0  0
  2 31  1  0  0  0
  2  3  4  0  0  0
  3  4  4  0  0  0
  4 18  1  0  0  0
  4  5  4  0  0  0
  5  6  4  0  0  0
  6  8  1  0  0  0
  8  9  1  0  0  0
  9 14  4  0  0  0
  9 10  4  0  0  0
 10 11  4  0  0  0
 11 15  1  0  0  0
 11 12  4  0  0  0
 12 13  4  0  0  0
 13 14  4  0  0  0
 14  7  1  0  0  0
 15 17  2  0  0  0
 15 16  1  0  0  0
 18 19  1  0  0  0
 19 24  4  0  0  0
 19 20  4  0  0  0
 20 21  4  0  0  0
 21 22  4  0  0  0
 22 23  4  0  0  0
 23 25  1  0  0  0
 23 24  4  0  0  0
 25 28  2  0  0  0
 25 26  1  0  0  0
 26 29  1  0  0  0
 26 27  1  0  0  0
 29 30  1  0  0  0
 30 28  1  0  0  0
 31 36  1  0  0  0
 31 32  1  0  0  0
 32 33  1  0  0  0
 33 35  1  0  0  0
 33 34  2  0  0  0
  3 38  1  0  0  0
  1 37  1  0  0  0
  7 39  1  0  0  0
 10 40  1  0  0  0
 12 41  1  0  0  0
 13 42  1  0  0  0
 16 43  1  0  0  0
 16 44  1  0  0  0
 17 45  1  0  0  0
 20 46  1  0  0  0
 21 47  1  0  0  0
 22 48  1  0  0  0
 24 49  1  0  0  0
 27 50  1  0  0  0
 27 51  1  0  0  0
 27 52  1  0  0  0
 29 53  1  0  0  0
 29 54  1  0  0  0
 30 55  1  0  0  0
 30 56  1  0  0  0
 32 57  1  0  0  0
 32 58  1  0  0  0
 35 59  1  0  0  0
 36 60  1  0  0  0
 36 61  1  0  0  0
 36 62  1  0  0  0
M  END
$$$$
