### 
### Created by X-TOOL on Mon Sep 10 21:12:55 2018
### 

@<TRIPOS>MOLECULE
2fgh_ligand
   43    45     1     0     0
SMALL
GAST_HUCK


@<TRIPOS>ATOM
      1 PG          6.7930   38.1710  -38.6740 P.3       1 ATP         0.1879
      2 O1G         5.3370   37.8700  -38.6720 O.co2     1 ATP        -0.6091
      3 O2G         7.0920   39.2770  -37.6200 O.co2     1 ATP        -0.6091
      4 O3G         7.6250   36.9150  -38.3580 O.co2     1 ATP        -0.6091
      5 PB          8.5480   38.2730  -40.8490 P.3       1 ATP         0.3553
      6 O1B         8.8120   39.0460  -42.1100 O.co2     1 ATP        -0.5652
      7 O2B         8.6970   36.7490  -40.9970 O.co2     1 ATP        -0.5652
      8 O3B         7.1410   38.6860  -40.1690 O.3       1 ATP        -0.1546
      9 PA         11.1500   37.9720  -40.1310 P.3       1 ATP         0.3266
     10 O1A        11.5440   36.8390  -39.2460 O.co2     1 ATP        -0.5692
     11 O2A        11.3200   37.7440  -41.6430 O.co2     1 ATP        -0.5692
     12 O3A         9.6750   38.5830  -39.7400 O.3       1 ATP        -0.1171
     13 O5         11.9480   39.2810  -39.6440 O.3       1 ATP        -0.2441
     14 C5         11.8110   39.4960  -38.2320 C.3       1 ATP         0.1131
     15 C4         11.3560   40.8970  -37.8350 C.3       1 ATP         0.1189
     16 O4         12.4090   41.5590  -37.1480 O.3       1 ATP        -0.3364
     17 C3         11.0360   41.8360  -38.9750 C.3       1 ATP         0.1149
     18 O3         10.1400   42.8320  -38.4870 O.3       1 ATP        -0.3864
     19 C2         12.3700   42.3830  -39.4090 C.3       1 ATP         0.1385
     20 O2         12.3180   43.7130  -39.8640 O.3       1 ATP        -0.3836
     21 C1         13.1880   42.2300  -38.1380 C.3       1 ATP         0.2010
     22 N9         14.4480   41.6060  -38.5830 N.pl3     1 ATP        -0.1919
     23 C8         14.7480   40.6920  -39.5790 C.2       1 ATP         0.1123
     24 N7         16.0980   40.5300  -39.6230 N.2       1 ATP        -0.2958
     25 C5         16.6570   41.3470  -38.6830 C.ar      1 ATP         0.1045
     26 C6         17.9560   41.5830  -38.2880 C.ar      1 ATP         0.1298
     27 N6         18.9720   41.0810  -39.0010 N.pl3     1 ATP        -0.3152
     28 N1         18.1910   42.4930  -37.2750 N.ar      1 ATP        -0.2698
     29 C2         17.1480   43.1500  -36.6630 C.ar      1 ATP         0.0533
     30 N3         15.8530   42.9180  -37.0410 N.ar      1 ATP        -0.2714
     31 C4         15.6290   42.0290  -38.0380 C.ar      1 ATP         0.1613
     32 H1         12.7875   39.3082  -37.7618 H         1 ATP         0.0648
     33 H2         11.0740   38.7759  -37.8469 H         1 ATP         0.0648
     34 H3         10.4725   40.7988  -37.1872 H         1 ATP         0.0651
     35 H4         10.5622   41.2984  -39.8095 H         1 ATP         0.0648
     36 H5          9.9251   43.4345  -39.1893 H         1 ATP         0.2100
     37 H6         12.7913   41.7634  -40.2143 H         1 ATP         0.0676
     38 H7         13.1888   43.9931  -40.1204 H         1 ATP         0.2101
     39 H8         13.4304   43.2235  -37.7329 H         1 ATP         0.0996
     40 H9         14.0253   40.1880  -40.2190 H         1 ATP         0.1349
     41 H10        19.9435   41.2564  -38.7072 H         1 ATP         0.1820
     42 H11        18.7821   40.5194  -39.8433 H         1 ATP         0.1820
     43 H12        17.3548   43.8607  -35.8710 H         1 ATP         0.0996
@<TRIPOS>BOND
     1    1    2 ar 
     2    1    3 ar 
     3    1    4 ar 
     4    8    1 1  
     5    5    6 ar 
     6    5    7 ar 
     7    5    8 1  
     8   12    5 1  
     9    9   10 ar 
    10    9   11 ar 
    11    9   12 1  
    12    9   13 1  
    13   13   14 1  
    14   14   15 1  
    15   15   16 1  
    16   15   17 1  
    17   16   21 1  
    18   17   18 1  
    19   17   19 1  
    20   19   20 1  
    21   19   21 1  
    22   21   22 1  
    23   22   23 1  
    24   22   31 1  
    25   23   24 2  
    26   24   25 1  
    27   25   26 ar 
    28   25   31 ar 
    29   26   27 1  
    30   26   28 ar 
    31   28   29 ar 
    32   29   30 ar 
    33   30   31 ar 
    34   14   32 1  
    35   14   33 1  
    36   15   34 1  
    37   17   35 1  
    38   18   36 1  
    39   19   37 1  
    40   20   38 1  
    41   21   39 1  
    42   23   40 1  
    43   27   41 1  
    44   27   42 1  
    45   29   43 1  
@<TRIPOS>SUBSTRUCTURE
     1 ATP         1

