2fgh_ligand
  -I-interpret- 

 47 49  0  0  0  0  0  0  0  0999 V2000
    6.7930   38.1710  -38.6740 P   0  0  0  0  0
    5.3370   37.8700  -38.6720 O   0  0  0  0  0
    7.0920   39.2770  -37.6200 O   0  0  0  0  0
    7.6250   36.9150  -38.3580 O   0  0  0  0  0
    8.5480   38.2730  -40.8490 P   0  0  0  0  0
    8.8120   39.0460  -42.1100 O   0  0  0  0  0
    8.6970   36.7490  -40.9970 O   0  0  0  0  0
    7.1410   38.6860  -40.1690 O   0  0  0  0  0
   11.1500   37.9720  -40.1310 P   0  0  0  0  0
   11.5440   36.8390  -39.2460 O   0  0  0  0  0
   11.3200   37.7440  -41.6430 O   0  0  0  0  0
    9.6750   38.5830  -39.7400 O   0  0  0  0  0
   11.9480   39.2810  -39.6440 O   0  0  0  0  0
   11.8110   39.4960  -38.2320 C   0  0  0  0  0
   11.3560   40.8970  -37.8350 C   0  0  0  0  0
   12.4090   41.5590  -37.1480 O   0  0  0  0  0
   11.0360   41.8360  -38.9750 C   0  0  0  0  0
   10.1400   42.8320  -38.4870 O   0  0  0  0  0
   12.3700   42.3830  -39.4090 C   0  0  0  0  0
   12.3180   43.7130  -39.8640 O   0  0  0  0  0
   13.1880   42.2300  -38.1380 C   0  0  0  0  0
   14.4480   41.6060  -38.5830 N   0  0  0  0  0
   14.7480   40.6920  -39.5790 C   0  0  0  0  0
   16.0980   40.5300  -39.6230 N   0  0  0  0  0
   16.6570   41.3470  -38.6830 C   0  0  0  0  0
   17.9560   41.5830  -38.2880 C   0  0  0  0  0
   18.9720   41.0810  -39.0010 N   0  0  0  0  0
   18.1910   42.4930  -37.2750 N   0  0  0  0  0
   17.1480   43.1500  -36.6630 C   0  0  0  0  0
   15.8530   42.9180  -37.0410 N   0  0  0  0  0
   15.6290   42.0290  -38.0380 C   0  0  0  0  0
    8.0320   39.4722  -37.6204 H   0  0  0  0  0
    8.5582   37.1402  -38.3665 H   0  0  0  0  0
    8.5136   36.3273  -40.1543 H   0  0  0  0  0
   11.0392   38.5299  -42.1175 H   0  0  0  0  0
   12.7983   39.3496  -37.7939 H   0  0  0  0  0
   11.0447   38.8048  -37.8811 H   0  0  0  0  0
   10.4519   40.7125  -37.2548 H   0  0  0  0  0
   10.5409   41.3714  -39.8277 H   0  0  0  0  0
    9.9228   43.4409  -39.1967 H   0  0  0  0  0
   12.7846   41.8638  -40.2731 H   0  0  0  0  0
   13.1980   43.9960  -40.1231 H   0  0  0  0  0
   13.4553   43.1515  -37.6209 H   0  0  0  0  0
   14.0246   40.1875  -40.2196 H   0  0  0  0  0
   18.7839   40.5249  -39.8351 H   0  0  0  0  0
   19.9341   41.2547  -38.7101 H   0  0  0  0  0
   17.3559   43.8646  -35.8667 H   0  0  0  0  0
  1  2  2  0  0  0
  1  3  1  0  0  0
  1  4  1  0  0  0
  8  1  1  0  0  0
  5  6  2  0  0  0
  5  7  1  0  0  0
  5  8  1  0  0  0
 12  5  1  0  0  0
  9 10  2  0  0  0
  9 11  1  0  0  0
  9 12  1  0  0  0
  9 13  1  0  0  0
 13 14  1  0  0  0
 14 15  1  0  0  0
 15 16  1  0  0  0
 15 17  1  0  0  0
 16 21  1  0  0  0
 17 18  1  0  0  0
 17 19  1  0  0  0
 19 20  1  0  0  0
 19 21  1  0  0  0
 21 22  1  0  0  0
 22 23  4  0  0  0
 22 31  4  0  0  0
 23 24  4  0  0  0
 24 25  4  0  0  0
 25 26  4  0  0  0
 25 31  4  0  0  0
 26 27  1  0  0  0
 26 28  4  0  0  0
 28 29  4  0  0  0
 29 30  4  0  0  0
 30 31  4  0  0  0
  3 32  1  0  0  0
  4 33  1  0  0  0
  7 34  1  0  0  0
 11 35  1  0  0  0
 14 36  1  0  0  0
 14 37  1  0  0  0
 15 38  1  0  0  0
 17 39  1  0  0  0
 18 40  1  0  0  0
 19 41  1  0  0  0
 20 42  1  0  0  0
 21 43  1  0  0  0
 23 44  1  0  0  0
 27 45  1  0  0  0
 27 46  1  0  0  0
 29 47  1  0  0  0
M  END
$$$$
