### 
### Created by X-TOOL on Mon Sep 10 21:12:51 2018
### 

@<TRIPOS>MOLECULE
1o4f_ligand
   25    26     1     0     0
SMALL
GAST_HUCK


@<TRIPOS>ATOM
      1 C1         18.8090   26.0860   20.1030 C.3       1 790        -0.0194
      2 C2         19.0410   25.9330   18.6140 C.3       1 790        -0.0102
      3 C3         18.6520   27.1380   17.7550 C.ar      1 790         0.0142
      4 C4         17.9880   28.2580   18.2870 C.ar      1 790         0.1438
      5 N5         17.8860   28.3760   19.6580 N.pl3     1 790        -0.2911
      6 C6         18.7600   27.5640   20.5180 C.3       1 790         0.0400
      7 C13        19.0410   27.1710   16.4120 C.ar      1 790        -0.0490
      8 C14        18.8150   28.3140   15.6250 C.ar      1 790        -0.0587
      9 C15        18.1250   29.4100   16.1230 C.ar      1 790        -0.0101
     10 C16        17.6270   29.3220   17.4220 C.ar      1 790         0.1891
     11 O17        16.7500   30.2890   17.8710 O.3       1 790        -0.2168
     12 P18        15.2920   29.7010   18.0510 P.3       1 790         0.1242
     13 O19        14.7740   31.0290   18.6060 O.co2     1 790        -0.6674
     14 O20        15.0540   28.6250   19.1130 O.co2     1 790        -0.6674
     15 O21        14.6020   29.3020   16.7930 O.co2     1 790        -0.6674
     16 H1         19.6278   25.5900   20.6448 H         1 790         0.0312
     17 H2         17.8533   25.6093   20.3664 H         1 790         0.0312
     18 H3         18.4560   25.0682   18.2678 H         1 790         0.0440
     19 H4         20.1121   25.7377   18.4571 H         1 790         0.0440
     20 H5         17.2046   29.0262   20.0749 H         1 790         0.2036
     21 H6         19.7790   27.9753   20.4693 H         1 790         0.0559
     22 H7         18.3888   27.6253   21.5517 H         1 790         0.0559
     23 H8         19.5225   26.3049   15.9726 H         1 790         0.0562
     24 H9         19.1878   28.3395   14.6074 H         1 790         0.0702
     25 H10        17.9786   30.3016   15.5241 H         1 790         0.0542
@<TRIPOS>BOND
     1    1    2 1  
     2    1    6 1  
     3    2    3 1  
     4    3    4 ar 
     5    3    7 ar 
     6    4    5 1  
     7    4   10 ar 
     8    5    6 1  
     9    7    8 ar 
    10    8    9 ar 
    11    9   10 ar 
    12   10   11 1  
    13   11   12 1  
    14   12   13 ar 
    15   12   14 ar 
    16   12   15 ar 
    17    1   16 1  
    18    1   17 1  
    19    2   18 1  
    20    2   19 1  
    21    5   20 1  
    22    6   21 1  
    23    6   22 1  
    24    7   23 1  
    25    8   24 1  
    26    9   25 1  
@<TRIPOS>SUBSTRUCTURE
     1 790         1

