1o4f_ligand
  -I-interpret- 

 27 28  0  0  0  0  0  0  0  0999 V2000
   18.8090   26.0860   20.1030 C   0  0  0  0  0
   19.0410   25.9330   18.6140 C   0  0  0  0  0
   18.6520   27.1380   17.7550 C   0  0  0  0  0
   17.9880   28.2580   18.2870 C   0  0  0  0  0
   17.8860   28.3760   19.6580 N   0  0  0  0  0
   18.7600   27.5640   20.5180 C   0  0  0  0  0
   19.0410   27.1710   16.4120 C   0  0  0  0  0
   18.8150   28.3140   15.6250 C   0  0  0  0  0
   18.1250   29.4100   16.1230 C   0  0  0  0  0
   17.6270   29.3220   17.4220 C   0  0  0  0  0
   16.7500   30.2890   17.8710 O   0  0  0  0  0
   15.2920   29.7010   18.0510 P   0  0  0  0  0
   14.7740   31.0290   18.6060 O   0  0  0  0  0
   15.0540   28.6250   19.1130 O   0  0  0  0  0
   14.6020   29.3020   16.7930 O   0  0  0  0  0
   19.6333   25.6069   20.6312 H   0  0  0  0  0
   17.8525   25.6263   20.3518 H   0  0  0  0  0
   18.4123   25.1048   18.2870 H   0  0  0  0  0
   20.1138   25.7927   18.4814 H   0  0  0  0  0
   17.2112   29.0199   20.0708 H   0  0  0  0  0
   19.7703   27.9647   20.4360 H   0  0  0  0  0
   18.3627   27.6103   21.5319 H   0  0  0  0  0
   19.5252   26.3001   15.9701 H   0  0  0  0  0
   19.1898   28.3397   14.6018 H   0  0  0  0  0
   17.9778   30.3065   15.5208 H   0  0  0  0  0
   15.2468   31.2432   19.4135 H   0  0  0  0  0
   15.4967   28.8767   19.9268 H   0  0  0  0  0
  1  2  1  0  0  0
  1  6  1  0  0  0
  2  3  1  0  0  0
  3  4  4  0  0  0
  3  7  4  0  0  0
  4  5  1  0  0  0
  4 10  4  0  0  0
  5  6  1  0  0  0
  7  8  4  0  0  0
  8  9  4  0  0  0
  9 10  4  0  0  0
 10 11  1  0  0  0
 11 12  1  0  0  0
 12 13  1  0  0  0
 12 14  1  0  0  0
 12 15  2  0  0  0
  1 16  1  0  0  0
  1 17  1  0  0  0
  2 18  1  0  0  0
  2 19  1  0  0  0
  5 20  1  0  0  0
  6 21  1  0  0  0
  6 22  1  0  0  0
  7 23  1  0  0  0
  8 24  1  0  0  0
  9 25  1  0  0  0
 13 26  1  0  0  0
 14 27  1  0  0  0
M  END
$$$$
