5a2i_ligand
  -I-interpret- 

 89 90  0  0  0  0  0  0  0  0999 V2000
   12.9370   14.1270    3.8110 N   0  3  0  0  0
   12.1090   14.8770    4.7920 C   0  0  0  0  0
   12.1870   14.3340    6.2350 C   0  0  0  0  0
   12.3090   15.1440    7.1480 O   0  0  0  0  0
   10.6930   15.0060    4.3360 C   0  0  0  0  0
   12.1440   12.9850    6.4390 N   0  0  0  0  0
   12.6180   12.4820    7.7330 C   0  0  0  0  0
   14.1520   12.4010    7.7200 C   0  0  0  0  0
   14.8010   13.0290    6.8870 O   0  0  0  0  0
   11.9200   11.1170    7.8490 C   0  0  0  0  0
   11.8210   10.6710    6.4380 C   0  0  0  0  0
   11.6070   11.8880    5.6040 C   0  0  0  0  0
   14.7540   11.6520    8.6300 N   0  0  0  0  0
   16.1970   11.6010    8.6740 C   0  0  0  0  0
   16.7330   10.7250    7.5230 C   0  0  0  0  0
   16.8540    9.4930    7.6480 O   0  0  0  0  0
   16.6480   11.0960   10.0170 C   0  0  0  0  0
   18.1340   11.1610   10.1990 C   0  0  0  0  0
   18.8460   11.5690    9.2710 O   0  0  0  0  0
   18.6050   10.7310   11.2610 O   0  0  0  0  0
   17.0580   11.4080    6.4240 N   0  0  0  0  0
   17.5630   10.7930    5.1860 C   0  0  0  0  0
   19.0820   10.5800    5.1890 C   0  0  0  0  0
   19.6650   10.1830    4.1710 O   0  0  0  0  0
   17.1420   11.6260    3.9400 C   0  0  0  0  0
   17.9190   12.8210    3.7380 O   0  0  0  0  0
   19.7290   10.8230    6.3250 N   0  0  0  0  0
   21.1620   10.6900    6.4170 C   0  0  0  0  0
   21.5440    9.1930    6.2870 C   0  0  0  0  0
   21.0630    8.3700    7.0460 O   0  0  0  0  0
   21.6500   11.2280    7.7700 C   0  0  0  0  0
   23.0580   11.7970    7.7470 C   0  0  0  0  0
   23.8660   11.4730    8.9980 C   0  0  0  0  0
   25.2430   11.1990    8.6150 N   0  0  0  0  0
   26.1320   10.5610    9.3710 C   0  0  0  0  0
   25.8210   10.1520   10.5860 N   0  0  0  0  0
   27.3520   10.3440    8.9160 N   0  0  0  0  0
   22.4250    8.8430    5.3390 N   0  0  0  0  0
   22.9100    7.4430    5.1950 C   0  0  0  0  0
   23.5950    6.8050    6.4180 C   0  0  0  0  0
   24.0870    7.5120    7.2970 O   0  0  0  0  0
   23.9040    7.5230    4.0290 C   0  0  0  0  0
   24.1720    8.9770    3.7950 C   0  0  0  0  0
   22.9880    9.7420    4.3120 C   0  0  0  0  0
   23.6580    5.5810    6.5300 O   0  0  0  0  0
   13.8943   14.0600    4.1567 H   0  0  0  0  0
   12.5521   13.1904    3.6887 H   0  0  0  0  0
   12.9307   14.6179    2.9169 H   0  0  0  0  0
   12.5500   15.8730    4.8314 H   0  0  0  0  0
   10.2127   14.0280    4.3653 H   0  0  0  0  0
   10.1617   15.6930    4.9946 H   0  0  0  0  0
   10.6746   15.3908    3.3164 H   0  0  0  0  0
   12.3847   13.1116    8.5916 H   0  0  0  0  0
   10.9494   11.1797    8.3410 H   0  0  0  0  0
   12.4686   10.4144    8.4763 H   0  0  0  0  0
   10.9947    9.9710    6.3141 H   0  0  0  0  0
   12.7310   10.1534    6.1347 H   0  0  0  0  0
   12.1037   11.8211    4.6361 H   0  0  0  0  0
   10.5582   12.0365    5.3470 H   0  0  0  0  0
   14.2017   11.1133    9.2972 H   0  0  0  0  0
   16.6029   12.6036    8.5397 H   0  0  0  0  0
   16.3495   10.0506   10.0957 H   0  0  0  0  0
   16.1924   11.7281   10.7792 H   0  0  0  0  0
   18.2887   11.8566    8.5442 H   0  0  0  0  0
   16.9494   12.4220    6.4430 H   0  0  0  0  0
   17.1057    9.8049    5.1340 H   0  0  0  0  0
   16.1089   11.9369    4.0955 H   0  0  0  0  0
   17.2920   10.9935    3.0650 H   0  0  0  0  0
   17.6026   13.2787    2.9557 H   0  0  0  0  0
   19.2004   11.1096    7.1489 H   0  0  0  0  0
   21.6311   11.2612    5.6159 H   0  0  0  0  0
   21.6552   10.3886    8.4653 H   0  0  0  0  0
   20.9807   12.0409    8.0516 H   0  0  0  0  0
   22.9717   12.8818    7.6849 H   0  0  0  0  0
   23.5769   11.3523    6.8979 H   0  0  0  0  0
   23.4417   10.5999    9.4937 H   0  0  0  0  0
   23.8368   12.3196    9.6839 H   0  0  0  0  0
   25.5497   11.5207    7.6969 H   0  0  0  0  0
   24.8871   10.3237   10.9585 H   0  0  0  0  0
   28.0373    9.8667    9.5016 H   0  0  0  0  0
   27.6094   10.6536    7.9788 H   0  0  0  0  0
   22.0477    6.7927    5.0479 H   0  0  0  0  0
   23.4939    7.0538    3.1347 H   0  0  0  0  0
   24.8252    6.9903    4.2653 H   0  0  0  0  0
   24.3179    9.1719    2.7325 H   0  0  0  0  0
   25.0808    9.2855    4.3117 H   0  0  0  0  0
   23.2615   10.7180    4.7129 H   0  0  0  0  0
   22.2706    9.9851    3.5282 H   0  0  0  0  0
   23.2344    5.1693    5.7733 H   0  0  0  0  0
  1  2  1  0  0  0
  2  3  1  0  0  0
  2  5  1  0  0  0
  3  4  2  0  0  0
  3  6  1  0  0  0
  6  7  1  0  0  0
  6 12  1  0  0  0
  7  8  1  0  0  0
  7 10  1  0  0  0
  8  9  2  0  0  0
  8 13  1  0  0  0
 10 11  1  0  0  0
 11 12  1  0  0  0
 13 14  1  0  0  0
 14 15  1  0  0  0
 14 17  1  0  0  0
 15 16  2  0  0  0
 15 21  1  0  0  0
 17 18  1  0  0  0
 18 19  1  0  0  0
 18 20  2  0  0  0
 21 22  1  0  0  0
 22 23  1  0  0  0
 22 25  1  0  0  0
 23 24  2  0  0  0
 23 27  1  0  0  0
 25 26  1  0  0  0
 27 28  1  0  0  0
 28 29  1  0  0  0
 28 31  1  0  0  0
 29 30  2  0  0  0
 29 38  1  0  0  0
 31 32  1  0  0  0
 32 33  1  0  0  0
 33 34  1  0  0  0
 34 35  1  0  0  0
 35 36  2  0  0  0
 35 37  1  0  0  0
 38 39  1  0  0  0
 38 44  1  0  0  0
 39 40  1  0  0  0
 39 42  1  0  0  0
 40 41  2  0  0  0
 40 45  1  0  0  0
 42 43  1  0  0  0
 43 44  1  0  0  0
  1 46  1  0  0  0
  1 47  1  0  0  0
  1 48  1  0  0  0
  2 49  1  0  0  0
  5 50  1  0  0  0
  5 51  1  0  0  0
  5 52  1  0  0  0
  7 53  1  0  0  0
 10 54  1  0  0  0
 10 55  1  0  0  0
 11 56  1  0  0  0
 11 57  1  0  0  0
 12 58  1  0  0  0
 12 59  1  0  0  0
 13 60  1  0  0  0
 14 61  1  0  0  0
 17 62  1  0  0  0
 17 63  1  0  0  0
 19 64  1  0  0  0
 21 65  1  0  0  0
 22 66  1  0  0  0
 25 67  1  0  0  0
 25 68  1  0  0  0
 26 69  1  0  0  0
 27 70  1  0  0  0
 28 71  1  0  0  0
 31 72  1  0  0  0
 31 73  1  0  0  0
 32 74  1  0  0  0
 32 75  1  0  0  0
 33 76  1  0  0  0
 33 77  1  0  0  0
 34 78  1  0  0  0
 36 79  1  0  0  0
 37 80  1  0  0  0
 37 81  1  0  0  0
 39 82  1  0  0  0
 42 83  1  0  0  0
 42 84  1  0  0  0
 43 85  1  0  0  0
 43 86  1  0  0  0
 44 87  1  0  0  0
 44 88  1  0  0  0
 45 89  1  0  0  0
M  END
$$$$
