6gwe_ligand
  -I-interpret- 

 93 96  0  0  0  0  0  0  0  0999 V2000
   36.0100   49.0320   15.9960 C   0  3  0  0  0
   31.9540   57.9440   14.7830 C   0  0  0  0  0
   33.2790   57.9360   15.5350 C   0  0  0  0  0
   33.5880   57.6040   18.0090 C   0  0  0  0  0
   32.9740   56.7850   19.1570 C   0  0  0  0  0
   33.0020   56.3180   21.4870 C   0  0  0  0  0
   31.9530   57.3990   21.8100 C   0  0  0  0  0
   30.5670   57.0090   21.8540 C   0  0  0  0  0
   29.5850   57.9350   22.1550 C   0  0  0  0  0
   29.9300   59.2520   22.4220 C   0  0  0  0  0
   31.2870   59.6400   22.3780 C   0  0  0  0  0
   36.7140   50.8380   14.6950 C   0  0  0  0  0
   32.2990   58.7140   22.0640 C   0  0  0  0  0
   33.7490   59.2100   22.0690 C   0  0  0  0  0
   34.9590   55.8570   20.1560 C   0  0  0  0  0
   35.9680   56.1730   21.2870 C   0  0  0  0  0
   35.8910   55.4720   22.4660 C   0  0  0  0  0
   36.7970   55.7510   23.5260 C   0  0  0  0  0
   37.7510   56.7280   23.3730 C   0  0  0  0  0
   37.8310   57.4470   22.1960 C   0  0  0  0  0
   36.9360   57.1780   21.1460 C   0  0  0  0  0
   37.0510   58.0160   19.8170 C   0  0  0  0  0
   36.1040   51.9640   15.5480 C   0  0  0  0  0
   38.6220   57.9170   17.2380 C   0  0  0  0  0
   37.3170   58.1550   16.4520 C   0  0  0  0  0
   37.5350   58.9270   15.2350 C   0  0  0  0  0
   37.1320   55.6700   15.7810 C   0  0  0  0  0
   36.9130   53.2180   15.2280 C   0  0  0  0  0
   36.2010   54.5090   15.4840 C   0  0  0  0  0
   33.7850   54.8540   15.5720 C   0  0  0  0  0
   32.4150   54.9500   16.2610 C   0  0  0  0  0
   31.7780   56.3630   16.4010 C   0  0  0  0  0
   31.1800   56.7430   15.3350 C   0  0  0  0  0
   36.2500   48.0090   16.6530 N   0  0  0  0  0
   34.8300   49.4040   15.8350 N   0  0  0  0  0
   36.9720   49.6680   15.4980 N   0  0  0  0  0
   35.0110   54.5320   16.2940 N   0  0  0  0  0
   32.9720   57.3950   16.6600 N   0  0  0  0  0
   33.8440   56.7480   20.3450 N   0  0  0  0  0
   38.0010   60.2880   15.3420 N   0  0  0  0  0
   36.5440   56.9190   16.1510 N   0  0  0  0  0
   33.8530   55.0300   14.4390 O   0  0  0  0  0
   34.4390   58.3320   18.1620 O   0  0  0  0  0
   34.2420   59.4330   20.8020 O   0  0  0  0  0
   37.3280   58.4850   14.1760 O   0  0  0  0  0
   38.2290   55.5530   15.7000 O   0  0  0  0  0
   38.2820   57.1430   18.8280 S   0  0  0  0  0
   32.0999   57.8708   13.7053 H   0  0  0  0  0
   31.4110   58.8776   14.9299 H   0  0  0  0  0
   33.7051   58.9328   15.6489 H   0  0  0  0  0
   34.0611   57.3922   15.0052 H   0  0  0  0  0
   32.8364   55.7620   18.8067 H   0  0  0  0  0
   32.0326   57.2549   19.4418 H   0  0  0  0  0
   32.4911   55.3915   21.2251 H   0  0  0  0  0
   33.6361   56.1635   22.3600 H   0  0  0  0  0
   30.2899   55.9751   21.6483 H   0  0  0  0  0
   28.5389   57.6299   22.1825 H   0  0  0  0  0
   29.1583   59.9827   22.6642 H   0  0  0  0  0
   31.5553   60.6748   22.5910 H   0  0  0  0  0
   37.6557   51.1885   14.2726 H   0  0  0  0  0
   36.0094   50.5741   13.9063 H   0  0  0  0  0
   34.3634   58.4398   22.5352 H   0  0  0  0  0
   33.7759   60.1566   22.6088 H   0  0  0  0  0
   34.6389   54.8159   20.1971 H   0  0  0  0  0
   35.4129   56.0011   19.1755 H   0  0  0  0  0
   35.1325   54.6990   22.5894 H   0  0  0  0  0
   36.7347   55.1905   24.4588 H   0  0  0  0  0
   38.4482   56.9368   24.1844 H   0  0  0  0  0
   38.5881   58.2228   22.0816 H   0  0  0  0  0
   37.3437   59.0478   20.0115 H   0  0  0  0  0
   36.0942   58.0914   19.3004 H   0  0  0  0  0
   36.1502   51.7243   16.6103 H   0  0  0  0  0
   35.0479   52.1058   15.3185 H   0  0  0  0  0
   39.1066   58.8777   17.4122 H   0  0  0  0  0
   39.2657   57.2566   16.6570 H   0  0  0  0  0
   36.7015   58.7427   17.1331 H   0  0  0  0  0
   37.1357   53.1864   14.1615 H   0  0  0  0  0
   37.7867   53.2048   15.8795 H   0  0  0  0  0
   35.7594   54.6463   14.4970 H   0  0  0  0  0
   32.5741   54.5978   17.2802 H   0  0  0  0  0
   31.7302   54.3806   15.6325 H   0  0  0  0  0
   31.0469   56.3267   17.2087 H   0  0  0  0  0
   31.1518   55.9359   14.6029 H   0  0  0  0  0
   30.1481   57.0190   15.5521 H   0  0  0  0  0
   35.4837   47.4732   17.0607 H   0  0  0  0  0
   34.0655   48.8665   16.2437 H   0  0  0  0  0
   34.6298   50.2456   15.2947 H   0  0  0  0  0
   37.9303   49.3587   15.6606 H   0  0  0  0  0
   35.0241   54.3381   17.2953 H   0  0  0  0  0
   38.1439   60.8458   14.5001 H   0  0  0  0  0
   38.1876   60.6925   16.2596 H   0  0  0  0  0
   35.5270   56.9666   16.2129 H   0  0  0  0  0
   35.1493   59.7409   20.8625 H   0  0  0  0  0
  1 34  2  0  0  0
  1 35  1  0  0  0
 36  1  1  0  0  0
  3  2  1  0  0  0
 33  2  1  0  0  0
 38  3  1  0  0  0
  5  4  1  0  0  0
  4 38  1  0  0  0
  4 43  2  0  0  0
 39  5  1  0  0  0
  6  7  1  0  0  0
 39  6  1  0  0  0
  7  8  4  0  0  0
  7 13  4  0  0  0
  8  9  4  0  0  0
  9 10  4  0  0  0
 11 10  4  0  0  0
 13 11  4  0  0  0
 23 12  1  0  0  0
 12 36  1  0  0  0
 13 14  1  0  0  0
 14 44  1  0  0  0
 16 15  1  0  0  0
 15 39  1  0  0  0
 16 17  4  0  0  0
 21 16  4  0  0  0
 17 18  4  0  0  0
 19 18  4  0  0  0
 20 19  4  0  0  0
 21 20  4  0  0  0
 22 21  1  0  0  0
 28 23  1  0  0  0
 25 24  1  0  0  0
 25 26  1  0  0  0
 41 25  1  0  0  0
 26 40  1  0  0  0
 26 45  2  0  0  0
 29 27  1  0  0  0
 27 41  1  0  0  0
 27 46  2  0  0  0
 29 28  1  0  0  0
 37 29  1  0  0  0
 31 30  1  0  0  0
 30 37  1  0  0  0
 30 42  2  0  0  0
 32 31  1  0  0  0
 32 33  1  0  0  0
 38 32  1  0  0  0
 47 22  1  0  0  0
 24 47  1  0  0  0
  2 48  1  0  0  0
  2 49  1  0  0  0
  3 50  1  0  0  0
  3 51  1  0  0  0
  5 52  1  0  0  0
  5 53  1  0  0  0
  6 54  1  0  0  0
  6 55  1  0  0  0
  8 56  1  0  0  0
  9 57  1  0  0  0
 10 58  1  0  0  0
 11 59  1  0  0  0
 12 60  1  0  0  0
 12 61  1  0  0  0
 14 62  1  0  0  0
 14 63  1  0  0  0
 15 64  1  0  0  0
 15 65  1  0  0  0
 17 66  1  0  0  0
 18 67  1  0  0  0
 19 68  1  0  0  0
 20 69  1  0  0  0
 22 70  1  0  0  0
 22 71  1  0  0  0
 23 72  1  0  0  0
 23 73  1  0  0  0
 24 74  1  0  0  0
 24 75  1  0  0  0
 25 76  1  0  0  0
 28 77  1  0  0  0
 28 78  1  0  0  0
 29 79  1  0  0  0
 31 80  1  0  0  0
 31 81  1  0  0  0
 32 82  1  0  0  0
 33 83  1  0  0  0
 33 84  1  0  0  0
 34 85  1  0  0  0
 35 86  1  0  0  0
 35 87  1  0  0  0
 36 88  1  0  0  0
 37 89  1  0  0  0
 40 90  1  0  0  0
 40 91  1  0  0  0
 41 92  1  0  0  0
 44 93  1  0  0  0
M  END
$$$$
