1g48_ligand
  -I-interpret- 

 34 35  0  0  0  0  0  0  0  0999 V2000
   -3.7940    3.5380   14.8550 C   0  0  0  0  0
   -4.2120    2.3990   15.5800 C   0  0  0  0  0
   -5.5880    2.2540   15.9480 C   0  0  0  0  0
   -6.4670    3.2680   15.5780 C   0  0  0  0  0
   -6.0260    4.3810   14.8680 C   0  0  0  0  0
   -4.7020    4.5370   14.4920 C   0  0  0  0  0
   -4.2770    5.7680   13.6970 C   0  0  0  0  0
   -5.1880    6.5530   13.4440 O   0  0  0  0  0
   -2.9710    6.0990   13.2190 N   0  0  0  0  0
   -2.7940    7.5340   12.9470 C   0  0  0  0  0
   -6.0930    0.7770   16.8530 S   0  0  0  0  0
   -5.6120   -0.6010   16.0100 N   0  0  0  0  0
   -7.5340    0.9560   16.9790 O   0  0  0  0  0
   -5.4420    0.9540   18.1540 O   0  0  0  0  0
   -1.6920    8.2620   13.4360 C   0  0  0  0  0
   -0.4240    8.1310   12.7780 C   0  0  0  0  0
    0.6970    8.8860   13.2940 C   0  0  0  0  0
    0.5280    9.7520   14.4460 C   0  0  0  0  0
   -0.7560    9.8670   15.0900 C   0  0  0  0  0
   -1.8630    9.1280   14.5920 C   0  0  0  0  0
   -0.2750    7.3300   11.7140 F   0  0  0  0  0
   -3.0470    9.2520   15.2070 F   0  0  0  0  0
   -2.7457    3.6392   14.5741 H   0  0  0  0  0
   -3.4884    1.6328   15.8583 H   0  0  0  0  0
   -7.5198    3.1890   15.8492 H   0  0  0  0  0
   -6.7454    5.1545   14.5993 H   0  0  0  0  0
   -2.2339    5.4078   13.0801 H   0  0  0  0  0
   -3.6452    7.9944   13.4486 H   0  0  0  0  0
   -2.6645    7.5733   11.8654 H   0  0  0  0  0
   -4.9196   -1.2310   16.4152 H   0  0  0  0  0
   -6.0133   -0.8049   15.0947 H   0  0  0  0  0
    1.6728    8.8040   12.8153 H   0  0  0  0  0
    1.3775   10.3190   14.8266 H   0  0  0  0  0
   -0.8776   10.5182   15.9556 H   0  0  0  0  0
  1  6  4  0  0  0
  1  2  4  0  0  0
  2  3  4  0  0  0
  3 11  1  0  0  0
  3  4  4  0  0  0
  4  5  4  0  0  0
  5  6  4  0  0  0
  6  7  1  0  0  0
  7  9  1  0  0  0
  7  8  2  0  0  0
  9 10  1  0  0  0
 10 15  1  0  0  0
 15 20  4  0  0  0
 15 16  4  0  0  0
 16 17  4  0  0  0
 17 18  4  0  0  0
 18 19  4  0  0  0
 19 20  4  0  0  0
 11 14  2  0  0  0
 11 13  2  0  0  0
 11 12  1  0  0  0
 16 21  1  0  0  0
 20 22  1  0  0  0
  1 23  1  0  0  0
  2 24  1  0  0  0
  4 25  1  0  0  0
  5 26  1  0  0  0
  9 27  1  0  0  0
 10 28  1  0  0  0
 10 29  1  0  0  0
 12 30  1  0  0  0
 12 31  1  0  0  0
 17 32  1  0  0  0
 18 33  1  0  0  0
 19 34  1  0  0  0
M  END
$$$$
