1w7x_ligand
  -I-interpret- 

 70 73  0  0  0  0  0  0  0  0999 V2000
    9.6510   39.6130   34.6010 O   0  0  0  0  0
    9.1900   40.0340   33.5440 C   0  0  0  0  0
    7.9250   40.4530   33.4550 N   0  0  0  0  0
    7.0610   40.4800   34.6210 C   0  0  0  0  0
    7.5880   41.5320   35.5400 C   0  0  0  0  0
    8.2140   42.6780   35.0240 C   0  0  0  0  0
    8.7230   43.6650   35.8700 C   0  0  0  0  0
    8.5870   43.5100   37.2490 C   0  0  0  0  0
    7.9750   42.3680   37.7780 C   0  0  0  0  0
    7.4770   41.3760   36.9210 C   0  0  0  0  0
    5.6730   40.9080   34.2600 C   0  0  0  0  0
    5.4660   41.3040   33.0920 O   0  0  0  0  0
    4.7950   40.8510   35.1530 O   0  0  0  0  0
   10.0100   40.1250   32.2890 C   0  0  0  0  0
   11.2010   39.2870   32.3880 N   0  0  0  0  0
   11.9270   38.8260   31.3310 C   0  0  0  0  0
   11.5210   39.0270   30.0090 C   0  0  0  0  0
   12.2880   38.5500   28.9610 C   0  0  0  0  0
   13.1440   38.1660   31.5700 C   0  0  0  0  0
   13.9330   37.6840   30.5240 C   0  0  0  0  0
   13.5020   37.8900   29.2060 C   0  0  0  0  0
   14.2900   37.4000   28.0320 C   0  0  0  0  0
   15.4680   36.7800   28.1850 N   0  0  0  0  0
   13.7730   37.6040   26.8100 N   0  0  0  0  0
   10.3530   41.5620   32.0720 C   0  0  0  0  0
   11.2400   42.2450   32.9100 C   0  0  0  0  0
   11.5280   43.5900   32.7070 C   0  0  0  0  0
   12.4170   44.2590   33.5190 O   0  0  0  0  0
   12.9060   43.6620   34.7290 C   0  0  0  0  0
   10.9350   44.2740   31.6400 C   0  0  0  0  0
   10.0450   43.5980   30.8000 C   0  0  0  0  0
    9.7470   42.2550   31.0060 C   0  0  0  0  0
   11.2460   45.6070   31.4430 O   0  0  0  0  0
   10.4420   46.4910   30.6590 C   0  0  0  0  0
   10.7150   46.3240   29.1780 C   0  0  0  0  0
   11.7710   45.5420   28.7070 C   0  0  0  0  0
   11.9920   45.3980   27.3370 C   0  0  0  0  0
   11.1680   46.0450   26.4160 C   0  0  0  0  0
   10.1120   46.8290   26.8800 C   0  0  0  0  0
    9.8880   46.9780   28.2510 C   0  0  0  0  0
    7.5601   40.7590   32.5530 H   0  0  0  0  0
    7.0396   39.4830   35.0610 H   0  0  0  0  0
    8.3041   42.7991   33.9445 H   0  0  0  0  0
    9.2194   44.5439   35.4586 H   0  0  0  0  0
    8.9600   44.2839   37.9198 H   0  0  0  0  0
    7.8853   42.2494   38.8578 H   0  0  0  0  0
    7.0041   40.4848   37.3337 H   0  0  0  0  0
    5.1860   40.5174   35.9638 H   0  0  0  0  0
    9.4457   39.7550   31.4329 H   0  0  0  0  0
   11.5148   39.0257   33.3227 H   0  0  0  0  0
   10.5945   39.5628   29.8023 H   0  0  0  0  0
   11.9461   38.6881   27.9353 H   0  0  0  0  0
   13.4804   38.0269   32.5974 H   0  0  0  0  0
   14.8656   37.1580   30.7280 H   0  0  0  0  0
   15.8487   36.6318   29.1196 H   0  0  0  0  0
   14.2780   37.2856   25.9829 H   0  0  0  0  0
   12.8752   38.0774   26.7086 H   0  0  0  0  0
   11.7134   41.7142   33.7360 H   0  0  0  0  0
   12.0675   43.4483   35.3918 H   0  0  0  0  0
   13.4276   42.7351   34.4903 H   0  0  0  0  0
   13.5930   44.3508   35.2206 H   0  0  0  0  0
    9.5780   44.1310   29.9718 H   0  0  0  0  0
    9.0480   41.7415   30.3458 H   0  0  0  0  0
   10.6813   47.5164   30.9406 H   0  0  0  0  0
    9.3931   46.2599   30.8449 H   0  0  0  0  0
   12.4289   45.0393   29.4160 H   0  0  0  0  0
   12.8142   44.7756   26.9839 H   0  0  0  0  0
   11.3474   45.9391   25.3461 H   0  0  0  0  0
    9.4563   47.3294   26.1674 H   0  0  0  0  0
    9.0680   47.6044   28.6022 H   0  0  0  0  0
  1  2  2  0  0  0
  2  3  1  0  0  0
  2 14  1  0  0  0
  3  4  1  0  0  0
  4  5  1  0  0  0
  4 11  1  0  0  0
  5  6  4  0  0  0
  5 10  4  0  0  0
  6  7  4  0  0  0
  7  8  4  0  0  0
  8  9  4  0  0  0
  9 10  4  0  0  0
 11 12  2  0  0  0
 11 13  1  0  0  0
 14 15  1  0  0  0
 14 25  1  0  0  0
 15 16  1  0  0  0
 16 17  4  0  0  0
 16 19  4  0  0  0
 17 18  4  0  0  0
 18 21  4  0  0  0
 19 20  4  0  0  0
 20 21  4  0  0  0
 21 22  1  0  0  0
 22 23  2  0  0  0
 22 24  1  0  0  0
 25 26  4  0  0  0
 25 32  4  0  0  0
 26 27  4  0  0  0
 27 28  1  0  0  0
 27 30  4  0  0  0
 28 29  1  0  0  0
 30 31  4  0  0  0
 30 33  1  0  0  0
 31 32  4  0  0  0
 33 34  1  0  0  0
 34 35  1  0  0  0
 35 36  4  0  0  0
 35 40  4  0  0  0
 36 37  4  0  0  0
 37 38  4  0  0  0
 38 39  4  0  0  0
 39 40  4  0  0  0
  3 41  1  0  0  0
  4 42  1  0  0  0
  6 43  1  0  0  0
  7 44  1  0  0  0
  8 45  1  0  0  0
  9 46  1  0  0  0
 10 47  1  0  0  0
 13 48  1  0  0  0
 14 49  1  0  0  0
 15 50  1  0  0  0
 17 51  1  0  0  0
 18 52  1  0  0  0
 19 53  1  0  0  0
 20 54  1  0  0  0
 23 55  1  0  0  0
 24 56  1  0  0  0
 24 57  1  0  0  0
 26 58  1  0  0  0
 29 59  1  0  0  0
 29 60  1  0  0  0
 29 61  1  0  0  0
 31 62  1  0  0  0
 32 63  1  0  0  0
 34 64  1  0  0  0
 34 65  1  0  0  0
 36 66  1  0  0  0
 37 67  1  0  0  0
 38 68  1  0  0  0
 39 69  1  0  0  0
 40 70  1  0  0  0
M  END
$$$$
