1om9_ligand
  -I-interpret- 

150151  0  0  0  0  0  0  0  0999 V2000
  -19.0050   33.3590   54.0100 N   0  3  0  0  0
  -19.3240   32.7100   52.7110 C   0  0  0  0  0
  -17.9810   32.2460   52.1960 C   0  0  0  0  0
  -17.0970   33.0650   51.9090 O   0  0  0  0  0
  -19.9680   33.7090   51.7340 C   0  0  0  0  0
  -20.9270   33.0410   50.7180 C   0  0  0  0  0
  -20.6300   31.9140   50.1630 O   0  0  0  0  0
  -22.0220   33.6160   50.4120 O   0  0  0  0  0
  -17.7930   30.9380   52.1040 N   0  0  0  0  0
  -16.4550   30.4970   51.8040 C   0  0  0  0  0
  -16.2140   30.4960   50.3140 C   0  0  0  0  0
  -17.1610   30.5310   49.5110 O   0  0  0  0  0
  -16.0840   29.1590   52.4480 C   0  0  0  0  0
  -14.9300   29.3020   53.4320 C   0  0  0  0  0
  -13.7530   29.3790   52.9860 O   0  0  0  0  0
  -15.1180   29.3810   54.6630 O   0  0  0  0  0
  -14.9230   30.5080   49.9760 N   0  0  0  0  0
  -14.4760   30.7730   48.6280 C   0  0  0  0  0
  -14.4430   29.5290   47.7810 C   0  0  0  0  0
  -14.2060   28.4090   48.2910 O   0  0  0  0  0
  -13.0830   31.4050   48.6490 C   0  0  0  0  0
  -13.1100   32.8890   48.7940 C   0  0  0  0  0
  -13.2150   33.4730   50.0550 C   0  0  0  0  0
  -13.0990   33.7120   47.6520 C   0  0  0  0  0
  -13.2470   34.8980   50.1820 C   0  0  0  0  0
  -13.1600   35.1090   47.7600 C   0  0  0  0  0
  -13.2240   35.7010   49.0260 C   0  0  0  0  0
  -14.6870   29.7410   46.4800 N   0  0  0  0  0
  -14.4790   28.7440   45.4600 C   0  0  0  0  0
  -12.9970   28.5110   45.2020 C   0  0  0  0  0
  -12.1270   29.0060   45.9360 O   0  0  0  0  0
  -12.7120   27.7170   44.1640 N   0  0  0  0  0
  -11.3460   27.4490   43.7580 C   0  0  0  0  0
  -10.9020   28.5970   42.8870 C   0  0  0  0  0
  -11.7430   29.3900   42.4530 O   0  0  0  0  0
   -9.5990   28.6990   42.6570 N   0  0  0  0  0
   -9.0660   29.6980   41.7520 C   0  0  0  0  0
   -9.2880   29.2510   40.3410 C   0  0  0  0  0
   -8.9880   28.1070   39.9820 O   0  0  0  0  0
   -7.5640   29.9410   41.9860 C   0  0  0  0  0
   -7.3000   30.6400   43.2570 C   0  0  0  0  0
   -7.1400   29.9250   44.4330 C   0  0  0  0  0
   -7.3410   32.0250   43.3050 C   0  0  0  0  0
   -6.9360   30.5990   45.6390 C   0  0  0  0  0
   -7.1490   32.6890   44.4700 C   0  0  0  0  0
   -6.9480   31.9890   45.6510 C   0  0  0  0  0
   -9.8250   30.1870   39.5690 N   0  0  0  0  0
   -9.9850   30.0640   38.1500 C   0  0  0  0  0
   -8.8600   30.8220   37.4220 C   0  0  0  0  0
   -8.3710   31.8510   37.8940 O   0  0  0  0  0
  -11.3420   30.6600   37.7500 C   0  0  0  0  0
  -12.5770   30.1720   38.5440 C   0  0  0  0  0
  -12.8910   28.6730   38.3530 C   0  0  0  0  0
  -12.4350   28.0740   37.3560 O   0  0  0  0  0
  -13.5550   28.0880   39.2320 O   0  0  0  0  0
   -8.4320   30.2990   36.2820 N   0  0  0  0  0
   -7.5980   31.0520   35.3580 C   0  0  0  0  0
   -8.1860   30.9220   33.9330 C   0  0  0  0  0
   -9.2900   30.3990   33.7390 O   0  0  0  0  0
   -6.1570   30.5390   35.4200 C   0  0  0  0  0
   -7.4700   31.4070   32.9390 N   0  0  0  0  0
   -7.9140   31.2410   31.5820 C   0  0  0  0  0
   -7.2420   30.0410   30.9470 C   0  0  0  0  0
   -6.0910   29.6990   31.3130 O   0  0  0  0  0
   -7.6270   32.5150   30.7780 C   0  0  0  0  0
   -7.9680   29.4040   29.9990 N   0  0  0  0  0
   -7.4110   28.3620   29.1000 C   0  0  0  0  0
   -6.1240   28.8690   28.4510 C   0  0  0  0  0
   -6.1760   29.7770   27.6340 O   0  0  0  0  0
   -8.3800   27.9890   27.9720 C   0  0  0  0  0
   -9.6690   27.2750   28.4240 C   0  0  0  0  0
  -10.9490   28.0350   28.0240 C   0  0  0  0  0
  -11.0380   29.2670   28.3590 O   0  0  0  0  0
  -11.8660   27.4120   27.4120 O   0  0  0  0  0
   -4.9920   28.3040   28.8540 N   0  0  0  0  0
   -3.6980   28.5150   28.2040 C   0  0  0  0  0
   -3.4620   27.4210   27.1690 C   0  0  0  0  0
   -3.3740   26.2500   27.5620 O   0  0  0  0  0
   -2.5340   28.4550   29.2680 C   0  0  0  0  0
   -2.7280   29.4580   30.2880 O   0  0  0  0  0
   -1.1710   28.8070   28.6260 C   0  0  0  0  0
   -3.3534   27.7167   25.8768 O   0  0  0  0  0
  -19.8645   33.7069   54.4350 H   0  0  0  0  0
  -18.5688   32.6776   54.6311 H   0  0  0  0  0
  -18.3636   34.1362   53.8520 H   0  0  0  0  0
  -20.0402   31.8953   52.8177 H   0  0  0  0  0
  -19.1647   34.1803   51.1678 H   0  0  0  0  0
  -20.5526   34.4156   52.3232 H   0  0  0  0  0
  -19.7814   31.6098   50.4931 H   0  0  0  0  0
  -18.5574   30.2763   52.2388 H   0  0  0  0  0
  -15.7825   31.2229   52.2611 H   0  0  0  0  0
  -15.7765   28.4735   51.6583 H   0  0  0  0  0
  -16.9530   28.7893   52.9922 H   0  0  0  0  0
  -13.7689   29.3022   52.0292 H   0  0  0  0  0
  -14.2254   30.3230   50.6968 H   0  0  0  0  0
  -15.1952   31.4617   48.1846 H   0  0  0  0  0
  -12.6032   31.1759   47.6975 H   0  0  0  0  0
  -12.5506   30.9998   49.5095 H   0  0  0  0  0
  -13.2727   32.8448   50.9439 H   0  0  0  0  0
  -13.0419   33.2545   46.6643 H   0  0  0  0  0
  -13.2890   35.3593   51.1687 H   0  0  0  0  0
  -13.1576   35.7293   46.8637 H   0  0  0  0  0
  -13.2561   36.7867   49.1175 H   0  0  0  0  0
  -15.0383   30.6558   46.1970 H   0  0  0  0  0
  -14.9396   29.0938   44.5361 H   0  0  0  0  0
  -14.9223   27.8071   45.7973 H   0  0  0  0  0
  -13.4771   27.2880   43.6434 H   0  0  0  0  0
  -11.2875   26.5085   43.2102 H   0  0  0  0  0
  -10.6987   27.3582   44.6303 H   0  0  0  0  0
   -8.9582   28.0601   43.1276 H   0  0  0  0  0
   -9.5861   30.6372   41.9403 H   0  0  0  0  0
   -7.1925   30.5657   41.1737 H   0  0  0  0  0
   -7.0671   28.9716   42.0243 H   0  0  0  0  0
   -7.1734   28.8356   44.4168 H   0  0  0  0  0
   -7.5306   32.5882   42.3913 H   0  0  0  0  0
   -6.7692   30.0414   46.5606 H   0  0  0  0  0
   -7.1524   33.7790   44.4797 H   0  0  0  0  0
   -6.7997   32.5281   46.5867 H   0  0  0  0  0
  -10.1439   31.0480   40.0132 H   0  0  0  0  0
   -9.9397   29.0114   37.8705 H   0  0  0  0  0
  -11.5103   30.3562   36.7168 H   0  0  0  0  0
  -11.2671   31.7307   37.9398 H   0  0  0  0  0
  -13.4383   30.7325   38.1805 H   0  0  0  0  0
  -12.3640   30.3264   39.6018 H   0  0  0  0  0
  -11.9570   28.6953   36.8018 H   0  0  0  0  0
   -8.6946   29.3421   36.0459 H   0  0  0  0  0
   -7.5844   32.1063   35.6343 H   0  0  0  0  0
   -5.7727   30.6605   36.4328 H   0  0  0  0  0
   -6.1361   29.4842   35.1462 H   0  0  0  0  0
   -5.5398   31.1084   34.7251 H   0  0  0  0  0
   -6.5990   31.9012   33.1328 H   0  0  0  0  0
   -8.9896   31.0646   31.5813 H   0  0  0  0  0
   -8.1556   33.3547   31.2292 H   0  0  0  0  0
   -6.5552   32.7132   30.7841 H   0  0  0  0  0
   -7.9669   32.3794   29.7513 H   0  0  0  0  0
   -8.9517   29.6534   29.8965 H   0  0  0  0  0
   -7.2275   27.4827   29.7174 H   0  0  0  0  0
   -7.8495   27.2947   27.3204 H   0  0  0  0  0
   -8.6878   28.9231   27.5020 H   0  0  0  0  0
   -9.6482   27.2083   29.5118 H   0  0  0  0  0
   -9.6963   26.2994   27.9387 H   0  0  0  0  0
  -10.2338   29.5336   28.8104 H   0  0  0  0  0
   -5.0264   27.6862   29.6649 H   0  0  0  0  0
   -3.7068   29.4944   27.7257 H   0  0  0  0  0
   -2.5435   27.4424   29.6714 H   0  0  0  0  0
   -2.0121   29.4071   30.9255 H   0  0  0  0  0
   -0.9518   28.0963   27.8292 H   0  0  0  0  0
   -1.2146   29.8150   28.2136 H   0  0  0  0  0
   -0.3898   28.7568   29.3845 H   0  0  0  0  0
   -3.4465   28.6647   25.7577 H   0  0  0  0  0
  2  1  1  0  0  0
  2  5  1  0  0  0
  3  2  1  0  0  0
  3  4  2  0  0  0
  5  6  1  0  0  0
  6  7  1  0  0  0
  6  8  2  0  0  0
 10  9  1  0  0  0
 10 13  1  0  0  0
 11 10  1  0  0  0
 11 12  2  0  0  0
 13 14  1  0  0  0
 14 15  1  0  0  0
 14 16  2  0  0  0
  9  3  1  0  0  0
 18 17  1  0  0  0
 18 21  1  0  0  0
 19 18  1  0  0  0
 19 20  2  0  0  0
 21 22  1  0  0  0
 22 23  4  0  0  0
 22 24  4  0  0  0
 24 26  4  0  0  0
 26 27  4  0  0  0
 25 27  4  0  0  0
 23 25  4  0  0  0
 17 11  1  0  0  0
 29 28  1  0  0  0
 30 29  1  0  0  0
 30 31  2  0  0  0
 28 19  1  0  0  0
 33 32  1  0  0  0
 34 33  1  0  0  0
 34 35  2  0  0  0
 32 30  1  0  0  0
 37 36  1  0  0  0
 37 40  1  0  0  0
 38 37  1  0  0  0
 38 39  2  0  0  0
 40 41  1  0  0  0
 41 42  4  0  0  0
 41 43  4  0  0  0
 43 45  4  0  0  0
 45 46  4  0  0  0
 44 46  4  0  0  0
 42 44  4  0  0  0
 36 34  1  0  0  0
 48 47  1  0  0  0
 48 51  1  0  0  0
 49 48  1  0  0  0
 49 50  2  0  0  0
 51 52  1  0  0  0
 52 53  1  0  0  0
 53 55  2  0  0  0
 53 54  1  0  0  0
 47 38  1  0  0  0
 57 56  1  0  0  0
 57 60  1  0  0  0
 58 57  1  0  0  0
 58 59  2  0  0  0
 56 49  1  0  0  0
 62 61  1  0  0  0
 62 65  1  0  0  0
 63 62  1  0  0  0
 63 64  2  0  0  0
 61 58  1  0  0  0
 67 66  1  0  0  0
 67 70  1  0  0  0
 68 67  1  0  0  0
 68 69  2  0  0  0
 70 71  1  0  0  0
 71 72  1  0  0  0
 72 74  2  0  0  0
 72 73  1  0  0  0
 66 63  1  0  0  0
 75 76  1  0  0  0
 76 79  1  0  0  0
 76 77  1  0  0  0
 77 78  2  0  0  0
 79 81  1  0  0  0
 79 80  1  0  0  0
 68 75  1  0  0  0
 77 82  1  0  0  0
  1 83  1  0  0  0
  1 84  1  0  0  0
  1 85  1  0  0  0
  2 86  1  0  0  0
  5 87  1  0  0  0
  5 88  1  0  0  0
  7 89  1  0  0  0
  9 90  1  0  0  0
 10 91  1  0  0  0
 13 92  1  0  0  0
 13 93  1  0  0  0
 15 94  1  0  0  0
 17 95  1  0  0  0
 18 96  1  0  0  0
 21 97  1  0  0  0
 21 98  1  0  0  0
 23 99  1  0  0  0
 24100  1  0  0  0
 25101  1  0  0  0
 26102  1  0  0  0
 27103  1  0  0  0
 28104  1  0  0  0
 29105  1  0  0  0
 29106  1  0  0  0
 32107  1  0  0  0
 33108  1  0  0  0
 33109  1  0  0  0
 36110  1  0  0  0
 37111  1  0  0  0
 40112  1  0  0  0
 40113  1  0  0  0
 42114  1  0  0  0
 43115  1  0  0  0
 44116  1  0  0  0
 45117  1  0  0  0
 46118  1  0  0  0
 47119  1  0  0  0
 48120  1  0  0  0
 51121  1  0  0  0
 51122  1  0  0  0
 52123  1  0  0  0
 52124  1  0  0  0
 54125  1  0  0  0
 56126  1  0  0  0
 57127  1  0  0  0
 60128  1  0  0  0
 60129  1  0  0  0
 60130  1  0  0  0
 61131  1  0  0  0
 62132  1  0  0  0
 65133  1  0  0  0
 65134  1  0  0  0
 65135  1  0  0  0
 66136  1  0  0  0
 67137  1  0  0  0
 70138  1  0  0  0
 70139  1  0  0  0
 71140  1  0  0  0
 71141  1  0  0  0
 73142  1  0  0  0
 75143  1  0  0  0
 76144  1  0  0  0
 79145  1  0  0  0
 80146  1  0  0  0
 81147  1  0  0  0
 81148  1  0  0  0
 81149  1  0  0  0
 82150  1  0  0  0
M  END
$$$$
