### 
### Created by X-TOOL on Mon Sep 10 21:12:50 2018
### 

@<TRIPOS>MOLECULE
1om9_ligand
  146   147     1     0     0
SMALL
GAST_HUCK


@<TRIPOS>ATOM
      1 N         -19.0050   33.3590   54.0100 N.4       1 ASP         0.2391
      2 CA        -19.3240   32.7100   52.7110 C.3       1 ASP         0.0764
      3 C         -17.9810   32.2460   52.1960 C.2       1 ASP         0.2285
      4 O         -17.0970   33.0650   51.9090 O.2       1 ASP        -0.3906
      5 CB        -19.9680   33.7090   51.7340 C.3       1 ASP         0.0607
      6 CG        -20.9270   33.0410   50.7180 C.2       1 ASP         0.0425
      7 OD1       -20.6300   31.9140   50.1630 O.co2     1 ASP        -0.5686
      8 OD2       -22.0220   33.6160   50.4120 O.co2     1 ASP        -0.5686
      9 N         -17.7930   30.9380   52.1040 N.am      1 ASP        -0.2594
     10 CA        -16.4550   30.4970   51.8040 C.3       1 ASP         0.1424
     11 C         -16.2140   30.4960   50.3140 C.2       1 ASP         0.2057
     12 O         -17.1610   30.5310   49.5110 O.2       1 ASP        -0.3943
     13 CB        -16.0840   29.1590   52.4480 C.3       1 ASP         0.0406
     14 CG        -14.9300   29.3020   53.4320 C.2       1 ASP         0.0393
     15 OD1       -13.7530   29.3790   52.9860 O.co2     1 ASP        -0.5688
     16 OD2       -15.1180   29.3810   54.6630 O.co2     1 ASP        -0.5688
     17 N         -14.9230   30.5080   49.9760 N.am      1 PHE        -0.2618
     18 CA        -14.4760   30.7730   48.6280 C.3       1 PHE         0.1404
     19 C         -14.4430   29.5290   47.7810 C.2       1 PHE         0.2058
     20 O         -14.2060   28.4090   48.2910 O.2       1 PHE        -0.3942
     21 CB        -13.0830   31.4050   48.6490 C.3       1 PHE         0.0214
     22 CG        -13.1100   32.8890   48.7940 C.ar      1 PHE        -0.0386
     23 CD1       -13.2150   33.4730   50.0550 C.ar      1 PHE        -0.0601
     24 CD2       -13.0990   33.7120   47.6520 C.ar      1 PHE        -0.0601
     25 CE1       -13.2470   34.8980   50.1820 C.ar      1 PHE        -0.0686
     26 CE2       -13.1600   35.1090   47.7600 C.ar      1 PHE        -0.0686
     27 CZ        -13.2240   35.7010   49.0260 C.ar      1 PHE        -0.0687
     28 N         -14.6870   29.7410   46.4800 N.am      1 GLY        -0.2663
     29 CA        -14.4790   28.7440   45.4600 C.3       1 GLY         0.1201
     30 C         -12.9970   28.5110   45.2020 C.2       1 GLY         0.2005
     31 O         -12.1270   29.0060   45.9360 O.2       1 GLY        -0.3947
     32 N         -12.7120   27.7170   44.1640 N.am      1 GLY        -0.2666
     33 CA        -11.3460   27.4490   43.7580 C.3       1 GLY         0.1201
     34 C         -10.9020   28.5970   42.8870 C.2       1 GLY         0.2009
     35 O         -11.7430   29.3900   42.4530 O.2       1 GLY        -0.3947
     36 N          -9.5990   28.6990   42.6570 N.am      1 PHE        -0.2622
     37 CA         -9.0660   29.6980   41.7520 C.3       1 PHE         0.1404
     38 C          -9.2880   29.2510   40.3410 C.2       1 PHE         0.2060
     39 O          -8.9880   28.1070   39.9820 O.2       1 PHE        -0.3942
     40 CB         -7.5640   29.9410   41.9860 C.3       1 PHE         0.0214
     41 CG         -7.3000   30.6400   43.2570 C.ar      1 PHE        -0.0386
     42 CD1        -7.1400   29.9250   44.4330 C.ar      1 PHE        -0.0601
     43 CD2        -7.3410   32.0250   43.3050 C.ar      1 PHE        -0.0601
     44 CE1        -6.9360   30.5990   45.6390 C.ar      1 PHE        -0.0686
     45 CE2        -7.1490   32.6890   44.4700 C.ar      1 PHE        -0.0686
     46 CZ         -6.9480   31.9890   45.6510 C.ar      1 PHE        -0.0687
     47 N          -9.8250   30.1870   39.5690 N.am      1 GLU        -0.2635
     48 CA         -9.9850   30.0640   38.1500 C.3       1 GLU         0.1325
     49 C          -8.8600   30.8220   37.4220 C.2       1 GLU         0.2040
     50 O          -8.3710   31.8510   37.8940 O.2       1 GLU        -0.3944
     51 CB        -11.3420   30.6600   37.7500 C.3       1 GLU        -0.0008
     52 CG        -12.5770   30.1720   38.5440 C.3       1 GLU         0.0044
     53 CD        -12.8910   28.6730   38.3530 C.2       1 GLU         0.0350
     54 OE1       -12.4350   28.0740   37.3560 O.co2     1 GLU        -0.5690
     55 OE2       -13.5550   28.0880   39.2320 O.co2     1 GLU        -0.5690
     56 N          -8.4320   30.2990   36.2820 N.am      1 ALA        -0.2640
     57 CA         -7.5980   31.0520   35.3580 C.3       1 ALA         0.1282
     58 C          -8.1860   30.9220   33.9330 C.2       1 ALA         0.2036
     59 O          -9.2900   30.3990   33.7390 O.2       1 ALA        -0.3944
     60 CB         -6.1570   30.5390   35.4200 C.3       1 ALA        -0.0244
     61 N          -7.4700   31.4070   32.9390 N.am      1 ALA        -0.2640
     62 CA         -7.9140   31.2410   31.5820 C.3       1 ALA         0.1282
     63 C          -7.2420   30.0410   30.9470 C.2       1 ALA         0.2036
     64 O          -6.0910   29.6990   31.3130 O.2       1 ALA        -0.3944
     65 CB         -7.6270   32.5150   30.7780 C.3       1 ALA        -0.0244
     66 N          -7.9680   29.4040   29.9990 N.am      1 GLU        -0.2636
     67 CA         -7.4110   28.3620   29.1000 C.3       1 GLU         0.1325
     68 C          -6.1240   28.8690   28.4510 C.2       1 GLU         0.2042
     69 O          -6.1760   29.7770   27.6340 O.2       1 GLU        -0.3944
     70 CB         -8.3800   27.9890   27.9720 C.3       1 GLU        -0.0008
     71 CG         -9.6690   27.2750   28.4240 C.3       1 GLU         0.0044
     72 CD        -10.9490   28.0350   28.0240 C.2       1 GLU         0.0350
     73 OE1       -11.0380   29.2670   28.3590 O.co2     1 GLU        -0.5690
     74 OE2       -11.8660   27.4120   27.4120 O.co2     1 GLU        -0.5690
     75 N          -4.9920   28.3040   28.8540 N.am      1 THR        -0.2602
     76 CA         -3.6980   28.5150   28.2040 C.3       1 THR         0.1677
     77 C          -3.4620   27.4210   27.1690 C.2       1 THR         0.2597
     78 O          -3.3740   26.2500   27.5620 O.2       1 THR        -0.3679
     79 CB         -2.5340   28.4550   29.2680 C.3       1 THR         0.0937
     80 OG1        -2.7280   29.4580   30.2880 O.3       1 THR        -0.3873
     81 CG2        -1.1710   28.8070   28.6260 C.3       1 THR        -0.0344
     82 O1         -3.3534   27.7167   25.8768 O.3       1 THR        -0.2909
     83 H1        -19.8537   33.7032   54.4310 H         1 ASP         0.2016
     84 H2        -18.3712   34.1273   53.8551 H         1 ASP         0.2016
     85 H3        -18.5739   32.6865   54.6247 H         1 ASP         0.2016
     86 H4        -20.0016   31.8562   52.8588 H         1 ASP         0.1117
     87 H5        -19.1676   34.2173   51.1763 H         1 ASP         0.0512
     88 H6        -20.5366   34.4493   52.3160 H         1 ASP         0.0512
     89 H7        -18.5424   30.2892   52.2362 H         1 ASP         0.1886
     90 H8        -15.7750   31.2456   52.2366 H         1 ASP         0.0819
     91 H9        -15.7913   28.4528   51.6571 H         1 ASP         0.0478
     92 H10       -16.9612   28.7668   52.9835 H         1 ASP         0.0478
     93 H11       -14.2391   30.3267   50.6827 H         1 PHE         0.1885
     94 H12       -15.1788   31.4839   48.1689 H         1 PHE         0.0823
     95 H13       -12.5723   31.1556   47.7072 H         1 PHE         0.0474
     96 H14       -12.5205   30.9819   49.4943 H         1 PHE         0.0474
     97 H15       -13.2724   32.8482   50.9390 H         1 PHE         0.0557
     98 H16       -13.0423   33.2570   46.6697 H         1 PHE         0.0557
     99 H17       -13.2887   35.3567   51.1633 H         1 PHE         0.0599
    100 H18       -13.1576   35.7259   46.8686 H         1 PHE         0.0599
    101 H19       -13.2560   36.7807   49.1170 H         1 PHE         0.0559
    102 H20       -15.0314   30.6379   46.2026 H         1 GLY         0.1881
    103 H21       -14.9554   29.0815   44.5277 H         1 GLY         0.0763
    104 H22       -14.9382   27.7988   45.7851 H         1 GLY         0.0763
    105 H23       -13.4621   27.2964   43.6536 H         1 GLY         0.1881
    106 H24       -11.2998   26.5073   43.1914 H         1 GLY         0.0763
    107 H25       -10.6977   27.3762   44.6437 H         1 GLY         0.0763
    108 H26        -8.9707   28.0726   43.1184 H         1 PHE         0.1885
    109 H27        -9.6028   30.6437   41.9178 H         1 PHE         0.0823
    110 H28        -7.1716   30.5511   41.1591 H         1 PHE         0.0474
    111 H29        -7.0473   28.9701   42.0027 H         1 PHE         0.0474
    112 H30        -7.1732   28.8416   44.4169 H         1 PHE         0.0557
    113 H31        -7.5296   32.5851   42.3963 H         1 PHE         0.0557
    114 H32        -6.7701   30.0444   46.5555 H         1 PHE         0.0599
    115 H33        -7.1524   33.7730   44.4796 H         1 PHE         0.0599
    116 H34        -6.8006   32.5252   46.5815 H         1 PHE         0.0559
    117 H35       -10.1377   31.0312   40.0045 H         1 GLU         0.1883
    118 H36        -9.9507   29.0013   37.8679 H         1 GLU         0.0801
    119 H37       -11.5116   30.4206   36.6899 H         1 GLU         0.0330
    120 H38       -11.2762   31.7510   37.8736 H         1 GLU         0.0330
    121 H39       -13.4514   30.7534   38.2163 H         1 GLU         0.0433
    122 H40       -12.3953   30.3542   39.6135 H         1 GLU         0.0433
    123 H41        -8.6894   29.3608   36.0506 H         1 ALA         0.1883
    124 H42        -7.6053   32.1128   35.6488 H         1 ALA         0.0797
    125 H43        -5.5330   31.1129   34.7191 H         1 ALA         0.0277
    126 H44        -6.1345   29.4745   35.1438 H         1 ALA         0.0277
    127 H45        -5.7679   30.6611   36.4416 H         1 ALA         0.0277
    128 H46        -6.6161   31.8915   33.1290 H         1 ALA         0.1883
    129 H47        -9.0004   31.0684   31.5872 H         1 ALA         0.0797
    130 H48        -7.9696   32.3794   29.7416 H         1 ALA         0.0277
    131 H49        -6.5456   32.7161   30.7833 H         1 ALA         0.0277
    132 H50        -8.1600   33.3632   31.2324 H         1 ALA         0.0277
    133 H51        -8.9324   29.6485   29.8985 H         1 GLU         0.1883
    134 H52        -7.1927   27.4643   29.6971 H         1 GLU         0.0801
    135 H53        -7.8499   27.3246   27.2737 H         1 GLU         0.0330
    136 H54        -8.6681   28.9139   27.4510 H         1 GLU         0.0330
    137 H55        -9.6487   27.1744   29.5192 H         1 GLU         0.0433
    138 H56        -9.6962   26.2760   27.9644 H         1 GLU         0.0433
    139 H57        -5.0257   27.6983   29.6490 H         1 THR         0.1885
    140 H58        -3.6949   29.4982   27.7108 H         1 THR         0.0843
    141 H59        -2.5008   27.4503   29.7146 H         1 THR         0.0641
    142 H60        -3.5549   29.3034   30.7294 H         1 THR         0.2101
    143 H61        -0.3817   28.7567   29.3905 H         1 THR         0.0257
    144 H62        -1.2136   29.8242   28.2095 H         1 THR         0.0257
    145 H63        -0.9485   28.0904   27.8217 H         1 THR         0.0257
    146 H64        -4.0353   27.2670   25.3918 H         1 THR         0.2540
@<TRIPOS>BOND
     1    2    1 1  
     2    2    5 1  
     3    3    2 1  
     4    3    4 2  
     5    5    6 1  
     6    6    7 ar 
     7    6    8 ar 
     8   10    9 1  
     9   10   13 1  
    10   11   10 1  
    11   11   12 2  
    12   13   14 1  
    13   14   15 ar 
    14   14   16 ar 
    15    9    3 am 
    16   18   17 1  
    17   18   21 1  
    18   19   18 1  
    19   19   20 2  
    20   21   22 1  
    21   22   23 ar 
    22   22   24 ar 
    23   24   26 ar 
    24   26   27 ar 
    25   25   27 ar 
    26   23   25 ar 
    27   17   11 am 
    28   29   28 1  
    29   30   29 1  
    30   30   31 2  
    31   28   19 am 
    32   33   32 1  
    33   34   33 1  
    34   34   35 2  
    35   32   30 am 
    36   37   36 1  
    37   37   40 1  
    38   38   37 1  
    39   38   39 2  
    40   40   41 1  
    41   41   42 ar 
    42   41   43 ar 
    43   43   45 ar 
    44   45   46 ar 
    45   44   46 ar 
    46   42   44 ar 
    47   36   34 am 
    48   48   47 1  
    49   48   51 1  
    50   49   48 1  
    51   49   50 2  
    52   51   52 1  
    53   52   53 1  
    54   53   55 ar 
    55   53   54 ar 
    56   47   38 am 
    57   57   56 1  
    58   57   60 1  
    59   58   57 1  
    60   58   59 2  
    61   56   49 am 
    62   62   61 1  
    63   62   65 1  
    64   63   62 1  
    65   63   64 2  
    66   61   58 am 
    67   67   66 1  
    68   67   70 1  
    69   68   67 1  
    70   68   69 2  
    71   70   71 1  
    72   71   72 1  
    73   72   74 ar 
    74   72   73 ar 
    75   66   63 am 
    76   75   76 1  
    77   76   79 1  
    78   76   77 1  
    79   77   78 2  
    80   79   81 1  
    81   79   80 1  
    82   68   75 am 
    83   77   82 1  
    84    1   83 1  
    85    1   84 1  
    86    1   85 1  
    87    2   86 1  
    88    5   87 1  
    89    5   88 1  
    90    9   89 1  
    91   10   90 1  
    92   13   91 1  
    93   13   92 1  
    94   17   93 1  
    95   18   94 1  
    96   21   95 1  
    97   21   96 1  
    98   23   97 1  
    99   24   98 1  
   100   25   99 1  
   101   26  100 1  
   102   27  101 1  
   103   28  102 1  
   104   29  103 1  
   105   29  104 1  
   106   32  105 1  
   107   33  106 1  
   108   33  107 1  
   109   36  108 1  
   110   37  109 1  
   111   40  110 1  
   112   40  111 1  
   113   42  112 1  
   114   43  113 1  
   115   44  114 1  
   116   45  115 1  
   117   46  116 1  
   118   47  117 1  
   119   48  118 1  
   120   51  119 1  
   121   51  120 1  
   122   52  121 1  
   123   52  122 1  
   124   56  123 1  
   125   57  124 1  
   126   60  125 1  
   127   60  126 1  
   128   60  127 1  
   129   61  128 1  
   130   62  129 1  
   131   65  130 1  
   132   65  131 1  
   133   65  132 1  
   134   66  133 1  
   135   67  134 1  
   136   70  135 1  
   137   70  136 1  
   138   71  137 1  
   139   71  138 1  
   140   75  139 1  
   141   76  140 1  
   142   79  141 1  
   143   80  142 1  
   144   81  143 1  
   145   81  144 1  
   146   81  145 1  
   147   82  146 1  
@<TRIPOS>SUBSTRUCTURE
     1 ASP         1

