4wkp_ligand
  -I-interpret- 

 53 55  0  0  0  0  0  0  0  0999 V2000
   38.0090   74.0000   22.7500 C   0  0  0  0  0
   37.0560   73.1830   23.6190 C   0  0  0  0  0
   35.7020   73.8410   23.8060 C   0  0  0  0  0
   34.6550   72.8720   23.8910 O   0  0  0  0  0
   35.8130   74.5080   25.1440 C   0  0  0  0  0
   37.6140   73.0080   25.0300 C   0  0  0  0  0
   39.4480   74.4090   27.8180 C   0  0  0  0  0
   40.3040   75.4670   27.8790 N   0  0  0  0  0
   39.6800   76.5810   27.4730 C   0  0  0  0  0
   40.0480   77.9860   27.3030 C   0  0  0  0  0
   39.1020   78.8460   26.8430 N   0  0  0  0  0
   37.8660   78.4130   26.5510 C   0  0  0  0  0
   37.4420   77.1510   26.6710 N   0  0  0  0  0
   38.3170   76.2270   27.1400 C   0  0  0  0  0
   36.5250   73.4640   25.9080 N   0  3  0  0  0
   37.5720   73.8990   21.2940 C   0  0  0  0  0
   38.9170   74.1740   20.1890 S   0  0  0  0  0
   39.9820   72.7620   20.1870 C   0  0  0  0  0
   39.5860   71.8140   19.0640 C   0  0  0  0  0
   39.8150   72.4250   17.7790 O   0  0  0  0  0
   36.9810   73.8820   27.2340 C   0  0  0  0  0
   38.1860   74.7840   27.3540 C   0  0  0  0  0
   41.2970   78.3590   27.6070 N   0  0  0  0  0
   40.3790   71.5270   16.8120 C   0  0  0  0  0
   39.3660   70.4480   16.4190 C   0  0  0  0  0
   38.9700   70.6230   15.0590 O   0  0  0  0  0
   39.0224   73.6126   22.8551 H   0  0  0  0  0
   37.9886   75.0429   23.0662 H   0  0  0  0  0
   36.9485   72.2363   23.0895 H   0  0  0  0  0
   35.4678   74.5084   22.9766 H   0  0  0  0  0
   34.5618   72.4282   23.0449 H   0  0  0  0  0
   34.8563   74.8015   25.5760 H   0  0  0  0  0
   36.3249   75.4701   25.1209 H   0  0  0  0  0
   38.5312   73.5767   25.1830 H   0  0  0  0  0
   37.9018   71.9766   25.2335 H   0  0  0  0  0
   39.7167   73.3905   28.0983 H   0  0  0  0  0
   37.1500   79.1497   26.1866 H   0  0  0  0  0
   35.8887   72.7014   26.1402 H   0  0  0  0  0
   36.8146   74.6607   21.1092 H   0  0  0  0  0
   37.1849   72.8949   21.1205 H   0  0  0  0  0
   39.8932   72.2441   21.1420 H   0  0  0  0  0
   41.0108   73.0886   20.0350 H   0  0  0  0  0
   38.5261   71.5780   19.1587 H   0  0  0  0  0
   40.1891   70.9090   19.1370 H   0  0  0  0  0
   37.2764   72.9573   27.7298 H   0  0  0  0  0
   36.1554   74.4669   27.6394 H   0  0  0  0  0
   41.9665   77.6692   27.9483 H   0  0  0  0  0
   41.5793   79.3330   27.4974 H   0  0  0  0  0
   41.2550   71.0459   17.2471 H   0  0  0  0  0
   40.6525   72.0941   15.9222 H   0  0  0  0  0
   38.4890   70.5283   17.0612 H   0  0  0  0  0
   39.8244   69.4660   16.5357 H   0  0  0  0  0
   38.3355   69.9428   14.8216 H   0  0  0  0  0
  2  1  1  0  0  0
  1 16  1  0  0  0
  2  3  1  0  0  0
  6  2  1  0  0  0
  3  4  1  0  0  0
  5  3  1  0  0  0
 15  5  1  0  0  0
 15  6  1  0  0  0
  7  8  4  0  0  0
 22  7  4  0  0  0
  9  8  4  0  0  0
  9 10  4  0  0  0
 14  9  4  0  0  0
 10 11  4  0  0  0
 10 23  1  0  0  0
 12 11  4  0  0  0
 13 12  4  0  0  0
 14 13  4  0  0  0
 22 14  4  0  0  0
 21 15  1  0  0  0
 16 17  1  0  0  0
 17 18  1  0  0  0
 18 19  1  0  0  0
 19 20  1  0  0  0
 20 24  1  0  0  0
 21 22  1  0  0  0
 24 25  1  0  0  0
 25 26  1  0  0  0
  1 27  1  0  0  0
  1 28  1  0  0  0
  2 29  1  0  0  0
  3 30  1  0  0  0
  4 31  1  0  0  0
  5 32  1  0  0  0
  5 33  1  0  0  0
  6 34  1  0  0  0
  6 35  1  0  0  0
  7 36  1  0  0  0
 12 37  1  0  0  0
 15 38  1  0  0  0
 16 39  1  0  0  0
 16 40  1  0  0  0
 18 41  1  0  0  0
 18 42  1  0  0  0
 19 43  1  0  0  0
 19 44  1  0  0  0
 21 45  1  0  0  0
 21 46  1  0  0  0
 23 47  1  0  0  0
 23 48  1  0  0  0
 24 49  1  0  0  0
 24 50  1  0  0  0
 25 51  1  0  0  0
 25 52  1  0  0  0
 26 53  1  0  0  0
M  END
$$$$
