3o4k_ligand
  -I-interpret- 

127128  0  0  0  0  0  0  0  0999 V2000
   18.4590   20.5470  -22.3260 C   0  0  0  0  0
   17.3060   21.3000  -22.8090 O   0  0  0  0  0
   18.7570   20.7730  -20.8190 C   0  0  0  0  0
   18.0680   21.7030  -18.6830 O   0  0  0  0  0
   17.7460   21.7110  -20.1050 C   0  0  0  0  0
   15.2870   22.1930  -19.9460 O   0  0  0  0  0
   16.2960   21.3290  -20.5090 C   0  0  0  0  0
   20.1410   21.1500  -20.5880 O   0  0  0  0  0
   16.0690   21.2370  -22.0390 C   0  0  0  0  0
   16.9400   18.6700  -22.4030 O   0  0  0  0  0
   18.3070   19.0540  -22.6210 C   0  0  0  0  0
   12.7010   19.9120  -26.1390 O   0  0  0  0  0
   13.9630   21.3660  -24.7510 O   0  0  0  0  0
   24.2320   18.7850  -25.4690 C   0  0  0  0  0
   15.0930   22.2060  -22.5120 O   0  0  0  0  0
   23.0770   17.8850  -25.9110 C   0  0  0  0  0
   10.6000   21.4630  -24.2460 O   0  0  0  0  0
   21.9220   17.8310  -24.8990 C   0  0  0  0  0
   10.3790   21.4290  -26.6080 O   0  0  0  0  0
   20.7180   17.0050  -25.3760 C   0  0  0  0  0
   20.8360   15.4830  -25.1450 C   0  0  0  0  0
   19.4690   14.8000  -24.9340 C   0  0  0  0  0
   18.7370   14.2960  -26.1980 C   0  0  0  0  0
   17.1980   14.3830  -26.2180 C   0  0  0  0  0
   16.5740   14.9930  -24.9780 C   0  0  0  0  0
   15.1950   15.6450  -25.0800 C   0  0  0  0  0
   15.2530   16.9600  -25.8720 C   0  0  0  0  0
   15.4690   18.2130  -25.0260 C   0  0  0  0  0
   16.0630   19.3480  -25.8610 C   0  0  0  0  0
   15.0000   20.0280  -26.7300 C   0  0  0  0  0
   13.7960   20.4030  -25.8750 C   0  0  0  0  0
   13.0000   21.4130  -23.6780 C   0  0  0  0  0
   13.6880   21.8860  -22.3810 C   0  0  0  0  0
   11.7870   22.2700  -24.0630 C   0  0  0  0  0
    9.8130   21.3620  -25.5040 C   0  0  0  0  0
    8.2980   21.1640  -25.4100 C   0  0  0  0  0
    7.6480   21.0560  -26.7890 C   0  0  0  0  0
    6.1960   21.5370  -26.8100 C   0  0  0  0  0
    6.0350   22.7520  -27.7350 C   0  0  0  0  0
    5.4000   22.4460  -29.0940 C   0  0  0  0  0
    6.0320   23.2380  -30.2290 C   0  0  0  0  0
   15.4610   20.6520  -16.3610 C   0  0  0  0  0
   16.2930   20.7430  -17.5290 O   0  0  0  0  0
   15.4700   21.9180  -15.5080 C   0  0  0  0  0
   14.4710   21.8190  -14.4530 N   0  3  0  0  0
   13.9170   23.4200  -16.6570 O   0  0  0  0  0
   15.3140   23.2060  -16.3430 C   0  0  0  0  0
   16.2530   23.2530  -17.5800 C   0  0  0  0  0
   17.0500   24.5100  -17.6640 N   0  0  0  0  0
   17.1040   21.9220  -17.6190 C   0  0  0  0  0
   13.9730   20.3270  -16.5120 C   0  0  0  0  0
   16.7210   25.8470  -17.6670 C   0  0  0  0  0
   15.6050   26.3590  -17.6800 O   0  0  0  0  0
   17.8660   26.8250  -17.4750 C   0  0  0  0  0
   19.3171   20.9341  -22.8755 H   0  0  0  0  0
   18.6089   19.8033  -20.3438 H   0  0  0  0  0
   17.8213   22.7530  -20.4161 H   0  0  0  0  0
   15.4166   22.2585  -18.9971 H   0  0  0  0  0
   16.1846   20.3326  -20.0814 H   0  0  0  0  0
   20.7194   20.5391  -21.0505 H   0  0  0  0  0
   15.6515   20.2451  -22.2122 H   0  0  0  0  0
   16.8387   17.7332  -22.5868 H   0  0  0  0  0
   18.9590   18.4812  -21.9615 H   0  0  0  0  0
   18.5839   18.8542  -23.6561 H   0  0  0  0  0
   23.8666   19.8031  -25.3344 H   0  0  0  0  0
   24.6386   18.4161  -24.5274 H   0  0  0  0  0
   25.0110   18.7750  -26.2313 H   0  0  0  0  0
   23.4702   16.8736  -26.0144 H   0  0  0  0  0
   22.6801   18.2933  -26.8404 H   0  0  0  0  0
   21.5752   18.8531  -24.7467 H   0  0  0  0  0
   22.3039   17.3568  -23.9949 H   0  0  0  0  0
   20.6417   17.1542  -26.4530 H   0  0  0  0  0
   19.8567   17.3442  -24.8005 H   0  0  0  0  0
   21.4283   15.3281  -24.2431 H   0  0  0  0  0
   21.2930   15.0460  -26.0329 H   0  0  0  0  0
   18.8206   15.5589  -24.4962 H   0  0  0  0  0
   19.6679   13.9140  -24.3310 H   0  0  0  0  0
   18.9698   13.2333  -26.2654 H   0  0  0  0  0
   19.0760   14.9417  -27.0081 H   0  0  0  0  0
   16.8261   13.3607  -26.2868 H   0  0  0  0  0
   16.9303   15.0283  -27.0547 H   0  0  0  0  0
   17.2460   15.8042  -24.6978 H   0  0  0  0  0
   16.4366   14.1555  -24.2941 H   0  0  0  0  0
   14.8403   15.8633  -24.0727 H   0  0  0  0  0
   14.5253   14.9585  -25.5980 H   0  0  0  0  0
   14.2869   17.0745  -26.3635 H   0  0  0  0  0
   16.1061   16.8843  -26.5462 H   0  0  0  0  0
   16.1631   17.9736  -24.2204 H   0  0  0  0  0
   14.5057   18.5377  -24.6326 H   0  0  0  0  0
   16.8262   18.9290  -26.5168 H   0  0  0  0  0
   16.4794   20.0923  -25.1822 H   0  0  0  0  0
   14.6841   19.3416  -27.5156 H   0  0  0  0  0
   15.4211   20.9299  -27.1743 H   0  0  0  0  0
   12.6115   20.4116  -23.4929 H   0  0  0  0  0
   13.1847   22.8034  -22.0757 H   0  0  0  0  0
   13.6191   21.0618  -21.6710 H   0  0  0  0  0
   11.5989   22.9811  -23.2586 H   0  0  0  0  0
   12.0075   22.7757  -25.0031 H   0  0  0  0  0
    7.8724   22.0278  -24.8993 H   0  0  0  0  0
    8.1084   20.2362  -24.8702 H   0  0  0  0  0
    7.6517   20.0041  -27.0745 H   0  0  0  0  0
    8.2153   21.6882  -27.4721 H   0  0  0  0  0
    5.9074   21.8252  -25.7992 H   0  0  0  0  0
    5.5643   20.7291  -27.1792 H   0  0  0  0  0
    7.0367   23.1335  -27.9329 H   0  0  0  0  0
    5.3711   23.4509  -27.2261 H   0  0  0  0  0
    4.3464   22.7203  -29.0405 H   0  0  0  0  0
    5.5487   21.3864  -29.3019 H   0  0  0  0  0
    5.9130   24.3043  -30.0366 H   0  0  0  0  0
    7.0927   22.9953  -30.2931 H   0  0  0  0  0
    5.5415   22.9799  -31.1676 H   0  0  0  0  0
   15.9527   19.7884  -15.9132 H   0  0  0  0  0
   16.4526   21.9954  -15.0427 H   0  0  0  0  0
   14.4867   22.6698  -13.8906 H   0  0  0  0  0
   13.5476   21.7030  -14.8706 H   0  0  0  0  0
   14.6814   21.0151  -13.8615 H   0  0  0  0  0
   13.8262   24.2223  -17.1763 H   0  0  0  0  0
   15.6470   24.0489  -15.7374 H   0  0  0  0  0
   15.6558   23.2903  -18.4910 H   0  0  0  0  0
   18.0540   24.3441  -17.7343 H   0  0  0  0  0
   17.7101   22.1020  -16.7311 H   0  0  0  0  0
   13.4948   21.0942  -17.1209 H   0  0  0  0  0
   13.8616   19.3562  -16.9950 H   0  0  0  0  0
   13.5066   20.2999  -15.5272 H   0  0  0  0  0
   17.8616   27.5516  -18.2875 H   0  0  0  0  0
   17.7449   27.3419  -16.5230 H   0  0  0  0  0
   18.8107   26.2813  -17.4771 H   0  0  0  0  0
  1  2  1  0  0  0
  3  1  1  0  0  0
  1 11  1  0  0  0
  9  2  1  0  0  0
  5  3  1  0  0  0
  3  8  1  0  0  0
  4  5  1  0  0  0
 50  4  1  0  0  0
  5  7  1  0  0  0
  7  6  1  0  0  0
  7  9  1  0  0  0
  9 15  1  0  0  0
 11 10  1  0  0  0
 31 12  2  0  0  0
 13 31  1  0  0  0
 32 13  1  0  0  0
 16 14  1  0  0  0
 15 33  1  0  0  0
 18 16  1  0  0  0
 34 17  1  0  0  0
 17 35  1  0  0  0
 20 18  1  0  0  0
 35 19  2  0  0  0
 21 20  1  0  0  0
 22 21  1  0  0  0
 23 22  1  0  0  0
 24 23  1  0  0  0
 25 24  1  0  0  0
 26 25  1  0  0  0
 27 26  1  0  0  0
 28 27  1  0  0  0
 29 28  1  0  0  0
 30 29  1  0  0  0
 31 30  1  0  0  0
 33 32  1  0  0  0
 32 34  1  0  0  0
 35 36  1  0  0  0
 36 37  1  0  0  0
 37 38  1  0  0  0
 38 39  1  0  0  0
 39 40  1  0  0  0
 40 41  1  0  0  0
 43 42  1  0  0  0
 42 44  1  0  0  0
 42 51  1  0  0  0
 43 50  1  0  0  0
 44 45  1  0  0  0
 44 47  1  0  0  0
 47 46  1  0  0  0
 47 48  1  0  0  0
 48 49  1  0  0  0
 48 50  1  0  0  0
 49 52  1  0  0  0
 52 53  2  0  0  0
 52 54  1  0  0  0
  1 55  1  0  0  0
  3 56  1  0  0  0
  5 57  1  0  0  0
  6 58  1  0  0  0
  7 59  1  0  0  0
  8 60  1  0  0  0
  9 61  1  0  0  0
 10 62  1  0  0  0
 11 63  1  0  0  0
 11 64  1  0  0  0
 14 65  1  0  0  0
 14 66  1  0  0  0
 14 67  1  0  0  0
 16 68  1  0  0  0
 16 69  1  0  0  0
 18 70  1  0  0  0
 18 71  1  0  0  0
 20 72  1  0  0  0
 20 73  1  0  0  0
 21 74  1  0  0  0
 21 75  1  0  0  0
 22 76  1  0  0  0
 22 77  1  0  0  0
 23 78  1  0  0  0
 23 79  1  0  0  0
 24 80  1  0  0  0
 24 81  1  0  0  0
 25 82  1  0  0  0
 25 83  1  0  0  0
 26 84  1  0  0  0
 26 85  1  0  0  0
 27 86  1  0  0  0
 27 87  1  0  0  0
 28 88  1  0  0  0
 28 89  1  0  0  0
 29 90  1  0  0  0
 29 91  1  0  0  0
 30 92  1  0  0  0
 30 93  1  0  0  0
 32 94  1  0  0  0
 33 95  1  0  0  0
 33 96  1  0  0  0
 34 97  1  0  0  0
 34 98  1  0  0  0
 36 99  1  0  0  0
 36100  1  0  0  0
 37101  1  0  0  0
 37102  1  0  0  0
 38103  1  0  0  0
 38104  1  0  0  0
 39105  1  0  0  0
 39106  1  0  0  0
 40107  1  0  0  0
 40108  1  0  0  0
 41109  1  0  0  0
 41110  1  0  0  0
 41111  1  0  0  0
 42112  1  0  0  0
 44113  1  0  0  0
 45114  1  0  0  0
 45115  1  0  0  0
 45116  1  0  0  0
 46117  1  0  0  0
 47118  1  0  0  0
 48119  1  0  0  0
 49120  1  0  0  0
 50121  1  0  0  0
 51122  1  0  0  0
 51123  1  0  0  0
 51124  1  0  0  0
 54125  1  0  0  0
 54126  1  0  0  0
 54127  1  0  0  0
M  END
$$$$
