3zki_ligand
  -I-interpret- 

 51 53  0  0  0  0  0  0  0  0999 V2000
  -12.2870    0.2780  -32.4460 F   0  0  0  0  0
  -13.0910    0.6520  -31.4880 C   0  0  0  0  0
  -12.6420    1.7810  -30.9620 F   0  0  0  0  0
  -13.1260   -0.3250  -30.5980 F   0  0  0  0  0
  -14.4820    0.8780  -32.0760 C   0  0  0  0  0
  -14.4700    2.0860  -32.8230 O   0  0  0  0  0
  -15.6010    2.6330  -33.3430 C   0  0  0  0  0
  -15.4840    3.4910  -34.4350 C   0  0  0  0  0
  -16.5890    4.0620  -34.9610 N   0  0  0  0  0
  -16.8580    2.3520  -32.7900 C   0  0  0  0  0
  -17.9910    2.9540  -33.3470 C   0  0  0  0  0
  -17.8360    3.8010  -34.4510 C   0  0  0  0  0
  -19.0410    4.4370  -35.0940 C   0  0  0  0  0
  -20.1190    4.3860  -34.5310 O   0  0  0  0  0
  -18.8480    4.9950  -36.2990 N   0  0  0  0  0
  -19.7510    5.6730  -37.1120 C   0  0  0  0  0
  -19.2240    6.2970  -38.2420 C   0  0  0  0  0
  -21.1000    5.7810  -36.8050 C   0  0  0  0  0
  -21.9200    6.4960  -37.6790 C   0  0  0  0  0
  -21.4070    7.1140  -38.8300 C   0  0  0  0  0
  -20.0500    7.0150  -39.1270 C   0  0  0  0  0
  -19.4830    7.6900  -40.3560 C   0  0  0  0  0
  -19.9530    7.0620  -41.6580 C   0  0  0  0  0
  -19.3270    5.6920  -41.7770 C   0  0  0  0  0
  -20.0150    4.7720  -42.1920 O   0  0  0  0  0
  -19.9220    9.1370  -40.2630 C   0  0  0  0  0
  -18.0410    7.5860  -40.3510 N   0  0  0  0  0
  -17.4110    6.5950  -40.8130 C   0  0  0  0  0
  -16.1680    6.6270  -40.6980 N   0  0  0  0  0
  -18.0310    5.5380  -41.4080 N   0  0  0  0  0
  -17.3370    4.2690  -41.6440 C   0  0  0  0  0
  -15.2165    0.9462  -31.2736 H   0  0  0  0  0
  -14.7496    0.0441  -32.7249 H   0  0  0  0  0
  -14.5037    3.7005  -34.8631 H   0  0  0  0  0
  -16.9510    1.6757  -31.9402 H   0  0  0  0  0
  -18.9796    2.7666  -32.9279 H   0  0  0  0  0
  -17.9029    4.9098  -36.6730 H   0  0  0  0  0
  -18.1550    6.2277  -38.4433 H   0  0  0  0  0
  -21.5081    5.3199  -35.9056 H   0  0  0  0  0
  -22.9852    6.5765  -37.4624 H   0  0  0  0  0
  -22.0705    7.6713  -39.4913 H   0  0  0  0  0
  -19.6549    7.6839  -42.5021 H   0  0  0  0  0
  -21.0398    6.9781  -41.6617 H   0  0  0  0  0
  -21.0109    9.1848  -40.2489 H   0  0  0  0  0
  -19.5258    9.5775  -39.3481 H   0  0  0  0  0
  -19.5441    9.6861  -41.1254 H   0  0  0  0  0
  -17.5035    8.3557  -39.9522 H   0  0  0  0  0
  -15.6030    5.8550  -41.0519 H   0  0  0  0  0
  -16.4742    4.4423  -42.2871 H   0  0  0  0  0
  -17.0048    3.8555  -40.6918 H   0  0  0  0  0
  -18.0177    3.5686  -42.1280 H   0  0  0  0  0
  1  2  1  0  0  0
  2  3  1  0  0  0
  2  4  1  0  0  0
  2  5  1  0  0  0
  5  6  1  0  0  0
  6  7  1  0  0  0
  7  8  4  0  0  0
  7 10  4  0  0  0
  8  9  4  0  0  0
  9 12  4  0  0  0
 10 11  4  0  0  0
 11 12  4  0  0  0
 12 13  1  0  0  0
 13 14  2  0  0  0
 13 15  1  0  0  0
 15 16  1  0  0  0
 16 17  4  0  0  0
 16 18  4  0  0  0
 17 21  4  0  0  0
 18 19  4  0  0  0
 19 20  4  0  0  0
 20 21  4  0  0  0
 21 22  1  0  0  0
 22 23  1  0  0  0
 22 26  1  0  0  0
 22 27  1  0  0  0
 23 24  1  0  0  0
 24 25  2  0  0  0
 24 30  1  0  0  0
 27 28  1  0  0  0
 28 29  2  0  0  0
 28 30  4  0  0  0
 30 31  1  0  0  0
  5 32  1  0  0  0
  5 33  1  0  0  0
  8 34  1  0  0  0
 10 35  1  0  0  0
 11 36  1  0  0  0
 15 37  1  0  0  0
 17 38  1  0  0  0
 18 39  1  0  0  0
 19 40  1  0  0  0
 20 41  1  0  0  0
 23 42  1  0  0  0
 23 43  1  0  0  0
 26 44  1  0  0  0
 26 45  1  0  0  0
 26 46  1  0  0  0
 27 47  1  0  0  0
 29 48  1  0  0  0
 31 49  1  0  0  0
 31 50  1  0  0  0
 31 51  1  0  0  0
M  END
$$$$
