5enk_ligand
  -I-interpret- 

 48 51  0  0  0  0  0  0  0  0999 V2000
   15.2000   40.0270   -6.1330 N   0  0  0  0  0
   20.8060   40.2540   -6.9440 C   0  0  0  0  0
   19.4740   39.9250   -7.1970 C   0  0  0  0  0
   19.1190   39.2330   -8.3560 C   0  0  0  0  0
   17.5210   37.3990   -8.9280 C   0  0  0  0  0
   21.7940   39.8970   -7.8690 C   0  0  0  0  0
   21.4520   39.2140   -9.0320 C   0  0  0  0  0
   20.1200   38.8860   -9.2760 C   0  0  0  0  0
   21.1360   40.9990   -5.6910 C   0  0  0  0  0
   15.9940   40.0470   -7.2130 C   0  0  0  0  0
   21.7180   42.4020   -3.4150 C   0  0  0  0  0
   14.0330   40.8810  -10.9500 C   0  0  0  0  0
   15.1910   41.7330  -11.4250 C   0  0  0  0  0
   16.4730   41.8560  -10.8710 C   0  0  0  0  0
   17.1750   42.7580  -11.6700 C   0  0  0  0  0
   16.4070   43.1670  -12.6320 O   0  0  0  0  0
   15.1530   42.5400  -12.5060 N   0  0  0  0  0
   18.6050   43.2060  -11.4630 C   0  0  0  0  0
   17.0270   41.1520   -9.6430 C   0  0  0  0  0
   17.1000   39.6320   -9.8300 C   0  0  0  0  0
   17.6520   38.8900   -8.6100 C   0  0  0  0  0
   16.8450   39.1030   -7.4020 N   0  0  0  0  0
   16.0810   41.5310   -8.1630 S   0  0  0  0  0
   19.8460   38.2330  -10.4100 F   0  0  0  0  0
   23.0790   40.2080   -7.6400 F   0  0  0  0  0
   21.8650   42.1880   -5.7500 C   0  0  0  0  0
   22.1480   42.8640   -4.6120 N   0  0  0  0  0
   21.0010   41.2560   -3.3330 N   0  0  0  0  0
   20.6990   40.5460   -4.4450 C   0  0  0  0  0
   15.2715   39.2625   -5.4615 H   0  0  0  0  0
   18.7026   40.2113   -6.4821 H   0  0  0  0  0
   16.4719   37.1555   -9.0962 H   0  0  0  0  0
   18.0971   37.1679   -9.8240 H   0  0  0  0  0
   17.9009   36.8152   -8.0896 H   0  0  0  0  0
   22.2237   38.9364   -9.7500 H   0  0  0  0  0
   21.9512   42.9582   -2.5071 H   0  0  0  0  0
   14.3285   39.8318  -10.9575 H   0  0  0  0  0
   13.7586   41.1753   -9.9370 H   0  0  0  0  0
   13.1812   41.0246  -11.6148 H   0  0  0  0  0
   18.6968   43.6853  -10.4884 H   0  0  0  0  0
   19.2657   42.3402  -11.5071 H   0  0  0  0  0
   18.8793   43.9142  -12.2449 H   0  0  0  0  0
   18.0401   41.5332   -9.5154 H   0  0  0  0  0
   17.7747   39.4374  -10.6637 H   0  0  0  0  0
   16.0842   39.2743   -9.9979 H   0  0  0  0  0
   16.9722   38.4376   -6.6395 H   0  0  0  0  0
   22.2060   42.5717   -6.7116 H   0  0  0  0  0
   20.1185   39.6267   -4.3681 H   0  0  0  0  0
 10  1  2  0  0  0
  2  3  4  0  0  0
  2  6  4  0  0  0
  9  2  1  0  0  0
  3  4  4  0  0  0
  4  8  4  0  0  0
  4 21  1  0  0  0
 21  5  1  0  0  0
  6  7  4  0  0  0
  6 25  1  0  0  0
  7  8  4  0  0  0
  8 24  1  0  0  0
 26  9  4  0  0  0
  9 29  4  0  0  0
 22 10  1  0  0  0
 10 23  1  0  0  0
 27 11  4  0  0  0
 11 28  4  0  0  0
 13 12  1  0  0  0
 14 13  4  0  0  0
 13 17  4  0  0  0
 14 15  4  0  0  0
 19 14  1  0  0  0
 15 16  4  0  0  0
 15 18  1  0  0  0
 16 17  4  0  0  0
 20 19  1  0  0  0
 19 23  1  0  0  0
 21 20  1  0  0  0
 21 22  1  0  0  0
 26 27  4  0  0  0
 28 29  4  0  0  0
  1 30  1  0  0  0
  3 31  1  0  0  0
  5 32  1  0  0  0
  5 33  1  0  0  0
  5 34  1  0  0  0
  7 35  1  0  0  0
 11 36  1  0  0  0
 12 37  1  0  0  0
 12 38  1  0  0  0
 12 39  1  0  0  0
 18 40  1  0  0  0
 18 41  1  0  0  0
 18 42  1  0  0  0
 19 43  1  0  0  0
 20 44  1  0  0  0
 20 45  1  0  0  0
 22 46  1  0  0  0
 26 47  1  0  0  0
 29 48  1  0  0  0
M  END
$$$$
