6drz_ligand
  -I-interpret- 

 54 57  0  0  0  0  0  0  0  0999 V2000
   22.9590   22.3970   12.4670 C   0  0  0  0  0
   22.5300   18.9300    6.2670 C   0  0  0  0  0
   26.3890   12.3850    5.1620 C   0  0  0  0  0
   22.9430   16.7060    9.6720 C   0  0  0  0  0
   25.8190   13.4990    9.4990 C   0  0  0  0  0
   24.9980   14.6180    9.6640 C   0  0  0  0  0
   26.1210   12.9910    8.2390 C   0  0  0  0  0
   24.9340   14.3540    5.2700 C   0  0  0  0  0
   21.6050   21.7800   12.6440 C   0  0  0  0  0
   20.8060   19.8420   13.9550 C   0  0  0  0  0
   23.5650   16.2890    6.1210 C   0  0  0  0  0
   22.4230   18.7360    8.6160 C   0  0  0  0  0
   22.4040   18.6390   11.1090 C   0  0  0  0  0
   23.6520   16.3550    8.5170 C   0  0  0  0  0
   24.3860   15.1650    6.1570 C   0  0  0  0  0
   24.4840   15.2190    8.5140 C   0  0  0  0  0
   25.6120   13.5920    7.1660 C   0  0  0  0  0
   24.8160   14.6780    7.3340 C   0  0  0  0  0
   22.1330   17.8490    9.8110 C   0  0  0  0  0
   21.7420   20.2780   12.8460 C   0  0  0  0  0
   23.6620   17.1600    7.3750 C   0  0  0  0  0
   21.4440   19.5730   11.6330 N   0  0  0  0  0
   22.4650   17.9970    7.3630 N   0  3  0  0  0
   25.6610   13.4210    5.8490 N   0  0  0  0  0
   23.4580   18.4720   11.6940 O   0  0  0  0  0
   21.3030   18.6340   14.5450 O   0  0  0  0  0
   23.5624   22.2068   13.3546 H   0  0  0  0  0
   23.4451   21.9594   11.5950 H   0  0  0  0  0
   22.8510   23.4720   12.3231 H   0  0  0  0  0
   21.6493   19.5720    6.2853 H   0  0  0  0  0
   23.4280   19.5401    6.3637 H   0  0  0  0  0
   22.5617   18.3812    5.3258 H   0  0  0  0  0
   25.6942   11.7788    4.5807 H   0  0  0  0  0
   27.1225   12.8389    4.4956 H   0  0  0  0  0
   26.8992   11.7562    5.8917 H   0  0  0  0  0
   23.0246   16.0414   10.5321 H   0  0  0  0  0
   26.2339   13.0110   10.3809 H   0  0  0  0  0
   24.7673   15.0075   10.6556 H   0  0  0  0  0
   26.7629   12.1165    8.1328 H   0  0  0  0  0
   24.8009   14.4457    4.1920 H   0  0  0  0  0
   21.0047   21.9696   11.7542 H   0  0  0  0  0
   21.1223   22.2175   13.5179 H   0  0  0  0  0
   19.8112   19.6663   13.5456 H   0  0  0  0  0
   20.7495   20.6228   14.7135 H   0  0  0  0  0
   22.5355   15.9390    6.0455 H   0  0  0  0  0
   23.8827   16.8983    5.2749 H   0  0  0  0  0
   23.4014   19.1919    8.7679 H   0  0  0  0  0
   21.6217   19.4713    8.5435 H   0  0  0  0  0
   21.0908   17.5338    9.8618 H   0  0  0  0  0
   22.7701   20.0447   13.1229 H   0  0  0  0  0
   24.5787   17.7496    7.3859 H   0  0  0  0  0
   20.5612   19.7322   11.1475 H   0  0  0  0  0
   21.6328   17.4172    7.2549 H   0  0  0  0  0
   20.7115   18.3557   15.2481 H   0  0  0  0  0
  9  1  1  0  0  0
 23  2  1  0  0  0
 24  3  1  0  0  0
  4 14  2  0  0  0
 19  4  1  0  0  0
  6  5  4  0  0  0
  5  7  4  0  0  0
 16  6  4  0  0  0
 17  7  4  0  0  0
 15  8  4  0  0  0
  8 24  4  0  0  0
 20  9  1  0  0  0
 20 10  1  0  0  0
 10 26  1  0  0  0
 11 15  1  0  0  0
 21 11  1  0  0  0
 19 12  1  0  0  0
 12 23  1  0  0  0
 13 19  1  0  0  0
 22 13  1  0  0  0
 13 25  2  0  0  0
 14 16  1  0  0  0
 14 21  1  0  0  0
 18 15  4  0  0  0
 16 18  4  0  0  0
 18 17  4  0  0  0
 17 24  4  0  0  0
 20 22  1  0  0  0
 21 23  1  0  0  0
  1 27  1  0  0  0
  1 28  1  0  0  0
  1 29  1  0  0  0
  2 30  1  0  0  0
  2 31  1  0  0  0
  2 32  1  0  0  0
  3 33  1  0  0  0
  3 34  1  0  0  0
  3 35  1  0  0  0
  4 36  1  0  0  0
  5 37  1  0  0  0
  6 38  1  0  0  0
  7 39  1  0  0  0
  8 40  1  0  0  0
  9 41  1  0  0  0
  9 42  1  0  0  0
 10 43  1  0  0  0
 10 44  1  0  0  0
 11 45  1  0  0  0
 11 46  1  0  0  0
 12 47  1  0  0  0
 12 48  1  0  0  0
 19 49  1  0  0  0
 20 50  1  0  0  0
 21 51  1  0  0  0
 22 52  1  0  0  0
 23 53  1  0  0  0
 26 54  1  0  0  0
M  END
$$$$
