### 
### Created by X-TOOL on Mon Sep 10 21:13:29 2018
### 

@<TRIPOS>MOLECULE
5fb0_ligand
  174   173     1     0     0
SMALL
GAST_HUCK


@<TRIPOS>ATOM
      1 N          18.7650  -17.2740   -1.4530 N.4       1 ALA         0.2377
      2 CA         18.6530  -15.9670   -2.0950 C.3       1 ALA         0.0621
      3 C          19.5250  -15.8970   -3.3430 C.2       1 ALA         0.2264
      4 O          20.6470  -16.4060   -3.3560 O.2       1 ALA        -0.3907
      5 CB         19.0310  -14.8620   -1.1180 C.3       1 ALA        -0.0040
      6 N          19.0070  -15.2680   -4.3940 N.am      1 ARG        -0.2610
      7 CA         19.7430  -15.1530   -5.6490 C.3       1 ARG         0.1312
      8 C          20.8510  -14.1110   -5.5530 C.2       1 ARG         0.2040
      9 O          20.7220  -13.1100   -4.8460 O.2       1 ARG        -0.3944
     10 CB         18.8020  -14.7990   -6.8010 C.3       1 ARG        -0.0092
     11 CG         17.6740  -15.7840   -7.0420 C.3       1 ARG        -0.0156
     12 CD         16.7370  -15.2570   -8.1160 C.3       1 ARG         0.0627
     13 NE         15.9930  -14.0810   -7.6720 N.pl3     1 ARG        -0.2723
     14 CZ         15.6030  -13.0920   -8.4720 C.cat     1 ARG         0.2882
     15 NH1        15.8560  -13.1450   -9.7740 N.pl3     1 ARG        -0.2849
     16 NH2        14.9270  -12.0650   -7.9750 N.pl3     1 ARG        -0.2849
     17 N          21.9380  -14.3520   -6.2770 N.am      1 TPO        -0.2611
     18 CA         23.0790  -13.4490   -6.2880 C.3       1 TPO         0.1612
     19 CB         24.2430  -14.0650   -5.5470 C.3       1 TPO         0.1262
     20 CG2        24.0410  -13.8320   -4.0550 C.3       1 TPO        -0.0298
     21 OG1        24.2470  -15.4720   -5.8010 O.3       1 TPO        -0.2685
     22 P          25.7400  -16.0310   -5.5710 P.3       1 TPO         0.2014
     23 O1P        25.9320  -17.2350   -6.4100 O.co2     1 TPO        -0.5537
     24 O2P        26.8120  -14.9150   -6.0210 O.co2     1 TPO        -0.5537
     25 O3P        25.9480  -16.4220   -4.0240 O.co2     1 TPO        -0.5537
     26 C          23.4930  -13.1210   -7.7130 C.2       1 TPO         0.2068
     27 O          23.1500  -13.8390   -8.6510 O.2       1 TPO        -0.3943
     28 N          24.2390  -12.0310   -7.8600 N.am      1 LYS        -0.2636
     29 CA         24.8050  -11.6460   -9.1450 C.3       1 LYS         0.1310
     30 C          26.1180  -10.9010   -8.9200 C.2       1 LYS         0.2039
     31 O          26.4640  -10.5820   -7.7850 O.2       1 LYS        -0.3944
     32 CB         23.8120  -10.7930   -9.9370 C.3       1 LYS        -0.0122
     33 CG         23.6730   -9.3620   -9.4440 C.3       1 LYS        -0.0440
     34 CD         22.3490   -8.7500   -9.8910 C.3       1 LYS        -0.0124
     35 CE         22.4490   -8.1160  -11.2690 C.3       1 LYS        -0.0354
     36 NZ         21.1380   -7.5860  -11.7450 N.4       1 LYS         0.2185
     37 N          26.8560  -10.6340   -9.9950 N.am      1 GLN        -0.2636
     38 CA         28.1590   -9.9810   -9.9030 C.3       1 GLN         0.1330
     39 C          28.2000   -8.8250  -10.8920 C.2       1 GLN         0.2041
     40 O          28.1790   -9.0420  -12.1070 O.2       1 GLN        -0.3944
     41 CB         29.2940  -10.9700  -10.1720 C.3       1 GLN         0.0045
     42 CG         30.3280  -11.0600   -9.0540 C.3       1 GLN         0.0412
     43 CD         31.0440   -9.7440   -8.7910 C.2       1 GLN         0.1737
     44 OE1        31.1460   -8.8840   -9.6690 O.2       1 GLN        -0.3973
     45 NE2        31.5470   -9.5830   -7.5710 N.am      1 GLN        -0.3009
     46 N          28.2480   -7.6030  -10.3710 N.am      1 THR        -0.2613
     47 CA         28.3310   -6.3960  -11.1780 C.3       1 THR         0.1565
     48 C          29.6640   -5.6960  -10.9410 C.2       1 THR         0.2065
     49 O          30.3650   -5.9610   -9.9610 O.2       1 THR        -0.3943
     50 CB         27.1680   -5.4500  -10.8630 C.3       1 THR         0.0924
     51 OG1        27.2430   -5.0350   -9.4940 O.3       1 THR        -0.3874
     52 CG2        25.8410   -6.1640  -11.0890 C.3       1 THR        -0.0346
     53 N          30.0120   -4.7930  -11.8570 N.am      1 ALA        -0.2639
     54 CA         31.2800   -4.0830  -11.7800 C.3       1 ALA         0.1282
     55 C          31.1260   -2.6970  -12.3900 C.2       1 ALA         0.2036
     56 O          30.2850   -2.4770  -13.2670 O.2       1 ALA        -0.3944
     57 CB         32.4000   -4.8540  -12.4870 C.3       1 ALA        -0.0244
     58 N          31.9510   -1.7630  -11.9040 N.am      1 ARG        -0.2637
     59 CA         31.9190   -0.3890  -12.4010 C.3       1 ARG         0.1311
     60 C          32.1500   -0.3260  -13.9070 C.2       1 ARG         0.2039
     61 O          31.4480    0.4010  -14.6200 O.2       1 ARG        -0.3944
     62 CB         32.9640    0.4500  -11.6650 C.3       1 ARG        -0.0092
     63 CG         33.0570    1.8840  -12.1460 C.3       1 ARG        -0.0156
     64 CD         34.1040    2.6590  -11.3670 C.3       1 ARG         0.0627
     65 NE         34.4590    3.9050  -12.0370 N.pl3     1 ARG        -0.2723
     66 CZ         35.2990    4.8090  -11.5430 C.cat     1 ARG         0.2882
     67 NH1        35.5590    5.9160  -12.2250 N.pl3     1 ARG        -0.2849
     68 NH2        35.8760    4.6100  -10.3660 N.pl3     1 ARG        -0.2849
     69 N          33.1140   -1.0910  -14.4130 N.am      1 LYS        -0.2637
     70 CA         33.3620   -1.1660  -15.8510 C.3       1 LYS         0.1309
     71 C          32.7920   -2.4800  -16.3830 C.2       1 LYS         0.2034
     72 O          33.5050   -3.4100  -16.7640 O.2       1 LYS        -0.3944
     73 CB         34.8550   -1.0330  -16.1420 C.3       1 LYS        -0.0122
     74 CG         35.4510    0.3290  -15.7980 C.3       1 LYS        -0.0440
     75 CD         36.9670    0.3410  -15.9880 C.3       1 LYS        -0.0124
     76 CE         37.3600    0.1450  -17.4460 C.3       1 LYS        -0.0354
     77 NZ         36.5770    1.0120  -18.3730 N.4       1 LYS         0.2185
     78 N          31.4630   -2.5260  -16.3950 N.am      1 SER        -0.2672
     79 CA         30.7160   -3.6850  -16.8650 C.3       1 SER         0.1173
     80 C          29.2600   -3.3050  -17.1130 C.2       1 SER         0.0623
     81 O          28.6730   -2.5360  -16.3500 O.co2     1 SER        -0.5665
     82 CB         30.8050   -4.8270  -15.8480 C.3       1 SER         0.0789
     83 OG         30.0120   -5.9320  -16.2410 O.3       1 SER        -0.3910
     84 OXT        28.6480   -3.7610  -18.0800 O.co2     1 SER        -0.5665
     85 H1         18.1807  -17.2962   -0.6319 H         1 ALA         0.2015
     86 H2         19.7237  -17.4370   -1.1877 H         1 ALA         0.2015
     87 H3         18.4678  -17.9909   -2.0962 H         1 ALA         0.2015
     88 H4         17.6057  -15.8194   -2.3973 H         1 ALA         0.1095
     89 H5         18.9415  -13.8855   -1.6164 H         1 ALA         0.0310
     90 H6         20.0682  -15.0085   -0.7821 H         1 ALA         0.0310
     91 H7         18.3564  -14.8936   -0.2497 H         1 ALA         0.0310
     92 H8         18.0943  -14.8655   -4.3229 H         1 ARG         0.1884
     93 H9         20.2041  -16.1282   -5.8643 H         1 ARG         0.0800
     94 H10        19.4006  -14.7358   -7.7217 H         1 ARG         0.0313
     95 H11        18.3555  -13.8170   -6.5858 H         1 ARG         0.0313
     96 H12        17.1114  -15.9277   -6.1078 H         1 ARG         0.0301
     97 H13        18.0955  -16.7463   -7.3680 H         1 ARG         0.0301
     98 H14        16.0215  -16.0492   -8.3814 H         1 ARG         0.0689
     99 H15        17.3303  -14.9868   -9.0020 H         1 ARG         0.0689
    100 H16        15.7542  -14.0128   -6.6724 H         1 ARG         0.2642
    101 H17        15.5521  -12.3770  -10.3894 H         1 ARG         0.2615
    102 H18        16.3562  -13.9542  -10.1689 H         1 ARG         0.2615
    103 H19        14.7282  -12.0194   -6.9654 H         1 ARG         0.2615
    104 H20        14.6007  -11.3129   -8.5986 H         1 ARG         0.2615
    105 H21        21.9736  -15.1821   -6.8334 H         1 TPO         0.1884
    106 H22        22.7915  -12.5158   -5.7815 H         1 TPO         0.0830
    107 H23        25.1903  -13.6148   -5.8787 H         1 TPO         0.0695
    108 H24        24.8801  -14.2743   -3.4979 H         1 TPO         0.0260
    109 H25        23.0997  -14.3024   -3.7345 H         1 TPO         0.0260
    110 H26        23.9974  -12.7512   -3.8552 H         1 TPO         0.0260
    111 H27        24.4175  -11.4561   -7.0615 H         1 LYS         0.1883
    112 H28        25.0154  -12.5574   -9.7238 H         1 LYS         0.0800
    113 H29        22.8242  -11.2734   -9.8787 H         1 LYS         0.0312
    114 H30        24.1443  -10.7639  -10.9852 H         1 LYS         0.0312
    115 H31        24.5007   -8.7611   -9.8489 H         1 LYS         0.0269
    116 H32        23.7183   -9.3552   -8.3450 H         1 LYS         0.0269
    117 H33        22.0523   -7.9778   -9.1659 H         1 LYS         0.0317
    118 H34        21.5843   -9.5402   -9.9187 H         1 LYS         0.0317
    119 H35        22.8040   -8.8743  -11.9824 H         1 LYS         0.0813
    120 H36        23.1708   -7.2871  -11.2255 H         1 LYS         0.0813
    121 H37        21.2529   -7.1767  -12.6590 H         1 LYS         0.1994
    122 H38        20.8058   -6.8844  -11.1021 H         1 LYS         0.1994
    123 H39        20.4696   -8.3388  -11.7956 H         1 LYS         0.1994
    124 H40        26.5063  -10.8893  -10.8964 H         1 GLN         0.1883
    125 H41        28.2827   -9.5814   -8.8857 H         1 GLN         0.0801
    126 H42        29.8092  -10.6605  -11.0933 H         1 GLN         0.0337
    127 H43        28.8543  -11.9680  -10.3153 H         1 GLN         0.0337
    128 H44        31.0773  -11.8161   -9.3312 H         1 GLN         0.0504
    129 H45        29.8178  -11.3707   -8.1304 H         1 GLN         0.0504
    130 H46        32.0293   -8.7390   -7.3364 H         1 GLN         0.1814
    131 H47        31.4431  -10.3059   -6.8879 H         1 GLN         0.1814
    132 H48        28.2260   -7.5091   -9.3757 H         1 THR         0.1884
    133 H49        28.2694   -6.6812  -12.2386 H         1 THR         0.0826
    134 H50        27.2271   -4.5689  -11.5188 H         1 THR         0.0639
    135 H51        26.5206   -4.4487   -9.3020 H         1 THR         0.2101
    136 H52        25.0120   -5.4780  -10.8606 H         1 THR         0.0257
    137 H53        25.7810   -7.0434  -10.4309 H         1 THR         0.0257
    138 H54        25.7719   -6.4860  -12.1385 H         1 THR         0.0257
    139 H55        29.3881   -4.5989  -12.6140 H         1 ALA         0.1883
    140 H56        31.5530   -3.9728  -10.7201 H         1 ALA         0.0797
    141 H57        33.3404   -4.2887  -12.4084 H         1 ALA         0.0277
    142 H58        32.1402   -4.9879  -13.5475 H         1 ALA         0.0277
    143 H59        32.5234   -5.8387  -12.0125 H         1 ALA         0.0277
    144 H60        32.6024   -2.0097  -11.1865 H         1 ARG         0.1883
    145 H61        30.9239    0.0299  -12.1904 H         1 ARG         0.0800
    146 H62        33.9468   -0.0246  -11.8019 H         1 ARG         0.0313
    147 H63        32.7076    0.4605  -10.5954 H         1 ARG         0.0313
    148 H64        32.0793    2.3705  -12.0143 H         1 ARG         0.0301
    149 H65        33.3278    1.8877  -13.2121 H         1 ARG         0.0301
    150 H66        35.0064    2.0381  -11.2667 H         1 ARG         0.0689
    151 H67        33.7061    2.8917  -10.3682 H         1 ARG         0.0689
    152 H68        34.0304    4.0971  -12.9537 H         1 ARG         0.2642
    153 H69        36.2100    6.6161  -11.8417 H         1 ARG         0.2615
    154 H70        35.1100    6.0758  -13.1381 H         1 ARG         0.2615
    155 H71        35.6765    3.7513   -9.8333 H         1 ARG         0.2615
    156 H72        36.5237    5.3141   -9.9844 H         1 ARG         0.2615
    157 H73        33.6842   -1.6292  -13.7923 H         1 LYS         0.1883
    158 H74        32.8400   -0.3333  -16.3450 H         1 LYS         0.0800
    159 H75        35.0128   -1.2152  -17.2152 H         1 LYS         0.0312
    160 H76        35.3878   -1.7979  -15.5579 H         1 LYS         0.0312
    161 H77        35.2204    0.5654  -14.7487 H         1 LYS         0.0269
    162 H78        35.0027    1.0910  -16.4526 H         1 LYS         0.0269
    163 H79        37.4065   -0.4705  -15.3895 H         1 LYS         0.0317
    164 H80        37.3609    1.3075  -15.6408 H         1 LYS         0.0317
    165 H81        37.1888   -0.9068  -17.7186 H         1 LYS         0.0813
    166 H82        38.4279    0.3838  -17.5581 H         1 LYS         0.0813
    167 H83        36.8744    0.8444  -19.3214 H         1 LYS         0.1994
    168 H84        36.7314    1.9801  -18.1386 H         1 LYS         0.1994
    169 H85        35.5960    0.7974  -18.2856 H         1 LYS         0.1994
    170 H86        30.9541   -1.7301  -16.0670 H         1 SER         0.1876
    171 H87        31.1565   -4.0259  -17.8135 H         1 SER         0.0749
    172 H88        30.4538   -4.4641  -14.8708 H         1 SER         0.0599
    173 H89        31.8530   -5.1505  -15.7640 H         1 SER         0.0599
    174 H90        30.0880   -6.6216  -15.5920 H         1 SER         0.2096
@<TRIPOS>BOND
     1    1    2 1  
     2    2    3 1  
     3    2    5 1  
     4    3    4 2  
     5    3    6 am 
     6    6    7 1  
     7    7    8 1  
     8    7   10 1  
     9    8    9 2  
    10    8   17 am 
    11   10   11 1  
    12   11   12 1  
    13   12   13 1  
    14   13   14 ar 
    15   14   15 ar 
    16   14   16 ar 
    17   17   18 1  
    18   18   19 1  
    19   18   26 1  
    20   19   20 1  
    21   19   21 1  
    22   21   22 1  
    23   22   23 ar 
    24   22   24 ar 
    25   22   25 ar 
    26   26   27 2  
    27   26   28 am 
    28   28   29 1  
    29   29   30 1  
    30   29   32 1  
    31   30   31 2  
    32   30   37 am 
    33   32   33 1  
    34   33   34 1  
    35   34   35 1  
    36   35   36 1  
    37   37   38 1  
    38   38   39 1  
    39   38   41 1  
    40   39   40 2  
    41   39   46 am 
    42   41   42 1  
    43   42   43 1  
    44   43   44 2  
    45   43   45 am 
    46   46   47 1  
    47   47   48 1  
    48   47   50 1  
    49   48   49 2  
    50   48   53 am 
    51   50   51 1  
    52   50   52 1  
    53   53   54 1  
    54   54   55 1  
    55   54   57 1  
    56   55   56 2  
    57   55   58 am 
    58   58   59 1  
    59   59   60 1  
    60   59   62 1  
    61   60   61 2  
    62   60   69 am 
    63   62   63 1  
    64   63   64 1  
    65   64   65 1  
    66   65   66 ar 
    67   66   67 ar 
    68   66   68 ar 
    69   69   70 1  
    70   70   71 1  
    71   70   73 1  
    72   71   72 2  
    73   71   78 am 
    74   73   74 1  
    75   74   75 1  
    76   75   76 1  
    77   76   77 1  
    78   78   79 1  
    79   79   80 1  
    80   79   82 1  
    81   80   81 ar 
    82   80   84 ar 
    83   82   83 1  
    84    1   85 1  
    85    1   86 1  
    86    1   87 1  
    87    2   88 1  
    88    5   89 1  
    89    5   90 1  
    90    5   91 1  
    91    6   92 1  
    92    7   93 1  
    93   10   94 1  
    94   10   95 1  
    95   11   96 1  
    96   11   97 1  
    97   12   98 1  
    98   12   99 1  
    99   13  100 1  
   100   15  101 1  
   101   15  102 1  
   102   16  103 1  
   103   16  104 1  
   104   17  105 1  
   105   18  106 1  
   106   19  107 1  
   107   20  108 1  
   108   20  109 1  
   109   20  110 1  
   110   28  111 1  
   111   29  112 1  
   112   32  113 1  
   113   32  114 1  
   114   33  115 1  
   115   33  116 1  
   116   34  117 1  
   117   34  118 1  
   118   35  119 1  
   119   35  120 1  
   120   36  121 1  
   121   36  122 1  
   122   36  123 1  
   123   37  124 1  
   124   38  125 1  
   125   41  126 1  
   126   41  127 1  
   127   42  128 1  
   128   42  129 1  
   129   45  130 1  
   130   45  131 1  
   131   46  132 1  
   132   47  133 1  
   133   50  134 1  
   134   51  135 1  
   135   52  136 1  
   136   52  137 1  
   137   52  138 1  
   138   53  139 1  
   139   54  140 1  
   140   57  141 1  
   141   57  142 1  
   142   57  143 1  
   143   58  144 1  
   144   59  145 1  
   145   62  146 1  
   146   62  147 1  
   147   63  148 1  
   148   63  149 1  
   149   64  150 1  
   150   64  151 1  
   151   65  152 1  
   152   67  153 1  
   153   67  154 1  
   154   68  155 1  
   155   68  156 1  
   156   69  157 1  
   157   70  158 1  
   158   73  159 1  
   159   73  160 1  
   160   74  161 1  
   161   74  162 1  
   162   75  163 1  
   163   75  164 1  
   164   76  165 1  
   165   76  166 1  
   166   77  167 1  
   167   77  168 1  
   168   77  169 1  
   169   78  170 1  
   170   79  171 1  
   171   82  172 1  
   172   82  173 1  
   173   83  174 1  
@<TRIPOS>SUBSTRUCTURE
     1 ALA         1

