5fb0_ligand
  -I-interpret- 

175174  0  0  0  0  0  0  0  0999 V2000
   18.7650  -17.2740   -1.4530 N   0  3  0  0  0
   18.6530  -15.9670   -2.0950 C   0  0  0  0  0
   19.5250  -15.8970   -3.3430 C   0  0  0  0  0
   20.6470  -16.4060   -3.3560 O   0  0  0  0  0
   19.0310  -14.8620   -1.1180 C   0  0  0  0  0
   19.0070  -15.2680   -4.3940 N   0  0  0  0  0
   19.7430  -15.1530   -5.6490 C   0  0  0  0  0
   20.8510  -14.1110   -5.5530 C   0  0  0  0  0
   20.7220  -13.1100   -4.8460 O   0  0  0  0  0
   18.8020  -14.7990   -6.8010 C   0  0  0  0  0
   17.6740  -15.7840   -7.0420 C   0  0  0  0  0
   16.7370  -15.2570   -8.1160 C   0  0  0  0  0
   15.9930  -14.0810   -7.6720 N   0  0  0  0  0
   15.6030  -13.0920   -8.4720 C   0  0  0  0  0
   15.8560  -13.1450   -9.7740 N   0  0  0  0  0
   14.9270  -12.0650   -7.9750 N   0  0  0  0  0
   21.9380  -14.3520   -6.2770 N   0  0  0  0  0
   23.0790  -13.4490   -6.2880 C   0  0  0  0  0
   24.2430  -14.0650   -5.5470 C   0  0  0  0  0
   24.0410  -13.8320   -4.0550 C   0  0  0  0  0
   24.2470  -15.4720   -5.8010 O   0  0  0  0  0
   25.7400  -16.0310   -5.5710 P   0  0  0  0  0
   25.9320  -17.2350   -6.4100 O   0  0  0  0  0
   26.8120  -14.9150   -6.0210 O   0  0  0  0  0
   25.9480  -16.4220   -4.0240 O   0  0  0  0  0
   23.4930  -13.1210   -7.7130 C   0  0  0  0  0
   23.1500  -13.8390   -8.6510 O   0  0  0  0  0
   24.2390  -12.0310   -7.8600 N   0  0  0  0  0
   24.8050  -11.6460   -9.1450 C   0  0  0  0  0
   26.1180  -10.9010   -8.9200 C   0  0  0  0  0
   26.4640  -10.5820   -7.7850 O   0  0  0  0  0
   23.8120  -10.7930   -9.9370 C   0  0  0  0  0
   23.6730   -9.3620   -9.4440 C   0  0  0  0  0
   22.3490   -8.7500   -9.8910 C   0  0  0  0  0
   22.4490   -8.1160  -11.2690 C   0  0  0  0  0
   21.1380   -7.5860  -11.7450 N   0  3  0  0  0
   26.8560  -10.6340   -9.9950 N   0  0  0  0  0
   28.1590   -9.9810   -9.9030 C   0  0  0  0  0
   28.2000   -8.8250  -10.8920 C   0  0  0  0  0
   28.1790   -9.0420  -12.1070 O   0  0  0  0  0
   29.2940  -10.9700  -10.1720 C   0  0  0  0  0
   30.3280  -11.0600   -9.0540 C   0  0  0  0  0
   31.0440   -9.7440   -8.7910 C   0  0  0  0  0
   31.1460   -8.8840   -9.6690 O   0  0  0  0  0
   31.5470   -9.5830   -7.5710 N   0  0  0  0  0
   28.2480   -7.6030  -10.3710 N   0  0  0  0  0
   28.3310   -6.3960  -11.1780 C   0  0  0  0  0
   29.6640   -5.6960  -10.9410 C   0  0  0  0  0
   30.3650   -5.9610   -9.9610 O   0  0  0  0  0
   27.1680   -5.4500  -10.8630 C   0  0  0  0  0
   27.2430   -5.0350   -9.4940 O   0  0  0  0  0
   25.8410   -6.1640  -11.0890 C   0  0  0  0  0
   30.0120   -4.7930  -11.8570 N   0  0  0  0  0
   31.2800   -4.0830  -11.7800 C   0  0  0  0  0
   31.1260   -2.6970  -12.3900 C   0  0  0  0  0
   30.2850   -2.4770  -13.2670 O   0  0  0  0  0
   32.4000   -4.8540  -12.4870 C   0  0  0  0  0
   31.9510   -1.7630  -11.9040 N   0  0  0  0  0
   31.9190   -0.3890  -12.4010 C   0  0  0  0  0
   32.1500   -0.3260  -13.9070 C   0  0  0  0  0
   31.4480    0.4010  -14.6200 O   0  0  0  0  0
   32.9640    0.4500  -11.6650 C   0  0  0  0  0
   33.0570    1.8840  -12.1460 C   0  0  0  0  0
   34.1040    2.6590  -11.3670 C   0  0  0  0  0
   34.4590    3.9050  -12.0370 N   0  0  0  0  0
   35.2990    4.8090  -11.5430 C   0  0  0  0  0
   35.5590    5.9160  -12.2250 N   0  0  0  0  0
   35.8760    4.6100  -10.3660 N   0  0  0  0  0
   33.1140   -1.0910  -14.4130 N   0  0  0  0  0
   33.3620   -1.1660  -15.8510 C   0  0  0  0  0
   32.7920   -2.4800  -16.3830 C   0  0  0  0  0
   33.5050   -3.4100  -16.7640 O   0  0  0  0  0
   34.8550   -1.0330  -16.1420 C   0  0  0  0  0
   35.4510    0.3290  -15.7980 C   0  0  0  0  0
   36.9670    0.3410  -15.9880 C   0  0  0  0  0
   37.3600    0.1450  -17.4460 C   0  0  0  0  0
   36.5770    1.0120  -18.3730 N   0  3  0  0  0
   31.4630   -2.5260  -16.3950 N   0  0  0  0  0
   30.7160   -3.6850  -16.8650 C   0  0  0  0  0
   29.2600   -3.3050  -17.1130 C   0  0  0  0  0
   28.6730   -2.5360  -16.3500 O   0  0  0  0  0
   30.8050   -4.8270  -15.8480 C   0  0  0  0  0
   30.0120   -5.9320  -16.2410 O   0  0  0  0  0
   28.6480   -3.7610  -18.0800 O   0  0  0  0  0
   18.5088  -18.0021   -2.1198 H   0  0  0  0  0
   19.7261  -17.4180   -1.1431 H   0  0  0  0  0
   18.1381  -17.3115   -0.6492 H   0  0  0  0  0
   17.6158  -15.8245   -2.3983 H   0  0  0  0  0
   20.0754  -14.9768   -0.8280 H   0  0  0  0  0
   18.8897  -13.8925   -1.5956 H   0  0  0  0  0
   18.3975  -14.9285   -0.2335 H   0  0  0  0  0
   18.0761  -14.8575   -4.3215 H   0  0  0  0  0
   20.1986  -16.1235   -5.8456 H   0  0  0  0  0
   19.4075  -14.7899   -7.7073 H   0  0  0  0  0
   18.3362  -13.8480   -6.5428 H   0  0  0  0  0
   17.1149  -15.9195   -6.1161 H   0  0  0  0  0
   18.0946  -16.7344   -7.3707 H   0  0  0  0  0
   16.0192  -16.0419   -8.3542 H   0  0  0  0  0
   17.3379  -14.9716   -8.9795 H   0  0  0  0  0
   15.7566  -14.0135   -6.6821 H   0  0  0  0  0
   15.5308  -12.3979  -10.3876 H   0  0  0  0  0
   16.3756  -13.9329  -10.1609 H   0  0  0  0  0
   14.7062  -12.0334   -6.9797 H   0  0  0  0  0
   21.9743  -15.1987   -6.8446 H   0  0  0  0  0
   22.7852  -12.5259   -5.7883 H   0  0  0  0  0
   25.1843  -13.6221   -5.8725 H   0  0  0  0  0
   23.9980  -12.7607   -3.8584 H   0  0  0  0  0
   23.1080  -14.2985   -3.7388 H   0  0  0  0  0
   24.8730  -14.2707   -3.5041 H   0  0  0  0  0
   26.6976  -14.1279   -5.4834 H   0  0  0  0  0
   25.8238  -15.6419   -3.4784 H   0  0  0  0  0
   24.4211  -11.4446   -7.0455 H   0  0  0  0  0
   25.0085  -12.5414   -9.7323 H   0  0  0  0  0
   22.8340  -11.2624   -9.8309 H   0  0  0  0  0
   24.1823  -10.7421  -10.9609 H   0  0  0  0  0
   24.4879   -8.7700   -9.8606 H   0  0  0  0  0
   23.7044   -9.3650   -8.3545 H   0  0  0  0  0
   22.0757   -7.9724   -9.1778 H   0  0  0  0  0
   21.6046   -9.5450   -9.9355 H   0  0  0  0  0
   22.7788   -8.8822  -11.9706 H   0  0  0  0  0
   23.1486   -7.2824  -11.2077 H   0  0  0  0  0
   21.2555   -7.1721  -12.6698 H   0  0  0  0  0
   20.4625   -8.3486  -11.7958 H   0  0  0  0  0
   20.8029   -6.8762  -11.0936 H   0  0  0  0  0
   26.4993  -10.8944  -10.9144 H   0  0  0  0  0
   28.2992   -9.6005   -8.8912 H   0  0  0  0  0
   29.8160  -10.6236  -11.0640 H   0  0  0  0  0
   28.8421  -11.9570  -10.2706 H   0  0  0  0  0
   31.0791  -11.7893   -9.3573 H   0  0  0  0  0
   29.8026  -11.3380   -8.1403 H   0  0  0  0  0
   32.0397   -8.7225   -7.3320 H   0  0  0  0  0
   31.4402  -10.3200   -6.8740 H   0  0  0  0  0
   28.2255   -7.5072   -9.3558 H   0  0  0  0  0
   28.2641   -6.6791  -12.2285 H   0  0  0  0  0
   27.2327   -4.5819  -11.5189 H   0  0  0  0  0
   26.5130   -4.4425   -9.3000 H   0  0  0  0  0
   25.7738   -6.4825  -12.1292 H   0  0  0  0  0
   25.7828   -7.0351  -10.4364 H   0  0  0  0  0
   25.0204   -5.4833  -10.8624 H   0  0  0  0  0
   29.3756   -4.5950  -12.6292 H   0  0  0  0  0
   31.5574   -3.9907  -10.7299 H   0  0  0  0  0
   32.5212   -5.8295  -12.0160 H   0  0  0  0  0
   32.1413   -4.9860  -13.5376 H   0  0  0  0  0
   33.3312   -4.2929  -12.4085 H   0  0  0  0  0
   32.6155   -2.0147  -11.1722 H   0  0  0  0  0
   30.9258    0.0168  -12.2084 H   0  0  0  0  0
   33.9341   -0.0137  -11.8440 H   0  0  0  0  0
   32.6720    0.4803  -10.6153 H   0  0  0  0  0
   32.0891    2.3632  -11.9988 H   0  0  0  0  0
   33.3398    1.8797  -13.1987 H   0  0  0  0  0
   35.0000    2.0433  -11.2879 H   0  0  0  0  0
   33.6947    2.9001  -10.3860 H   0  0  0  0  0
   34.0345    4.0953  -12.9448 H   0  0  0  0  0
   36.2010    6.6109  -11.8438 H   0  0  0  0  0
   35.1170    6.0726  -13.1308 H   0  0  0  0  0
   35.6758    3.7613   -9.8368 H   0  0  0  0  0
   33.6956   -1.6399  -13.7799 H   0  0  0  0  0
   32.8645   -0.3407  -16.3604 H   0  0  0  0  0
   34.9836   -1.1744  -17.2151 H   0  0  0  0  0
   35.3665   -1.7695  -15.5223 H   0  0  0  0  0
   35.2323    0.5475  -14.7528 H   0  0  0  0  0
   35.0139    1.0748  -16.4620 H   0  0  0  0  0
   37.3900   -0.4789  -15.4075 H   0  0  0  0  0
   37.3442    1.3098  -15.6603 H   0  0  0  0  0
   37.1612   -0.8937  -17.7101 H   0  0  0  0  0
   38.4124    0.4097  -17.5480 H   0  0  0  0  0
   36.8788    0.8416  -19.3323 H   0  0  0  0  0
   35.5846    0.7940  -18.2837 H   0  0  0  0  0
   36.7340    1.9913  -18.1348 H   0  0  0  0  0
   30.9439   -1.7142  -16.0605 H   0  0  0  0  0
   31.1532   -4.0258  -17.8035 H   0  0  0  0  0
   29.2703   -2.2644  -15.6493 H   0  0  0  0  0
   30.4405   -4.4638  -14.8871 H   0  0  0  0  0
   31.8434   -5.1520  -15.7827 H   0  0  0  0  0
   30.0888   -6.6289  -15.5852 H   0  0  0  0  0
  1  2  1  0  0  0
  2  3  1  0  0  0
  2  5  1  0  0  0
  3  4  2  0  0  0
  3  6  1  0  0  0
  6  7  1  0  0  0
  7  8  1  0  0  0
  7 10  1  0  0  0
  8  9  2  0  0  0
  8 17  1  0  0  0
 10 11  1  0  0  0
 11 12  1  0  0  0
 12 13  1  0  0  0
 13 14  1  0  0  0
 14 15  1  0  0  0
 14 16  2  0  0  0
 17 18  1  0  0  0
 18 19  1  0  0  0
 18 26  1  0  0  0
 19 20  1  0  0  0
 19 21  1  0  0  0
 21 22  1  0  0  0
 22 23  2  0  0  0
 22 24  1  0  0  0
 22 25  1  0  0  0
 26 27  2  0  0  0
 26 28  1  0  0  0
 28 29  1  0  0  0
 29 30  1  0  0  0
 29 32  1  0  0  0
 30 31  2  0  0  0
 30 37  1  0  0  0
 32 33  1  0  0  0
 33 34  1  0  0  0
 34 35  1  0  0  0
 35 36  1  0  0  0
 37 38  1  0  0  0
 38 39  1  0  0  0
 38 41  1  0  0  0
 39 40  2  0  0  0
 39 46  1  0  0  0
 41 42  1  0  0  0
 42 43  1  0  0  0
 43 44  2  0  0  0
 43 45  1  0  0  0
 46 47  1  0  0  0
 47 48  1  0  0  0
 47 50  1  0  0  0
 48 49  2  0  0  0
 48 53  1  0  0  0
 50 51  1  0  0  0
 50 52  1  0  0  0
 53 54  1  0  0  0
 54 55  1  0  0  0
 54 57  1  0  0  0
 55 56  2  0  0  0
 55 58  1  0  0  0
 58 59  1  0  0  0
 59 60  1  0  0  0
 59 62  1  0  0  0
 60 61  2  0  0  0
 60 69  1  0  0  0
 62 63  1  0  0  0
 63 64  1  0  0  0
 64 65  1  0  0  0
 65 66  1  0  0  0
 66 67  1  0  0  0
 66 68  2  0  0  0
 69 70  1  0  0  0
 70 71  1  0  0  0
 70 73  1  0  0  0
 71 72  2  0  0  0
 71 78  1  0  0  0
 73 74  1  0  0  0
 74 75  1  0  0  0
 75 76  1  0  0  0
 76 77  1  0  0  0
 78 79  1  0  0  0
 79 80  1  0  0  0
 79 82  1  0  0  0
 80 81  1  0  0  0
 80 84  2  0  0  0
 82 83  1  0  0  0
  1 85  1  0  0  0
  1 86  1  0  0  0
  1 87  1  0  0  0
  2 88  1  0  0  0
  5 89  1  0  0  0
  5 90  1  0  0  0
  5 91  1  0  0  0
  6 92  1  0  0  0
  7 93  1  0  0  0
 10 94  1  0  0  0
 10 95  1  0  0  0
 11 96  1  0  0  0
 11 97  1  0  0  0
 12 98  1  0  0  0
 12 99  1  0  0  0
 13100  1  0  0  0
 15101  1  0  0  0
 15102  1  0  0  0
 16103  1  0  0  0
 17104  1  0  0  0
 18105  1  0  0  0
 19106  1  0  0  0
 20107  1  0  0  0
 20108  1  0  0  0
 20109  1  0  0  0
 24110  1  0  0  0
 25111  1  0  0  0
 28112  1  0  0  0
 29113  1  0  0  0
 32114  1  0  0  0
 32115  1  0  0  0
 33116  1  0  0  0
 33117  1  0  0  0
 34118  1  0  0  0
 34119  1  0  0  0
 35120  1  0  0  0
 35121  1  0  0  0
 36122  1  0  0  0
 36123  1  0  0  0
 36124  1  0  0  0
 37125  1  0  0  0
 38126  1  0  0  0
 41127  1  0  0  0
 41128  1  0  0  0
 42129  1  0  0  0
 42130  1  0  0  0
 45131  1  0  0  0
 45132  1  0  0  0
 46133  1  0  0  0
 47134  1  0  0  0
 50135  1  0  0  0
 51136  1  0  0  0
 52137  1  0  0  0
 52138  1  0  0  0
 52139  1  0  0  0
 53140  1  0  0  0
 54141  1  0  0  0
 57142  1  0  0  0
 57143  1  0  0  0
 57144  1  0  0  0
 58145  1  0  0  0
 59146  1  0  0  0
 62147  1  0  0  0
 62148  1  0  0  0
 63149  1  0  0  0
 63150  1  0  0  0
 64151  1  0  0  0
 64152  1  0  0  0
 65153  1  0  0  0
 67154  1  0  0  0
 67155  1  0  0  0
 68156  1  0  0  0
 69157  1  0  0  0
 70158  1  0  0  0
 73159  1  0  0  0
 73160  1  0  0  0
 74161  1  0  0  0
 74162  1  0  0  0
 75163  1  0  0  0
 75164  1  0  0  0
 76165  1  0  0  0
 76166  1  0  0  0
 77167  1  0  0  0
 77168  1  0  0  0
 77169  1  0  0  0
 78170  1  0  0  0
 79171  1  0  0  0
 81172  1  0  0  0
 82173  1  0  0  0
 82174  1  0  0  0
 83175  1  0  0  0
M  END
$$$$
