5iu8_ligand
  -I-interpret- 

 48 51  0  0  0  0  0  0  0  0999 V2000
  -20.9350    5.3830   17.7500 N   0  0  0  0  0
  -19.8330    5.0060   18.4450 C   0  0  0  0  0
  -20.4510    2.6120   19.2170 C   0  0  0  0  0
  -19.7350    1.5240   19.7000 C   0  0  0  0  0
  -18.3990    1.8890   19.7530 C   0  0  0  0  0
  -19.6060   13.0600   15.6520 C   0  0  0  0  0
  -18.8750   16.3740   14.7430 C   0  0  0  0  0
  -19.0470   15.1190   14.5710 N   0  3  0  0  0
  -20.0920   14.9190   13.7300 C   0  0  0  0  0
  -20.4780   13.4570   13.6270 C   0  0  0  0  0
  -20.6880   12.9210   14.8500 N   0  3  0  0  0
  -21.0210   11.6910   14.7430 C   0  0  0  0  0
  -21.6910   11.2090   16.0130 C   0  0  0  0  0
  -22.0080    9.8260   15.9130 N   0  0  0  0  0
  -21.1980    8.8940   16.6090 C   0  0  0  0  0
  -21.5990    7.6170   16.7620 N   0  0  0  0  0
  -20.7910    6.7280   17.4420 C   0  0  0  0  0
  -19.0230    6.0730   18.5640 N   0  0  0  0  0
  -19.6360    7.1320   17.9380 N   0  0  0  0  0
  -19.2310    8.4390   17.7800 C   0  0  0  0  0
  -17.9880    8.8670   18.3140 N   0  0  0  0  0
  -20.0170    9.3040   17.1180 N   0  0  0  0  0
  -19.5360    3.6270   18.9840 C   0  0  0  0  0
  -18.3090    3.1640   19.3120 O   0  0  0  0  0
  -19.1910   14.5120   15.7750 C   0  0  0  0  0
  -21.5275    2.6587   19.0525 H   0  0  0  0  0
  -20.1493    0.5572   19.9859 H   0  0  0  0  0
  -17.5723    1.2629   20.0887 H   0  0  0  0  0
  -18.7786   12.4995   15.2169 H   0  0  0  0  0
  -19.8609   12.6879   16.6443 H   0  0  0  0  0
  -18.6660   16.8457   13.7829 H   0  0  0  0  0
  -19.7777   16.8075   15.1734 H   0  0  0  0  0
  -18.0352   16.5351   15.4189 H   0  0  0  0  0
  -18.2317   14.6943   14.1290 H   0  0  0  0  0
  -19.7971   15.2610   12.7379 H   0  0  0  0  0
  -20.9491   15.4677   14.1202 H   0  0  0  0  0
  -19.6649   12.9151   13.1440 H   0  0  0  0  0
  -21.3994   13.3797   13.0498 H   0  0  0  0  0
  -21.4547   13.4321   15.2875 H   0  0  0  0  0
  -20.1247   11.0959   14.5682 H   0  0  0  0  0
  -21.7190   11.5846   13.9126 H   0  0  0  0  0
  -22.6108   11.7737   16.1652 H   0  0  0  0  0
  -21.0104   11.3573   16.8514 H   0  0  0  0  0
  -22.8005    9.5119   15.3529 H   0  0  0  0  0
  -17.3938    8.2067   18.8152 H   0  0  0  0  0
  -17.6887    9.8350   18.1966 H   0  0  0  0  0
  -18.2269   14.5426   16.2826 H   0  0  0  0  0
  -19.9723   15.0380   16.3236 H   0  0  0  0  0
  1  2  4  0  0  0
 17  1  4  0  0  0
  2 18  4  0  0  0
  2 23  1  0  0  0
  3  4  4  0  0  0
 23  3  4  0  0  0
  4  5  4  0  0  0
  5 24  4  0  0  0
 11  6  1  0  0  0
  6 25  1  0  0  0
  8  7  1  0  0  0
  9  8  1  0  0  0
 25  8  1  0  0  0
 10  9  1  0  0  0
 11 10  1  0  0  0
 12 11  1  0  0  0
 13 12  1  0  0  0
 14 13  1  0  0  0
 15 14  1  0  0  0
 16 15  4  0  0  0
 15 22  4  0  0  0
 16 17  4  0  0  0
 17 19  4  0  0  0
 18 19  4  0  0  0
 19 20  4  0  0  0
 20 21  1  0  0  0
 20 22  4  0  0  0
 23 24  4  0  0  0
  3 26  1  0  0  0
  4 27  1  0  0  0
  5 28  1  0  0  0
  6 29  1  0  0  0
  6 30  1  0  0  0
  7 31  1  0  0  0
  7 32  1  0  0  0
  7 33  1  0  0  0
  8 34  1  0  0  0
  9 35  1  0  0  0
  9 36  1  0  0  0
 10 37  1  0  0  0
 10 38  1  0  0  0
 11 39  1  0  0  0
 12 40  1  0  0  0
 12 41  1  0  0  0
 13 42  1  0  0  0
 13 43  1  0  0  0
 14 44  1  0  0  0
 21 45  1  0  0  0
 21 46  1  0  0  0
 25 47  1  0  0  0
 25 48  1  0  0  0
M  END
$$$$
