### 
### Created by X-TOOL on Mon Aug  2 16:10:26 2021
### 

@<TRIPOS>MOLECULE
5nw8_ligand
  264   265     1     0     0
SMALL
GAST_HUCK


@<TRIPOS>ATOM
      1 N          -8.1190    0.0590   35.4400 N.4       1 THR         0.2398
      2 CA         -6.7730    0.6090   35.6030 C.3       1 THR         0.0910
      3 C          -6.5750    1.8190   34.6890 C.2       1 THR         0.2293
      4 O          -7.3720    2.0500   33.7790 O.2       1 THR        -0.3906
      5 CB         -5.7030   -0.4500   35.3080 C.3       1 THR         0.1120
      6 OG1        -5.7680   -0.8370   33.9310 O.3       1 THR        -0.3840
      7 CG2        -5.9250   -1.6890   36.1730 C.3       1 THR        -0.0314
      8 N          -5.5140    2.5910   34.9440 N.am      1 THR        -0.2585
      9 CA         -5.1920    3.7110   34.0640 C.3       1 THR         0.1566
     10 C          -4.9550    3.2430   32.6270 C.2       1 THR         0.2066
     11 O          -5.4390    3.8710   31.6770 O.2       1 THR        -0.3943
     12 CB         -3.9750    4.4760   34.5930 C.3       1 THR         0.0924
     13 OG1        -4.2140    4.8820   35.9430 O.3       1 THR        -0.3874
     14 CG2        -3.7520    5.7250   33.7640 C.3       1 THR        -0.0346
     15 N          -4.2230    2.1380   32.4460 N.am      1 THR        -0.2621
     16 CA         -4.0210    1.5950   31.1010 C.3       1 THR         0.1390
     17 C          -5.3460    1.2630   30.4260 C.2       1 THR         0.2057
     18 O          -5.5510    1.5930   29.2500 O.2       1 THR        -0.3942
     19 CB         -3.1300    0.3460   31.1480 C.3       1 THR         0.0163
     20 CG         -2.9000   -0.2650   29.7720 C.ar      1 THR        -0.0493
     21 CD1        -2.2530    0.4570   28.7760 C.ar      1 THR        -0.0685
     22 CD2        -3.3360   -1.5520   29.4690 C.ar      1 THR        -0.0685
     23 CE1        -2.0480   -0.0770   27.5130 C.ar      1 THR        -0.0398
     24 CE2        -3.1290   -2.1000   28.2070 C.ar      1 THR        -0.0398
     25 CZ         -2.4820   -1.3550   27.2340 C.ar      1 THR         0.0805
     26 OH         -2.2570   -1.8820   25.9760 O.3       1 THR        -0.3376
     27 N          -6.2610    0.6060   31.1500 N.am      1 THR        -0.2639
     28 CA         -7.5540    0.2650   30.5590 C.3       1 THR         0.1282
     29 C          -8.3220    1.5190   30.1580 C.2       1 THR         0.2037
     30 O          -8.9830    1.5450   29.1120 O.2       1 THR        -0.3944
     31 CB         -8.3790   -0.5820   31.5320 C.3       1 THR        -0.0244
     32 N          -8.2550    2.5670   30.9840 N.am      1 THR        -0.2622
     33 CA         -8.9200    3.8220   30.6420 C.3       1 THR         0.1423
     34 C          -8.3120    4.4330   29.3850 C.2       1 THR         0.2057
     35 O          -9.0240    5.0190   28.5620 O.2       1 THR        -0.3943
     36 CB         -8.8270    4.8080   31.8100 C.3       1 THR         0.0406
     37 CG         -9.5480    4.3210   33.0720 C.2       1 THR         0.0393
     38 OD1       -10.3470    3.3630   33.0040 O.co2     1 THR        -0.5688
     39 OD2        -9.3000    4.9170   34.1450 O.co2     1 THR        -0.5688
     40 N          -6.9940    4.3170   29.2340 N.am      1 THR        -0.2618
     41 CA         -6.3220    4.7610   28.0160 C.3       1 THR         0.1404
     42 C          -6.8790    4.0530   26.7880 C.2       1 THR         0.2060
     43 O          -7.2510    4.6980   25.8000 O.2       1 THR        -0.3942
     44 CB         -4.8140    4.5090   28.1410 C.3       1 THR         0.0214
     45 CG         -4.0160    4.9730   26.9570 C.ar      1 THR        -0.0386
     46 CD1        -4.1900    6.2470   26.4450 C.ar      1 THR        -0.0601
     47 CD2        -3.0790    4.1350   26.3600 C.ar      1 THR        -0.0601
     48 CE1        -3.4470    6.6820   25.3540 C.ar      1 THR        -0.0686
     49 CE2        -2.3340    4.5620   25.2750 C.ar      1 THR        -0.0686
     50 CZ         -2.5170    5.8450   24.7740 C.ar      1 THR        -0.0687
     51 N          -6.9230    2.7180   26.8210 N.am      1 THR        -0.2633
     52 CA         -7.4930    1.9810   25.6970 C.3       1 THR         0.1335
     53 C          -8.9220    2.4350   25.4300 C.2       1 THR         0.2041
     54 O          -9.3090    2.6590   24.2770 O.2       1 THR        -0.3944
     55 CB         -7.4330    0.4600   25.9380 C.3       1 THR        -0.0037
     56 CG1        -6.0430    0.0230   26.4070 C.3       1 THR        -0.0491
     57 CG2        -7.7500   -0.2540   24.6540 C.3       1 THR        -0.0582
     58 CD1        -4.9410    0.4330   25.4530 C.3       1 THR        -0.0648
     59 N          -9.7270    2.5870   26.4870 N.am      1 THR        -0.2640
     60 CA        -11.1180    2.9850   26.2960 C.3       1 THR         0.1282
     61 C         -11.2560    4.4000   25.7340 C.2       1 THR         0.2037
     62 O         -12.3120    4.7300   25.1850 O.2       1 THR        -0.3944
     63 CB        -11.8950    2.8570   27.6110 C.3       1 THR        -0.0244
     64 N         -10.2170    5.2400   25.8390 N.am      1 THR        -0.2616
     65 CA        -10.3040    6.5900   25.2860 C.3       1 THR         0.1539
     66 C         -10.4330    6.5990   23.7690 C.2       1 THR         0.2060
     67 O         -10.8930    7.5980   23.2080 O.2       1 THR        -0.3943
     68 CB         -9.0770    7.4170   25.6790 C.3       1 THR         0.0843
     69 OG         -7.9440    7.0660   24.9020 O.3       1 THR        -0.3903
     70 N         -10.0450    5.5190   23.0930 N.am      1 THR        -0.2663
     71 CA         -9.9550    5.5510   21.6530 C.3       1 THR         0.1201
     72 C          -8.8560    6.4330   21.0960 C.2       1 THR         0.2007
     73 O          -8.7930    6.6120   19.8800 O.2       1 THR        -0.3947
     74 N          -7.9890    6.9940   21.9390 N.am      1 THR        -0.2640
     75 CA         -6.8950    7.8220   21.4350 C.3       1 THR         0.1311
     76 C          -5.5500    7.1160   21.5920 C.2       1 THR         0.2040
     77 O          -4.5680    7.7160   22.0440 O.2       1 THR        -0.3944
     78 CB         -6.9030    9.1950   22.1300 C.3       1 THR        -0.0092
     79 CG         -8.1720    9.9890   21.7650 C.3       1 THR        -0.0156
     80 CD         -8.2250   11.3950   22.3520 C.3       1 THR         0.0627
     81 NE         -7.1530   12.2460   21.8560 N.pl3     1 THR        -0.2723
     82 CZ         -7.1980   12.9690   20.7370 C.cat     1 THR         0.2882
     83 NH1        -8.2780   12.9620   19.9600 N.pl3     1 THR        -0.2849
     84 NH2        -6.1510   13.7210   20.3990 N.pl3     1 THR        -0.2849
     85 N          -5.4940    5.8380   21.2010 N.am      1 THR        -0.2613
     86 CA         -4.2540    5.0760   21.2480 C.3       1 THR         0.1565
     87 C          -3.4890    5.1120   19.9310 C.2       1 THR         0.2063
     88 O          -2.3240    4.6880   19.8920 O.2       1 THR        -0.3943
     89 CB         -4.5390    3.6110   21.6250 C.3       1 THR         0.0924
     90 OG1        -5.4440    3.0360   20.6740 O.3       1 THR        -0.3874
     91 CG2        -5.1590    3.5260   23.0090 C.3       1 THR        -0.0346
     92 N          -4.1250    5.5660   18.8520 N.am      1 THR        -0.2663
     93 CA         -3.4670    5.6910   17.5720 C.3       1 THR         0.1201
     94 C          -2.7420    7.0170   17.4370 C.2       1 THR         0.2008
     95 O          -2.6900    7.8340   18.3590 O.2       1 THR        -0.3947
     96 N          -2.1650    7.2220   16.2560 N.am      1 THR        -0.2618
     97 CA         -1.4200    8.4460   16.0210 C.3       1 THR         0.1539
     98 C          -2.3680    9.6370   16.0650 C.2       1 THR         0.2062
     99 O          -3.5010    9.5780   15.5840 O.2       1 THR        -0.3943
    100 CB         -0.6610    8.3790   14.6930 C.3       1 THR         0.0843
    101 OG         -1.5210    8.2340   13.5790 O.3       1 THR        -0.3903
    102 N          -1.9130   10.7070   16.6930 N.am      1 THR        -0.2637
    103 CA         -2.7670   11.8240   17.0440 C.3       1 THR         0.1311
    104 C          -2.4800   12.9730   16.0920 C.2       1 THR         0.2040
    105 O          -1.3170   13.2670   15.8000 O.2       1 THR        -0.3944
    106 CB         -2.5370   12.2220   18.5060 C.3       1 THR        -0.0092
    107 CG         -2.9730   11.1000   19.4700 C.3       1 THR        -0.0156
    108 CD         -2.2470   11.1060   20.8070 C.3       1 THR         0.0627
    109 NE         -0.8160   10.8150   20.6770 N.pl3     1 THR        -0.2723
    110 CZ         -0.0140   10.5500   21.7050 C.cat     1 THR         0.2882
    111 NH1        -0.5100   10.5410   22.9360 N.pl3     1 THR        -0.2849
    112 NH2         1.2840   10.3080   21.5080 N.pl3     1 THR        -0.2849
    113 N          -3.5380   13.5750   15.5660 N.am      1 THR        -0.2616
    114 CA         -3.4190   14.7330   14.6930 C.3       1 THR         0.1476
    115 C          -3.3110   16.0110   15.5020 C.2       1 THR         0.2062
    116 O          -3.9330   16.1550   16.5560 O.2       1 THR        -0.3942
    117 CB         -4.6320   14.8580   13.7760 C.3       1 THR         0.0773
    118 CG         -4.7750   13.6930   12.8600 C.2       1 THR         0.1780
    119 OD1        -3.8290   13.3080   12.1780 O.2       1 THR        -0.3970
    120 ND2        -5.9540   13.1010   12.8500 N.am      1 THR        -0.3007
    121 N          -2.5530   16.9620   14.9650 N.am      1 THR        -0.2639
    122 CA         -2.5980   18.3150   15.4950 C.3       1 THR         0.1282
    123 C          -4.0030   18.8930   15.3350 C.2       1 THR         0.2031
    124 O          -4.7800   18.4650   14.4740 O.2       1 THR        -0.3944
    125 CB         -1.5770   19.1930   14.7810 C.3       1 THR        -0.0244
    126 N          -4.3350   19.8690   16.1810 N.am      1 THR        -0.2692
    127 CA         -5.6390   20.5140   16.0930 C.3       1 THR         0.0969
    128 C          -5.6430   21.4600   14.8950 C.2       1 THR         0.0604
    129 O          -6.6810   21.7300   14.2960 O.co2     1 THR        -0.5666
    130 CB         -6.0100   21.2810   17.3970 C.3       1 THR        -0.0092
    131 CG1        -5.0840   22.4730   17.6060 C.3       1 THR        -0.0497
    132 CG2        -5.9770   20.3590   18.6040 C.3       1 THR        -0.0588
    133 CD1        -5.2880   23.1690   18.9180 C.3       1 THR        -0.0649
    134 OXT        -4.5990   21.9800   14.5000 O.co2     1 THR        -0.5666
    135 H1         -8.8006    0.7743   35.6395 H         1 THR         0.2016
    136 H2         -8.2459   -0.7127   36.0759 H         1 THR         0.2016
    137 H3         -8.2378   -0.2634   34.4924 H         1 THR         0.2016
    138 H4         -6.6582    0.9369   36.6467 H         1 THR         0.1125
    139 H5         -4.7103   -0.0282   35.5237 H         1 THR         0.0674
    140 H6         -5.1031   -1.4925   33.7557 H         1 THR         0.2102
    141 H7         -5.1499   -2.4365   35.9485 H         1 THR         0.0258
    142 H8         -6.9168   -2.1134   35.9581 H         1 THR         0.0258
    143 H9         -5.8681   -1.4095   37.2354 H         1 THR         0.0258
    144 H10        -4.9390    2.4010   35.7398 H         1 THR         0.1885
    145 H11        -6.0517    4.3972   34.0593 H         1 THR         0.0826
    146 H12        -3.0851    3.8312   34.5463 H         1 THR         0.0639
    147 H13        -3.4579    5.3561   36.2685 H         1 THR         0.2101
    148 H14        -2.8771    6.2693   34.1491 H         1 THR         0.0257
    149 H15        -4.6411    6.3697   33.8257 H         1 THR         0.0257
    150 H16        -3.5758    5.4426   32.7156 H         1 THR         0.0257
    151 H17        -3.8113    1.6800   33.2339 H         1 THR         0.1885
    152 H18        -3.5114    2.3610   30.4980 H         1 THR         0.0821
    153 H19        -3.6116   -0.4057   31.7906 H         1 THR         0.0453
    154 H20        -2.1559    0.6247   31.5764 H         1 THR         0.0453
    155 H21        -1.9010    1.4594   28.9914 H         1 THR         0.0530
    156 H22        -3.8444   -2.1359   30.2277 H         1 THR         0.0530
    157 H23        -1.5489    0.5078   26.7488 H         1 THR         0.0525
    158 H24        -3.4720   -3.1043   27.9861 H         1 THR         0.0525
    159 H25        -1.8057   -1.2397   25.4409 H         1 THR         0.2458
    160 H26        -6.0599    0.3485   32.0951 H         1 THR         0.1883
    161 H27        -7.3711   -0.3301   29.6521 H         1 THR         0.0797
    162 H28        -9.3473   -0.8295   31.0725 H         1 THR         0.0277
    163 H29        -8.5475   -0.0153   32.4596 H         1 THR         0.0277
    164 H30        -7.8349   -1.5097   31.7628 H         1 THR         0.0277
    165 H31        -7.7464    2.4919   31.8417 H         1 THR         0.1884
    166 H32        -9.9817    3.6106   30.4470 H         1 THR         0.0819
    167 H33        -9.2755    5.7627   31.4979 H         1 THR         0.0478
    168 H34        -7.7653    4.9635   32.0523 H         1 THR         0.0478
    169 H35        -6.4515    3.9163   29.9723 H         1 THR         0.1885
    170 H36        -6.4901    5.8417   27.8984 H         1 THR         0.0823
    171 H37        -4.6532    3.4278   28.2639 H         1 THR         0.0474
    172 H38        -4.4479    5.0379   29.0333 H         1 THR         0.0474
    173 H39        -4.9140    6.9131   26.9001 H         1 THR         0.0557
    174 H40        -2.9308    3.1345   26.7501 H         1 THR         0.0557
    175 H41        -3.5986    7.6799   24.9587 H         1 THR         0.0599
    176 H42        -1.6099    3.8977   24.8173 H         1 THR         0.0599
    177 H43        -1.9302    6.1872   23.9293 H         1 THR         0.0559
    178 H44        -6.5661    2.2245   27.6142 H         1 THR         0.1883
    179 H45        -6.8917    2.2056   24.8037 H         1 THR         0.0803
    180 H46        -8.1742    0.1886   26.7041 H         1 THR         0.0345
    181 H47        -6.0338   -1.0727   26.5030 H         1 THR         0.0267
    182 H48        -5.8447    0.4788   27.3883 H         1 THR         0.0267
    183 H49        -8.7473    0.0491   24.3025 H         1 THR         0.0235
    184 H50        -7.7363   -1.3404   24.8255 H         1 THR         0.0235
    185 H51        -6.9985    0.0068   23.8942 H         1 THR         0.0235
    186 H52        -3.9714    0.0915   25.8444 H         1 THR         0.0230
    187 H53        -4.9309    1.5284   25.3534 H         1 THR         0.0230
    188 H54        -5.1200   -0.0231   24.4682 H         1 THR         0.0230
    189 H55        -9.3753    2.4277   27.4095 H         1 THR         0.1883
    190 H56       -11.5646    2.2927   25.5672 H         1 THR         0.0797
    191 H57       -12.9401    3.1603   27.4503 H         1 THR         0.0277
    192 H58       -11.4376    3.5065   28.3719 H         1 THR         0.0277
    193 H59       -11.8650    1.8124   27.9545 H         1 THR         0.0277
    194 H60        -9.3796    4.9421   26.2972 H         1 THR         0.1884
    195 H61       -11.1994    7.0689   25.7091 H         1 THR         0.0823
    196 H62        -8.8512    7.2395   26.7408 H         1 THR         0.0606
    197 H63        -9.2999    8.4831   25.5248 H         1 THR         0.0606
    198 H64        -7.7431    6.1470   25.0343 H         1 THR         0.2097
    199 H65        -9.8145    4.6804   23.5865 H         1 THR         0.1881
    200 H66       -10.9157    5.9148   21.2597 H         1 THR         0.0763
    201 H67        -9.7794    4.5242   21.2998 H         1 THR         0.0763
    202 H68        -8.0878    6.8473   22.9232 H         1 THR         0.1883
    203 H69        -7.0618    7.9871   20.3603 H         1 THR         0.0800
    204 H70        -6.0177    9.7649   21.8116 H         1 THR         0.0313
    205 H71        -6.8717    9.0473   23.2196 H         1 THR         0.0313
    206 H72        -9.0453    9.4298   22.1319 H         1 THR         0.0301
    207 H73        -8.2232   10.0714   20.6693 H         1 THR         0.0301
    208 H74        -8.1414   11.3239   23.4465 H         1 THR         0.0689
    209 H75        -9.1898   11.8521   22.0868 H         1 THR         0.0689
    210 H76        -6.2894   12.2933   22.4153 H         1 THR         0.2642
    211 H77        -8.2964   13.5264   19.0986 H         1 THR         0.2615
    212 H78        -9.0957   12.3921   20.2199 H         1 THR         0.2615
    213 H79        -5.3110   13.7321   20.9950 H         1 THR         0.2615
    214 H80        -6.1817   14.2911   19.5417 H         1 THR         0.2615
    215 H81        -6.3257    5.3941   20.8676 H         1 THR         0.1884
    216 H82        -3.6153    5.5197   22.0259 H         1 THR         0.0826
    217 H83        -3.5942    3.0477   21.6168 H         1 THR         0.0639
    218 H84        -6.2575    3.5267   20.6759 H         1 THR         0.2101
    219 H85        -5.3546    2.4728   23.2591 H         1 THR         0.0257
    220 H86        -6.1047    4.0877   23.0223 H         1 THR         0.0257
    221 H87        -4.4668    3.9558   23.7479 H         1 THR         0.0257
    222 H88        -5.0868    5.8281   18.9305 H         1 THR         0.1881
    223 H89        -4.2215    5.6153   16.7751 H         1 THR         0.0763
    224 H90        -2.7378    4.8743   17.4654 H         1 THR         0.0763
    225 H91        -2.2440    6.5358   15.5329 H         1 THR         0.1884
    226 H92        -0.6820    8.5631   16.8282 H         1 THR         0.0823
    227 H93         0.0245    7.5192   14.7225 H         1 THR         0.0606
    228 H94        -0.0815    9.3061   14.5718 H         1 THR         0.0606
    229 H95        -2.1134    8.9756   13.5390 H         1 THR         0.2097
    230 H96        -0.9436   10.7474   16.9350 H         1 THR         0.1883
    231 H97        -3.8186   11.5232   16.9269 H         1 THR         0.0800
    232 H98        -3.1193   13.1290   18.7259 H         1 THR         0.0313
    233 H99        -1.4670   12.4276   18.6569 H         1 THR         0.0313
    234 H100       -2.7853   10.1330   18.9805 H         1 THR         0.0301
    235 H101       -4.0503   11.2106   19.6626 H         1 THR         0.0301
    236 H102       -2.7027   10.3454   21.4580 H         1 THR         0.0689
    237 H103       -2.3635   12.0989   21.2659 H         1 THR         0.0689
    238 H104       -0.4064   10.8157   19.7319 H         1 THR         0.2642
    239 H105        0.1042   10.3368   23.7372 H         1 THR         0.2615
    240 H106       -1.5091   10.7383   23.0901 H         1 THR         0.2615
    241 H107        1.6700   10.3147   20.5531 H         1 THR         0.2615
    242 H108        1.8995   10.1146   22.3109 H         1 THR         0.2615
    243 H109       -4.4492   13.2209   15.7766 H         1 THR         0.1885
    244 H110       -2.5138   14.6166   14.0790 H         1 THR         0.0826
    245 H111       -4.5253   15.7710   13.1719 H         1 THR         0.0551
    246 H112       -5.5373   14.9325   14.3963 H         1 THR         0.0551
    247 H113       -6.1126   12.3126   12.2556 H         1 THR         0.1814
    248 H114       -6.6890   13.4407   13.4368 H         1 THR         0.1814
    249 H115       -1.9514   16.7465   14.1958 H         1 THR         0.1883
    250 H116       -2.3488   18.2842   16.5659 H         1 THR         0.0797
    251 H117       -1.6206   20.2131   15.1903 H         1 THR         0.0277
    252 H118       -1.8048   19.2196   13.7052 H         1 THR         0.0277
    253 H119       -0.5687   18.7801   14.9322 H         1 THR         0.0277
    254 H120       -3.6838   20.1607   16.8816 H         1 THR         0.1875
    255 H121       -6.3989   19.7357   15.9293 H         1 THR         0.0729
    256 H122       -7.0364   21.6610   17.2872 H         1 THR         0.0338
    257 H123       -5.2613   23.1970   16.7971 H         1 THR         0.0267
    258 H124       -4.0440   22.1179   17.5589 H         1 THR         0.0267
    259 H125       -6.6510   19.5067   18.4328 H         1 THR         0.0234
    260 H126       -6.3045   20.9118   19.4968 H         1 THR         0.0234
    261 H127       -4.9517   19.9908   18.7563 H         1 THR         0.0234
    262 H128       -4.5884   24.0141   18.9974 H         1 THR         0.0230
    263 H129       -5.1040   22.4622   19.7405 H         1 THR         0.0230
    264 H130       -6.3212   23.5414   18.9788 H         1 THR         0.0230
@<TRIPOS>BOND
     1    1    2 1  
     2    2    3 1  
     3    2    5 1  
     4    3    4 2  
     5    3    8 am 
     6    5    6 1  
     7    5    7 1  
     8    8    9 1  
     9    9   10 1  
    10    9   12 1  
    11   10   11 2  
    12   10   15 am 
    13   12   13 1  
    14   12   14 1  
    15   15   16 1  
    16   16   17 1  
    17   16   19 1  
    18   17   18 2  
    19   17   27 am 
    20   19   20 1  
    21   20   21 ar 
    22   20   22 ar 
    23   21   23 ar 
    24   22   24 ar 
    25   23   25 ar 
    26   24   25 ar 
    27   25   26 1  
    28   27   28 1  
    29   28   29 1  
    30   28   31 1  
    31   29   30 2  
    32   29   32 am 
    33   32   33 1  
    34   33   34 1  
    35   33   36 1  
    36   34   35 2  
    37   34   40 am 
    38   36   37 1  
    39   37   38 ar 
    40   37   39 ar 
    41   40   41 1  
    42   41   42 1  
    43   41   44 1  
    44   42   43 2  
    45   42   51 am 
    46   44   45 1  
    47   45   46 ar 
    48   45   47 ar 
    49   46   48 ar 
    50   47   49 ar 
    51   48   50 ar 
    52   49   50 ar 
    53   51   52 1  
    54   52   53 1  
    55   52   55 1  
    56   53   54 2  
    57   53   59 am 
    58   55   56 1  
    59   55   57 1  
    60   56   58 1  
    61   59   60 1  
    62   60   61 1  
    63   60   63 1  
    64   61   62 2  
    65   61   64 am 
    66   64   65 1  
    67   65   66 1  
    68   65   68 1  
    69   66   67 2  
    70   66   70 am 
    71   68   69 1  
    72   70   71 1  
    73   71   72 1  
    74   72   73 2  
    75   72   74 am 
    76   74   75 1  
    77   75   76 1  
    78   75   78 1  
    79   76   77 2  
    80   76   85 am 
    81   78   79 1  
    82   79   80 1  
    83   80   81 1  
    84   81   82 ar 
    85   82   83 ar 
    86   82   84 ar 
    87   85   86 1  
    88   86   87 1  
    89   86   89 1  
    90   87   88 2  
    91   87   92 am 
    92   89   90 1  
    93   89   91 1  
    94   92   93 1  
    95   93   94 1  
    96   94   95 2  
    97   94   96 am 
    98   96   97 1  
    99   97   98 1  
   100   97  100 1  
   101   98   99 2  
   102   98  102 am 
   103  100  101 1  
   104  102  103 1  
   105  103  104 1  
   106  103  106 1  
   107  104  105 2  
   108  104  113 am 
   109  106  107 1  
   110  107  108 1  
   111  108  109 1  
   112  109  110 ar 
   113  110  111 ar 
   114  110  112 ar 
   115  113  114 1  
   116  114  115 1  
   117  114  117 1  
   118  115  116 2  
   119  115  121 am 
   120  117  118 1  
   121  118  119 2  
   122  118  120 am 
   123  121  122 1  
   124  122  123 1  
   125  122  125 1  
   126  123  124 2  
   127  123  126 am 
   128  126  127 1  
   129  127  128 1  
   130  127  130 1  
   131  128  129 ar 
   132  128  134 ar 
   133  130  131 1  
   134  130  132 1  
   135  131  133 1  
   136    1  135 1  
   137    1  136 1  
   138    1  137 1  
   139    2  138 1  
   140    5  139 1  
   141    6  140 1  
   142    7  141 1  
   143    7  142 1  
   144    7  143 1  
   145    8  144 1  
   146    9  145 1  
   147   12  146 1  
   148   13  147 1  
   149   14  148 1  
   150   14  149 1  
   151   14  150 1  
   152   15  151 1  
   153   16  152 1  
   154   19  153 1  
   155   19  154 1  
   156   21  155 1  
   157   22  156 1  
   158   23  157 1  
   159   24  158 1  
   160   26  159 1  
   161   27  160 1  
   162   28  161 1  
   163   31  162 1  
   164   31  163 1  
   165   31  164 1  
   166   32  165 1  
   167   33  166 1  
   168   36  167 1  
   169   36  168 1  
   170   40  169 1  
   171   41  170 1  
   172   44  171 1  
   173   44  172 1  
   174   46  173 1  
   175   47  174 1  
   176   48  175 1  
   177   49  176 1  
   178   50  177 1  
   179   51  178 1  
   180   52  179 1  
   181   55  180 1  
   182   56  181 1  
   183   56  182 1  
   184   57  183 1  
   185   57  184 1  
   186   57  185 1  
   187   58  186 1  
   188   58  187 1  
   189   58  188 1  
   190   59  189 1  
   191   60  190 1  
   192   63  191 1  
   193   63  192 1  
   194   63  193 1  
   195   64  194 1  
   196   65  195 1  
   197   68  196 1  
   198   68  197 1  
   199   69  198 1  
   200   70  199 1  
   201   71  200 1  
   202   71  201 1  
   203   74  202 1  
   204   75  203 1  
   205   78  204 1  
   206   78  205 1  
   207   79  206 1  
   208   79  207 1  
   209   80  208 1  
   210   80  209 1  
   211   81  210 1  
   212   83  211 1  
   213   83  212 1  
   214   84  213 1  
   215   84  214 1  
   216   85  215 1  
   217   86  216 1  
   218   89  217 1  
   219   90  218 1  
   220   91  219 1  
   221   91  220 1  
   222   91  221 1  
   223   92  222 1  
   224   93  223 1  
   225   93  224 1  
   226   96  225 1  
   227   97  226 1  
   228  100  227 1  
   229  100  228 1  
   230  101  229 1  
   231  102  230 1  
   232  103  231 1  
   233  106  232 1  
   234  106  233 1  
   235  107  234 1  
   236  107  235 1  
   237  108  236 1  
   238  108  237 1  
   239  109  238 1  
   240  111  239 1  
   241  111  240 1  
   242  112  241 1  
   243  112  242 1  
   244  113  243 1  
   245  114  244 1  
   246  117  245 1  
   247  117  246 1  
   248  120  247 1  
   249  120  248 1  
   250  121  249 1  
   251  122  250 1  
   252  125  251 1  
   253  125  252 1  
   254  125  253 1  
   255  126  254 1  
   256  127  255 1  
   257  130  256 1  
   258  131  257 1  
   259  131  258 1  
   260  132  259 1  
   261  132  260 1  
   262  132  261 1  
   263  133  262 1  
   264  133  263 1  
   265  133  264 1  
@<TRIPOS>SUBSTRUCTURE
     1 THR         1

