5nw8_ligand
  -I-interpret- 

264265  0  0  0  0  0  0  0  0999 V2000
   -8.1190    0.0590   35.4400 N   0  3  0  0  0
   -6.7730    0.6090   35.6030 C   0  0  0  0  0
   -6.5750    1.8190   34.6890 C   0  0  0  0  0
   -7.3720    2.0500   33.7790 O   0  0  0  0  0
   -5.7030   -0.4500   35.3080 C   0  0  0  0  0
   -5.7680   -0.8370   33.9310 O   0  0  0  0  0
   -5.9250   -1.6890   36.1730 C   0  0  0  0  0
   -5.5140    2.5910   34.9440 N   0  0  0  0  0
   -5.1920    3.7110   34.0640 C   0  0  0  0  0
   -4.9550    3.2430   32.6270 C   0  0  0  0  0
   -5.4390    3.8710   31.6770 O   0  0  0  0  0
   -3.9750    4.4760   34.5930 C   0  0  0  0  0
   -4.2140    4.8820   35.9430 O   0  0  0  0  0
   -3.7520    5.7250   33.7640 C   0  0  0  0  0
   -4.2230    2.1380   32.4460 N   0  0  0  0  0
   -4.0210    1.5950   31.1010 C   0  0  0  0  0
   -5.3460    1.2630   30.4260 C   0  0  0  0  0
   -5.5510    1.5930   29.2500 O   0  0  0  0  0
   -3.1300    0.3460   31.1480 C   0  0  0  0  0
   -2.9000   -0.2650   29.7720 C   0  0  0  0  0
   -2.2530    0.4570   28.7760 C   0  0  0  0  0
   -3.3360   -1.5520   29.4690 C   0  0  0  0  0
   -2.0480   -0.0770   27.5130 C   0  0  0  0  0
   -3.1290   -2.1000   28.2070 C   0  0  0  0  0
   -2.4820   -1.3550   27.2340 C   0  0  0  0  0
   -2.2570   -1.8820   25.9760 O   0  0  0  0  0
   -6.2610    0.6060   31.1500 N   0  0  0  0  0
   -7.5540    0.2650   30.5590 C   0  0  0  0  0
   -8.3220    1.5190   30.1580 C   0  0  0  0  0
   -8.9830    1.5450   29.1120 O   0  0  0  0  0
   -8.3790   -0.5820   31.5320 C   0  0  0  0  0
   -8.2550    2.5670   30.9840 N   0  0  0  0  0
   -8.9200    3.8220   30.6420 C   0  0  0  0  0
   -8.3120    4.4330   29.3850 C   0  0  0  0  0
   -9.0240    5.0190   28.5620 O   0  0  0  0  0
   -8.8270    4.8080   31.8100 C   0  0  0  0  0
   -9.5480    4.3210   33.0720 C   0  0  0  0  0
  -10.3470    3.3630   33.0040 O   0  0  0  0  0
   -9.3000    4.9170   34.1450 O   0  0  0  0  0
   -6.9940    4.3170   29.2340 N   0  0  0  0  0
   -6.3220    4.7610   28.0160 C   0  0  0  0  0
   -6.8790    4.0530   26.7880 C   0  0  0  0  0
   -7.2510    4.6980   25.8000 O   0  0  0  0  0
   -4.8140    4.5090   28.1410 C   0  0  0  0  0
   -4.0160    4.9730   26.9570 C   0  0  0  0  0
   -4.1900    6.2470   26.4450 C   0  0  0  0  0
   -3.0790    4.1350   26.3600 C   0  0  0  0  0
   -3.4470    6.6820   25.3540 C   0  0  0  0  0
   -2.3340    4.5620   25.2750 C   0  0  0  0  0
   -2.5170    5.8450   24.7740 C   0  0  0  0  0
   -6.9230    2.7180   26.8210 N   0  0  0  0  0
   -7.4930    1.9810   25.6970 C   0  0  0  0  0
   -8.9220    2.4350   25.4300 C   0  0  0  0  0
   -9.3090    2.6590   24.2770 O   0  0  0  0  0
   -7.4330    0.4600   25.9380 C   0  0  0  0  0
   -6.0430    0.0230   26.4070 C   0  0  0  0  0
   -7.7500   -0.2540   24.6540 C   0  0  0  0  0
   -4.9410    0.4330   25.4530 C   0  0  0  0  0
   -9.7270    2.5870   26.4870 N   0  0  0  0  0
  -11.1180    2.9850   26.2960 C   0  0  0  0  0
  -11.2560    4.4000   25.7340 C   0  0  0  0  0
  -12.3120    4.7300   25.1850 O   0  0  0  0  0
  -11.8950    2.8570   27.6110 C   0  0  0  0  0
  -10.2170    5.2400   25.8390 N   0  0  0  0  0
  -10.3040    6.5900   25.2860 C   0  0  0  0  0
  -10.4330    6.5990   23.7690 C   0  0  0  0  0
  -10.8930    7.5980   23.2080 O   0  0  0  0  0
   -9.0770    7.4170   25.6790 C   0  0  0  0  0
   -7.9440    7.0660   24.9020 O   0  0  0  0  0
  -10.0450    5.5190   23.0930 N   0  0  0  0  0
   -9.9550    5.5510   21.6530 C   0  0  0  0  0
   -8.8560    6.4330   21.0960 C   0  0  0  0  0
   -8.7930    6.6120   19.8800 O   0  0  0  0  0
   -7.9890    6.9940   21.9390 N   0  0  0  0  0
   -6.8950    7.8220   21.4350 C   0  0  0  0  0
   -5.5500    7.1160   21.5920 C   0  0  0  0  0
   -4.5680    7.7160   22.0440 O   0  0  0  0  0
   -6.9030    9.1950   22.1300 C   0  0  0  0  0
   -8.1720    9.9890   21.7650 C   0  0  0  0  0
   -8.2250   11.3950   22.3520 C   0  0  0  0  0
   -7.1530   12.2460   21.8560 N   0  0  0  0  0
   -7.1980   12.9690   20.7370 C   0  0  0  0  0
   -8.2780   12.9620   19.9600 N   0  0  0  0  0
   -6.1510   13.7210   20.3990 N   0  0  0  0  0
   -5.4940    5.8380   21.2010 N   0  0  0  0  0
   -4.2540    5.0760   21.2480 C   0  0  0  0  0
   -3.4890    5.1120   19.9310 C   0  0  0  0  0
   -2.3240    4.6880   19.8920 O   0  0  0  0  0
   -4.5390    3.6110   21.6250 C   0  0  0  0  0
   -5.4440    3.0360   20.6740 O   0  0  0  0  0
   -5.1590    3.5260   23.0090 C   0  0  0  0  0
   -4.1250    5.5660   18.8520 N   0  0  0  0  0
   -3.4670    5.6910   17.5720 C   0  0  0  0  0
   -2.7420    7.0170   17.4370 C   0  0  0  0  0
   -2.6900    7.8340   18.3590 O   0  0  0  0  0
   -2.1650    7.2220   16.2560 N   0  0  0  0  0
   -1.4200    8.4460   16.0210 C   0  0  0  0  0
   -2.3680    9.6370   16.0650 C   0  0  0  0  0
   -3.5010    9.5780   15.5840 O   0  0  0  0  0
   -0.6610    8.3790   14.6930 C   0  0  0  0  0
   -1.5210    8.2340   13.5790 O   0  0  0  0  0
   -1.9130   10.7070   16.6930 N   0  0  0  0  0
   -2.7670   11.8240   17.0440 C   0  0  0  0  0
   -2.4800   12.9730   16.0920 C   0  0  0  0  0
   -1.3170   13.2670   15.8000 O   0  0  0  0  0
   -2.5370   12.2220   18.5060 C   0  0  0  0  0
   -2.9730   11.1000   19.4700 C   0  0  0  0  0
   -2.2470   11.1060   20.8070 C   0  0  0  0  0
   -0.8160   10.8150   20.6770 N   0  0  0  0  0
   -0.0140   10.5500   21.7050 C   0  0  0  0  0
   -0.5100   10.5410   22.9360 N   0  0  0  0  0
    1.2840   10.3080   21.5080 N   0  0  0  0  0
   -3.5380   13.5750   15.5660 N   0  0  0  0  0
   -3.4190   14.7330   14.6930 C   0  0  0  0  0
   -3.3110   16.0110   15.5020 C   0  0  0  0  0
   -3.9330   16.1550   16.5560 O   0  0  0  0  0
   -4.6320   14.8580   13.7760 C   0  0  0  0  0
   -4.7750   13.6930   12.8600 C   0  0  0  0  0
   -3.8290   13.3080   12.1780 O   0  0  0  0  0
   -5.9540   13.1010   12.8500 N   0  0  0  0  0
   -2.5530   16.9620   14.9650 N   0  0  0  0  0
   -2.5980   18.3150   15.4950 C   0  0  0  0  0
   -4.0030   18.8930   15.3350 C   0  0  0  0  0
   -4.7800   18.4650   14.4740 O   0  0  0  0  0
   -1.5770   19.1930   14.7810 C   0  0  0  0  0
   -4.3350   19.8690   16.1810 N   0  0  0  0  0
   -5.6390   20.5140   16.0930 C   0  0  0  0  0
   -5.6430   21.4600   14.8950 C   0  0  0  0  0
   -6.6810   21.7300   14.2960 O   0  0  0  0  0
   -6.0100   21.2810   17.3970 C   0  0  0  0  0
   -5.0840   22.4730   17.6060 C   0  0  0  0  0
   -5.9770   20.3590   18.6040 C   0  0  0  0  0
   -5.2880   23.1690   18.9180 C   0  0  0  0  0
   -4.5990   21.9800   14.5000 O   0  0  0  0  0
   -8.8078    0.7836   35.6421 H   0  0  0  0  0
   -8.2380   -0.2669   34.4808 H   0  0  0  0  0
   -8.2462   -0.7218   36.0839 H   0  0  0  0  0
   -6.6660    0.9255   36.6405 H   0  0  0  0  0
   -4.7266   -0.0200   35.5312 H   0  0  0  0  0
   -5.6298   -0.0659   33.3762 H   0  0  0  0  0
   -6.9041   -2.1141   35.9521 H   0  0  0  0  0
   -5.1507   -2.4250   35.9567 H   0  0  0  0  0
   -5.8781   -1.4090   37.2254 H   0  0  0  0  0
   -4.9275    2.3972   35.7557 H   0  0  0  0  0
   -6.0486    4.3849   34.0539 H   0  0  0  0  0
   -3.1030    3.8244   34.5375 H   0  0  0  0  0
   -3.4499    5.3611   36.2719 H   0  0  0  0  0
   -3.5776    5.4439   32.7254 H   0  0  0  0  0
   -4.6337    6.3629   33.8260 H   0  0  0  0  0
   -2.8849    6.2634   34.1465 H   0  0  0  0  0
   -3.8030    1.6709   33.2496 H   0  0  0  0  0
   -3.5234    2.3650   30.5114 H   0  0  0  0  0
   -3.6314   -0.3994   31.7653 H   0  0  0  0  0
   -2.1605    0.6418   31.5489 H   0  0  0  0  0
   -1.8991    1.4649   28.9926 H   0  0  0  0  0
   -3.8472   -2.1391   30.2319 H   0  0  0  0  0
   -1.5461    0.5110   26.7446 H   0  0  0  0  0
   -3.4739   -3.1099   27.9848 H   0  0  0  0  0
   -2.6135   -2.7724   25.9348 H   0  0  0  0  0
   -6.0558    0.3434   32.1140 H   0  0  0  0  0
   -7.3702   -0.3190   29.6572 H   0  0  0  0  0
   -7.8388   -1.5009   31.7599 H   0  0  0  0  0
   -8.5452   -0.0193   32.4506 H   0  0  0  0  0
   -9.3382   -0.8266   31.0756 H   0  0  0  0  0
   -7.7363    2.4904   31.8589 H   0  0  0  0  0
   -9.9705    3.6088   30.4444 H   0  0  0  0  0
   -9.3028    5.7370   31.4960 H   0  0  0  0  0
   -7.7723    4.9271   32.0579 H   0  0  0  0  0
   -8.6642    5.6174   33.9812 H   0  0  0  0  0
   -6.4407    3.9083   29.9871 H   0  0  0  0  0
   -6.5018    5.8288   27.8909 H   0  0  0  0  0
   -4.6724    3.4314   28.2236 H   0  0  0  0  0
   -4.4634    5.0707   29.0069 H   0  0  0  0  0
   -4.9180    6.9168   26.9026 H   0  0  0  0  0
   -2.9300    3.1290   26.7523 H   0  0  0  0  0
   -3.5994    7.6854   24.9565 H   0  0  0  0  0
   -1.6059    3.8940   24.8148 H   0  0  0  0  0
   -1.9269    6.1891   23.9246 H   0  0  0  0  0
   -6.5590    2.2147   27.6300 H   0  0  0  0  0
   -6.8937    2.1977   24.8127 H   0  0  0  0  0
   -8.1576    0.2108   26.7133 H   0  0  0  0  0
   -6.0404   -1.0652   26.4695 H   0  0  0  0  0
   -5.8491    0.5049   27.3653 H   0  0  0  0  0
   -8.7494    0.0261   24.3212 H   0  0  0  0  0
   -7.0207    0.0266   23.8941 H   0  0  0  0  0
   -7.7090   -1.3307   24.8188 H   0  0  0  0  0
   -5.1196   -0.0195   24.4776 H   0  0  0  0  0
   -4.9321    1.5186   25.3552 H   0  0  0  0  0
   -3.9808    0.0941   25.8419 H   0  0  0  0  0
   -9.3683    2.4245   27.4279 H   0  0  0  0  0
  -11.5421    2.3066   25.5558 H   0  0  0  0  0
  -11.8645    1.8216   27.9503 H   0  0  0  0  0
  -11.4408    3.5010   28.3641 H   0  0  0  0  0
  -12.9303    3.1577   27.4505 H   0  0  0  0  0
   -9.3628    4.9361   26.3064 H   0  0  0  0  0
  -11.2082    7.0299   25.7068 H   0  0  0  0  0
   -8.8507    7.2227   26.7274 H   0  0  0  0  0
   -9.3007    8.4700   25.5077 H   0  0  0  0  0
   -7.1940    7.6008   25.1722 H   0  0  0  0  0
   -9.8099    4.6636   23.5964 H   0  0  0  0  0
  -10.8983    5.9581   21.2890 H   0  0  0  0  0
   -9.7343    4.5336   21.3301 H   0  0  0  0  0
   -8.0898    6.8444   22.9429 H   0  0  0  0  0
   -7.0458    7.9841   20.3677 H   0  0  0  0  0
   -6.0301    9.7591   21.8015 H   0  0  0  0  0
   -6.8838    9.0417   23.2090 H   0  0  0  0  0
   -9.0212    9.4400   22.1719 H   0  0  0  0  0
   -8.1826   10.0944   20.6802 H   0  0  0  0  0
   -8.1164   11.3126   23.4334 H   0  0  0  0  0
   -9.1741   11.8455   22.0616 H   0  0  0  0  0
   -6.2978   12.2928   22.4099 H   0  0  0  0  0
   -9.0878   12.3977   20.2173 H   0  0  0  0  0
   -6.1814   14.2856   19.5501 H   0  0  0  0  0
   -5.3192   13.7320   20.9892 H   0  0  0  0  0
   -6.3424    5.3852   20.8609 H   0  0  0  0  0
   -3.6309    5.5478   22.0078 H   0  0  0  0  0
   -3.5956    3.0650   21.6220 H   0  0  0  0  0
   -5.6192    2.1227   20.9124 H   0  0  0  0  0
   -4.4722    3.9522   23.7402 H   0  0  0  0  0
   -6.0959    4.0830   23.0209 H   0  0  0  0  0
   -5.3523    2.4820   23.2556 H   0  0  0  0  0
   -5.1061    5.8334   18.9320 H   0  0  0  0  0
   -4.2249    5.6342   16.7906 H   0  0  0  0  0
   -2.7335    4.8895   17.4846 H   0  0  0  0  0
   -2.2456    6.5221   15.5184 H   0  0  0  0  0
   -0.6758    8.5677   16.8080 H   0  0  0  0  0
   -0.0060    7.5084   14.7256 H   0  0  0  0  0
   -0.1131    9.3136   14.5733 H   0  0  0  0  0
   -0.9978    8.1972   12.7749 H   0  0  0  0  0
   -0.9242   10.7482   16.9398 H   0  0  0  0  0
   -3.8168   11.5468   16.9476 H   0  0  0  0  0
   -3.1294   13.1116   18.7198 H   0  0  0  0  0
   -1.4729   12.4085   18.6506 H   0  0  0  0  0
   -2.7423   10.1520   18.9840 H   0  0  0  0  0
   -4.0320   11.2507   19.6794 H   0  0  0  0  0
   -2.6903   10.3302   21.4313 H   0  0  0  0  0
   -2.3475   12.1024   21.2372 H   0  0  0  0  0
   -0.4104   10.8157   19.7411 H   0  0  0  0  0
   -1.4994   10.7363   23.0886 H   0  0  0  0  0
    1.8935   10.1164   22.3031 H   0  0  0  0  0
    1.6663   10.3147   20.5624 H   0  0  0  0  0
   -4.4674   13.2138   15.7808 H   0  0  0  0  0
   -2.5177   14.5888   14.0973 H   0  0  0  0  0
   -4.5024   15.7521   13.1661 H   0  0  0  0  0
   -5.5234   14.9061   14.4014 H   0  0  0  0  0
   -6.1103   12.2856   12.2574 H   0  0  0  0  0
   -6.7093   13.4587   13.4349 H   0  0  0  0  0
   -1.9393   16.7422   14.1805 H   0  0  0  0  0
   -2.3503   18.2881   16.5561 H   0  0  0  0  0
   -0.5784   18.7828   14.9316 H   0  0  0  0  0
   -1.8038   19.2185   13.7152 H   0  0  0  0  0
   -1.6212   20.2034   15.1875 H   0  0  0  0  0
   -3.6708   20.1666   16.8956 H   0  0  0  0  0
   -6.3951   19.7398   15.9627 H   0  0  0  0  0
   -7.0285   21.6532   17.2861 H   0  0  0  0  0
   -5.2968   23.1943   16.8170 H   0  0  0  0  0
   -4.0605   22.0983   17.5906 H   0  0  0  0  0
   -6.6921   19.5490   18.4605 H   0  0  0  0  0
   -4.9749   19.9451   18.7161 H   0  0  0  0  0
   -6.2404   20.9238   19.4983 H   0  0  0  0  0
   -6.3121   23.5375   18.9770 H   0  0  0  0  0
   -5.1054   22.4676   19.7322 H   0  0  0  0  0
   -4.5943   24.0062   18.9955 H   0  0  0  0  0
   -3.8689   21.6876   15.0505 H   0  0  0  0  0
  1  2  1  0  0  0
  2  3  1  0  0  0
  2  5  1  0  0  0
  3  4  2  0  0  0
  3  8  1  0  0  0
  5  6  1  0  0  0
  5  7  1  0  0  0
  8  9  1  0  0  0
  9 10  1  0  0  0
  9 12  1  0  0  0
 10 11  2  0  0  0
 10 15  1  0  0  0
 12 13  1  0  0  0
 12 14  1  0  0  0
 15 16  1  0  0  0
 16 17  1  0  0  0
 16 19  1  0  0  0
 17 18  2  0  0  0
 17 27  1  0  0  0
 19 20  1  0  0  0
 20 21  4  0  0  0
 20 22  4  0  0  0
 21 23  4  0  0  0
 22 24  4  0  0  0
 23 25  4  0  0  0
 24 25  4  0  0  0
 25 26  1  0  0  0
 27 28  1  0  0  0
 28 29  1  0  0  0
 28 31  1  0  0  0
 29 30  2  0  0  0
 29 32  1  0  0  0
 32 33  1  0  0  0
 33 34  1  0  0  0
 33 36  1  0  0  0
 34 35  2  0  0  0
 34 40  1  0  0  0
 36 37  1  0  0  0
 37 38  2  0  0  0
 37 39  1  0  0  0
 40 41  1  0  0  0
 41 42  1  0  0  0
 41 44  1  0  0  0
 42 43  2  0  0  0
 42 51  1  0  0  0
 44 45  1  0  0  0
 45 46  4  0  0  0
 45 47  4  0  0  0
 46 48  4  0  0  0
 47 49  4  0  0  0
 48 50  4  0  0  0
 49 50  4  0  0  0
 51 52  1  0  0  0
 52 53  1  0  0  0
 52 55  1  0  0  0
 53 54  2  0  0  0
 53 59  1  0  0  0
 55 56  1  0  0  0
 55 57  1  0  0  0
 56 58  1  0  0  0
 59 60  1  0  0  0
 60 61  1  0  0  0
 60 63  1  0  0  0
 61 62  2  0  0  0
 61 64  1  0  0  0
 64 65  1  0  0  0
 65 66  1  0  0  0
 65 68  1  0  0  0
 66 67  2  0  0  0
 66 70  1  0  0  0
 68 69  1  0  0  0
 70 71  1  0  0  0
 71 72  1  0  0  0
 72 73  2  0  0  0
 72 74  1  0  0  0
 74 75  1  0  0  0
 75 76  1  0  0  0
 75 78  1  0  0  0
 76 77  2  0  0  0
 76 85  1  0  0  0
 78 79  1  0  0  0
 79 80  1  0  0  0
 80 81  1  0  0  0
 81 82  1  0  0  0
 82 83  2  0  0  0
 82 84  1  0  0  0
 85 86  1  0  0  0
 86 87  1  0  0  0
 86 89  1  0  0  0
 87 88  2  0  0  0
 87 92  1  0  0  0
 89 90  1  0  0  0
 89 91  1  0  0  0
 92 93  1  0  0  0
 93 94  1  0  0  0
 94 95  2  0  0  0
 94 96  1  0  0  0
 96 97  1  0  0  0
 97 98  1  0  0  0
 97100  1  0  0  0
 98 99  2  0  0  0
 98102  1  0  0  0
100101  1  0  0  0
102103  1  0  0  0
103104  1  0  0  0
103106  1  0  0  0
104105  2  0  0  0
104113  1  0  0  0
106107  1  0  0  0
107108  1  0  0  0
108109  1  0  0  0
109110  1  0  0  0
110111  2  0  0  0
110112  1  0  0  0
113114  1  0  0  0
114115  1  0  0  0
114117  1  0  0  0
115116  2  0  0  0
115121  1  0  0  0
117118  1  0  0  0
118119  2  0  0  0
118120  1  0  0  0
121122  1  0  0  0
122123  1  0  0  0
122125  1  0  0  0
123124  2  0  0  0
123126  1  0  0  0
126127  1  0  0  0
127128  1  0  0  0
127130  1  0  0  0
128129  2  0  0  0
128134  1  0  0  0
130131  1  0  0  0
130132  1  0  0  0
131133  1  0  0  0
  1135  1  0  0  0
  1136  1  0  0  0
  1137  1  0  0  0
  2138  1  0  0  0
  5139  1  0  0  0
  6140  1  0  0  0
  7141  1  0  0  0
  7142  1  0  0  0
  7143  1  0  0  0
  8144  1  0  0  0
  9145  1  0  0  0
 12146  1  0  0  0
 13147  1  0  0  0
 14148  1  0  0  0
 14149  1  0  0  0
 14150  1  0  0  0
 15151  1  0  0  0
 16152  1  0  0  0
 19153  1  0  0  0
 19154  1  0  0  0
 21155  1  0  0  0
 22156  1  0  0  0
 23157  1  0  0  0
 24158  1  0  0  0
 26159  1  0  0  0
 27160  1  0  0  0
 28161  1  0  0  0
 31162  1  0  0  0
 31163  1  0  0  0
 31164  1  0  0  0
 32165  1  0  0  0
 33166  1  0  0  0
 36167  1  0  0  0
 36168  1  0  0  0
 39169  1  0  0  0
 40170  1  0  0  0
 41171  1  0  0  0
 44172  1  0  0  0
 44173  1  0  0  0
 46174  1  0  0  0
 47175  1  0  0  0
 48176  1  0  0  0
 49177  1  0  0  0
 50178  1  0  0  0
 51179  1  0  0  0
 52180  1  0  0  0
 55181  1  0  0  0
 56182  1  0  0  0
 56183  1  0  0  0
 57184  1  0  0  0
 57185  1  0  0  0
 57186  1  0  0  0
 58187  1  0  0  0
 58188  1  0  0  0
 58189  1  0  0  0
 59190  1  0  0  0
 60191  1  0  0  0
 63192  1  0  0  0
 63193  1  0  0  0
 63194  1  0  0  0
 64195  1  0  0  0
 65196  1  0  0  0
 68197  1  0  0  0
 68198  1  0  0  0
 69199  1  0  0  0
 70200  1  0  0  0
 71201  1  0  0  0
 71202  1  0  0  0
 74203  1  0  0  0
 75204  1  0  0  0
 78205  1  0  0  0
 78206  1  0  0  0
 79207  1  0  0  0
 79208  1  0  0  0
 80209  1  0  0  0
 80210  1  0  0  0
 81211  1  0  0  0
 83212  1  0  0  0
 84213  1  0  0  0
 84214  1  0  0  0
 85215  1  0  0  0
 86216  1  0  0  0
 89217  1  0  0  0
 90218  1  0  0  0
 91219  1  0  0  0
 91220  1  0  0  0
 91221  1  0  0  0
 92222  1  0  0  0
 93223  1  0  0  0
 93224  1  0  0  0
 96225  1  0  0  0
 97226  1  0  0  0
100227  1  0  0  0
100228  1  0  0  0
101229  1  0  0  0
102230  1  0  0  0
103231  1  0  0  0
106232  1  0  0  0
106233  1  0  0  0
107234  1  0  0  0
107235  1  0  0  0
108236  1  0  0  0
108237  1  0  0  0
109238  1  0  0  0
111239  1  0  0  0
112240  1  0  0  0
112241  1  0  0  0
113242  1  0  0  0
114243  1  0  0  0
117244  1  0  0  0
117245  1  0  0  0
120246  1  0  0  0
120247  1  0  0  0
121248  1  0  0  0
122249  1  0  0  0
125250  1  0  0  0
125251  1  0  0  0
125252  1  0  0  0
126253  1  0  0  0
127254  1  0  0  0
130255  1  0  0  0
131256  1  0  0  0
131257  1  0  0  0
132258  1  0  0  0
132259  1  0  0  0
132260  1  0  0  0
133261  1  0  0  0
133262  1  0  0  0
133263  1  0  0  0
134264  1  0  0  0
M  END
$$$$
