2go4_ligand
  -I-interpret- 

 71 71  0  0  0  0  0  0  0  0999 V2000
  -30.9350   77.2910    5.3030 C   0  0  0  0  0
  -32.0710   78.3100    5.2000 C   0  0  0  0  0
  -32.1150   78.8920    3.7840 C   0  0  0  0  0
  -29.6160   77.9540    4.8970 C   0  0  0  0  0
  -29.7580   78.5920    3.5110 C   0  0  0  0  0
  -30.8550   79.5230    3.4950 O   0  0  0  0  0
  -30.8270   76.8150    6.6520 O   0  0  0  0  0
  -31.2350   74.7680    5.7900 O   0  0  0  0  0
  -30.9760   75.4670    6.7690 C   0  0  0  0  0
  -30.8580   74.8550    8.1670 C   0  0  0  0  0
  -31.3740   73.4170    8.2340 C   0  0  0  0  0
  -31.9200   73.1420    9.6370 C   0  0  0  0  0
  -32.3290   71.6790    9.8150 C   0  0  0  0  0
  -33.3330   71.4890   10.9560 C   0  0  0  0  0
  -32.8430   71.9980   12.3150 C   0  0  0  0  0
  -33.8440   71.5970   13.4010 C   0  0  0  0  0
  -33.4930   72.1810   14.7710 C   0  0  0  0  0
  -34.3970   71.5770   15.8490 C   0  0  0  0  0
  -34.1570   72.1950   17.2300 C   0  0  0  0  0
  -34.8650   73.5400   17.4300 C   0  0  0  0  0
  -36.3660   73.4080   17.7110 C   0  0  0  0  0
  -37.1640   72.9100   16.5030 C   0  0  0  0  0
  -28.4870   76.9210    4.9330 C   0  0  0  0  0
  -27.1010   77.5640    4.8510 C   0  0  0  0  0
  -26.5470   78.0000    5.8580 O   0  0  0  0  0
  -26.5680   77.5970    3.6340 N   0  0  0  0  0
  -25.3210   78.1110    3.4670 O   0  0  0  0  0
  -33.3130   77.6660    5.4960 O   0  0  0  0  0
  -33.2640   79.8990    3.6810 C   0  0  0  0  0
  -33.4170   80.3350    2.3280 O   0  0  0  0  0
  -31.1469   76.4528    4.6392 H   0  0  0  0  0
  -31.9016   79.1172    5.9126 H   0  0  0  0  0
  -32.2860   78.0983    3.0567 H   0  0  0  0  0
  -29.3678   78.7467    5.6028 H   0  0  0  0  0
  -29.9481   77.8080    2.7780 H   0  0  0  0  0
  -28.8379   79.1246    3.2703 H   0  0  0  0  0
  -31.4623   75.4570    8.8456 H   0  0  0  0  0
  -29.8018   74.8421    8.4362 H   0  0  0  0  0
  -30.5594   72.7260    8.0170 H   0  0  0  0  0
  -32.1675   73.2789    7.4995 H   0  0  0  0  0
  -32.8025   73.7637    9.7876 H   0  0  0  0  0
  -31.1349   73.3670   10.3588 H   0  0  0  0  0
  -31.4338   71.1049   10.0540 H   0  0  0  0  0
  -32.8012   71.3457    8.8909 H   0  0  0  0  0
  -33.5057   70.4175   11.0572 H   0  0  0  0  0
  -34.2234   72.0630   10.6997 H   0  0  0  0  0
  -32.7542   73.0840   12.2858 H   0  0  0  0  0
  -31.8701   71.5598   12.5379 H   0  0  0  0  0
  -33.8286   70.5104   13.4861 H   0  0  0  0  0
  -34.8224   71.9819   13.1134 H   0  0  0  0  0
  -33.6382   73.2610   14.7469 H   0  0  0  0  0
  -32.4541   71.9470   15.0036 H   0  0  0  0  0
  -34.1765   70.5116   15.9145 H   0  0  0  0  0
  -35.4319   71.7727   15.5683 H   0  0  0  0  0
  -33.0858   72.3710   17.3283 H   0  0  0  0  0
  -34.5540   71.5024   17.9722 H   0  0  0  0  0
  -34.7543   74.1080   16.5063 H   0  0  0  0  0
  -34.4117   74.0222   18.2961 H   0  0  0  0  0
  -36.7419   74.3978   17.9700 H   0  0  0  0  0
  -36.4893   72.6789   18.5118 H   0  0  0  0  0
  -37.0434   73.6097   15.6760 H   0  0  0  0  0
  -36.7963   71.9278   16.2061 H   0  0  0  0  0
  -38.2184   72.8392   16.7699 H   0  0  0  0  0
  -28.6045   76.2645    4.0709 H   0  0  0  0  0
  -28.5529   76.3839    5.8792 H   0  0  0  0  0
  -27.0896   77.2402    2.8334 H   0  0  0  0  0
  -25.0787   78.0649    2.5392 H   0  0  0  0  0
  -33.2803   77.3031    6.3842 H   0  0  0  0  0
  -33.0417   80.7603    4.3109 H   0  0  0  0  0
  -34.1875   79.4221    4.0093 H   0  0  0  0  0
  -34.1393   80.9652    2.2758 H   0  0  0  0  0
  1  2  1  0  0  0
  1  4  1  0  0  0
  1  7  1  0  0  0
  2  3  1  0  0  0
  2 28  1  0  0  0
  3  6  1  0  0  0
  3 29  1  0  0  0
  4  5  1  0  0  0
  4 23  1  0  0  0
  5  6  1  0  0  0
  7  9  1  0  0  0
  9  8  2  0  0  0
  9 10  1  0  0  0
 10 11  1  0  0  0
 11 12  1  0  0  0
 12 13  1  0  0  0
 13 14  1  0  0  0
 14 15  1  0  0  0
 15 16  1  0  0  0
 16 17  1  0  0  0
 17 18  1  0  0  0
 18 19  1  0  0  0
 19 20  1  0  0  0
 20 21  1  0  0  0
 21 22  1  0  0  0
 23 24  1  0  0  0
 24 25  2  0  0  0
 24 26  1  0  0  0
 26 27  1  0  0  0
 29 30  1  0  0  0
  1 31  1  0  0  0
  2 32  1  0  0  0
  3 33  1  0  0  0
  4 34  1  0  0  0
  5 35  1  0  0  0
  5 36  1  0  0  0
 10 37  1  0  0  0
 10 38  1  0  0  0
 11 39  1  0  0  0
 11 40  1  0  0  0
 12 41  1  0  0  0
 12 42  1  0  0  0
 13 43  1  0  0  0
 13 44  1  0  0  0
 14 45  1  0  0  0
 14 46  1  0  0  0
 15 47  1  0  0  0
 15 48  1  0  0  0
 16 49  1  0  0  0
 16 50  1  0  0  0
 17 51  1  0  0  0
 17 52  1  0  0  0
 18 53  1  0  0  0
 18 54  1  0  0  0
 19 55  1  0  0  0
 19 56  1  0  0  0
 20 57  1  0  0  0
 20 58  1  0  0  0
 21 59  1  0  0  0
 21 60  1  0  0  0
 22 61  1  0  0  0
 22 62  1  0  0  0
 22 63  1  0  0  0
 23 64  1  0  0  0
 23 65  1  0  0  0
 26 66  1  0  0  0
 27 67  1  0  0  0
 28 68  1  0  0  0
 29 69  1  0  0  0
 29 70  1  0  0  0
 30 71  1  0  0  0
M  END
$$$$
