4l5j_ligand
  -I-interpret- 

 25 25  0  0  0  0  0  0  0  0999 V2000
    6.6270   28.9270   27.1790 C   0  0  0  0  0
    6.3030   27.5890   26.7590 O   0  0  0  0  0
    5.3530   29.3130   27.9010 C   0  0  0  0  0
    5.2720   28.6030   29.1460 O   0  0  0  0  0
    4.2900   28.7850   26.9570 C   0  0  0  0  0
    3.2420   28.1660   27.7170 O   0  0  0  0  0
    5.0250   27.7420   26.1180 C   0  0  0  0  0
    5.2180   28.3060   24.7110 C   0  0  0  0  0
    6.1520   27.4920   24.0080 O   0  0  0  0  0
    5.9250   27.1990   22.4500 P   0  0  0  0  0
    4.7030   28.1040   21.9250 O   0  0  0  0  0
    5.5580   25.6490   22.2570 O   0  0  0  0  0
    7.2710   27.5260   21.6370 O   0  0  0  0  0
    7.7600   28.9240   28.0710 O   0  0  0  0  0
    6.9083   29.6054   26.3736 H   0  0  0  0  0
    5.2717   30.3765   28.1257 H   0  0  0  0  0
    5.9436   28.9346   29.7465 H   0  0  0  0  0
    3.8316   29.5623   26.3456 H   0  0  0  0  0
    2.7896   28.8330   28.2386 H   0  0  0  0  0
    4.4905   26.7950   26.0435 H   0  0  0  0  0
    5.5946   29.3270   24.7732 H   0  0  0  0  0
    4.2644   28.3102   24.1831 H   0  0  0  0  0
    4.9210   29.0318   22.0398 H   0  0  0  0  0
    7.4944   28.4528   21.7497 H   0  0  0  0  0
    8.5490   28.6760   27.5835 H   0  0  0  0  0
  1  2  1  0  0  0
  1  3  1  0  0  0
  1 14  1  0  0  0
  2  7  1  0  0  0
  3  4  1  0  0  0
  3  5  1  0  0  0
  5  6  1  0  0  0
  5  7  1  0  0  0
  7  8  1  0  0  0
  8  9  1  0  0  0
  9 10  1  0  0  0
 10 11  1  0  0  0
 10 12  2  0  0  0
 10 13  1  0  0  0
  1 15  1  0  0  0
  3 16  1  0  0  0
  4 17  1  0  0  0
  5 18  1  0  0  0
  6 19  1  0  0  0
  7 20  1  0  0  0
  8 21  1  0  0  0
  8 22  1  0  0  0
 11 23  1  0  0  0
 13 24  1  0  0  0
 14 25  1  0  0  0
M  END
$$$$
