### 
### Created by X-TOOL on Mon Sep 10 21:13:15 2018
### 

@<TRIPOS>MOLECULE
4l5j_ligand
   23    23     1     0     0
SMALL
GAST_HUCK


@<TRIPOS>ATOM
      1 C1'         6.6270   28.9270   27.1790 C.3       1 HSX         0.1854
      2 O1'         6.3030   27.5890   26.7590 O.3       1 HSX        -0.3404
      3 C2'         5.3530   29.3130   27.9010 C.3       1 HSX         0.1339
      4 O2'         5.2720   28.6030   29.1460 O.3       1 HSX        -0.3841
      5 C3'         4.2900   28.7850   26.9570 C.3       1 HSX         0.1144
      6 O3'         3.2420   28.1660   27.7170 O.3       1 HSX        -0.3864
      7 C4'         5.0250   27.7420   26.1180 C.3       1 HSX         0.1177
      8 C5'         5.2180   28.3060   24.7110 C.3       1 HSX         0.1071
      9 O5'         6.1520   27.4920   24.0080 O.3       1 HSX        -0.2734
     10 P'          5.9250   27.1990   22.4500 P.3       1 HSX         0.2008
     11 O1X         4.7030   28.1040   21.9250 O.co2     1 HSX        -0.5537
     12 O2X         5.5580   25.6490   22.2570 O.co2     1 HSX        -0.5537
     13 O3X         7.2710   27.5260   21.6370 O.co2     1 HSX        -0.5537
     14 O1          7.7600   28.9240   28.0710 O.3       1 HSX        -0.3649
     15 H1          6.8280   29.5888   26.3236 H         1 HSX         0.0935
     16 H2          5.2732   30.3984   28.0608 H         1 HSX         0.0671
     17 H3          4.4721   28.8468   29.5969 H         1 HSX         0.2101
     18 H4          3.8786   29.5865   26.3258 H         1 HSX         0.0648
     19 H5          2.8565   28.8067   28.3031 H         1 HSX         0.2100
     20 H6          4.4769   26.7889   26.0829 H         1 HSX         0.0650
     21 H7          5.6014   29.3350   24.7757 H         1 HSX         0.0639
     22 H8          4.2554   28.3062   24.1787 H         1 HSX         0.0639
     23 H9          7.9560   29.8153   28.3352 H         1 HSX         0.2126
@<TRIPOS>BOND
     1    1    2 1  
     2    1    3 1  
     3    1   14 1  
     4    2    7 1  
     5    3    4 1  
     6    3    5 1  
     7    5    6 1  
     8    5    7 1  
     9    7    8 1  
    10    8    9 1  
    11    9   10 1  
    12   10   11 ar 
    13   10   12 ar 
    14   10   13 ar 
    15    1   15 1  
    16    3   16 1  
    17    4   17 1  
    18    5   18 1  
    19    6   19 1  
    20    7   20 1  
    21    8   21 1  
    22    8   22 1  
    23   14   23 1  
@<TRIPOS>SUBSTRUCTURE
     1 HSX         1

