5kww_ligand
  -I-interpret- 

 53 56  0  0  0  0  0  0  0  0999 V2000
   22.1000   16.7480   22.5150 C   0  0  0  0  0
   19.2010   15.7300   19.2770 C   0  0  0  0  0
   18.2830   13.8130   17.2880 C   0  0  0  0  0
   19.0140   20.0340   18.3100 C   0  0  0  0  0
   20.9540   21.2520   18.5880 C   0  0  0  0  0
   21.9260   21.3920   16.3330 C   0  0  0  0  0
   21.6290   20.3710   22.2550 C   0  0  0  0  0
   20.5710   19.9360   21.4390 C   0  0  0  0  0
   20.6020   18.5610   21.4040 N   0  0  0  0  0
   21.6570   18.0780   22.2060 C   0  0  0  0  0
   22.3310   19.1800   22.7600 C   0  0  0  0  0
   23.4590   18.9820   23.6200 C   0  0  0  0  0
   23.8990   17.6540   23.9160 C   0  0  0  0  0
   25.2650   17.3810   24.9570 Cl  0  0  0  0  0
   23.2200   16.5540   23.3630 C   0  0  0  0  0
   19.6320   17.7470   20.6560 C   0  0  0  0  0
   20.2360   16.8360   19.5740 C   0  0  0  0  0
   19.5760   14.8940   17.7250 S   0  0  0  0  0
   20.8370   14.1870   17.8050 O   0  0  0  0  0
   19.8480   15.8150   16.6910 O   0  0  0  0  0
   19.5720   20.8350   20.6980 C   0  0  0  0  0
   19.8260   20.7150   19.2630 N   0  0  0  0  0
   17.9530   19.4440   18.5450 O   0  0  0  0  0
   19.6330   20.1620   17.0470 N   0  0  0  0  0
   20.8410   20.9150   17.2260 C   0  0  0  0  0
   22.0640   22.0070   19.0430 C   0  0  0  0  0
   23.0320   22.4190   18.1670 N   0  0  0  0  0
   22.9800   22.1280   16.8530 C   0  0  0  0  0
   19.1420   19.6060   15.8090 C   0  0  0  0  0
   17.9410   20.3810   15.2360 C   0  0  0  0  0
   17.0290   20.7050   16.2300 F   0  0  0  0  0
   17.3400   19.6020   14.3350 F   0  0  0  0  0
   18.3650   21.5030   14.6460 F   0  0  0  0  0
   21.5760   15.8879   22.0982 H   0  0  0  0  0
   18.2143   16.1865   19.1987 H   0  0  0  0  0
   19.2301   14.9981   20.0842 H   0  0  0  0  0
   18.4969   13.3666   16.3169 H   0  0  0  0  0
   18.1978   13.0280   18.0394 H   0  0  0  0  0
   17.3476   14.3701   17.2351 H   0  0  0  0  0
   21.8945   21.1637   15.2676 H   0  0  0  0  0
   21.8847   21.4075   22.4751 H   0  0  0  0  0
   23.9795   19.8393   24.0468 H   0  0  0  0  0
   23.5577   15.5424   23.5882 H   0  0  0  0  0
   18.9688   18.4438   20.1433 H   0  0  0  0  0
   19.1482   17.0926   21.3811 H   0  0  0  0  0
   20.4570   17.4066   18.6719 H   0  0  0  0  0
   21.1739   16.4008   19.9190 H   0  0  0  0  0
   19.6939   21.8709   21.0146 H   0  0  0  0  0
   18.5513   20.5271   20.9248 H   0  0  0  0  0
   22.1476   22.2618   20.0995 H   0  0  0  0  0
   23.7743   22.4744   16.1918 H   0  0  0  0  0
   18.8138   18.5862   16.0100 H   0  0  0  0  0
   19.9494   19.6573   15.0786 H   0  0  0  0  0
 10  1  4  0  0  0
  1 15  4  0  0  0
 17  2  1  0  0  0
  2 18  1  0  0  0
 18  3  1  0  0  0
 22  4  1  0  0  0
  4 23  2  0  0  0
  4 24  1  0  0  0
 22  5  1  0  0  0
  5 25  4  0  0  0
  5 26  4  0  0  0
 25  6  4  0  0  0
  6 28  4  0  0  0
  8  7  4  0  0  0
  7 11  4  0  0  0
  8  9  4  0  0  0
 21  8  1  0  0  0
  9 10  4  0  0  0
  9 16  1  0  0  0
 10 11  4  0  0  0
 11 12  4  0  0  0
 12 13  4  0  0  0
 13 14  1  0  0  0
 15 13  4  0  0  0
 16 17  1  0  0  0
 18 19  2  0  0  0
 18 20  2  0  0  0
 21 22  1  0  0  0
 24 25  1  0  0  0
 24 29  1  0  0  0
 26 27  4  0  0  0
 27 28  4  0  0  0
 29 30  1  0  0  0
 30 31  1  0  0  0
 30 32  1  0  0  0
 30 33  1  0  0  0
  1 34  1  0  0  0
  2 35  1  0  0  0
  2 36  1  0  0  0
  3 37  1  0  0  0
  3 38  1  0  0  0
  3 39  1  0  0  0
  6 40  1  0  0  0
  7 41  1  0  0  0
 12 42  1  0  0  0
 15 43  1  0  0  0
 16 44  1  0  0  0
 16 45  1  0  0  0
 17 46  1  0  0  0
 17 47  1  0  0  0
 21 48  1  0  0  0
 21 49  1  0  0  0
 26 50  1  0  0  0
 28 51  1  0  0  0
 29 52  1  0  0  0
 29 53  1  0  0  0
M  END
$$$$
