5aku_ligand
  -I-interpret- 

 41 43  0  0  0  0  0  0  0  0999 V2000
  -53.7430  -41.2930   23.3490 C   0  0  0  0  0
  -53.6620  -41.8850   16.2650 N   0  0  0  0  0
  -53.4100  -41.1010   14.1910 O   0  0  0  0  0
  -53.3180  -42.6560   22.7970 C   0  0  0  0  0
  -55.4750  -43.5310   16.6320 N   0  0  0  0  0
  -54.1250  -43.7030   23.5930 C   0  0  0  0  0
  -51.8370  -42.8900   23.0860 C   0  0  0  0  0
  -53.5670  -42.7040   21.3690 C   0  0  0  0  0
  -54.5780  -43.4840   20.8060 C   0  0  0  0  0
  -54.8160  -43.5300   19.4380 C   0  0  0  0  0
  -54.0390  -42.7990   18.5480 C   0  0  0  0  0
  -53.0320  -41.9940   19.0920 C   0  0  0  0  0
  -52.7950  -41.9570   20.4680 C   0  0  0  0  0
  -54.3210  -42.8200   17.1860 C   0  0  0  0  0
  -53.8860  -41.9810   14.9130 C   0  0  0  0  0
  -54.7350  -42.9700   14.4070 C   0  0  0  0  0
  -54.7980  -43.2110   13.0470 C   0  0  0  0  0
  -55.6840  -44.1760   12.5490 C   0  0  0  0  0
  -56.4990  -44.8830   13.4220 C   0  0  0  0  0
  -56.4370  -44.6570   14.7870 C   0  0  0  0  0
  -55.5430  -43.7150   15.2710 C   0  0  0  0  0
  -53.5767  -41.2707   24.4260 H   0  0  0  0  0
  -53.1534  -40.5097   22.8728 H   0  0  0  0  0
  -54.8005  -41.1315   23.1399 H   0  0  0  0  0
  -53.0383  -41.1647   16.6290 H   0  0  0  0  0
  -56.2127  -43.8823   17.2426 H   0  0  0  0  0
  -53.8308  -44.7038   23.2767 H   0  0  0  0  0
  -53.9232  -43.5829   24.6574 H   0  0  0  0  0
  -55.1890  -43.5593   23.4052 H   0  0  0  0  0
  -51.5443  -43.8689   22.7062 H   0  0  0  0  0
  -51.2458  -42.1168   22.5953 H   0  0  0  0  0
  -51.6675  -42.8507   24.1620 H   0  0  0  0  0
  -55.2065  -44.0814   21.4664 H   0  0  0  0  0
  -55.6267  -44.1506   19.0562 H   0  0  0  0  0
  -52.4200  -41.3833   18.4283 H   0  0  0  0  0
  -51.9890  -41.3312   20.8513 H   0  0  0  0  0
  -53.6339  -43.6557   17.3185 H   0  0  0  0  0
  -54.1597  -42.6514   12.3633 H   0  0  0  0  0
  -55.7329  -44.3710   11.4777 H   0  0  0  0  0
  -57.1952  -45.6240   13.0292 H   0  0  0  0  0
  -57.0811  -45.2112   15.4698 H   0  0  0  0  0
  4  1  1  0  0  0
 14  2  1  0  0  0
  2 15  1  0  0  0
 15  3  2  0  0  0
  4  6  1  0  0  0
  4  7  1  0  0  0
  8  4  1  0  0  0
 14  5  1  0  0  0
  5 21  1  0  0  0
  9  8  4  0  0  0
  8 13  4  0  0  0
 10  9  4  0  0  0
 11 10  4  0  0  0
 11 12  4  0  0  0
 11 14  1  0  0  0
 12 13  4  0  0  0
 15 16  1  0  0  0
 16 17  4  0  0  0
 16 21  4  0  0  0
 17 18  4  0  0  0
 18 19  4  0  0  0
 19 20  4  0  0  0
 20 21  4  0  0  0
  1 22  1  0  0  0
  1 23  1  0  0  0
  1 24  1  0  0  0
  2 25  1  0  0  0
  5 26  1  0  0  0
  6 27  1  0  0  0
  6 28  1  0  0  0
  6 29  1  0  0  0
  7 30  1  0  0  0
  7 31  1  0  0  0
  7 32  1  0  0  0
  9 33  1  0  0  0
 10 34  1  0  0  0
 12 35  1  0  0  0
 13 36  1  0  0  0
 14 37  1  0  0  0
 17 38  1  0  0  0
 18 39  1  0  0  0
 19 40  1  0  0  0
 20 41  1  0  0  0
M  END
$$$$
