5mxo_ligand
  -I-interpret- 

 65 65  0  0  0  0  0  0  0  0999 V2000
  -14.2020  -10.8630   14.7300 N   0  3  0  0  0
  -13.3550  -11.9710   14.2850 C   0  0  0  0  0
  -13.8140  -12.4830   12.9380 C   0  0  0  0  0
  -14.9640  -12.2390   12.5220 O   0  0  0  0  0
  -13.3710  -13.0810   15.3160 C   0  0  0  0  0
  -12.8190  -12.6570   16.6290 C   0  0  0  0  0
  -11.4630  -12.3720   16.7490 C   0  0  0  0  0
  -13.6440  -12.4880   17.7260 C   0  0  0  0  0
  -10.9230  -11.9270   17.9520 C   0  0  0  0  0
  -13.1170  -12.0500   18.9450 C   0  0  0  0  0
  -11.7440  -11.7820   19.0550 C   0  0  0  0  0
  -12.8970  -13.1850   12.2620 N   0  0  0  0  0
  -13.0610  -13.5890   10.8570 C   0  0  0  0  0
  -14.1510  -14.6430   10.7510 C   0  0  0  0  0
  -14.0780  -15.6040   11.4590 O   0  0  0  0  0
  -11.7840  -14.2610   10.3480 C   0  0  0  0  0
  -10.5240  -13.4540   10.5580 C   0  0  0  0  0
  -10.3920  -12.3850    9.5110 C   0  0  0  0  0
   -8.9320  -12.0690    9.3080 C   0  0  0  0  0
   -8.6890  -11.4400    7.9770 N   0  3  0  0  0
  -15.1420  -14.4650    9.8690 N   0  0  0  0  0
  -16.1470  -15.5590    9.5410 C   0  0  0  0  0
  -17.5270  -15.2670   10.1930 C   0  0  0  0  0
  -17.5120  -15.3300   11.7170 C   0  0  0  0  0
  -17.9180  -13.9490    9.7510 O   0  0  0  0  0
  -19.4310  -13.4050   10.0080 P   0  0  0  0  0
  -19.6010  -12.1900    9.0960 O   0  0  0  0  0
  -19.5300  -12.9500   11.5430 O   0  0  0  0  0
  -20.4630  -14.5440    9.6490 O   0  0  0  0  0
  -16.2710  -15.6710    8.0040 C   0  0  0  0  0
  -15.5280  -14.9350    7.3430 O   0  0  0  0  0
  -17.1010  -16.4860    7.5830 O   0  0  0  0  0
  -14.1849  -10.1212   14.0301 H   0  0  0  0  0
  -15.1586  -11.1954   14.8516 H   0  0  0  0  0
  -13.8505  -10.5031   15.6173 H   0  0  0  0  0
  -12.3319  -11.6107   14.1775 H   0  0  0  0  0
  -12.7499  -13.8941   14.9401 H   0  0  0  0  0
  -14.4084  -13.3775   15.4706 H   0  0  0  0  0
  -10.8111  -12.4995   15.8848 H   0  0  0  0  0
  -14.7103  -12.6972   17.6400 H   0  0  0  0  0
   -9.8605  -11.6945   18.0241 H   0  0  0  0  0
  -13.7707  -11.9172   19.8070 H   0  0  0  0  0
  -11.3254  -11.4600   20.0085 H   0  0  0  0  0
  -12.0402  -13.4538   12.7458 H   0  0  0  0  0
  -13.2995  -12.6949   10.2810 H   0  0  0  0  0
  -11.9012  -14.3950    9.2726 H   0  0  0  0  0
  -11.6661  -15.1879   10.9093 H   0  0  0  0  0
   -9.6647  -14.1210   10.4885 H   0  0  0  0  0
  -10.5701  -12.9806   11.5387 H   0  0  0  0  0
  -10.9192  -11.4878    9.8353 H   0  0  0  0  0
  -10.8247  -12.7350    8.5738 H   0  0  0  0  0
   -8.3669  -12.9997    9.3586 H   0  0  0  0  0
   -8.6190  -11.3693   10.0830 H   0  0  0  0  0
   -7.6942  -11.2401    7.8733 H   0  0  0  0  0
   -8.9870  -12.0796    7.2405 H   0  0  0  0  0
   -9.2202  -10.5718    7.9105 H   0  0  0  0  0
  -15.2264  -13.5632    9.3998 H   0  0  0  0  0
  -15.7974  -16.5074    9.9489 H   0  0  0  0  0
  -18.2339  -16.0374    9.8848 H   0  0  0  0  0
  -17.2070  -16.3269   12.0352 H   0  0  0  0  0
  -16.8080  -14.5927   12.1029 H   0  0  0  0  0
  -18.5104  -15.1152   12.0981 H   0  0  0  0  0
  -19.4226  -13.7168   12.1105 H   0  0  0  0  0
  -20.3311  -15.2909   10.2375 H   0  0  0  0  0
  -14.9895  -14.4082    7.9381 H   0  0  0  0  0
  1  2  1  0  0  0
  2  3  1  0  0  0
  2  5  1  0  0  0
  3  4  2  0  0  0
  3 12  1  0  0  0
  5  6  1  0  0  0
  6  7  4  0  0  0
  6  8  4  0  0  0
  7  9  4  0  0  0
  8 10  4  0  0  0
  9 11  4  0  0  0
 10 11  4  0  0  0
 12 13  1  0  0  0
 13 14  1  0  0  0
 13 16  1  0  0  0
 14 15  2  0  0  0
 14 21  1  0  0  0
 16 17  1  0  0  0
 17 18  1  0  0  0
 18 19  1  0  0  0
 19 20  1  0  0  0
 21 22  1  0  0  0
 22 23  1  0  0  0
 22 30  1  0  0  0
 23 24  1  0  0  0
 23 25  1  0  0  0
 25 26  1  0  0  0
 26 27  2  0  0  0
 26 28  1  0  0  0
 26 29  1  0  0  0
 30 31  1  0  0  0
 30 32  2  0  0  0
  1 33  1  0  0  0
  1 34  1  0  0  0
  1 35  1  0  0  0
  2 36  1  0  0  0
  5 37  1  0  0  0
  5 38  1  0  0  0
  7 39  1  0  0  0
  8 40  1  0  0  0
  9 41  1  0  0  0
 10 42  1  0  0  0
 11 43  1  0  0  0
 12 44  1  0  0  0
 13 45  1  0  0  0
 16 46  1  0  0  0
 16 47  1  0  0  0
 17 48  1  0  0  0
 17 49  1  0  0  0
 18 50  1  0  0  0
 18 51  1  0  0  0
 19 52  1  0  0  0
 19 53  1  0  0  0
 20 54  1  0  0  0
 20 55  1  0  0  0
 20 56  1  0  0  0
 21 57  1  0  0  0
 22 58  1  0  0  0
 23 59  1  0  0  0
 24 60  1  0  0  0
 24 61  1  0  0  0
 24 62  1  0  0  0
 28 63  1  0  0  0
 29 64  1  0  0  0
 31 65  1  0  0  0
M  END
$$$$
