### 
### Created by X-TOOL on Tue Oct 16 15:17:43 2018
### 

@<TRIPOS>MOLECULE
5mxo_ligand
   62    62     1     0     0
SMALL
GAST_HUCK


@<TRIPOS>ATOM
      1 N         -14.2020  -10.8630   14.7300 N.4       1 PHE         0.2394
      2 CA        -13.3550  -11.9710   14.2850 C.3       1 PHE         0.0744
      3 C         -13.8140  -12.4830   12.9380 C.2       1 PHE         0.2288
      4 O         -14.9640  -12.2390   12.5220 O.2       1 PHE        -0.3905
      5 CB        -13.3710  -13.0810   15.3160 C.3       1 PHE         0.0416
      6 CG        -12.8190  -12.6570   16.6290 C.ar      1 PHE        -0.0353
      7 CD1       -11.4630  -12.3720   16.7490 C.ar      1 PHE        -0.0600
      8 CD2       -13.6440  -12.4880   17.7260 C.ar      1 PHE        -0.0600
      9 CE1       -10.9230  -11.9270   17.9520 C.ar      1 PHE        -0.0686
     10 CE2       -13.1170  -12.0500   18.9450 C.ar      1 PHE        -0.0686
     11 CZ        -11.7440  -11.7820   19.0550 C.ar      1 PHE        -0.0687
     12 N         -12.8970  -13.1850   12.2620 N.am      1 PHE        -0.2609
     13 CA        -13.0610  -13.5890   10.8570 C.3       1 PHE         0.1311
     14 C         -14.1510  -14.6430   10.7510 C.2       1 PHE         0.2034
     15 O         -14.0780  -15.6040   11.4590 O.2       1 PHE        -0.3944
     16 CB        -11.7840  -14.2610   10.3480 C.3       1 PHE        -0.0122
     17 CG        -10.5240  -13.4540   10.5580 C.3       1 PHE        -0.0440
     18 CD        -10.3920  -12.3850    9.5110 C.3       1 PHE        -0.0124
     19 CE         -8.9320  -12.0690    9.3080 C.3       1 PHE        -0.0354
     20 NZ         -8.6890  -11.4400    7.9770 N.4       1 PHE         0.2185
     21 N         -15.1420  -14.4650    9.8690 N.am      1 PHE        -0.2666
     22 CA        -16.1470  -15.5590    9.5410 C.3       1 PHE         0.1245
     23 CB        -17.5270  -15.2670   10.1930 C.3       1 PHE         0.1208
     24 CG2       -17.5120  -15.3300   11.7170 C.3       1 PHE        -0.0304
     25 OG1       -17.9180  -13.9490    9.7510 O.3       1 PHE        -0.2691
     26 P         -19.4310  -13.4050   10.0080 P.3       1 PHE         0.2013
     27 O1P       -19.6010  -12.1900    9.0960 O.co2     1 PHE        -0.5537
     28 O2P       -19.5300  -12.9500   11.5430 O.co2     1 PHE        -0.5537
     29 O3P       -20.4630  -14.5440    9.6490 O.co2     1 PHE        -0.5537
     30 C         -16.2710  -15.6710    8.0040 C.2       1 PHE         0.0630
     31 O         -15.5280  -14.9350    7.3430 O.co2     1 PHE        -0.5665
     32 OXT       -17.1010  -16.4860    7.5830 O.co2     1 PHE        -0.5665
     33 H1        -13.8819  -10.5350   15.6278 H         1 PHE         0.2017
     34 H2        -15.1557  -11.1796   14.8085 H         1 PHE         0.2017
     35 H3        -14.1515  -10.1114   14.0602 H         1 PHE         0.2017
     36 H4        -12.3231  -11.6038   14.1834 H         1 PHE         0.1122
     37 H5        -12.7702  -13.9209   14.9372 H         1 PHE         0.0507
     38 H6        -14.4105  -13.4100   15.4618 H         1 PHE         0.0507
     39 H7        -10.8147  -12.4988   15.8895 H         1 PHE         0.0557
     40 H8        -14.7044  -12.6961   17.6405 H         1 PHE         0.0557
     41 H9         -9.8664  -11.6957   18.0237 H         1 PHE         0.0599
     42 H10       -13.7671  -11.9179   19.8023 H         1 PHE         0.0599
     43 H11       -11.3277  -11.4618   20.0033 H         1 PHE         0.0559
     44 H12       -12.0570  -13.4485   12.7363 H         1 PHE         0.1885
     45 H13       -13.3078  -12.7106   10.2426 H         1 PHE         0.0800
     46 H14       -11.8987  -14.4441    9.2694 H         1 PHE         0.0312
     47 H15       -11.6684  -15.2209   10.8727 H         1 PHE         0.0312
     48 H16        -9.6534  -14.1239   10.5006 H         1 PHE         0.0269
     49 H17       -10.5593  -12.9829   11.5514 H         1 PHE         0.0269
     50 H18       -10.9222  -11.4794    9.8407 H         1 PHE         0.0317
     51 H19       -10.8266  -12.7405    8.5651 H         1 PHE         0.0317
     52 H20        -8.3519  -13.0012    9.3741 H         1 PHE         0.0813
     53 H21        -8.6032  -11.3758   10.0963 H         1 PHE         0.0813
     54 H22        -7.7061  -11.2420    7.8734 H         1 PHE         0.1994
     55 H23        -9.2135  -10.5818    7.9101 H         1 PHE         0.1994
     56 H24        -8.9831  -12.0713    7.2483 H         1 PHE         0.1994
     57 H25       -15.2247  -13.5809    9.4090 H         1 PHE         0.1876
     58 H26       -15.7728  -16.5145    9.9372 H         1 PHE         0.0756
     59 H27       -18.2545  -16.0071    9.8285 H         1 PHE         0.0688
     60 H28       -18.5191  -15.1134   12.1028 H         1 PHE         0.0260
     61 H29       -16.8019  -14.5864   12.1078 H         1 PHE         0.0260
     62 H30       -17.2043  -16.3357   12.0394 H         1 PHE         0.0260
@<TRIPOS>BOND
     1    1    2 1  
     2    2    3 1  
     3    2    5 1  
     4    3    4 2  
     5    3   12 am 
     6    5    6 1  
     7    6    7 ar 
     8    6    8 ar 
     9    7    9 ar 
    10    8   10 ar 
    11    9   11 ar 
    12   10   11 ar 
    13   12   13 1  
    14   13   14 1  
    15   13   16 1  
    16   14   15 2  
    17   14   21 am 
    18   16   17 1  
    19   17   18 1  
    20   18   19 1  
    21   19   20 1  
    22   21   22 1  
    23   22   23 1  
    24   22   30 1  
    25   23   24 1  
    26   23   25 1  
    27   25   26 1  
    28   26   27 ar 
    29   26   28 ar 
    30   26   29 ar 
    31   30   31 ar 
    32   30   32 ar 
    33    1   33 1  
    34    1   34 1  
    35    1   35 1  
    36    2   36 1  
    37    5   37 1  
    38    5   38 1  
    39    7   39 1  
    40    8   40 1  
    41    9   41 1  
    42   10   42 1  
    43   11   43 1  
    44   12   44 1  
    45   13   45 1  
    46   16   46 1  
    47   16   47 1  
    48   17   48 1  
    49   17   49 1  
    50   18   50 1  
    51   18   51 1  
    52   19   52 1  
    53   19   53 1  
    54   20   54 1  
    55   20   55 1  
    56   20   56 1  
    57   21   57 1  
    58   22   58 1  
    59   23   59 1  
    60   24   60 1  
    61   24   61 1  
    62   24   62 1  
@<TRIPOS>SUBSTRUCTURE
     1 PHE         1

