3c2f_ligand
  -I-interpret- 

 35 35  0  0  0  0  0  0  0  0999 V2000
   26.5970  -14.9160   44.8780 C   0  0  0  0  0
   26.5310  -16.2310   44.1890 C   0  0  0  0  0
   27.1200  -15.8080   42.8930 C   0  0  0  0  0
   28.3290  -15.0710   43.3870 C   0  0  0  0  0
   28.9310  -14.1700   42.3660 C   0  0  0  0  0
   26.6820  -15.2160   46.2470 O   0  0  0  0  0
   27.4640  -17.0060   44.9050 O   0  0  0  0  0
   27.3920  -16.9790   42.1370 O   0  0  0  0  0
   27.7660  -14.2910   44.3940 O   0  0  0  0  0
   30.1340  -13.6660   42.8690 O   0  0  0  0  0
   30.7660  -12.3470   42.3340 P   0  0  0  0  0
   29.8540  -11.2580   42.5240 O   0  0  0  0  0
   31.8320  -12.2400   43.2740 O   0  0  0  0  0
   31.1140  -12.7350   40.9880 O   0  0  0  0  0
   25.7910  -14.3490   47.2120 P   0  0  0  0  0
   25.1360  -13.3750   46.3210 O   0  0  0  0  0
   24.9390  -15.2630   47.9850 O   0  0  0  0  0
   27.0470  -13.7300   48.3130 O   0  0  0  0  0
   27.7510  -12.1520   47.8570 P   0  0  0  0  0
   26.6800  -11.1230   47.8450 O   0  0  0  0  0
   28.4720  -12.3180   46.6040 O   0  0  0  0  0
   28.6610  -12.0220   49.0140 O   0  0  0  0  0
   25.7465  -14.2557   44.7084 H   0  0  0  0  0
   25.5835  -16.7630   44.1037 H   0  0  0  0  0
   26.5198  -15.1910   42.2243 H   0  0  0  0  0
   29.1348  -15.7445   43.6790 H   0  0  0  0  0
   28.2479  -13.3494   42.1465 H   0  0  0  0  0
   29.1168  -14.7239   41.4458 H   0  0  0  0  0
   27.0785  -17.2767   45.7415 H   0  0  0  0  0
   26.5644  -17.3821   41.8646 H   0  0  0  0  0
   29.1357  -11.3295   41.8911 H   0  0  0  0  0
   30.3189  -12.7727   40.4514 H   0  0  0  0  0
   25.8049  -12.8455   45.8807 H   0  0  0  0  0
   26.2637  -11.0859   48.7092 H   0  0  0  0  0
   28.1441  -11.9150   49.8158 H   0  0  0  0  0
  1  2  1  0  0  0
  1  6  1  0  0  0
  1  9  1  0  0  0
  2  3  1  0  0  0
  2  7  1  0  0  0
  3  4  1  0  0  0
  3  8  1  0  0  0
  4  5  1  0  0  0
  4  9  1  0  0  0
  5 10  1  0  0  0
  6 15  1  0  0  0
 10 11  1  0  0  0
 11 12  1  0  0  0
 11 13  2  0  0  0
 11 14  1  0  0  0
 15 16  1  0  0  0
 15 17  2  0  0  0
 15 18  1  0  0  0
 18 19  1  0  0  0
 19 20  1  0  0  0
 19 21  2  0  0  0
 19 22  1  0  0  0
  1 23  1  0  0  0
  2 24  1  0  0  0
  3 25  1  0  0  0
  4 26  1  0  0  0
  5 27  1  0  0  0
  5 28  1  0  0  0
  7 29  1  0  0  0
  8 30  1  0  0  0
 12 31  1  0  0  0
 14 32  1  0  0  0
 16 33  1  0  0  0
 20 34  1  0  0  0
 22 35  1  0  0  0
M  END
$$$$
