4q90_ligand
  -I-interpret- 

 15 15  0  0  0  0  0  0  0  0999 V2000
   14.9650    5.1160   15.3870 C   0  0  0  0  0
   15.4050    3.6850   15.0980 C   0  0  0  0  0
   15.0420    2.6320   15.9920 C   0  0  0  0  0
   15.4480    1.3690   15.7460 C   0  0  0  0  0
   15.0110    0.0610   16.8650 S   0  0  0  0  0
   16.2230    1.0920   14.6150 N   0  0  0  0  0
   16.5300    2.0980   13.7300 C   0  0  0  0  0
   16.1180    3.4100   13.9910 C   0  0  0  0  0
   13.8764    5.1605   15.4194 H   0  0  0  0  0
   15.3717    5.4329   16.3474 H   0  0  0  0  0
   15.3335    5.7740   14.6000 H   0  0  0  0  0
   14.4373    2.8486   16.8726 H   0  0  0  0  0
   15.5168   -1.0866   16.4222 H   0  0  0  0  0
   17.0944    1.8740   12.8248 H   0  0  0  0  0
   16.3752    4.2097   13.2965 H   0  0  0  0  0
  1  2  1  0  0  0
  2  3  4  0  0  0
  2  8  4  0  0  0
  3  4  4  0  0  0
  4  5  1  0  0  0
  4  6  4  0  0  0
  6  7  4  0  0  0
  7  8  4  0  0  0
  1  9  1  0  0  0
  1 10  1  0  0  0
  1 11  1  0  0  0
  3 12  1  0  0  0
  5 13  1  0  0  0
  7 14  1  0  0  0
  8 15  1  0  0  0
M  END
$$$$
