6hsz_ligand
  -I-interpret- 

 34 35  0  0  0  0  0  0  0  0999 V2000
   44.9510   37.7010   86.8230 O   0  0  0  0  0
   44.3790   37.0690   87.6780 C   0  0  0  0  0
   44.0750   37.6820   89.0080 C   0  0  0  0  0
   45.0220   38.5200   89.5850 C   0  0  0  0  0
   44.7770   39.0760   90.8250 C   0  0  0  0  0
   43.5950   38.7870   91.5030 C   0  0  0  0  0
   42.6560   37.9340   90.9400 C   0  0  0  0  0
   42.9070   37.3780   89.6980 C   0  0  0  0  0
   44.0180   35.7100   87.4260 N   0  0  0  0  0
   44.3270   34.9850   86.2300 C   0  0  0  0  0
   43.7840   35.2040   84.9650 C   0  0  0  0  0
   42.7880   36.2890   84.7620 C   0  0  0  0  0
   45.2630   33.9740   86.4100 C   0  0  0  0  0
   45.6850   33.1560   85.3690 C   0  0  0  0  0
   45.1310   33.3660   84.0950 C   0  0  0  0  0
   44.1880   34.3880   83.9020 C   0  0  0  0  0
   46.6980   32.0850   85.7220 C   0  0  0  0  0
   47.4030   32.2160   86.7240 O   0  0  0  0  0
   46.8640   30.8730   84.9670 N   0  0  0  0  0
   47.7350   29.9450   85.3200 O   0  0  0  0  0
   45.9531   38.7371   89.0615 H   0  0  0  0  0
   45.5115   39.7438   91.2751 H   0  0  0  0  0
   43.4067   39.2326   92.4798 H   0  0  0  0  0
   41.7316   37.7047   91.4701 H   0  0  0  0  0
   42.1817   36.6948   89.2562 H   0  0  0  0  0
   43.5002   35.2179   88.1541 H   0  0  0  0  0
   41.9194   36.1061   85.3946 H   0  0  0  0  0
   43.2367   37.2465   85.0266 H   0  0  0  0  0
   42.4803   36.3070   83.7165 H   0  0  0  0  0
   45.6815   33.8168   87.4041 H   0  0  0  0  0
   45.4328   32.7365   83.2579 H   0  0  0  0  0
   43.7646   34.5482   82.9105 H   0  0  0  0  0
   46.2928   30.7255   84.1349 H   0  0  0  0  0
   47.6970   29.2176   84.6946 H   0  0  0  0  0
  1  2  2  0  0  0
  2  3  1  0  0  0
  2  9  1  0  0  0
  3  4  4  0  0  0
  3  8  4  0  0  0
  4  5  4  0  0  0
  5  6  4  0  0  0
  6  7  4  0  0  0
  7  8  4  0  0  0
  9 10  1  0  0  0
 10 11  4  0  0  0
 10 13  4  0  0  0
 11 12  1  0  0  0
 11 16  4  0  0  0
 13 14  4  0  0  0
 14 15  4  0  0  0
 14 17  1  0  0  0
 15 16  4  0  0  0
 17 18  2  0  0  0
 17 19  1  0  0  0
 19 20  1  0  0  0
  4 21  1  0  0  0
  5 22  1  0  0  0
  6 23  1  0  0  0
  7 24  1  0  0  0
  8 25  1  0  0  0
  9 26  1  0  0  0
 12 27  1  0  0  0
 12 28  1  0  0  0
 12 29  1  0  0  0
 13 30  1  0  0  0
 15 31  1  0  0  0
 16 32  1  0  0  0
 19 33  1  0  0  0
 20 34  1  0  0  0
M  END
$$$$
