2gga_ligand
  -I-interpret- 

 19 18  0  0  0  0  0  0  0  0999 V2000
 -131.4480   27.4770  127.2180 P   0  0  0  0  0
 -130.6550   27.6690  125.9880 O   0  0  0  0  0
 -132.1240   26.1080  127.2850 O   0  0  0  0  0
 -130.6490   27.7220  128.4470 O   0  0  0  0  0
 -134.3110   31.1200  128.0890 O   0  0  0  0  0
 -135.5440   31.7650  126.3870 O   0  0  0  0  0
 -132.7870   28.5250  127.1440 C   0  0  0  0  0
 -133.7360   30.4830  125.8170 C   0  0  0  0  0
 -134.5860   31.1760  126.8520 C   0  0  0  0  0
 -132.5840   29.6600  126.1970 N   0  3  0  0  0
 -132.6235   26.0387  128.1019 H   0  0  0  0  0
 -131.2025   27.5862  129.2195 H   0  0  0  0  0
 -133.5125   30.6022  128.2150 H   0  0  0  0  0
 -132.9372   28.9442  128.1389 H   0  0  0  0  0
 -133.6427   27.9478  126.7935 H   0  0  0  0  0
 -133.2941   31.3036  125.2518 H   0  0  0  0  0
 -134.4201   29.7735  125.3515 H   0  0  0  0  0
 -132.2737   29.2250  125.3281 H   0  0  0  0  0
 -131.9539   30.2982  126.6829 H   0  0  0  0  0
  1  2  2  0  0  0
  1  3  1  0  0  0
  1  4  1  0  0  0
  7  1  1  0  0  0
  9  5  1  0  0  0
  9  6  2  0  0  0
 10  7  1  0  0  0
  8  9  1  0  0  0
  8 10  1  0  0  0
  3 11  1  0  0  0
  4 12  1  0  0  0
  5 13  1  0  0  0
  7 14  1  0  0  0
  7 15  1  0  0  0
  8 16  1  0  0  0
  8 17  1  0  0  0
 10 18  1  0  0  0
 10 19  1  0  0  0
M  END
$$$$
