### 
### Created by X-TOOL on Mon Sep 10 21:12:53 2018
### 

@<TRIPOS>MOLECULE
2gga_ligand
   16    15     1     0     0
SMALL
GAST_HUCK


@<TRIPOS>ATOM
      1 P1       -131.4480   27.4770  127.2180 P.3       1 GPJ         0.1070
      2 O1       -130.6550   27.6690  125.9880 O.co2     1 GPJ        -0.5587
      3 O2       -132.1240   26.1080  127.2850 O.co2     1 GPJ        -0.5587
      4 O3       -130.6490   27.7220  128.4470 O.co2     1 GPJ        -0.5587
      5 O4       -134.3110   31.1200  128.0890 O.co2     1 GPJ        -0.5645
      6 O5       -135.5440   31.7650  126.3870 O.co2     1 GPJ        -0.5645
      7 C1       -132.7870   28.5250  127.1440 C.3       1 GPJ         0.0369
      8 C2       -133.7360   30.4830  125.8170 C.3       1 GPJ         0.0207
      9 C3       -134.5860   31.1760  126.8520 C.2       1 GPJ         0.0813
     10 N1       -132.5840   29.6600  126.1970 N.4       1 GPJ         0.2507
     11 H1       -132.9684   28.9344  128.1487 H         1 GPJ         0.1013
     12 H2       -133.6659   27.9492  126.8185 H         1 GPJ         0.1013
     13 H3       -133.3488   31.2716  125.1550 H         1 GPJ         0.0989
     14 H4       -134.4121   29.8268  125.2492 H         1 GPJ         0.0989
     15 H5       -132.2053   29.2717  125.3474 H         1 GPJ         0.2042
     16 H6       -131.9058   30.2768  126.6161 H         1 GPJ         0.2042
@<TRIPOS>BOND
     1    1    2 ar 
     2    1    3 ar 
     3    1    4 ar 
     4    7    1 1  
     5    9    5 ar 
     6    9    6 ar 
     7   10    7 1  
     8    8    9 1  
     9    8   10 1  
    10    7   11 1  
    11    7   12 1  
    12    8   13 1  
    13    8   14 1  
    14   10   15 1  
    15   10   16 1  
@<TRIPOS>SUBSTRUCTURE
     1 GPJ         1

