3wab_ligand
  -I-interpret- 

 30 29  0  0  0  0  0  0  0  0999 V2000
    4.3240  -14.8920    0.1900 C   0  0  0  0  0
    4.5370  -16.0260   -0.8150 C   0  0  0  0  0
    3.3300  -16.9650   -0.7940 C   0  0  0  0  0
    3.1940  -17.6400    0.5720 C   0  0  0  0  0
    4.4450  -18.4690    0.8740 C   0  0  0  0  0
    5.4590  -13.9590    0.1720 N   0  3  0  0  0
    4.2030  -19.3430    2.1080 C   0  0  0  0  0
    3.9110  -18.4850    3.3400 C   0  0  0  0  0
    4.9030  -18.0460    3.9640 O   0  0  0  0  0
    2.7320  -18.4770    3.7510 O   0  0  0  0  0
    5.4280  -20.2160    2.3830 C   0  0  0  0  0
    5.2140  -21.2200    3.8980 S   0  0  0  0  0
    4.2361  -15.3194    1.1888 H   0  0  0  0  0
    3.4182  -14.3489   -0.0796 H   0  0  0  0  0
    5.4341  -16.5838   -0.5463 H   0  0  0  0  0
    4.6519  -15.6068   -1.8146 H   0  0  0  0  0
    3.4680  -17.7334   -1.5546 H   0  0  0  0  0
    2.4287  -16.3848   -0.9917 H   0  0  0  0  0
    2.3233  -18.2956    0.5626 H   0  0  0  0  0
    3.0771  -16.8751    1.3397 H   0  0  0  0  0
    5.2834  -17.7993    1.0656 H   0  0  0  0  0
    4.6696  -19.1069    0.0191 H   0  0  0  0  0
    5.2952  -13.2132    0.8483 H   0  0  0  0  0
    6.3132  -14.4599    0.4166 H   0  0  0  0  0
    5.5537  -13.5586   -0.7613 H   0  0  0  0  0
    3.3379  -19.9745    1.9058 H   0  0  0  0  0
    5.6935  -18.1687    3.4332 H   0  0  0  0  0
    6.2910  -19.5646    2.5208 H   0  0  0  0  0
    5.5657  -20.8917    1.5389 H   0  0  0  0  0
    6.3015  -21.9600    4.0948 H   0  0  0  0  0
  1  2  1  0  0  0
  1  6  1  0  0  0
  2  3  1  0  0  0
  3  4  1  0  0  0
  4  5  1  0  0  0
  5  7  1  0  0  0
  7  8  1  0  0  0
  7 11  1  0  0  0
  8  9  1  0  0  0
  8 10  2  0  0  0
 11 12  1  0  0  0
  1 13  1  0  0  0
  1 14  1  0  0  0
  2 15  1  0  0  0
  2 16  1  0  0  0
  3 17  1  0  0  0
  3 18  1  0  0  0
  4 19  1  0  0  0
  4 20  1  0  0  0
  5 21  1  0  0  0
  5 22  1  0  0  0
  6 23  1  0  0  0
  6 24  1  0  0  0
  6 25  1  0  0  0
  7 26  1  0  0  0
  9 27  1  0  0  0
 11 28  1  0  0  0
 11 29  1  0  0  0
 12 30  1  0  0  0
M  END
$$$$
