3ozj_ligand
  -I-interpret- 

 42 44  0  0  0  0  0  0  0  0999 V2000
   13.0420   16.0390   17.3800 C   0  0  0  0  0
   15.4340   15.4700   21.9040 C   0  0  0  0  0
   18.4990   13.1170   16.0970 C   0  0  0  0  0
   15.6190   11.7880   18.2830 C   0  0  0  0  0
   13.3210   15.0710   21.0410 O   0  0  0  0  0
   16.3490   12.4080   20.9100 O   0  0  0  0  0
   12.4140   15.0020   14.7100 O   0  0  0  0  0
   18.0280   13.3010   19.8720 C   0  0  0  0  0
   18.2330   13.8740   18.7290 C   0  0  0  0  0
   16.0410   13.2610   15.6990 C   0  0  0  0  0
   14.9550   15.1080   19.6130 O   0  0  0  0  0
   14.0950   13.6230   15.1190 O   0  0  0  0  0
   14.4900   15.1610   20.8200 C   0  0  0  0  0
   13.6460   15.0340   16.6800 C   0  0  0  0  0
   16.7900   12.9760   19.9620 C   0  0  0  0  0
   13.2920   14.5870   15.4350 C   0  0  0  0  0
   17.1310   12.9530   16.6890 C   0  0  0  0  0
   14.6950   13.1470   16.2630 C   0  0  0  0  0
   16.9690   13.8290   17.8730 C   0  0  0  0  0
   14.7780   14.0080   18.7290 C   0  0  0  0  0
   14.8210   14.2920   17.1850 C   0  0  0  0  0
   16.0050   13.1740   18.7460 C   0  0  0  0  0
   12.1915   16.5680   16.9499 H   0  0  0  0  0
   13.4104   16.3122   18.3688 H   0  0  0  0  0
   15.1787   16.4347   22.3424 H   0  0  0  0  0
   15.3742   14.6950   22.6681 H   0  0  0  0  0
   16.4465   15.5086   21.5023 H   0  0  0  0  0
   18.6102   12.4406   15.2496 H   0  0  0  0  0
   18.6273   14.1461   15.7614 H   0  0  0  0  0
   19.2503   12.8831   16.8513 H   0  0  0  0  0
   16.5205   11.2082   18.0850 H   0  0  0  0  0
   15.0329   11.2969   19.0598 H   0  0  0  0  0
   15.0261   11.8628   17.3714 H   0  0  0  0  0
   18.7856   13.1233   20.6352 H   0  0  0  0  0
   19.1760   14.3254   18.4208 H   0  0  0  0  0
   16.1198   12.5375   14.8875 H   0  0  0  0  0
   16.1747   14.2925   15.3732 H   0  0  0  0  0
   17.0405   11.9071   16.9822 H   0  0  0  0  0
   14.2683   12.2474   16.7065 H   0  0  0  0  0
   16.6987   14.8235   17.5181 H   0  0  0  0  0
   13.8177   13.6233   19.0725 H   0  0  0  0  0
   15.7952   14.7805   17.1671 H   0  0  0  0  0
 14  1  2  0  0  0
 13  2  1  0  0  0
 17  3  1  0  0  0
 22  4  1  0  0  0
 13  5  2  0  0  0
 15  6  2  0  0  0
 16  7  2  0  0  0
  9  8  2  0  0  0
 15  8  1  0  0  0
 19  9  1  0  0  0
 10 17  1  0  0  0
 18 10  1  0  0  0
 11 13  1  0  0  0
 20 11  1  0  0  0
 12 16  1  0  0  0
 18 12  1  0  0  0
 14 16  1  0  0  0
 21 14  1  0  0  0
 22 15  1  0  0  0
 17 19  1  0  0  0
 21 18  1  0  0  0
 19 22  1  0  0  0
 20 21  1  0  0  0
 20 22  1  0  0  0
  1 23  1  0  0  0
  1 24  1  0  0  0
  2 25  1  0  0  0
  2 26  1  0  0  0
  2 27  1  0  0  0
  3 28  1  0  0  0
  3 29  1  0  0  0
  3 30  1  0  0  0
  4 31  1  0  0  0
  4 32  1  0  0  0
  4 33  1  0  0  0
  8 34  1  0  0  0
  9 35  1  0  0  0
 10 36  1  0  0  0
 10 37  1  0  0  0
 17 38  1  0  0  0
 18 39  1  0  0  0
 19 40  1  0  0  0
 20 41  1  0  0  0
 21 42  1  0  0  0
M  END
$$$$
