1bio_ligand
  -I-interpret- 

 18 18  0  0  0  0  0  0  0  0999 V2000
    5.7960    6.1640    1.3760 C   0  0  0  0  0
    4.9310    7.2920    1.3110 C   0  0  0  0  0
    3.5380    7.1320    1.5370 C   0  0  0  0  0
    3.0040    5.8500    1.8220 C   0  0  0  0  0
    5.2520    4.8810    1.6710 C   0  0  0  0  0
    3.8540    4.7270    1.8880 C   0  0  0  0  0
    5.4260    8.5250    1.0370 N   0  0  0  0  0
    7.3320    6.3120    1.1450 C   0  0  0  0  0
    8.0200    7.4990    0.7780 O   0  0  0  0  0
    2.8773    7.9977    1.4912 H   0  0  0  0  0
    1.9336    5.7322    1.9905 H   0  0  0  0  0
    5.9093    4.0135    1.7308 H   0  0  0  0  0
    3.4408    3.7420    2.1050 H   0  0  0  0  0
    6.4255    8.6490    0.8756 H   0  0  0  0  0
    4.7987    9.3280    0.9923 H   0  0  0  0  0
    7.4844    5.6871    0.2650 H   0  0  0  0  0
    7.7246    6.1293    2.1453 H   0  0  0  0  0
    8.9587    7.3129    0.7019 H   0  0  0  0  0
  1  2  4  0  0  0
  1  5  4  0  0  0
  1  8  1  0  0  0
  2  3  4  0  0  0
  2  7  1  0  0  0
  3  4  4  0  0  0
  4  6  4  0  0  0
  5  6  4  0  0  0
  8  9  1  0  0  0
  3 10  1  0  0  0
  4 11  1  0  0  0
  5 12  1  0  0  0
  6 13  1  0  0  0
  7 14  1  0  0  0
  7 15  1  0  0  0
  8 16  1  0  0  0
  8 17  1  0  0  0
  9 18  1  0  0  0
M  END
$$$$
