1jdj_ligand
  -I-interpret- 

 12 13  0  0  0  0  0  0  0  0999 V2000
   33.1880   55.0960   30.8680 N   0  0  0  0  0
   33.8130   55.9020   31.7990 C   0  0  0  0  0
   35.1160   55.6990   31.9000 N   0  0  0  0  0
   35.3780   54.6930   30.9770 C   0  0  0  0  0
   36.5720   53.9840   30.5580 C   0  0  0  0  0
   37.8160   54.1920   31.0460 Cl  0  0  0  0  0
   36.4470   53.0080   29.5770 N   0  0  0  0  0
   35.2200   52.7380   29.0330 C   0  0  0  0  0
   34.0450   53.3380   29.3490 N   0  0  0  0  0
   34.1880   54.3050   30.3260 C   0  0  0  0  0
   35.1770   52.0260   28.3270 F   0  0  0  0  0
   33.2796   56.6403   32.3977 H   0  0  0  0  0
  1  2  4  0  0  0
  1 10  4  0  0  0
  2  3  4  0  0  0
  3  4  4  0  0  0
  4  5  4  0  0  0
  4 10  4  0  0  0
  5  6  1  0  0  0
  5  7  4  0  0  0
  7  8  4  0  0  0
  8  9  4  0  0  0
  8 11  1  0  0  0
  9 10  4  0  0  0
  2 12  1  0  0  0
M  END
$$$$
