4fab_ligand
  -I-interpret- 

 39 42  0  0  0  0  0  0  0  0999 V2000
   27.0670  -13.2280   22.3790 C   0  0  0  0  0
   27.6360  -12.8000   23.5350 O   0  0  0  0  0
   26.4740  -12.2630   21.6200 C   0  0  0  0  0
   25.8540  -12.6400   20.4480 C   0  0  0  0  0
   25.2630  -11.6650   19.7100 O   0  0  0  0  0
   24.6290  -11.9710   18.5270 C   0  0  0  0  0
   24.0370  -10.9440   17.8220 C   0  0  0  0  0
   23.4150  -11.2430   16.6430 C   0  0  0  0  0
   22.8830  -10.1550   16.0270 O   0  0  0  0  0
   23.3820  -12.5890   16.1740 C   0  0  0  0  0
   23.9800  -13.6070   16.9060 C   0  0  0  0  0
   24.6000  -13.2920   18.0710 C   0  0  0  0  0
   25.2020  -14.2860   18.7780 C   0  0  0  0  0
   25.8250  -13.9730   20.0110 C   0  0  0  0  0
   26.4100  -14.9440   20.7500 C   0  0  0  0  0
   27.0350  -14.5860   21.9450 C   0  0  0  0  0
   25.0930  -15.5810   18.3250 C   0  0  0  0  0
   23.8440  -16.1090   18.4530 C   0  0  0  0  0
   23.6420  -17.3960   17.9610 C   0  0  0  0  0
   24.6940  -18.1930   17.3610 C   0  0  0  0  0
   25.9290  -17.6610   17.2470 C   0  0  0  0  0
   26.1200  -16.3230   17.7100 C   0  0  0  0  0
   27.3480  -15.7820   17.5840 C   0  0  0  0  0
   28.3840  -16.5040   18.0780 O   0  0  0  0  0
   27.6730  -14.7020   16.9940 O   0  0  0  0  0
   28.0242  -13.5477   23.9953 H   0  0  0  0  0
   26.4898  -11.2188   21.9324 H   0  0  0  0  0
   24.0647   -9.9205   18.1958 H   0  0  0  0  0
   22.4616  -10.4264   15.2082 H   0  0  0  0  0
   22.8833  -12.8212   15.2330 H   0  0  0  0  0
   23.9517  -14.6375   16.5518 H   0  0  0  0  0
   26.2477  -14.4234   18.5028 H   0  0  0  0  0
   26.3933  -15.9824   20.4192 H   0  0  0  0  0
   27.5059  -15.3560   22.5561 H   0  0  0  0  0
   23.0358  -15.5472   18.9213 H   0  0  0  0  0
   22.6427  -17.8258   18.0305 H   0  0  0  0  0
   24.4910  -19.2041   17.0082 H   0  0  0  0  0
   26.7518  -18.2320   16.8168 H   0  0  0  0  0
   28.0468  -17.2961   18.5028 H   0  0  0  0  0
  1  2  1  0  0  0
  1  3  4  0  0  0
  1 16  4  0  0  0
  3  4  4  0  0  0
  4  5  1  0  0  0
  4 14  4  0  0  0
  5  6  1  0  0  0
  6  7  4  0  0  0
  6 12  4  0  0  0
  7  8  4  0  0  0
  8  9  1  0  0  0
  8 10  4  0  0  0
 10 11  4  0  0  0
 11 12  4  0  0  0
 12 13  1  0  0  0
 13 14  1  0  0  0
 13 17  1  0  0  0
 14 15  4  0  0  0
 15 16  4  0  0  0
 17 18  4  0  0  0
 17 22  4  0  0  0
 18 19  4  0  0  0
 19 20  4  0  0  0
 20 21  4  0  0  0
 21 22  4  0  0  0
 22 23  1  0  0  0
 23 24  1  0  0  0
 23 25  2  0  0  0
  2 26  1  0  0  0
  3 27  1  0  0  0
  7 28  1  0  0  0
  9 29  1  0  0  0
 10 30  1  0  0  0
 11 31  1  0  0  0
 13 32  1  0  0  0
 15 33  1  0  0  0
 16 34  1  0  0  0
 18 35  1  0  0  0
 19 36  1  0  0  0
 20 37  1  0  0  0
 21 38  1  0  0  0
 24 39  1  0  0  0
M  END
$$$$
