5hl9_ligand
  -I-interpret- 

 47 48  0  0  0  0  0  0  0  0999 V2000
   10.6240   16.7830  -60.6260 C   0  0  0  0  0
    9.1730   18.3220  -59.6120 C   0  0  0  0  0
    6.1070   16.4100  -62.8150 C   0  0  0  0  0
    6.6770   19.4820  -61.0790 N   0  0  0  0  0
    3.6510   16.1690  -62.2540 C   0  0  0  0  0
    4.6880   18.0230  -63.2830 N   0  3  0  0  0
    8.5720   19.6310  -59.6290 C   0  0  0  0  0
    5.8310   15.5630  -64.0150 C   0  0  0  0  0
    7.9060   19.8810  -60.9090 C   0  0  0  0  0
   10.0450   18.0140  -60.6040 C   0  0  0  0  0
   10.3340   15.8790  -59.6460 C   0  0  0  0  0
    9.4620   16.2080  -58.6440 C   0  0  0  0  0
    8.8770   17.4370  -58.6280 C   0  0  0  0  0
    4.8310   17.0210  -62.3150 C   0  0  0  0  0
    5.8230   18.8900  -63.3380 C   0  0  0  0  0
    5.8810   19.8920  -62.1890 C   0  0  0  0  0
    4.5130   20.2110  -61.6820 C   0  0  0  0  0
    6.8300   15.5970  -61.7800 C   0  0  0  0  0
    9.6380   20.5660  -59.6210 N   0  3  0  0  0
    3.4030   15.5980  -61.2010 O   0  0  0  0  0
    2.9790   16.1150  -63.2530 O   0  0  0  0  0
    8.5250   20.4910  -61.7080 O   0  0  0  0  0
    4.0250   19.8740  -60.6150 O   0  0  0  0  0
    7.1150   17.7400  -63.2850 S   0  0  0  0  0
   11.3177   16.5196  -61.4244 H   0  0  0  0  0
    6.2678   18.8508  -60.3901 H   0  0  0  0  0
    3.8723   18.5846  -63.0390 H   0  0  0  0  0
    4.5896   17.5724  -64.1928 H   0  0  0  0  0
    7.8757   19.7076  -58.7939 H   0  0  0  0  0
    5.3231   16.1613  -64.7714 H   0  0  0  0  0
    6.7720   15.1882  -64.4178 H   0  0  0  0  0
    5.1973   14.7239  -63.7279 H   0  0  0  0  0
   10.2798   18.7461  -61.3767 H   0  0  0  0  0
   10.7979   14.8927  -59.6613 H   0  0  0  0  0
    9.2360   15.4863  -57.8591 H   0  0  0  0  0
    8.1797   17.7063  -57.8346 H   0  0  0  0  0
    4.8968   17.3159  -61.2677 H   0  0  0  0  0
    5.8330   19.5424  -64.2111 H   0  0  0  0  0
    6.3565   20.7696  -62.6270 H   0  0  0  0  0
    3.8807   20.8107  -62.3367 H   0  0  0  0  0
    7.7635   15.2231  -62.2005 H   0  0  0  0  0
    7.0450   16.2225  -60.9136 H   0  0  0  0  0
    6.2044   14.7573  -61.4773 H   0  0  0  0  0
   10.1685   20.4676  -58.7554 H   0  0  0  0  0
   10.2496   20.3893  -60.4180 H   0  0  0  0  0
    9.2600   21.5113  -59.6839 H   0  0  0  0  0
    4.0885   15.7996  -60.5598 H   0  0  0  0  0
 10  1  4  0  0  0
  1 11  4  0  0  0
  7  2  1  0  0  0
  2 10  4  0  0  0
  2 13  4  0  0  0
  3  8  1  0  0  0
 14  3  1  0  0  0
  3 18  1  0  0  0
  3 24  1  0  0  0
  4  9  1  0  0  0
 16  4  1  0  0  0
 14  5  1  0  0  0
  5 20  1  0  0  0
  5 21  2  0  0  0
  6 14  1  0  0  0
 15  6  1  0  0  0
  9  7  1  0  0  0
  7 19  1  0  0  0
  9 22  2  0  0  0
 12 11  4  0  0  0
 13 12  4  0  0  0
 15 16  1  0  0  0
 15 24  1  0  0  0
 16 17  1  0  0  0
 17 23  2  0  0  0
  1 25  1  0  0  0
  4 26  1  0  0  0
  6 27  1  0  0  0
  6 28  1  0  0  0
  7 29  1  0  0  0
  8 30  1  0  0  0
  8 31  1  0  0  0
  8 32  1  0  0  0
 10 33  1  0  0  0
 11 34  1  0  0  0
 12 35  1  0  0  0
 13 36  1  0  0  0
 14 37  1  0  0  0
 15 38  1  0  0  0
 16 39  1  0  0  0
 17 40  1  0  0  0
 18 41  1  0  0  0
 18 42  1  0  0  0
 18 43  1  0  0  0
 19 44  1  0  0  0
 19 45  1  0  0  0
 19 46  1  0  0  0
 20 47  1  0  0  0
M  END
$$$$
