### 
### Created by X-TOOL on Mon Sep 10 21:13:05 2018
### 

@<TRIPOS>MOLECULE
3aox_ligand
   70    75     1     0     0
SMALL
GAST_HUCK


@<TRIPOS>ATOM
      1 C4        -22.4010   14.1550  -10.5160 C.ar      1 EMH        -0.0446
      2 C5        -20.1640   15.1350  -10.7330 C.ar      1 EMH         0.0945
      3 C6        -21.5450   15.1350  -11.0290 C.ar      1 EMH        -0.0316
      4 C7        -22.4310   12.1100   -9.0180 C.2       1 EMH         0.0712
      5 C8        -21.4340   11.4490   -8.3300 C.2       1 EMH         0.0246
      6 C10       -24.6420    8.1130   -6.6440 C.ar      1 EMH         0.0686
      7 C13       -25.3930    9.9110   -8.0880 C.ar      1 EMH        -0.0310
      8 C15       -24.0840   10.3960   -8.1500 C.ar      1 EMH         0.0243
      9 C17       -21.6250   10.2130   -7.4880 C.3       1 EMH        -0.0380
     10 C21       -21.2180   10.5350   -6.0410 C.3       1 EMH        -0.1054
     11 C22       -20.6900    9.1620   -8.0760 C.3       1 EMH        -0.1054
     12 C24       -28.1260    9.4070   -7.0980 C.3       1 EMH        -0.0537
     13 C26       -25.1870    4.2990   -4.7470 C.3       1 EMH        -0.0966
     14 C28       -25.9750    4.7210   -5.9880 C.3       1 EMH        -0.0491
     15 N19       -18.6010   16.8220  -11.6880 N.1       1 EMH        -0.3258
     16 C18       -19.3540   16.0480  -11.2240 C.1       1 EMH         0.1021
     17 C3        -19.6410   14.1530   -9.8910 C.ar      1 EMH         0.0093
     18 C1        -20.4810   13.1820   -9.3580 C.ar      1 EMH         0.0998
     19 C2        -21.8460   13.1890   -9.6630 C.ar      1 EMH         0.0392
     20 N9        -20.2580   12.1110   -8.5280 N.pl3     1 EMH        -0.2714
     21 C14       -23.0250    9.7500   -7.4660 C.ar      1 EMH        -0.0872
     22 C16       -23.8330   11.6270   -8.9630 C.2       1 EMH         0.1846
     23 O20       -24.7640   12.1950   -9.5580 O.2       1 EMH        -0.3366
     24 C12       -23.3280    8.5880   -6.7070 C.ar      1 EMH        -0.0396
     25 C11       -25.6720    8.7690   -7.3210 C.ar      1 EMH         0.0046
     26 C23       -27.1110    8.2840   -7.2630 C.3       1 EMH        -0.0130
     27 N25       -24.9540    6.9370   -5.8820 N.pl3     1 EMH        -0.3057
     28 C29       -24.0260    6.5610   -4.8050 C.3       1 EMH         0.0250
     29 C27       -24.7950    5.5450   -3.9400 C.3       1 EMH        -0.0491
     30 C30       -25.1670    5.7650   -6.7690 C.3       1 EMH         0.0250
     31 N31       -25.9240    3.3790   -3.8210 N.4       1 EMH         0.4081
     32 C32       -27.0110    2.5900   -4.4370 C.3       1 EMH        -0.0885
     33 C34       -27.6660    1.7130   -3.3690 C.3       1 EMH         0.0291
     34 O36       -26.6850    0.8430   -2.7970 O.3       1 EMH        -0.3838
     35 C35       -25.6310    1.5590   -2.1540 C.3       1 EMH         0.0291
     36 C33       -24.9470    2.4710   -3.1770 C.3       1 EMH        -0.0885
     37 H         -23.4610   14.1422  -10.7697 H         1 EMH         0.0658
     38 H         -21.9526   15.9157  -11.6712 H         1 EMH         0.0639
     39 H         -26.1917   10.4159   -8.6314 H         1 EMH         0.0653
     40 H         -21.2751    9.6284   -5.4386 H         1 EMH         0.0050
     41 H         -20.1973   10.9173   -6.0285 H         1 EMH         0.0050
     42 H         -21.8940   11.2868   -5.6335 H         1 EMH         0.0050
     43 H         -19.6682    9.5413   -8.0680 H         1 EMH         0.0050
     44 H         -20.7460    8.2524   -7.4780 H         1 EMH         0.0050
     45 H         -20.9898    8.9435   -9.1009 H         1 EMH         0.0050
     46 H         -27.9248    9.9435   -6.1708 H         1 EMH         0.0255
     47 H         -28.0467   10.0934   -7.9410 H         1 EMH         0.0255
     48 H         -29.1305    8.9851   -7.0646 H         1 EMH         0.0255
     49 H         -24.3232    3.7546   -5.1285 H         1 EMH         0.0054
     50 H         -26.9305    5.1497   -5.6858 H         1 EMH         0.0267
     51 H         -26.1553    3.8512   -6.6196 H         1 EMH         0.0267
     52 H         -18.5775   14.1472   -9.6520 H         1 EMH         0.0696
     53 H         -19.3577   11.8521   -8.1244 H         1 EMH         0.2299
     54 H         -22.5347    8.0654   -6.1725 H         1 EMH         0.0650
     55 H         -27.3262    7.7849   -8.2078 H         1 EMH         0.0451
     56 H         -27.2014    7.6313   -6.3947 H         1 EMH         0.0451
     57 H         -23.7152    7.4286   -4.2229 H         1 EMH         0.0512
     58 H         -23.1047    6.1338   -5.2010 H         1 EMH         0.0512
     59 H         -24.1501    5.2344   -3.1179 H         1 EMH         0.0267
     60 H         -25.7058    6.0211   -3.5769 H         1 EMH         0.0267
     61 H         -25.7073    6.0652   -7.6668 H         1 EMH         0.0512
     62 H         -24.2089    5.3466   -7.0772 H         1 EMH         0.0512
     63 H         -26.6022    1.9596   -5.2267 H         1 EMH         0.0040
     64 H         -27.7548    3.2634   -4.8629 H         1 EMH         0.0040
     65 H         -28.4578    1.1177   -3.8239 H         1 EMH         0.0539
     66 H         -28.0886    2.3461   -2.5888 H         1 EMH         0.0539
     67 H         -24.9048    0.8552   -1.7472 H         1 EMH         0.0539
     68 H         -26.0390    2.1606   -1.3417 H         1 EMH         0.0539
     69 H         -24.1990    3.0733   -2.6615 H         1 EMH         0.0040
     70 H         -24.4893    1.8495   -3.9466 H         1 EMH         0.0040
@<TRIPOS>BOND
     1    1    3 ar 
     2   19    1 ar 
     3    3    2 ar 
     4    2   16 1  
     5   17    2 ar 
     6    5    4 2  
     7    4   19 1  
     8   22    4 1  
     9    9    5 1  
    10    5   20 1  
    11    6   24 ar 
    12    6   25 ar 
    13   27    6 1  
    14    7    8 ar 
    15   25    7 ar 
    16   21    8 ar 
    17    8   22 1  
    18    9   10 1  
    19    9   11 1  
    20   21    9 1  
    21   26   12 1  
    22   14   13 1  
    23   13   29 1  
    24   13   31 1  
    25   30   14 1  
    26   16   15 3  
    27   18   17 ar 
    28   19   18 ar 
    29   20   18 1  
    30   24   21 ar 
    31   22   23 2  
    32   25   26 1  
    33   27   28 1  
    34   27   30 1  
    35   28   29 1  
    36   31   32 1  
    37   31   36 1  
    38   32   33 1  
    39   33   34 1  
    40   34   35 1  
    41   35   36 1  
    42    1   37 1  
    43    3   38 1  
    44    7   39 1  
    45   10   40 1  
    46   10   41 1  
    47   10   42 1  
    48   11   43 1  
    49   11   44 1  
    50   11   45 1  
    51   12   46 1  
    52   12   47 1  
    53   12   48 1  
    54   13   49 1  
    55   14   50 1  
    56   14   51 1  
    57   17   52 1  
    58   20   53 1  
    59   24   54 1  
    60   26   55 1  
    61   26   56 1  
    62   28   57 1  
    63   28   58 1  
    64   29   59 1  
    65   29   60 1  
    66   30   61 1  
    67   30   62 1  
    68   32   63 1  
    69   32   64 1  
    70   33   65 1  
    71   33   66 1  
    72   35   67 1  
    73   35   68 1  
    74   36   69 1  
    75   36   70 1  
@<TRIPOS>SUBSTRUCTURE
     1 EMH         1

