3aox_ligand
  -I-interpret- 

 70 75  0  0  0  0  0  0  0  0999 V2000
  -22.4010   14.1550  -10.5160 C   0  0  0  0  0
  -20.1640   15.1350  -10.7330 C   0  0  0  0  0
  -21.5450   15.1350  -11.0290 C   0  0  0  0  0
  -22.4310   12.1100   -9.0180 C   0  0  0  0  0
  -21.4340   11.4490   -8.3300 C   0  0  0  0  0
  -24.6420    8.1130   -6.6440 C   0  0  0  0  0
  -25.3930    9.9110   -8.0880 C   0  0  0  0  0
  -24.0840   10.3960   -8.1500 C   0  0  0  0  0
  -21.6250   10.2130   -7.4880 C   0  0  0  0  0
  -21.2180   10.5350   -6.0410 C   0  0  0  0  0
  -20.6900    9.1620   -8.0760 C   0  0  0  0  0
  -28.1260    9.4070   -7.0980 C   0  0  0  0  0
  -25.1870    4.2990   -4.7470 C   0  0  0  0  0
  -25.9750    4.7210   -5.9880 C   0  0  0  0  0
  -18.6010   16.8220  -11.6880 N   0  0  0  0  0
  -19.3540   16.0480  -11.2240 C   0  0  0  0  0
  -19.6410   14.1530   -9.8910 C   0  0  0  0  0
  -20.4810   13.1820   -9.3580 C   0  0  0  0  0
  -21.8460   13.1890   -9.6630 C   0  0  0  0  0
  -20.2580   12.1110   -8.5280 N   0  0  0  0  0
  -23.0250    9.7500   -7.4660 C   0  0  0  0  0
  -23.8330   11.6270   -8.9630 C   0  0  0  0  0
  -24.7640   12.1950   -9.5580 O   0  0  0  0  0
  -23.3280    8.5880   -6.7070 C   0  0  0  0  0
  -25.6720    8.7690   -7.3210 C   0  0  0  0  0
  -27.1110    8.2840   -7.2630 C   0  0  0  0  0
  -24.9540    6.9370   -5.8820 N   0  0  0  0  0
  -24.0260    6.5610   -4.8050 C   0  0  0  0  0
  -24.7950    5.5450   -3.9400 C   0  0  0  0  0
  -25.1670    5.7650   -6.7690 C   0  0  0  0  0
  -25.9240    3.3790   -3.8210 N   0  3  0  0  0
  -27.0110    2.5900   -4.4370 C   0  0  0  0  0
  -27.6660    1.7130   -3.3690 C   0  0  0  0  0
  -26.6850    0.8430   -2.7970 O   0  0  0  0  0
  -25.6310    1.5590   -2.1540 C   0  0  0  0  0
  -24.9470    2.4710   -3.1770 C   0  0  0  0  0
  -23.4610   14.1422  -10.7697 H   0  0  0  0  0
  -21.9526   15.9157  -11.6712 H   0  0  0  0  0
  -26.1917   10.4159   -8.6314 H   0  0  0  0  0
  -21.2751    9.6284   -5.4386 H   0  0  0  0  0
  -20.1973   10.9173   -6.0285 H   0  0  0  0  0
  -21.8940   11.2868   -5.6335 H   0  0  0  0  0
  -19.6682    9.5413   -8.0680 H   0  0  0  0  0
  -20.7460    8.2524   -7.4780 H   0  0  0  0  0
  -20.9898    8.9435   -9.1009 H   0  0  0  0  0
  -27.9248    9.9435   -6.1708 H   0  0  0  0  0
  -28.0467   10.0934   -7.9410 H   0  0  0  0  0
  -29.1305    8.9851   -7.0646 H   0  0  0  0  0
  -24.3232    3.7546   -5.1285 H   0  0  0  0  0
  -26.9305    5.1497   -5.6858 H   0  0  0  0  0
  -26.1553    3.8512   -6.6196 H   0  0  0  0  0
  -18.5775   14.1472   -9.6520 H   0  0  0  0  0
  -22.5347    8.0654   -6.1725 H   0  0  0  0  0
  -27.3262    7.7849   -8.2078 H   0  0  0  0  0
  -27.2014    7.6313   -6.3947 H   0  0  0  0  0
  -23.7152    7.4286   -4.2229 H   0  0  0  0  0
  -23.1047    6.1338   -5.2010 H   0  0  0  0  0
  -24.1501    5.2344   -3.1179 H   0  0  0  0  0
  -25.7058    6.0211   -3.5769 H   0  0  0  0  0
  -25.7073    6.0652   -7.6668 H   0  0  0  0  0
  -24.2089    5.3466   -7.0772 H   0  0  0  0  0
  -26.3931    3.9808   -3.1441 H   0  0  0  0  0
  -26.6022    1.9596   -5.2267 H   0  0  0  0  0
  -27.7548    3.2634   -4.8629 H   0  0  0  0  0
  -28.4578    1.1177   -3.8239 H   0  0  0  0  0
  -28.0886    2.3461   -2.5888 H   0  0  0  0  0
  -24.9048    0.8552   -1.7472 H   0  0  0  0  0
  -26.0390    2.1606   -1.3417 H   0  0  0  0  0
  -24.1990    3.0733   -2.6615 H   0  0  0  0  0
  -24.4893    1.8495   -3.9466 H   0  0  0  0  0
  1  3  4  0  0  0
 19  1  4  0  0  0
  3  2  4  0  0  0
  2 16  1  0  0  0
 17  2  4  0  0  0
  5  4  4  0  0  0
  4 19  4  0  0  0
 22  4  1  0  0  0
  9  5  1  0  0  0
  5 20  4  0  0  0
  6 24  4  0  0  0
  6 25  4  0  0  0
 27  6  1  0  0  0
  7  8  4  0  0  0
 25  7  4  0  0  0
 21  8  4  0  0  0
  8 22  1  0  0  0
  9 10  1  0  0  0
  9 11  1  0  0  0
 21  9  1  0  0  0
 26 12  1  0  0  0
 14 13  1  0  0  0
 13 29  1  0  0  0
 13 31  1  0  0  0
 30 14  1  0  0  0
 16 15  3  0  0  0
 18 17  4  0  0  0
 19 18  4  0  0  0
 20 18  4  0  0  0
 24 21  4  0  0  0
 22 23  2  0  0  0
 25 26  1  0  0  0
 27 28  1  0  0  0
 27 30  1  0  0  0
 28 29  1  0  0  0
 31 32  1  0  0  0
 31 36  1  0  0  0
 32 33  1  0  0  0
 33 34  1  0  0  0
 34 35  1  0  0  0
 35 36  1  0  0  0
  1 37  1  0  0  0
  3 38  1  0  0  0
  7 39  1  0  0  0
 10 40  1  0  0  0
 10 41  1  0  0  0
 10 42  1  0  0  0
 11 43  1  0  0  0
 11 44  1  0  0  0
 11 45  1  0  0  0
 12 46  1  0  0  0
 12 47  1  0  0  0
 12 48  1  0  0  0
 13 49  1  0  0  0
 14 50  1  0  0  0
 14 51  1  0  0  0
 17 52  1  0  0  0
 24 53  1  0  0  0
 26 54  1  0  0  0
 26 55  1  0  0  0
 28 56  1  0  0  0
 28 57  1  0  0  0
 29 58  1  0  0  0
 29 59  1  0  0  0
 30 60  1  0  0  0
 30 61  1  0  0  0
 31 62  1  0  0  0
 32 63  1  0  0  0
 32 64  1  0  0  0
 33 65  1  0  0  0
 33 66  1  0  0  0
 35 67  1  0  0  0
 35 68  1  0  0  0
 36 69  1  0  0  0
 36 70  1  0  0  0
M  END
$$$$
