3kw9_ligand
  -I-interpret- 

 48 50  0  0  0  0  0  0  0  0999 V2000
   45.1940   16.5930   59.6270 N   0  0  0  0  0
   44.9690   15.3420   59.7920 C   0  0  0  0  0
   44.3940   14.9470   61.0670 N   0  0  0  0  0
   44.1050   15.7720   62.0130 C   0  0  0  0  0
   44.3910   17.1680   61.7390 N   0  0  0  0  0
   44.8980   17.5830   60.6400 C   0  0  0  0  0
   45.2320   14.4470   58.8770 N   0  0  0  0  0
   43.5850   15.3830   63.1620 N   0  0  0  0  0
   45.1600   18.9650   60.4300 C   0  0  0  0  0
   43.2990   13.9550   63.4470 C   0  0  0  0  0
   44.0640   13.5570   64.7440 C   0  0  0  0  0
   43.7270   14.5240   65.8340 N   0  3  0  0  0
   44.0400   15.9500   65.5090 C   0  0  0  0  0
   43.2640   16.3620   64.2290 C   0  0  0  0  0
   44.9020   20.0480   61.2530 N   0  3  0  0  0
   46.1610   14.6690   57.7570 C   0  0  0  0  0
   47.6460   14.5140   58.2110 C   0  0  0  0  0
   48.6310   14.7370   57.0170 C   0  0  0  0  0
   48.3070   13.7330   55.8580 C   0  0  0  0  0
   46.8140   13.8590   55.4060 C   0  0  0  0  0
   45.8440   13.6530   56.6180 C   0  0  0  0  0
   44.7664   13.5418   58.9427 H   0  0  0  0  0
   44.4740   19.1733   59.6090 H   0  0  0  0  0
   46.2499   18.9632   60.4421 H   0  0  0  0  0
   43.6249   13.3332   62.6132 H   0  0  0  0  0
   42.2277   13.8065   63.5825 H   0  0  0  0  0
   45.1374   13.5795   64.5556 H   0  0  0  0  0
   43.7716   12.5512   65.0456 H   0  0  0  0  0
   44.2904   14.2702   66.6455 H   0  0  0  0  0
   42.7204   14.4648   65.9875 H   0  0  0  0  0
   45.1111   16.0607   65.3398 H   0  0  0  0  0
   43.7418   16.5892   66.3400 H   0  0  0  0  0
   42.1917   16.3672   64.4245 H   0  0  0  0  0
   43.5556   17.3655   63.9189 H   0  0  0  0  0
   45.2176   20.9036   60.7960 H   0  0  0  0  0
   43.8995   20.1065   61.4317 H   0  0  0  0  0
   45.3995   19.9290   62.1355 H   0  0  0  0  0
   46.0287   15.6882   57.3941 H   0  0  0  0  0
   47.7882   13.5035   58.5942 H   0  0  0  0  0
   47.8545   15.2608   58.9771 H   0  0  0  0  0
   49.6523   14.5708   57.3596 H   0  0  0  0  0
   48.5216   15.7569   56.6483 H   0  0  0  0  0
   48.4788   12.7182   56.2168 H   0  0  0  0  0
   48.9497   13.9618   55.0079 H   0  0  0  0  0
   46.6083   13.0931   54.6583 H   0  0  0  0  0
   46.6550   14.8561   54.9953 H   0  0  0  0  0
   44.8198   13.8109   56.2802 H   0  0  0  0  0
   45.9714   12.6413   57.0030 H   0  0  0  0  0
  1  2  4  0  0  0
  1  6  4  0  0  0
  2  3  4  0  0  0
  2  7  1  0  0  0
  3  4  4  0  0  0
  4  5  4  0  0  0
  4  8  1  0  0  0
  5  6  4  0  0  0
  6  9  1  0  0  0
  7 16  1  0  0  0
  8 10  1  0  0  0
  8 14  1  0  0  0
  9 15  1  0  0  0
 10 11  1  0  0  0
 11 12  1  0  0  0
 12 13  1  0  0  0
 13 14  1  0  0  0
 16 17  1  0  0  0
 16 21  1  0  0  0
 17 18  1  0  0  0
 18 19  1  0  0  0
 19 20  1  0  0  0
 20 21  1  0  0  0
  7 22  1  0  0  0
  9 23  1  0  0  0
  9 24  1  0  0  0
 10 25  1  0  0  0
 10 26  1  0  0  0
 11 27  1  0  0  0
 11 28  1  0  0  0
 12 29  1  0  0  0
 12 30  1  0  0  0
 13 31  1  0  0  0
 13 32  1  0  0  0
 14 33  1  0  0  0
 14 34  1  0  0  0
 15 35  1  0  0  0
 15 36  1  0  0  0
 15 37  1  0  0  0
 16 38  1  0  0  0
 17 39  1  0  0  0
 17 40  1  0  0  0
 18 41  1  0  0  0
 18 42  1  0  0  0
 19 43  1  0  0  0
 19 44  1  0  0  0
 20 45  1  0  0  0
 20 46  1  0  0  0
 21 47  1  0  0  0
 21 48  1  0  0  0
M  END
$$$$
