3q3t_ligand
  -I-interpret- 

 76 79  0  0  0  0  0  0  0  0999 V2000
   31.1750   -8.8950  -11.7870 C   0  0  0  0  0
   30.8990   -7.8080  -10.9530 C   0  0  0  0  0
   31.2940  -10.1550  -11.2310 C   0  0  0  0  0
   30.7110   -7.9480   -9.5790 C   0  0  0  0  0
   31.1040  -10.3190   -9.8500 C   0  0  0  0  0
   30.8150   -9.2150   -9.0290 C   0  0  0  0  0
   26.1160  -10.6720  -11.0730 C   0  0  0  0  0
   25.8160  -11.7320  -10.5630 O   0  0  0  0  0
   26.2820  -10.6500  -12.4560 N   0  0  0  0  0
   28.1400  -12.0150  -13.4030 C   0  0  0  0  0
   28.4500  -10.7570  -14.2290 C   0  0  0  0  0
   28.3950   -9.5270  -13.3300 C   0  0  0  0  0
   26.9360   -9.3990  -12.9620 C   0  0  0  0  0
   26.6640  -11.9720  -13.0430 C   0  0  0  0  0
   28.9720   -8.2640  -14.0070 C   0  0  0  0  0
   28.2980   -8.1370  -15.2600 O   0  0  0  0  0
   30.4710   -8.4240  -14.2400 C   0  0  0  0  0
   30.9230   -8.3120  -15.5630 C   0  0  0  0  0
   31.4210   -8.7160  -13.2470 C   0  0  0  0  0
   32.2520   -8.4540  -15.9370 C   0  0  0  0  0
   32.7600   -8.8600  -13.6230 C   0  0  0  0  0
   33.1790   -8.7350  -14.9500 C   0  0  0  0  0
   28.6820   -6.9280  -13.3140 C   0  0  0  0  0
   29.4470   -5.7800  -13.9850 C   0  0  0  0  0
   29.1030   -4.4460  -13.3550 C   0  0  0  0  0
   27.6300   -4.1270  -13.5990 C   0  0  0  0  0
   27.3820   -2.7410  -13.3620 O   0  0  0  0  0
   26.0030   -2.3890  -13.5200 C   0  0  0  0  0
   27.4560   -8.9920   -9.5520 C   0  0  0  0  0
   27.0040   -8.1330   -8.3780 C   0  0  0  0  0
   25.4820   -8.1440   -8.3510 C   0  0  0  0  0
   25.1560   -9.4170   -9.0750 C   0  0  0  0  0
   26.1510   -9.3870  -10.2320 C   0  0  0  0  0
   27.4990   -8.6730   -7.1270 O   0  0  0  0  0
   24.9070   -8.1620   -6.9790 N   0  3  0  0  0
   30.8281   -6.8135  -11.3935 H   0  0  0  0  0
   31.5331  -11.0131  -11.8591 H   0  0  0  0  0
   30.4880   -7.0833   -8.9539 H   0  0  0  0  0
   31.1814  -11.3130   -9.4094 H   0  0  0  0  0
   30.6725   -9.3563   -7.9576 H   0  0  0  0  0
   28.7520  -12.0397  -12.5014 H   0  0  0  0  0
   28.3666  -12.9136  -13.9769 H   0  0  0  0  0
   27.7125  -10.6563  -15.0253 H   0  0  0  0  0
   29.4467  -10.8447  -14.6614 H   0  0  0  0  0
   29.0227   -9.6347  -12.4454 H   0  0  0  0  0
   26.8845   -8.6733  -12.1504 H   0  0  0  0  0
   26.4098   -9.1230  -13.8758 H   0  0  0  0  0
   26.0820  -12.1279  -13.9514 H   0  0  0  0  0
   26.4657  -12.7484  -12.3041 H   0  0  0  0  0
   28.6250   -7.3608  -15.7207 H   0  0  0  0  0
   30.1893   -8.1016  -16.3412 H   0  0  0  0  0
   32.5562   -8.3472  -16.9782 H   0  0  0  0  0
   33.5022   -9.0771  -12.8548 H   0  0  0  0  0
   34.2313   -8.8584  -15.2060 H   0  0  0  0  0
   29.0005   -6.9983  -12.2739 H   0  0  0  0  0
   27.6137   -6.7233  -13.3845 H   0  0  0  0  0
   29.1696   -5.7477  -15.0386 H   0  0  0  0  0
   30.5155   -5.9565  -13.8615 H   0  0  0  0  0
   29.7204   -3.6659  -13.8003 H   0  0  0  0  0
   29.2896   -4.4940  -12.2822 H   0  0  0  0  0
   27.0182   -4.7210  -12.9200 H   0  0  0  0  0
   27.3795   -4.3634  -14.6331 H   0  0  0  0  0
   25.6859   -2.6153  -14.5380 H   0  0  0  0  0
   25.4002   -2.9611  -12.8147 H   0  0  0  0  0
   25.8769   -1.3236  -13.3271 H   0  0  0  0  0
   28.0388   -9.8569   -9.2351 H   0  0  0  0  0
   28.1302   -8.4592  -10.2225 H   0  0  0  0  0
   27.3918   -7.1212   -8.4959 H   0  0  0  0  0
   25.0633   -7.2419   -8.7970 H   0  0  0  0  0
   24.1172   -9.4752   -9.4001 H   0  0  0  0  0
   25.2474  -10.3051   -8.4497 H   0  0  0  0  0
   25.9323   -8.6689  -11.0223 H   0  0  0  0  0
   27.2037   -8.1183   -6.4012 H   0  0  0  0  0
   23.8888   -8.1686   -7.0384 H   0  0  0  0  0
   25.2256   -8.9980   -6.4891 H   0  0  0  0  0
   25.2138   -7.3317   -6.4721 H   0  0  0  0  0
  1  2  4  0  0  0
  1  3  4  0  0  0
 19  1  1  0  0  0
  2  4  4  0  0  0
  3  5  4  0  0  0
  4  6  4  0  0  0
  5  6  4  0  0  0
  7  8  2  0  0  0
  7  9  1  0  0  0
 33  7  1  0  0  0
  9 13  1  0  0  0
  9 14  1  0  0  0
 10 11  1  0  0  0
 14 10  1  0  0  0
 12 11  1  0  0  0
 13 12  1  0  0  0
 12 15  1  0  0  0
 15 16  1  0  0  0
 15 17  1  0  0  0
 15 23  1  0  0  0
 17 18  4  0  0  0
 17 19  4  0  0  0
 18 20  4  0  0  0
 19 21  4  0  0  0
 20 22  4  0  0  0
 21 22  4  0  0  0
 23 24  1  0  0  0
 24 25  1  0  0  0
 25 26  1  0  0  0
 26 27  1  0  0  0
 27 28  1  0  0  0
 29 30  1  0  0  0
 29 33  1  0  0  0
 30 31  1  0  0  0
 30 34  1  0  0  0
 31 32  1  0  0  0
 31 35  1  0  0  0
 32 33  1  0  0  0
  2 36  1  0  0  0
  3 37  1  0  0  0
  4 38  1  0  0  0
  5 39  1  0  0  0
  6 40  1  0  0  0
 10 41  1  0  0  0
 10 42  1  0  0  0
 11 43  1  0  0  0
 11 44  1  0  0  0
 12 45  1  0  0  0
 13 46  1  0  0  0
 13 47  1  0  0  0
 14 48  1  0  0  0
 14 49  1  0  0  0
 16 50  1  0  0  0
 18 51  1  0  0  0
 20 52  1  0  0  0
 21 53  1  0  0  0
 22 54  1  0  0  0
 23 55  1  0  0  0
 23 56  1  0  0  0
 24 57  1  0  0  0
 24 58  1  0  0  0
 25 59  1  0  0  0
 25 60  1  0  0  0
 26 61  1  0  0  0
 26 62  1  0  0  0
 28 63  1  0  0  0
 28 64  1  0  0  0
 28 65  1  0  0  0
 29 66  1  0  0  0
 29 67  1  0  0  0
 30 68  1  0  0  0
 31 69  1  0  0  0
 32 70  1  0  0  0
 32 71  1  0  0  0
 33 72  1  0  0  0
 34 73  1  0  0  0
 35 74  1  0  0  0
 35 75  1  0  0  0
 35 76  1  0  0  0
M  END
$$$$
