4pnw_ligand
  -I-interpret- 

 55 58  0  0  0  0  0  0  0  0999 V2000
   39.7770   11.9910   45.6490 C   0  0  0  0  0
   40.2510   13.3390   45.0850 C   0  0  0  0  0
   40.9220   14.0980   46.2220 C   0  0  0  0  0
   41.7640   15.2710   45.6620 C   0  0  0  0  0
   42.6790   14.9790   44.8560 O   0  0  0  0  0
   41.5100   16.4280   46.0670 O   0  0  0  0  0
   39.8440   14.5660   47.1600 C   0  0  0  0  0
   38.9690   13.4810   47.4490 C   0  0  0  0  0
   38.9230   12.3030   46.7580 C   0  0  0  0  0
   37.9710   11.5390   47.3230 C   0  0  0  0  0
   37.5370   10.2980   47.0280 C   0  0  0  0  0
   36.5160    9.7060   47.7680 C   0  0  0  0  0
   35.8170    7.9630   47.4370 Br  0  0  0  0  0
   35.9790   10.4270   48.8160 C   0  0  0  0  0
   36.4540   11.6970   49.0920 C   0  0  0  0  0
   37.4330   12.2280   48.3430 C   0  0  0  0  0
   38.0350   13.4170   48.4170 N   0  0  0  0  0
   37.6960   14.4810   49.4580 C   0  0  0  0  0
   36.9450   15.6790   48.8380 C   0  0  0  0  0
   37.1710   16.8200   49.2230 O   0  0  0  0  0
   36.0380   15.3900   47.8960 N   0  0  0  0  0
   35.2490   16.4140   47.1580 C   0  0  0  0  0
   33.9310   16.6400   47.8850 C   0  0  0  0  0
   33.2750   15.6290   48.2090 O   0  0  0  0  0
   33.6270   17.8230   48.1230 O   0  0  0  0  0
   35.0380   15.8210   45.7870 C   0  0  0  0  0
   35.9380   16.1820   44.7770 C   0  0  0  0  0
   37.2490   16.5760   45.0790 C   0  0  0  0  0
   38.1570   16.8640   44.0680 C   0  0  0  0  0
   37.7650   16.7300   42.7440 C   0  0  0  0  0
   36.4740   16.3100   42.4330 C   0  0  0  0  0
   35.5650   16.0210   43.4470 C   0  0  0  0  0
   40.6208   11.3761   45.9621 H   0  0  0  0  0
   39.2460   11.4123   44.8932 H   0  0  0  0  0
   39.4074   13.9066   44.6924 H   0  0  0  0  0
   40.9507   13.1846   44.2636 H   0  0  0  0  0
   41.6134   13.4558   46.7676 H   0  0  0  0  0
   42.6756   14.0319   44.6992 H   0  0  0  0  0
   39.2810   15.3751   46.6946 H   0  0  0  0  0
   40.2955   14.9270   48.0841 H   0  0  0  0  0
   37.9899    9.7511   46.2010 H   0  0  0  0  0
   35.1832    9.9970   49.4242 H   0  0  0  0  0
   36.0322   12.2674   49.9195 H   0  0  0  0  0
   38.6288   14.8482   49.8860 H   0  0  0  0  0
   37.0514   14.0276   50.2110 H   0  0  0  0  0
   35.8781   14.4082   47.6705 H   0  0  0  0  0
   35.7434   17.3831   47.0908 H   0  0  0  0  0
   33.7316   14.8414   47.9042 H   0  0  0  0  0
   34.0661   16.1877   45.4567 H   0  0  0  0  0
   35.1568   14.7448   45.9129 H   0  0  0  0  0
   37.5599   16.6574   46.1206 H   0  0  0  0  0
   39.1673   17.1920   44.3125 H   0  0  0  0  0
   38.4703   16.9543   41.9438 H   0  0  0  0  0
   36.1738   16.2070   41.3902 H   0  0  0  0  0
   34.5635   15.6694   43.1991 H   0  0  0  0  0
  1  2  1  0  0  0
  1  9  1  0  0  0
  2  3  1  0  0  0
  3  4  1  0  0  0
  3  7  1  0  0  0
  4  5  1  0  0  0
  4  6  2  0  0  0
  7  8  1  0  0  0
  8  9  4  0  0  0
  8 17  4  0  0  0
  9 10  4  0  0  0
 10 11  4  0  0  0
 10 16  4  0  0  0
 11 12  4  0  0  0
 12 13  1  0  0  0
 12 14  4  0  0  0
 14 15  4  0  0  0
 15 16  4  0  0  0
 16 17  4  0  0  0
 17 18  1  0  0  0
 18 19  1  0  0  0
 19 20  2  0  0  0
 19 21  1  0  0  0
 21 22  1  0  0  0
 22 23  1  0  0  0
 22 26  1  0  0  0
 23 24  1  0  0  0
 23 25  2  0  0  0
 26 27  1  0  0  0
 27 28  4  0  0  0
 27 32  4  0  0  0
 28 29  4  0  0  0
 29 30  4  0  0  0
 30 31  4  0  0  0
 31 32  4  0  0  0
  1 33  1  0  0  0
  1 34  1  0  0  0
  2 35  1  0  0  0
  2 36  1  0  0  0
  3 37  1  0  0  0
  5 38  1  0  0  0
  7 39  1  0  0  0
  7 40  1  0  0  0
 11 41  1  0  0  0
 14 42  1  0  0  0
 15 43  1  0  0  0
 18 44  1  0  0  0
 18 45  1  0  0  0
 21 46  1  0  0  0
 22 47  1  0  0  0
 24 48  1  0  0  0
 26 49  1  0  0  0
 26 50  1  0  0  0
 28 51  1  0  0  0
 29 52  1  0  0  0
 30 53  1  0  0  0
 31 54  1  0  0  0
 32 55  1  0  0  0
M  END
$$$$
