5xqx_ligand
  -I-interpret- 

 25 26  0  0  0  0  0  0  0  0999 V2000
   -8.2890  -10.9830   11.0210 C   0  0  0  0  0
   -9.0950   -9.9660   11.6290 C   0  0  0  0  0
   -3.3490  -15.8340   11.9360 C   0  0  0  0  0
   -4.4110  -14.8500   11.8450 N   0  0  0  0  0
   -5.3390  -14.6260   12.9250 C   0  0  0  0  0
   -5.3220  -15.2220   13.9840 O   0  0  0  0  0
   -6.3780  -13.5800   12.7420 C   0  0  0  0  0
   -6.6290  -12.8470   11.5750 C   0  0  0  0  0
   -7.6980  -12.0050   11.8830 C   0  0  0  0  0
   -8.0380  -12.2070   13.2500 C   0  0  0  0  0
   -7.2220  -13.1920   13.7470 N   0  0  0  0  0
   -7.9630  -10.8720    9.6650 C   0  0  0  0  0
   -8.5230   -9.7740    8.9530 C   0  0  0  0  0
   -9.3420   -8.8490    9.5640 N   0  0  0  0  0
   -9.6240   -8.9070   10.8860 C   0  0  0  0  0
   -9.3007  -10.0197   12.6981 H   0  0  0  0  0
   -2.6953  -15.5850   12.7720 H   0  0  0  0  0
   -3.7828  -16.8214   12.0940 H   0  0  0  0  0
   -2.7736  -15.8324   11.0102 H   0  0  0  0  0
   -4.5039  -14.3000   10.9910 H   0  0  0  0  0
   -6.0998  -12.9193   10.6249 H   0  0  0  0  0
   -8.8102  -11.6736   13.8044 H   0  0  0  0  0
   -7.3094  -11.5941    9.1756 H   0  0  0  0  0
   -8.2973   -9.6613    7.8926 H   0  0  0  0  0
  -10.2472   -8.1480   11.3590 H   0  0  0  0  0
  1  2  4  0  0  0
  9  1  1  0  0  0
  1 12  4  0  0  0
  2 15  4  0  0  0
  4  3  1  0  0  0
  5  4  1  0  0  0
  5  6  2  0  0  0
  7  5  1  0  0  0
  8  7  4  0  0  0
  7 11  4  0  0  0
  8  9  4  0  0  0
  9 10  4  0  0  0
 10 11  4  0  0  0
 12 13  4  0  0  0
 13 14  4  0  0  0
 14 15  4  0  0  0
  2 16  1  0  0  0
  3 17  1  0  0  0
  3 18  1  0  0  0
  3 19  1  0  0  0
  4 20  1  0  0  0
  8 21  1  0  0  0
 10 22  1  0  0  0
 12 23  1  0  0  0
 13 24  1  0  0  0
 15 25  1  0  0  0
M  END
$$$$
