2pym_ligand
  -I-interpret- 

 86 89  0  0  0  0  0  0  0  0999 V2000
  -12.5400   13.3380   27.2400 C   0  0  0  0  0
  -12.4480   12.6130   28.5900 C   0  0  0  0  0
  -12.7700   11.1170   28.4870 C   0  0  0  0  0
  -11.9820   10.4270   27.3720 C   0  0  0  0  0
  -12.2160   11.1380   26.0400 C   0  0  0  0  0
  -11.7940   12.6050   26.1160 C   0  0  0  0  0
  -10.7090   14.8840   27.9500 N   0  3  0  0  0
  -10.6670   14.2680   29.2940 C   0  0  0  0  0
  -11.0810   12.7960   29.2490 C   0  0  0  0  0
  -12.0630   14.7930   27.3530 C   0  0  0  0  0
   -9.2770   14.2950   29.8530 C   0  0  0  0  0
   -9.2130   14.7750   31.0900 N   0  0  0  0  0
   -8.0610   14.8160   31.9800 C   0  0  0  0  0
   -7.0700   15.8350   31.4450 C   0  0  0  0  0
   -7.4290   13.4390   32.1200 C   0  0  0  0  0
   -8.5490   15.2460   33.3600 C   0  0  0  0  0
   -8.3330   13.8840   29.1880 O   0  0  0  0  0
  -10.2870   16.2970   28.0250 C   0  0  0  0  0
   -9.7560   16.7650   26.6710 C   0  0  0  0  0
   -8.2800   16.4270   26.4760 C   0  0  0  0  0
  -10.0180   18.1690   26.4750 O   0  0  0  0  0
   -7.9760   16.6250   25.0750 N   0  0  0  0  0
   -7.3320   17.2570   27.3410 C   0  0  0  0  0
   -7.8750   15.6400   24.1820 C   0  0  0  0  0
   -8.0710   14.4600   24.4290 O   0  0  0  0  0
   -7.4770   16.0430   22.8020 C   0  0  0  0  0
   -6.2730   16.7280   22.6160 C   0  0  0  0  0
   -5.8600   17.1280   21.3480 C   0  0  0  0  0
   -6.6350   16.8630   20.2180 C   0  0  0  0  0
   -7.8480   16.1880   20.3090 C   0  0  0  0  0
   -8.3420   15.7450   21.6330 C   0  0  0  0  0
   -8.5760   15.9540   19.1890 O   0  0  0  0  0
   -9.6550   15.0010   21.7720 C   0  0  0  0  0
   -5.7610   16.4590   27.4510 S   0  0  0  0  0
   -4.7910   17.1020   26.2050 C   0  0  0  0  0
   -3.7200   16.3670   25.6930 C   0  0  0  0  0
   -2.9280   16.8950   24.6700 C   0  0  0  0  0
   -3.1990   18.1610   24.1510 C   0  0  0  0  0
   -4.2710   18.9000   24.6530 C   0  0  0  0  0
   -5.0570   18.3730   25.6800 C   0  0  0  0  0
  -13.5955   13.3405   26.9678 H   0  0  0  0  0
  -13.2077   13.0795   29.2171 H   0  0  0  0  0
  -13.8318   11.0150   28.2628 H   0  0  0  0  0
  -12.4985   10.6475   29.4325 H   0  0  0  0  0
  -12.3161    9.3929   27.2872 H   0  0  0  0  0
  -10.9195   10.4622   27.6126 H   0  0  0  0  0
  -13.2791   11.0932   25.8034 H   0  0  0  0  0
  -11.6208   10.6438   25.2722 H   0  0  0  0  0
  -10.7243   12.6498   26.3207 H   0  0  0  0  0
  -12.0331   13.0860   25.1676 H   0  0  0  0  0
  -10.0643   14.3685   27.3508 H   0  0  0  0  0
  -11.3546   14.8453   29.9121 H   0  0  0  0  0
  -10.3417   12.2491   28.6638 H   0  0  0  0  0
  -11.1405   12.4246   30.2720 H   0  0  0  0  0
  -12.7580   15.3323   27.9966 H   0  0  0  0  0
  -12.0248   15.2197   26.3507 H   0  0  0  0  0
  -10.0791   15.1635   31.4632 H   0  0  0  0  0
   -6.7551   15.5425   30.4433 H   0  0  0  0  0
   -7.5444   16.8156   31.4063 H   0  0  0  0  0
   -6.2018   15.8757   32.1028 H   0  0  0  0  0
   -8.1623   12.7440   32.5291 H   0  0  0  0  0
   -7.1020   13.0895   31.1407 H   0  0  0  0  0
   -6.5716   13.5006   32.7902 H   0  0  0  0  0
   -9.0080   16.2322   33.2906 H   0  0  0  0  0
   -9.2827   14.5272   33.7248 H   0  0  0  0  0
   -7.7037   15.2848   34.0471 H   0  0  0  0  0
   -9.4967   16.3931   28.7695 H   0  0  0  0  0
  -11.1446   16.9101   28.3019 H   0  0  0  0  0
  -10.2966   16.2136   25.9017 H   0  0  0  0  0
   -8.1238   15.3950   26.7902 H   0  0  0  0  0
   -9.6766   18.4408   25.6199 H   0  0  0  0  0
   -7.8294   17.5805   24.7494 H   0  0  0  0  0
   -7.7541   17.3576   28.3409 H   0  0  0  0  0
   -7.2037   18.2410   26.8901 H   0  0  0  0  0
   -5.6463   16.9530   23.4789 H   0  0  0  0  0
   -4.9141   17.6578   21.2358 H   0  0  0  0  0
   -6.2815   17.1927   19.2410 H   0  0  0  0  0
   -9.3785   15.4821   19.4231 H   0  0  0  0  0
   -9.4687   14.0137   22.1947 H   0  0  0  0  0
  -10.3199   15.5600   22.4304 H   0  0  0  0  0
  -10.1174   14.8961   20.7905 H   0  0  0  0  0
   -3.5007   15.3770   26.0930 H   0  0  0  0  0
   -2.0940   16.3145   24.2755 H   0  0  0  0  0
   -2.5759   18.5715   23.3564 H   0  0  0  0  0
   -4.4942   19.8857   24.2447 H   0  0  0  0  0
   -5.8868   18.9574   26.0775 H   0  0  0  0  0
  1  2  1  0  0  0
  1  6  1  0  0  0
 10  1  1  0  0  0
  2  3  1  0  0  0
  2  9  1  0  0  0
  3  4  1  0  0  0
  5  4  1  0  0  0
  6  5  1  0  0  0
  7  8  1  0  0  0
  7 10  1  0  0  0
  7 18  1  0  0  0
  8  9  1  0  0  0
  8 11  1  0  0  0
 11 12  1  0  0  0
 11 17  2  0  0  0
 12 13  1  0  0  0
 13 14  1  0  0  0
 13 15  1  0  0  0
 13 16  1  0  0  0
 18 19  1  0  0  0
 19 20  1  0  0  0
 19 21  1  0  0  0
 20 22  1  0  0  0
 20 23  1  0  0  0
 22 24  1  0  0  0
 23 34  1  0  0  0
 24 25  2  0  0  0
 24 26  1  0  0  0
 26 27  4  0  0  0
 26 31  4  0  0  0
 27 28  4  0  0  0
 28 29  4  0  0  0
 29 30  4  0  0  0
 30 31  4  0  0  0
 30 32  1  0  0  0
 31 33  1  0  0  0
 34 35  1  0  0  0
 35 36  4  0  0  0
 35 40  4  0  0  0
 36 37  4  0  0  0
 37 38  4  0  0  0
 38 39  4  0  0  0
 39 40  4  0  0  0
  1 41  1  0  0  0
  2 42  1  0  0  0
  3 43  1  0  0  0
  3 44  1  0  0  0
  4 45  1  0  0  0
  4 46  1  0  0  0
  5 47  1  0  0  0
  5 48  1  0  0  0
  6 49  1  0  0  0
  6 50  1  0  0  0
  7 51  1  0  0  0
  8 52  1  0  0  0
  9 53  1  0  0  0
  9 54  1  0  0  0
 10 55  1  0  0  0
 10 56  1  0  0  0
 12 57  1  0  0  0
 14 58  1  0  0  0
 14 59  1  0  0  0
 14 60  1  0  0  0
 15 61  1  0  0  0
 15 62  1  0  0  0
 15 63  1  0  0  0
 16 64  1  0  0  0
 16 65  1  0  0  0
 16 66  1  0  0  0
 18 67  1  0  0  0
 18 68  1  0  0  0
 19 69  1  0  0  0
 20 70  1  0  0  0
 21 71  1  0  0  0
 22 72  1  0  0  0
 23 73  1  0  0  0
 23 74  1  0  0  0
 27 75  1  0  0  0
 28 76  1  0  0  0
 29 77  1  0  0  0
 32 78  1  0  0  0
 33 79  1  0  0  0
 33 80  1  0  0  0
 33 81  1  0  0  0
 36 82  1  0  0  0
 37 83  1  0  0  0
 38 84  1  0  0  0
 39 85  1  0  0  0
 40 86  1  0  0  0
M  END
$$$$
