2xs0_ligand
  -I-interpret- 

212215  0  0  0  0  0  0  0  0999 V2000
  -11.9180   33.2340   24.6760 N   0  3  0  0  0
  -12.2110   32.0140   23.9270 C   0  0  0  0  0
  -11.7560   32.1170   22.4670 C   0  0  0  0  0
  -12.0780   33.0880   21.7810 O   0  0  0  0  0
  -13.7040   31.6840   24.0170 C   0  0  0  0  0
  -14.5920   32.8930   24.2830 C   0  0  0  0  0
  -16.0460   32.4870   24.5060 C   0  0  0  0  0
  -16.2420   31.7690   25.7660 N   0  0  0  0  0
  -17.3850   31.1960   26.1340 C   0  0  0  0  0
  -18.4430   31.2480   25.3350 N   0  0  0  0  0
  -17.4710   30.5650   27.2990 N   0  0  0  0  0
  -11.0060   31.1090   21.9860 N   0  0  0  0  0
  -10.4370   31.1530   20.6320 C   0  0  0  0  0
  -11.5250   31.2450   19.5720 C   0  0  0  0  0
  -12.6240   30.7240   19.7750 O   0  0  0  0  0
   -9.6840   29.8220   20.5200 C   0  0  0  0  0
  -10.3540   28.9250   21.5050 C   0  0  0  0  0
  -10.7660   29.8130   22.6440 C   0  0  0  0  0
  -11.2190   31.9050   18.4580 N   0  0  0  0  0
  -12.2100   32.1470   17.4100 C   0  0  0  0  0
  -12.3970   30.9390   16.4980 C   0  0  0  0  0
  -11.4360   30.2680   16.1250 O   0  0  0  0  0
  -11.8410   33.3850   16.5850 C   0  0  0  0  0
  -12.8580   33.7040   15.6510 O   0  0  0  0  0
  -13.6490   30.6840   16.1440 N   0  0  0  0  0
  -14.0290   29.5360   15.3350 C   0  0  0  0  0
  -14.3960   29.9670   13.9130 C   0  0  0  0  0
  -14.8170   29.1470   13.0990 O   0  0  0  0  0
  -15.1980   28.8200   16.0160 C   0  0  0  0  0
  -15.4030   29.3160   17.4500 C   0  0  0  0  0
  -15.7500   28.2200   18.4550 C   0  0  0  0  0
  -17.1910   28.0700   18.6400 N   0  0  0  0  0
  -17.7560   27.5260   19.7140 C   0  0  0  0  0
  -17.0090   27.0870   20.7170 N   0  0  0  0  0
  -19.0760   27.4270   19.7900 N   0  0  0  0  0
  -14.2030   31.2540   13.6240 N   0  0  0  0  0
  -14.5930   31.8670   12.3480 C   0  0  0  0  0
  -13.8300   31.3820   11.1170 C   0  0  0  0  0
  -14.3990   31.2540   10.0330 O   0  0  0  0  0
  -14.4570   33.3870   12.4330 C   0  0  0  0  0
  -15.5210   34.0170   13.2950 C   0  0  0  0  0
  -15.3530   34.0280   14.5330 O   0  0  0  0  0
  -16.5240   34.5060   12.7320 O   0  0  0  0  0
  -12.5390   31.1330   11.2850 N   0  0  0  0  0
  -11.6770   30.7580   10.1710 C   0  0  0  0  0
  -11.6480   29.2460    9.9070 C   0  0  0  0  0
  -11.1290   28.8080    8.8830 O   0  0  0  0  0
  -10.2600   31.2410   10.4520 C   0  0  0  0  0
   -9.6510   30.6130   11.6650 C   0  0  0  0  0
   -9.9890   30.9910   12.9470 N   0  0  0  0  0
   -8.7360   29.6230   11.7930 C   0  0  0  0  0
   -9.3050   30.2650   13.8120 C   0  0  0  0  0
   -8.5370   29.4270   13.1380 N   0  0  0  0  0
  -12.1810   28.4520   10.8360 N   0  0  0  0  0
  -12.1960   27.0000   10.6800 C   0  0  0  0  0
  -12.9210   26.5870    9.4040 C   0  0  0  0  0
  -14.0980   26.8980    9.2180 O   0  0  0  0  0
  -12.8360   26.3240   11.8930 C   0  0  0  0  0
  -12.1510   26.6790   13.2130 C   0  0  0  0  0
  -12.9250   26.1470   14.4110 C   0  0  0  0  0
  -10.7130   26.1820   13.2220 C   0  0  0  0  0
  -12.2090   25.8750    8.5350 N   0  0  0  0  0
  -12.7310   25.5100    7.2230 C   0  0  0  0  0
  -12.4010   24.0690    6.8040 C   0  0  0  0  0
  -11.2590   23.6110    6.9160 O   0  0  0  0  0
  -12.2130   26.4910    6.1670 C   0  0  0  0  0
  -12.6670   26.1700    4.7640 C   0  0  0  0  0
  -13.9530   26.4960    4.3360 C   0  0  0  0  0
  -11.8140   25.5400    3.8630 C   0  0  0  0  0
  -14.3760   26.2030    3.0530 C   0  0  0  0  0
  -12.2290   25.2450    2.5760 C   0  0  0  0  0
  -13.5070   25.5770    2.1780 C   0  0  0  0  0
  -13.9170   25.2820    0.9020 O   0  0  0  0  0
  -13.4170   23.3610    6.3270 N   0  0  0  0  0
  -13.2270   22.0570    5.7070 C   0  0  0  0  0
  -13.5610   22.1670    4.2210 C   0  0  0  0  0
  -14.6610   22.5870    3.8580 O   0  0  0  0  0
  -14.1070   21.0020    6.3830 C   0  0  0  0  0
  -13.8170   20.7370    7.8670 C   0  0  0  0  0
  -14.7840   19.7160    8.4350 C   0  0  0  0  0
  -12.3870   20.2700    8.0610 C   0  0  0  0  0
  -12.6070   21.7990    3.3540 N   0  0  0  0  0
  -12.7580   21.9530    1.9030 C   0  0  0  0  0
  -13.7570   20.9500    1.3300 C   0  0  0  0  0
  -13.3610   20.0020    0.6560 O   0  0  0  0  0
  -11.3540   21.6620    1.3810 C   0  0  0  0  0
  -10.7780   20.7260    2.3870 C   0  0  0  0  0
  -11.3380   21.1420    3.7140 C   0  0  0  0  0
  -15.0420   21.1800    1.5900 N   0  0  0  0  0
  -16.1010   20.2450    1.2300 C   0  0  0  0  0
  -16.9980   20.8040    0.1300 C   0  0  0  0  0
  -17.5940   20.0480   -0.6410 O   0  0  0  0  0
  -16.9550   19.9350    2.4630 C   0  0  0  0  0
  -16.2390   19.3470    3.6770 C   0  0  0  0  0
  -17.0990   19.4660    4.9190 C   0  0  0  0  0
  -15.8770   17.8980    3.4220 C   0  0  0  0  0
  -17.0950   22.1300    0.0730 N   0  0  0  0  0
  -17.9850   22.8190   -0.8610 C   0  0  0  0  0
  -17.8620   22.3200   -2.3030 C   0  0  0  0  0
  -18.8630   22.1830   -3.0080 O   0  0  0  0  0
  -17.7350   24.3270   -0.8060 C   0  0  0  0  0
  -18.0560   24.9560    0.5390 C   0  0  0  0  0
  -17.3290   26.2690    0.7560 C   0  0  0  0  0
  -17.8730   27.1470    1.4620 O   0  0  0  0  0
  -16.2060   26.4160    0.2270 O   0  0  0  0  0
  -16.7690   22.0410   -2.7990 O   0  0  0  0  0
  -10.9218   33.4423   24.6080 H   0  0  0  0  0
  -12.4558   34.0082   24.2863 H   0  0  0  0  0
  -12.1726   33.1002   25.6546 H   0  0  0  0  0
  -11.6448   31.1997   24.3791 H   0  0  0  0  0
  -13.8332   30.9980   24.8541 H   0  0  0  0  0
  -14.0019   31.2702   23.0536 H   0  0  0  0  0
  -14.5481   33.5493   23.4139 H   0  0  0  0  0
  -14.2327   33.3917   25.1832 H   0  0  0  0  0
  -16.3377   31.8230   23.6923 H   0  0  0  0  0
  -16.6468   33.3958   24.5405 H   0  0  0  0  0
  -15.4495   31.7035   26.4047 H   0  0  0  0  0
  -18.3809   31.7278   24.4370 H   0  0  0  0  0
  -18.3475   30.1231   27.5762 H   0  0  0  0  0
  -16.6606   30.5222   27.9169 H   0  0  0  0  0
   -9.8013   32.0242   20.4740 H   0  0  0  0  0
   -8.6209   29.9368   20.7315 H   0  0  0  0  0
   -9.7221   29.4167   19.5089 H   0  0  0  0  0
   -9.6863   28.1312   21.8398 H   0  0  0  0  0
  -11.2124   28.4187   21.0636 H   0  0  0  0  0
  -11.6426   29.4402   23.1737 H   0  0  0  0  0
  -10.0108   29.8714   23.4278 H   0  0  0  0  0
  -10.2680   32.2514   18.3315 H   0  0  0  0  0
  -13.1610   32.3261   17.9116 H   0  0  0  0  0
  -10.9214   33.1760   16.0384 H   0  0  0  0  0
  -11.7160   34.2290   17.2633 H   0  0  0  0  0
  -12.5990   34.4813   15.1507 H   0  0  0  0  0
  -14.3809   31.3233   16.4537 H   0  0  0  0  0
  -13.1853   28.8508   15.2533 H   0  0  0  0  0
  -14.9771   27.7531   16.0485 H   0  0  0  0  0
  -16.1054   29.0239   15.4476 H   0  0  0  0  0
  -16.2439   30.0093   17.4308 H   0  0  0  0  0
  -14.4604   29.7581   17.7726 H   0  0  0  0  0
  -15.3133   28.4929   19.4157 H   0  0  0  0  0
  -15.3590   27.2767   18.0736 H   0  0  0  0  0
  -17.8042   28.4044   17.8967 H   0  0  0  0  0
  -15.9932   27.1652   20.6686 H   0  0  0  0  0
  -19.5098   27.0153   20.6162 H   0  0  0  0  0
  -19.6576   27.7626   19.0222 H   0  0  0  0  0
  -13.7603   31.8451   14.3276 H   0  0  0  0  0
  -15.6269   31.5530   12.2044 H   0  0  0  0  0
  -14.5597   33.7898   11.4254 H   0  0  0  0  0
  -13.4879   33.6126   12.8779 H   0  0  0  0  0
  -16.4462   34.3874   11.7825 H   0  0  0  0  0
  -12.1376   31.2058   12.2198 H   0  0  0  0  0
  -12.0881   31.2297    9.2785 H   0  0  0  0  0
  -10.3066   32.3161   10.6257 H   0  0  0  0  0
   -9.6432   30.9693    9.5953 H   0  0  0  0  0
   -8.2488   29.0830   10.9811 H   0  0  0  0  0
   -9.3638   30.3435   14.8976 H   0  0  0  0  0
  -12.5872   28.8678   11.6741 H   0  0  0  0  0
  -11.1597   26.6703   10.6059 H   0  0  0  0  0
  -12.7477   25.2464   11.7549 H   0  0  0  0  0
  -13.8689   26.6666   11.9548 H   0  0  0  0  0
  -12.1374   27.7657   13.2973 H   0  0  0  0  0
  -13.9257   26.5791   14.4164 H   0  0  0  0  0
  -12.9969   25.0615   14.3426 H   0  0  0  0  0
  -12.4047   26.4208   15.3288 H   0  0  0  0  0
  -10.7035   25.0990   13.0991 H   0  0  0  0  0
  -10.1642   26.6468   12.4029 H   0  0  0  0  0
  -10.2448   26.4454   14.1704 H   0  0  0  0  0
  -11.2691   25.5751    8.7941 H   0  0  0  0  0
  -13.8170   25.5661    7.2976 H   0  0  0  0  0
  -11.1245   26.4355    6.1775 H   0  0  0  0  0
  -12.6050   27.4765    6.4183 H   0  0  0  0  0
  -14.6372   26.9908    5.0253 H   0  0  0  0  0
  -10.8040   25.2749    4.1754 H   0  0  0  0  0
  -15.3853   26.4630    2.7339 H   0  0  0  0  0
  -11.5492   24.7528    1.8805 H   0  0  0  0  0
  -13.2009   24.8526    0.4282 H   0  0  0  0  0
  -14.3606   23.7421    6.3968 H   0  0  0  0  0
  -12.1896   21.7444    5.8259 H   0  0  0  0  0
  -13.9172   20.0641    5.8611 H   0  0  0  0  0
  -15.1292   21.3770    6.3324 H   0  0  0  0  0
  -13.9519   21.6750    8.4056 H   0  0  0  0  0
  -15.8033   20.0899    8.3384 H   0  0  0  0  0
  -14.6856   18.7795    7.8860 H   0  0  0  0  0
  -14.5557   19.5474    9.4874 H   0  0  0  0  0
  -12.2280   19.3484    7.5011 H   0  0  0  0  0
  -11.7031   21.0383    7.7003 H   0  0  0  0  0
  -12.2059   20.0889    9.1205 H   0  0  0  0  0
  -13.1384   22.9352    1.6227 H   0  0  0  0  0
  -10.7585   22.5686    1.2738 H   0  0  0  0  0
  -11.3680   21.2323    0.3794 H   0  0  0  0  0
   -9.6890   20.7719    2.3882 H   0  0  0  0  0
  -11.0385   19.6929    2.1570 H   0  0  0  0  0
  -11.4782   20.3010    4.3931 H   0  0  0  0  0
  -10.6663   21.7995    4.2660 H   0  0  0  0  0
  -15.2968   22.0479    2.0615 H   0  0  0  0  0
  -15.6282   19.3366    0.8568 H   0  0  0  0  0
  -17.6703   19.1765    2.1449 H   0  0  0  0  0
  -17.3586   20.8925    2.7922 H   0  0  0  0  0
  -15.3225   19.9134    3.8421 H   0  0  0  0  0
  -17.3131   20.5172    5.1118 H   0  0  0  0  0
  -18.0332   18.9258    4.7656 H   0  0  0  0  0
  -16.5671   19.0403    5.7698 H   0  0  0  0  0
  -16.7852   17.3260    3.2318 H   0  0  0  0  0
  -15.2190   17.8363    2.5552 H   0  0  0  0  0
  -15.3674   17.4929    4.2962 H   0  0  0  0  0
  -16.5247   22.6893    0.7073 H   0  0  0  0  0
  -19.0025   22.5935   -0.5417 H   0  0  0  0  0
  -18.3885   24.7909   -1.5448 H   0  0  0  0  0
  -16.6731   24.4864   -0.9930 H   0  0  0  0  0
  -17.7379   24.2633    1.3181 H   0  0  0  0  0
  -19.1270   25.1563    0.5690 H   0  0  0  0  0
  -18.7261   26.8285    1.7659 H   0  0  0  0  0
  -16.0771   22.1903   -2.1505 H   0  0  0  0  0
  1  2  1  0  0  0
  2  3  1  0  0  0
  2  5  1  0  0  0
  3  4  2  0  0  0
  3 12  1  0  0  0
  5  6  1  0  0  0
  6  7  1  0  0  0
  7  8  1  0  0  0
  8  9  1  0  0  0
  9 10  2  0  0  0
  9 11  1  0  0  0
 12 13  1  0  0  0
 12 18  1  0  0  0
 13 14  1  0  0  0
 13 16  1  0  0  0
 14 15  2  0  0  0
 14 19  1  0  0  0
 16 17  1  0  0  0
 17 18  1  0  0  0
 19 20  1  0  0  0
 20 21  1  0  0  0
 20 23  1  0  0  0
 21 22  2  0  0  0
 21 25  1  0  0  0
 23 24  1  0  0  0
 25 26  1  0  0  0
 26 27  1  0  0  0
 26 29  1  0  0  0
 27 28  2  0  0  0
 27 36  1  0  0  0
 29 30  1  0  0  0
 30 31  1  0  0  0
 31 32  1  0  0  0
 32 33  1  0  0  0
 33 34  2  0  0  0
 33 35  1  0  0  0
 36 37  1  0  0  0
 37 38  1  0  0  0
 37 40  1  0  0  0
 38 39  2  0  0  0
 38 44  1  0  0  0
 40 41  1  0  0  0
 41 42  2  0  0  0
 41 43  1  0  0  0
 44 45  1  0  0  0
 45 46  1  0  0  0
 45 48  1  0  0  0
 46 47  2  0  0  0
 46 54  1  0  0  0
 48 49  1  0  0  0
 49 50  4  0  0  0
 49 51  4  0  0  0
 50 52  4  0  0  0
 51 53  4  0  0  0
 52 53  4  0  0  0
 54 55  1  0  0  0
 55 56  1  0  0  0
 55 58  1  0  0  0
 56 57  2  0  0  0
 56 62  1  0  0  0
 58 59  1  0  0  0
 59 60  1  0  0  0
 59 61  1  0  0  0
 62 63  1  0  0  0
 63 64  1  0  0  0
 63 66  1  0  0  0
 64 65  2  0  0  0
 64 74  1  0  0  0
 66 67  1  0  0  0
 67 68  4  0  0  0
 67 69  4  0  0  0
 68 70  4  0  0  0
 69 71  4  0  0  0
 70 72  4  0  0  0
 71 72  4  0  0  0
 72 73  1  0  0  0
 74 75  1  0  0  0
 75 76  1  0  0  0
 75 78  1  0  0  0
 76 77  2  0  0  0
 76 82  1  0  0  0
 78 79  1  0  0  0
 79 80  1  0  0  0
 79 81  1  0  0  0
 82 83  1  0  0  0
 82 88  1  0  0  0
 83 84  1  0  0  0
 83 86  1  0  0  0
 84 85  2  0  0  0
 84 89  1  0  0  0
 86 87  1  0  0  0
 87 88  1  0  0  0
 89 90  1  0  0  0
 90 91  1  0  0  0
 90 93  1  0  0  0
 91 92  2  0  0  0
 91 97  1  0  0  0
 93 94  1  0  0  0
 94 95  1  0  0  0
 94 96  1  0  0  0
 97 98  1  0  0  0
 98 99  1  0  0  0
 98101  1  0  0  0
 99100  2  0  0  0
 99106  1  0  0  0
101102  1  0  0  0
102103  1  0  0  0
103104  1  0  0  0
103105  2  0  0  0
  1107  1  0  0  0
  1108  1  0  0  0
  1109  1  0  0  0
  2110  1  0  0  0
  5111  1  0  0  0
  5112  1  0  0  0
  6113  1  0  0  0
  6114  1  0  0  0
  7115  1  0  0  0
  7116  1  0  0  0
  8117  1  0  0  0
 10118  1  0  0  0
 11119  1  0  0  0
 11120  1  0  0  0
 13121  1  0  0  0
 16122  1  0  0  0
 16123  1  0  0  0
 17124  1  0  0  0
 17125  1  0  0  0
 18126  1  0  0  0
 18127  1  0  0  0
 19128  1  0  0  0
 20129  1  0  0  0
 23130  1  0  0  0
 23131  1  0  0  0
 24132  1  0  0  0
 25133  1  0  0  0
 26134  1  0  0  0
 29135  1  0  0  0
 29136  1  0  0  0
 30137  1  0  0  0
 30138  1  0  0  0
 31139  1  0  0  0
 31140  1  0  0  0
 32141  1  0  0  0
 34142  1  0  0  0
 35143  1  0  0  0
 35144  1  0  0  0
 36145  1  0  0  0
 37146  1  0  0  0
 40147  1  0  0  0
 40148  1  0  0  0
 43149  1  0  0  0
 44150  1  0  0  0
 45151  1  0  0  0
 48152  1  0  0  0
 48153  1  0  0  0
 51154  1  0  0  0
 52155  1  0  0  0
 54156  1  0  0  0
 55157  1  0  0  0
 58158  1  0  0  0
 58159  1  0  0  0
 59160  1  0  0  0
 60161  1  0  0  0
 60162  1  0  0  0
 60163  1  0  0  0
 61164  1  0  0  0
 61165  1  0  0  0
 61166  1  0  0  0
 62167  1  0  0  0
 63168  1  0  0  0
 66169  1  0  0  0
 66170  1  0  0  0
 68171  1  0  0  0
 69172  1  0  0  0
 70173  1  0  0  0
 71174  1  0  0  0
 73175  1  0  0  0
 74176  1  0  0  0
 75177  1  0  0  0
 78178  1  0  0  0
 78179  1  0  0  0
 79180  1  0  0  0
 80181  1  0  0  0
 80182  1  0  0  0
 80183  1  0  0  0
 81184  1  0  0  0
 81185  1  0  0  0
 81186  1  0  0  0
 83187  1  0  0  0
 86188  1  0  0  0
 86189  1  0  0  0
 87190  1  0  0  0
 87191  1  0  0  0
 88192  1  0  0  0
 88193  1  0  0  0
 89194  1  0  0  0
 90195  1  0  0  0
 93196  1  0  0  0
 93197  1  0  0  0
 94198  1  0  0  0
 95199  1  0  0  0
 95200  1  0  0  0
 95201  1  0  0  0
 96202  1  0  0  0
 96203  1  0  0  0
 96204  1  0  0  0
 97205  1  0  0  0
 98206  1  0  0  0
101207  1  0  0  0
101208  1  0  0  0
102209  1  0  0  0
102210  1  0  0  0
104211  1  0  0  0
106212  1  0  0  0
M  END
$$$$
