### 
### Created by X-TOOL on Mon Sep 10 21:13:06 2018
### 

@<TRIPOS>MOLECULE
2xs0_ligand
  212   215     1     0     0
SMALL
GAST_HUCK


@<TRIPOS>ATOM
      1 N         -11.9180   33.2340   24.6760 N.4       1 ARG         0.2379
      2 CA        -12.2110   32.0140   23.9270 C.3       1 ARG         0.0653
      3 C         -11.7560   32.1170   22.4670 C.2       1 ARG         0.2292
      4 O         -12.0780   33.0880   21.7810 O.2       1 ARG        -0.3905
      5 CB        -13.7040   31.6840   24.0170 C.3       1 ARG         0.0110
      6 CG        -14.5920   32.8930   24.2830 C.3       1 ARG        -0.0125
      7 CD        -16.0460   32.4870   24.5060 C.3       1 ARG         0.0629
      8 NE        -16.2420   31.7690   25.7660 N.pl3     1 ARG        -0.2723
      9 CZ        -17.3850   31.1960   26.1340 C.cat     1 ARG         0.2882
     10 NH1       -18.4430   31.2480   25.3350 N.pl3     1 ARG        -0.2849
     11 NH2       -17.4710   30.5650   27.2990 N.pl3     1 ARG        -0.2849
     12 N         -11.0060   31.1090   21.9860 N.am      1 PRO        -0.2471
     13 CA        -10.4370   31.1530   20.6320 C.3       1 PRO         0.1339
     14 C         -11.5250   31.2450   19.5720 C.2       1 PRO         0.2042
     15 O         -12.6240   30.7240   19.7750 O.2       1 PRO        -0.3944
     16 CB         -9.6840   29.8220   20.5200 C.3       1 PRO        -0.0104
     17 CG        -10.3540   28.9250   21.5050 C.3       1 PRO        -0.0281
     18 CD        -10.7660   29.8130   22.6440 C.3       1 PRO         0.0371
     19 N         -11.2190   31.9050   18.4580 N.am      1 SER        -0.2616
     20 CA        -12.2100   32.1470   17.4100 C.3       1 SER         0.1539
     21 C         -12.3970   30.9390   16.4980 C.2       1 SER         0.2062
     22 O         -11.4360   30.2680   16.1250 O.2       1 SER        -0.3943
     23 CB        -11.8410   33.3850   16.5850 C.3       1 SER         0.0843
     24 OG        -12.8580   33.7040   15.6510 O.3       1 SER        -0.3903
     25 N         -13.6490   30.6840   16.1440 N.am      1 ARG        -0.2637
     26 CA        -14.0290   29.5360   15.3350 C.3       1 ARG         0.1311
     27 C         -14.3960   29.9670   13.9130 C.2       1 ARG         0.2040
     28 O         -14.8170   29.1470   13.0990 O.2       1 ARG        -0.3944
     29 CB        -15.1980   28.8200   16.0160 C.3       1 ARG        -0.0092
     30 CG        -15.4030   29.3160   17.4500 C.3       1 ARG        -0.0156
     31 CD        -15.7500   28.2200   18.4550 C.3       1 ARG         0.0627
     32 NE        -17.1910   28.0700   18.6400 N.pl3     1 ARG        -0.2723
     33 CZ        -17.7560   27.5260   19.7140 C.cat     1 ARG         0.2882
     34 NH1       -17.0090   27.0870   20.7170 N.pl3     1 ARG        -0.2849
     35 NH2       -19.0760   27.4270   19.7900 N.pl3     1 ARG        -0.2849
     36 N         -14.2030   31.2540   13.6240 N.am      1 ASP        -0.2622
     37 CA        -14.5930   31.8670   12.3480 C.3       1 ASP         0.1423
     38 C         -13.8300   31.3820   11.1170 C.2       1 ASP         0.2057
     39 O         -14.3990   31.2540   10.0330 O.2       1 ASP        -0.3943
     40 CB        -14.4570   33.3870   12.4330 C.3       1 ASP         0.0406
     41 CG        -15.5210   34.0170   13.2950 C.2       1 ASP         0.0393
     42 OD1       -15.3530   34.0280   14.5330 O.co2     1 ASP        -0.5688
     43 OD2       -16.5240   34.5060   12.7320 O.co2     1 ASP        -0.5688
     44 N         -12.5390   31.1330   11.2850 N.am      1 HIS        -0.2624
     45 CA        -11.6770   30.7580   10.1710 C.3       1 HIS         0.1369
     46 C         -11.6480   29.2460    9.9070 C.2       1 HIS         0.2054
     47 O         -11.1290   28.8080    8.8830 O.2       1 HIS        -0.3942
     48 CB        -10.2600   31.2410   10.4520 C.3       1 HIS         0.0145
     49 CG         -9.6510   30.6130   11.6650 C.2       1 HIS        -0.0027
     50 ND1        -9.9890   30.9910   12.9470 N.2       1 HIS        -0.3252
     51 CD2        -8.7360   29.6230   11.7930 C.2       1 HIS         0.0291
     52 CE1        -9.3050   30.2650   13.8120 C.2       1 HIS         0.0907
     53 NE2        -8.5370   29.4270   13.1380 N.pl3     1 HIS        -0.2752
     54 N         -12.1810   28.4520   10.8360 N.am      1 LEU        -0.2636
     55 CA        -12.1960   27.0000   10.6800 C.3       1 LEU         0.1312
     56 C         -12.9210   26.5870    9.4040 C.2       1 LEU         0.2040
     57 O         -14.0980   26.8980    9.2180 O.2       1 LEU        -0.3944
     58 CB        -12.8360   26.3240   11.8930 C.3       1 LEU        -0.0101
     59 CG        -12.1510   26.6790   13.2130 C.3       1 LEU        -0.0425
     60 CD1       -12.9250   26.1470   14.4110 C.3       1 LEU        -0.0625
     61 CD2       -10.7130   26.1820   13.2220 C.3       1 LEU        -0.0625
     62 N         -12.2090   25.8750    8.5350 N.am      1 TYR        -0.2621
     63 CA        -12.7310   25.5100    7.2230 C.3       1 TYR         0.1390
     64 C         -12.4010   24.0690    6.8040 C.2       1 TYR         0.2057
     65 O         -11.2590   23.6110    6.9160 O.2       1 TYR        -0.3942
     66 CB        -12.2130   26.4910    6.1670 C.3       1 TYR         0.0163
     67 CG        -12.6670   26.1700    4.7640 C.ar      1 TYR        -0.0493
     68 CD1       -13.9530   26.4960    4.3360 C.ar      1 TYR        -0.0685
     69 CD2       -11.8140   25.5400    3.8630 C.ar      1 TYR        -0.0685
     70 CE1       -14.3760   26.2030    3.0530 C.ar      1 TYR        -0.0398
     71 CE2       -12.2290   25.2450    2.5760 C.ar      1 TYR        -0.0398
     72 CZ        -13.5070   25.5770    2.1780 C.ar      1 TYR         0.0805
     73 OH        -13.9170   25.2820    0.9020 O.3       1 TYR        -0.3376
     74 N         -13.4170   23.3610    6.3270 N.am      1 LEU        -0.2636
     75 CA        -13.2270   22.0570    5.7070 C.3       1 LEU         0.1314
     76 C         -13.5610   22.1670    4.2210 C.2       1 LEU         0.2064
     77 O         -14.6610   22.5870    3.8580 O.2       1 LEU        -0.3942
     78 CB        -14.1070   21.0020    6.3830 C.3       1 LEU        -0.0101
     79 CG        -13.8170   20.7370    7.8670 C.3       1 LEU        -0.0425
     80 CD1       -14.7840   19.7160    8.4350 C.3       1 LEU        -0.0625
     81 CD2       -12.3870   20.2700    8.0610 C.3       1 LEU        -0.0625
     82 N         -12.6070   21.7990    3.3540 N.am      1 PRO        -0.2498
     83 CA        -12.7580   21.9530    1.9030 C.3       1 PRO         0.1338
     84 C         -13.7570   20.9500    1.3300 C.2       1 PRO         0.2041
     85 O         -13.3610   20.0020    0.6560 O.2       1 PRO        -0.3944
     86 CB        -11.3540   21.6620    1.3810 C.3       1 PRO        -0.0104
     87 CG        -10.7780   20.7260    2.3870 C.3       1 PRO        -0.0281
     88 CD        -11.3380   21.1420    3.7140 C.3       1 PRO         0.0369
     89 N         -15.0420   21.1800    1.5900 N.am      1 LEU        -0.2637
     90 CA        -16.1010   20.2450    1.2300 C.3       1 LEU         0.1312
     91 C         -16.9980   20.8040    0.1300 C.2       1 LEU         0.2034
     92 O         -17.5940   20.0480   -0.6410 O.2       1 LEU        -0.3944
     93 CB        -16.9550   19.9350    2.4630 C.3       1 LEU        -0.0101
     94 CG        -16.2390   19.3470    3.6770 C.3       1 LEU        -0.0425
     95 CD1       -17.0990   19.4660    4.9190 C.3       1 LEU        -0.0625
     96 CD2       -15.8770   17.8980    3.4220 C.3       1 LEU        -0.0625
     97 N         -17.0950   22.1300    0.0730 N.am      1 GLU        -0.2694
     98 CA        -17.9850   22.8190   -0.8610 C.3       1 GLU         0.0959
     99 C         -17.8620   22.3200   -2.3030 C.2       1 GLU         0.0602
    100 O         -18.8630   22.1830   -3.0080 O.co2     1 GLU        -0.5666
    101 CB        -17.7350   24.3270   -0.8060 C.3       1 GLU        -0.0064
    102 CG        -18.0560   24.9560    0.5390 C.3       1 GLU         0.0038
    103 CD        -17.3290   26.2690    0.7560 C.2       1 GLU         0.0350
    104 OE1       -17.8730   27.1470    1.4620 O.co2     1 GLU        -0.5690
    105 OE2       -16.2060   26.4160    0.2270 O.co2     1 GLU        -0.5690
    106 OXT       -16.7690   22.0410   -2.7990 O.co2     1 GLU        -0.5666
    107 H         -10.9218   33.4423   24.6080 H         1 ARG         0.2015
    108 H         -12.4558   34.0082   24.2863 H         1 ARG         0.2015
    109 H         -12.1726   33.1002   25.6546 H         1 ARG         0.2015
    110 H         -11.6448   31.1997   24.3791 H         1 ARG         0.1098
    111 H         -13.8332   30.9980   24.8541 H         1 ARG         0.0347
    112 H         -14.0019   31.2702   23.0536 H         1 ARG         0.0347
    113 H         -14.5481   33.5493   23.4139 H         1 ARG         0.0302
    114 H         -14.2327   33.3917   25.1832 H         1 ARG         0.0302
    115 H         -16.3377   31.8230   23.6923 H         1 ARG         0.0689
    116 H         -16.6468   33.3958   24.5405 H         1 ARG         0.0689
    117 H         -15.4495   31.7035   26.4047 H         1 ARG         0.2642
    118 H         -18.3809   31.7278   24.4370 H         1 ARG         0.2615
    119 H         -19.3185   30.8082   25.6187 H         1 ARG         0.2615
    120 H         -16.6593   30.5184   27.9149 H         1 ARG         0.2615
    121 H         -18.3488   30.1268   27.5781 H         1 ARG         0.2615
    122 H          -9.8013   32.0242   20.4740 H         1 PRO         0.0802
    123 H          -8.6209   29.9368   20.7315 H         1 PRO         0.0313
    124 H          -9.7221   29.4167   19.5089 H         1 PRO         0.0313
    125 H          -9.6863   28.1312   21.8398 H         1 PRO         0.0287
    126 H         -11.2124   28.4187   21.0636 H         1 PRO         0.0287
    127 H         -11.6426   29.4402   23.1737 H         1 PRO         0.0524
    128 H         -10.0108   29.8714   23.4278 H         1 PRO         0.0524
    129 H         -10.2680   32.2514   18.3315 H         1 SER         0.1884
    130 H         -13.1610   32.3261   17.9116 H         1 SER         0.0823
    131 H         -10.9214   33.1760   16.0384 H         1 SER         0.0606
    132 H         -11.7160   34.2290   17.2633 H         1 SER         0.0606
    133 H         -13.6768   33.8817   16.1195 H         1 SER         0.2097
    134 H         -14.3809   31.3233   16.4537 H         1 ARG         0.1883
    135 H         -13.1853   28.8508   15.2533 H         1 ARG         0.0800
    136 H         -14.9771   27.7531   16.0485 H         1 ARG         0.0313
    137 H         -16.1054   29.0239   15.4476 H         1 ARG         0.0313
    138 H         -16.2439   30.0093   17.4308 H         1 ARG         0.0301
    139 H         -14.4604   29.7581   17.7726 H         1 ARG         0.0301
    140 H         -15.3133   28.4929   19.4157 H         1 ARG         0.0689
    141 H         -15.3590   27.2767   18.0736 H         1 ARG         0.0689
    142 H         -17.8042   28.4044   17.8967 H         1 ARG         0.2642
    143 H         -15.9932   27.1652   20.6686 H         1 ARG         0.2615
    144 H         -17.4500   26.6710   21.5373 H         1 ARG         0.2615
    145 H         -19.6579   27.7680   19.0248 H         1 ARG         0.2615
    146 H         -19.5096   27.0098   20.6136 H         1 ARG         0.2615
    147 H         -13.7603   31.8451   14.3276 H         1 ASP         0.1884
    148 H         -15.6269   31.5530   12.2044 H         1 ASP         0.0819
    149 H         -14.5597   33.7898   11.4254 H         1 ASP         0.0478
    150 H         -13.4879   33.6126   12.8779 H         1 ASP         0.0478
    151 H         -12.1376   31.2058   12.2198 H         1 HIS         0.1885
    152 H         -12.0881   31.2297    9.2785 H         1 HIS         0.0817
    153 H         -10.3066   32.3161   10.6257 H         1 HIS         0.0420
    154 H          -9.6432   30.9693    9.5953 H         1 HIS         0.0420
    155 H          -8.2488   29.0830   10.9811 H         1 HIS         0.0729
    156 H          -9.3638   30.3435   14.8976 H         1 HIS         0.1199
    157 H          -7.8998   28.7452   13.5497 H         1 HIS         0.2361
    158 H         -12.5872   28.8678   11.6741 H         1 LEU         0.1883
    159 H         -11.1597   26.6703   10.6059 H         1 LEU         0.0800
    160 H         -12.7477   25.2464   11.7549 H         1 LEU         0.0315
    161 H         -13.8689   26.6666   11.9548 H         1 LEU         0.0315
    162 H         -12.1374   27.7657   13.2973 H         1 LEU         0.0298
    163 H         -13.9257   26.5791   14.4164 H         1 LEU         0.0232
    164 H         -12.9969   25.0615   14.3426 H         1 LEU         0.0232
    165 H         -12.4047   26.4208   15.3288 H         1 LEU         0.0232
    166 H         -10.7035   25.0990   13.0991 H         1 LEU         0.0232
    167 H         -10.1642   26.6468   12.4029 H         1 LEU         0.0232
    168 H         -10.2448   26.4454   14.1704 H         1 LEU         0.0232
    169 H         -11.2691   25.5751    8.7941 H         1 TYR         0.1885
    170 H         -13.8170   25.5661    7.2976 H         1 TYR         0.0821
    171 H         -11.1245   26.4355    6.1775 H         1 TYR         0.0453
    172 H         -12.6050   27.4765    6.4183 H         1 TYR         0.0453
    173 H         -14.6372   26.9908    5.0253 H         1 TYR         0.0530
    174 H         -10.8040   25.2749    4.1754 H         1 TYR         0.0530
    175 H         -15.3853   26.4630    2.7339 H         1 TYR         0.0525
    176 H         -11.5492   24.7528    1.8805 H         1 TYR         0.0525
    177 H         -14.8236   25.5745    0.7827 H         1 TYR         0.2458
    178 H         -14.3606   23.7421    6.3968 H         1 LEU         0.1883
    179 H         -12.1896   21.7444    5.8259 H         1 LEU         0.0800
    180 H         -13.9172   20.0641    5.8611 H         1 LEU         0.0315
    181 H         -15.1292   21.3770    6.3324 H         1 LEU         0.0315
    182 H         -13.9519   21.6750    8.4056 H         1 LEU         0.0298
    183 H         -15.8033   20.0899    8.3384 H         1 LEU         0.0232
    184 H         -14.6856   18.7795    7.8860 H         1 LEU         0.0232
    185 H         -14.5557   19.5474    9.4874 H         1 LEU         0.0232
    186 H         -12.2280   19.3484    7.5011 H         1 LEU         0.0232
    187 H         -11.7031   21.0383    7.7003 H         1 LEU         0.0232
    188 H         -12.2059   20.0889    9.1205 H         1 LEU         0.0232
    189 H         -13.1384   22.9352    1.6227 H         1 PRO         0.0802
    190 H         -10.7585   22.5686    1.2738 H         1 PRO         0.0313
    191 H         -11.3680   21.2323    0.3794 H         1 PRO         0.0313
    192 H          -9.6890   20.7719    2.3882 H         1 PRO         0.0287
    193 H         -11.0385   19.6929    2.1570 H         1 PRO         0.0287
    194 H         -11.4782   20.3010    4.3931 H         1 PRO         0.0524
    195 H         -10.6663   21.7995    4.2660 H         1 PRO         0.0524
    196 H         -15.2968   22.0479    2.0615 H         1 LEU         0.1883
    197 H         -15.6282   19.3366    0.8568 H         1 LEU         0.0800
    198 H         -17.6703   19.1765    2.1449 H         1 LEU         0.0315
    199 H         -17.3586   20.8925    2.7922 H         1 LEU         0.0315
    200 H         -15.3225   19.9134    3.8421 H         1 LEU         0.0298
    201 H         -17.3131   20.5172    5.1118 H         1 LEU         0.0232
    202 H         -18.0332   18.9258    4.7656 H         1 LEU         0.0232
    203 H         -16.5671   19.0403    5.7698 H         1 LEU         0.0232
    204 H         -16.7852   17.3260    3.2318 H         1 LEU         0.0232
    205 H         -15.2190   17.8363    2.5552 H         1 LEU         0.0232
    206 H         -15.3674   17.4929    4.2962 H         1 LEU         0.0232
    207 H         -16.5247   22.6893    0.7073 H         1 GLU         0.1875
    208 H         -19.0025   22.5935   -0.5417 H         1 GLU         0.0727
    209 H         -18.3885   24.7909   -1.5448 H         1 GLU         0.0323
    210 H         -16.6731   24.4864   -0.9930 H         1 GLU         0.0323
    211 H         -17.7379   24.2633    1.3181 H         1 GLU         0.0432
    212 H         -19.1270   25.1563    0.5690 H         1 GLU         0.0432
@<TRIPOS>BOND
     1    1    2 1  
     2    2    3 1  
     3    2    5 1  
     4    3    4 2  
     5    3   12 am 
     6    5    6 1  
     7    6    7 1  
     8    7    8 1  
     9    8    9 ar 
    10    9   10 ar 
    11    9   11 ar 
    12   12   13 1  
    13   12   18 1  
    14   13   14 1  
    15   13   16 1  
    16   14   15 2  
    17   14   19 am 
    18   16   17 1  
    19   17   18 1  
    20   19   20 1  
    21   20   21 1  
    22   20   23 1  
    23   21   22 2  
    24   21   25 am 
    25   23   24 1  
    26   25   26 1  
    27   26   27 1  
    28   26   29 1  
    29   27   28 2  
    30   27   36 am 
    31   29   30 1  
    32   30   31 1  
    33   31   32 1  
    34   32   33 ar 
    35   33   34 ar 
    36   33   35 ar 
    37   36   37 1  
    38   37   38 1  
    39   37   40 1  
    40   38   39 2  
    41   38   44 am 
    42   40   41 1  
    43   41   42 ar 
    44   41   43 ar 
    45   44   45 1  
    46   45   46 1  
    47   45   48 1  
    48   46   47 2  
    49   46   54 am 
    50   48   49 1  
    51   49   50 1  
    52   49   51 2  
    53   50   52 2  
    54   51   53 1  
    55   52   53 1  
    56   54   55 1  
    57   55   56 1  
    58   55   58 1  
    59   56   57 2  
    60   56   62 am 
    61   58   59 1  
    62   59   60 1  
    63   59   61 1  
    64   62   63 1  
    65   63   64 1  
    66   63   66 1  
    67   64   65 2  
    68   64   74 am 
    69   66   67 1  
    70   67   68 ar 
    71   67   69 ar 
    72   68   70 ar 
    73   69   71 ar 
    74   70   72 ar 
    75   71   72 ar 
    76   72   73 1  
    77   74   75 1  
    78   75   76 1  
    79   75   78 1  
    80   76   77 2  
    81   76   82 am 
    82   78   79 1  
    83   79   80 1  
    84   79   81 1  
    85   82   83 1  
    86   82   88 1  
    87   83   84 1  
    88   83   86 1  
    89   84   85 2  
    90   84   89 am 
    91   86   87 1  
    92   87   88 1  
    93   89   90 1  
    94   90   91 1  
    95   90   93 1  
    96   91   92 2  
    97   91   97 am 
    98   93   94 1  
    99   94   95 1  
   100   94   96 1  
   101   97   98 1  
   102   98   99 1  
   103   98  101 1  
   104   99  100 ar 
   105   99  106 ar 
   106  101  102 1  
   107  102  103 1  
   108  103  104 ar 
   109  103  105 ar 
   110    1  107 1  
   111    1  108 1  
   112    1  109 1  
   113    2  110 1  
   114    5  111 1  
   115    5  112 1  
   116    6  113 1  
   117    6  114 1  
   118    7  115 1  
   119    7  116 1  
   120    8  117 1  
   121   10  118 1  
   122   10  119 1  
   123   11  120 1  
   124   11  121 1  
   125   13  122 1  
   126   16  123 1  
   127   16  124 1  
   128   17  125 1  
   129   17  126 1  
   130   18  127 1  
   131   18  128 1  
   132   19  129 1  
   133   20  130 1  
   134   23  131 1  
   135   23  132 1  
   136   24  133 1  
   137   25  134 1  
   138   26  135 1  
   139   29  136 1  
   140   29  137 1  
   141   30  138 1  
   142   30  139 1  
   143   31  140 1  
   144   31  141 1  
   145   32  142 1  
   146   34  143 1  
   147   34  144 1  
   148   35  145 1  
   149   35  146 1  
   150   36  147 1  
   151   37  148 1  
   152   40  149 1  
   153   40  150 1  
   154   44  151 1  
   155   45  152 1  
   156   48  153 1  
   157   48  154 1  
   158   51  155 1  
   159   52  156 1  
   160   53  157 1  
   161   54  158 1  
   162   55  159 1  
   163   58  160 1  
   164   58  161 1  
   165   59  162 1  
   166   60  163 1  
   167   60  164 1  
   168   60  165 1  
   169   61  166 1  
   170   61  167 1  
   171   61  168 1  
   172   62  169 1  
   173   63  170 1  
   174   66  171 1  
   175   66  172 1  
   176   68  173 1  
   177   69  174 1  
   178   70  175 1  
   179   71  176 1  
   180   73  177 1  
   181   74  178 1  
   182   75  179 1  
   183   78  180 1  
   184   78  181 1  
   185   79  182 1  
   186   80  183 1  
   187   80  184 1  
   188   80  185 1  
   189   81  186 1  
   190   81  187 1  
   191   81  188 1  
   192   83  189 1  
   193   86  190 1  
   194   86  191 1  
   195   87  192 1  
   196   87  193 1  
   197   88  194 1  
   198   88  195 1  
   199   89  196 1  
   200   90  197 1  
   201   93  198 1  
   202   93  199 1  
   203   94  200 1  
   204   95  201 1  
   205   95  202 1  
   206   95  203 1  
   207   96  204 1  
   208   96  205 1  
   209   96  206 1  
   210   97  207 1  
   211   98  208 1  
   212  101  209 1  
   213  101  210 1  
   214  102  211 1  
   215  102  212 1  
@<TRIPOS>SUBSTRUCTURE
     1 ARG         1

