### 
### Created by X-TOOL on Mon Sep 10 21:12:59 2018
### 

@<TRIPOS>MOLECULE
3cii_ligand
  156   157     1     0     0
SMALL
GAST_HUCK


@<TRIPOS>ATOM
      1 N        -129.2320  158.0150 -137.3420 N.4       1 VAL         0.2381
      2 CA       -129.4480  158.4690 -138.7400 C.3       1 VAL         0.0673
      3 C        -130.7700  157.9750 -139.2740 C.2       1 VAL         0.2270
      4 O        -131.2170  156.8860 -138.9350 O.2       1 VAL        -0.3907
      5 CB       -128.3530  157.9610 -139.6960 C.3       1 VAL         0.0139
      6 CG1      -127.0090  158.5840 -139.3500 C.3       1 VAL        -0.0553
      7 CG2      -128.2730  156.4390 -139.6600 C.3       1 VAL        -0.0553
      8 N        -131.3880  158.7830 -140.1240 N.am      1 MET        -0.2610
      9 CA       -132.6160  158.3800 -140.7990 C.3       1 MET         0.1318
     10 C        -132.2920  157.8190 -142.1790 C.2       1 MET         0.2039
     11 O        -131.2100  158.0630 -142.7370 O.2       1 MET        -0.3944
     12 CB       -133.6550  159.5270 -140.8990 C.3       1 MET        -0.0034
     13 CG       -133.1570  160.8830 -141.4340 C.3       1 MET        -0.0024
     14 SD       -134.4640  162.1300 -141.6820 S.3       1 MET        -0.1639
     15 CE       -135.3200  161.4670 -143.1050 C.3       1 MET        -0.0181
     16 N        -133.2550  157.0600 -142.7030 N.am      1 ALA        -0.2640
     17 CA       -133.1720  156.4460 -144.0220 C.3       1 ALA         0.1284
     18 C        -132.6950  157.4540 -145.0610 C.2       1 ALA         0.2061
     19 O        -133.2410  158.5550 -145.1460 O.2       1 ALA        -0.3942
     20 CB       -134.5310  155.8740 -144.4230 C.3       1 ALA        -0.0244
     21 N        -131.6810  157.0780 -145.8630 N.am      1 PRO        -0.2498
     22 CA       -131.1360  158.0210 -146.8360 C.3       1 PRO         0.1338
     23 C        -132.0280  158.2440 -148.0720 C.2       1 PRO         0.2041
     24 O        -131.6370  158.9920 -148.9760 O.2       1 PRO        -0.3944
     25 CB       -129.8040  157.3670 -147.2390 C.3       1 PRO        -0.0104
     26 CG       -130.0180  155.9000 -147.0460 C.3       1 PRO        -0.0281
     27 CD       -131.0010  155.7650 -145.9190 C.3       1 PRO         0.0369
     28 N        -133.2140  157.6270 -148.1030 N.am      1 ARG        -0.2637
     29 CA       -133.9950  157.5310 -149.3340 C.3       1 ARG         0.1311
     30 C        -135.4210  157.0950 -149.0560 C.2       1 ARG         0.2040
     31 O        -135.6380  156.1500 -148.3020 O.2       1 ARG        -0.3944
     32 CB       -133.3230  156.5140 -150.2660 C.3       1 ARG        -0.0092
     33 CG       -133.9920  156.2960 -151.6230 C.3       1 ARG        -0.0156
     34 CD       -133.0720  155.5210 -152.5760 C.3       1 ARG         0.0627
     35 NE       -132.1530  156.4110 -153.2900 N.pl3     1 ARG        -0.2723
     36 CZ       -132.2890  156.8040 -154.5570 C.cat     1 ARG         0.2882
     37 NH1      -133.3090  156.3850 -155.3010 N.pl3     1 ARG        -0.2849
     38 NH2      -131.3830  157.6180 -155.0880 N.pl3     1 ARG        -0.2849
     39 N        -136.3770  157.7730 -149.6890 N.am      1 THR        -0.2613
     40 CA       -137.8010  157.4830 -149.5130 C.3       1 THR         0.1565
     41 C        -138.4280  156.9450 -150.7990 C.2       1 THR         0.2065
     42 O        -137.7240  156.5000 -151.7070 O.2       1 THR        -0.3943
     43 CB       -138.5790  158.7400 -149.0740 C.3       1 THR         0.0924
     44 OG1      -137.7190  159.5880 -148.3110 O.3       1 THR        -0.3874
     45 CG2      -139.8040  158.3610 -148.2380 C.3       1 THR        -0.0346
     46 N        -139.7580  156.9650 -150.8470 N.am      1 LEU        -0.2636
     47 CA       -140.5080  156.5790 -152.0270 C.3       1 LEU         0.1312
     48 C        -141.1800  157.7760 -152.6320 C.2       1 LEU         0.2040
     49 O        -141.6380  158.6560 -151.9070 O.2       1 LEU        -0.3944
     50 CB       -141.6020  155.5880 -151.6580 C.3       1 LEU        -0.0101
     51 CG       -141.1470  154.1470 -151.4960 C.3       1 LEU        -0.0425
     52 CD1      -142.3600  153.2500 -151.3180 C.3       1 LEU        -0.0625
     53 CD2      -140.3160  153.7110 -152.6910 C.3       1 LEU        -0.0625
     54 N        -141.2320  157.8060 -153.9630 N.am      1 PHE        -0.2619
     55 CA       -142.1570  158.6840 -154.6900 C.3       1 PHE         0.1404
     56 C        -143.4300  157.8810 -154.8540 C.2       1 PHE         0.2054
     57 O        -143.4360  156.9000 -155.5950 O.2       1 PHE        -0.3942
     58 CB       -141.6330  159.0530 -156.0880 C.3       1 PHE         0.0214
     59 CG       -140.7840  160.2990 -156.1270 C.ar      1 PHE        -0.0386
     60 CD1      -139.4890  160.2580 -156.6290 C.ar      1 PHE        -0.0601
     61 CD2      -141.2830  161.5130 -155.6850 C.ar      1 PHE        -0.0601
     62 CE1      -138.7080  161.4010 -156.6770 C.ar      1 PHE        -0.0686
     63 CE2      -140.5020  162.6550 -155.7290 C.ar      1 PHE        -0.0686
     64 CZ       -139.2160  162.5980 -156.2280 C.ar      1 PHE        -0.0687
     65 N        -144.4960  158.2650 -154.1610 N.am      1 LEU        -0.2693
     66 CA       -145.7370  157.5040 -154.2410 C.3       1 LEU         0.0946
     67 C        -146.3960  157.7880 -155.5820 C.2       1 LEU         0.0601
     68 O        -147.2240  157.0020 -156.0450 O.co2     1 LEU        -0.5666
     69 CB       -146.6700  157.8360 -153.0730 C.3       1 LEU        -0.0156
     70 CG       -146.1230  157.5030 -151.6830 C.3       1 LEU        -0.0431
     71 CD1      -146.9910  158.1120 -150.6030 C.3       1 LEU        -0.0625
     72 CD2      -146.0130  156.0030 -151.4850 C.3       1 LEU        -0.0625
     73 OXT      -146.0790  158.7960 -156.2310 O.co2     1 LEU        -0.5666
     74 H1       -129.9706  158.3706 -136.7554 H         1 VAL         0.2015
     75 H2       -128.3444  158.3589 -137.0103 H         1 VAL         0.2015
     76 H3       -129.2345  157.0075 -137.3117 H         1 VAL         0.2015
     77 H4       -129.4446  159.5690 -138.7469 H         1 VAL         0.1101
     78 H5       -128.6198  158.2665 -140.7185 H         1 VAL         0.0376
     79 H6       -126.2417  158.2089 -140.0432 H         1 VAL         0.0236
     80 H7       -126.7347  158.3152 -138.3192 H         1 VAL         0.0236
     81 H8       -127.0787  159.6783 -139.4375 H         1 VAL         0.0236
     82 H9       -129.2555  156.0141 -139.9132 H         1 VAL         0.0236
     83 H10      -127.9806  156.1109 -138.6516 H         1 VAL         0.0236
     84 H11      -127.5253  156.0937 -140.3892 H         1 VAL         0.0236
     85 H12      -131.0038  159.6881 -140.3061 H         1 MET         0.1884
     86 H13      -133.0722  157.5749 -140.2043 H         1 MET         0.0800
     87 H14      -134.0582  159.6973 -139.8898 H         1 MET         0.0320
     88 H15      -134.4622  159.1854 -141.5635 H         1 MET         0.0320
     89 H16      -132.6615  160.7091 -142.4005 H         1 MET         0.0378
     90 H17      -132.4286  161.2881 -140.7161 H         1 MET         0.0378
     91 H18      -136.1537  162.1322 -143.3741 H         1 MET         0.0340
     92 H19      -135.7114  160.4675 -142.8647 H         1 MET         0.0340
     93 H20      -134.6216  161.3935 -143.9517 H         1 MET         0.0340
     94 H21      -134.0803  156.9034 -142.1605 H         1 ALA         0.1883
     95 H22      -132.4446  155.6220 -143.9774 H         1 ALA         0.0797
     96 H23      -134.4556  155.4138 -145.4193 H         1 ALA         0.0277
     97 H24      -135.2762  156.6827 -144.4482 H         1 ALA         0.0277
     98 H25      -134.8395  155.1137 -143.6903 H         1 ALA         0.0277
     99 H26      -130.9600  158.9946 -146.3552 H         1 PRO         0.0802
    100 H27      -128.9870  157.7262 -146.5960 H         1 PRO         0.0313
    101 H28      -129.5675  157.5880 -148.2903 H         1 PRO         0.0313
    102 H29      -129.0696  155.4072 -146.7859 H         1 PRO         0.0287
    103 H30      -130.4255  155.4501 -147.9633 H         1 PRO         0.0287
    104 H31      -131.7230  154.9615 -146.1267 H         1 PRO         0.0524
    105 H32      -130.4812  155.5554 -144.9725 H         1 PRO         0.0524
    106 H33      -133.5751  157.2215 -147.2632 H         1 ARG         0.1883
    107 H34      -134.0142  158.5164 -149.8225 H         1 ARG         0.0800
    108 H35      -133.2990  155.5458 -149.7445 H         1 ARG         0.0313
    109 H36      -132.2942  156.8567 -150.4505 H         1 ARG         0.0313
    110 H37      -134.2281  157.2738 -152.0681 H         1 ARG         0.0301
    111 H38      -134.9210  155.7253 -151.4777 H         1 ARG         0.0301
    112 H39      -133.6908  154.9849 -153.3106 H         1 ARG         0.0689
    113 H40      -132.4846  154.7965 -151.9929 H         1 ARG         0.0689
    114 H41      -131.3353  156.7617 -152.7711 H         1 ARG         0.2642
    115 H42      -133.3973  156.6995 -156.2778 H         1 ARG         0.2615
    116 H43      -134.0105  155.7461 -154.9002 H         1 ARG         0.2615
    117 H44      -130.5900  157.9472 -154.5190 H         1 ARG         0.2615
    118 H45      -131.4736  157.9198 -156.0686 H         1 ARG         0.2615
    119 H46      -136.1110  158.5104 -150.3099 H         1 THR         0.1884
    120 H47      -137.8986  156.7178 -148.7288 H         1 THR         0.0826
    121 H48      -138.9154  159.2812 -149.9706 H         1 THR         0.0639
    122 H49      -138.1983  160.3624 -148.0406 H         1 THR         0.2101
    123 H50      -140.3400  159.2736 -147.9384 H         1 THR         0.0257
    124 H51      -139.4803  157.8144 -147.3400 H         1 THR         0.0257
    125 H52      -140.4720  157.7227 -148.8348 H         1 THR         0.0257
    126 H53      -140.2618  157.2588 -150.0347 H         1 LEU         0.1883
    127 H54      -139.8238  156.1248 -152.7588 H         1 LEU         0.0800
    128 H55      -142.3663  155.6159 -152.4486 H         1 LEU         0.0315
    129 H56      -142.0472  155.9126 -150.7059 H         1 LEU         0.0315
    130 H57      -140.5216  154.0742 -150.5940 H         1 LEU         0.0298
    131 H58      -142.0307  152.2070 -151.2007 H         1 LEU         0.0232
    132 H59      -143.0097  153.3322 -152.2018 H         1 LEU         0.0232
    133 H60      -142.9179  153.5612 -150.4225 H         1 LEU         0.0232
    134 H61      -139.4465  154.3767 -152.7954 H         1 LEU         0.0232
    135 H62      -140.9292  153.7631 -153.6027 H         1 LEU         0.0232
    136 H63      -139.9706  152.6776 -152.5400 H         1 LEU         0.0232
    137 H64      -140.6205  157.2106 -154.4841 H         1 PHE         0.1885
    138 H65      -142.3422  159.6013 -154.1119 H         1 PHE         0.0823
    139 H66      -142.4979  159.2054 -156.7503 H         1 PHE         0.0474
    140 H67      -141.0286  158.2132 -156.4615 H         1 PHE         0.0474
    141 H68      -139.0843  159.3186 -156.9880 H         1 PHE         0.0557
    142 H69      -142.2951  161.5694 -155.3008 H         1 PHE         0.0557
    143 H70      -137.6981  161.3523 -157.0678 H         1 PHE         0.0599
    144 H71      -140.9013  163.5969 -155.3706 H         1 PHE         0.0599
    145 H72      -138.6079  163.4945 -156.2659 H         1 PHE         0.0559
    146 H73      -144.4472  159.0791 -153.5823 H         1 LEU         0.1875
    147 H74      -145.4955  156.4321 -154.1897 H         1 LEU         0.0726
    148 H75      -147.6045  157.2731 -153.2141 H         1 LEU         0.0308
    149 H76      -146.8833  158.9146 -153.1046 H         1 LEU         0.0308
    150 H77      -145.1150  157.9355 -151.5998 H         1 LEU         0.0297
    151 H78      -146.5784  157.8593 -149.6151 H         1 LEU         0.0232
    152 H79      -148.0131  157.7140 -150.6861 H         1 LEU         0.0232
    153 H80      -147.0123  159.2052 -150.7227 H         1 LEU         0.0232
    154 H81      -145.3802  155.5742 -152.2760 H         1 LEU         0.0232
    155 H82      -147.0153  155.5523 -151.5327 H         1 LEU         0.0232
    156 H83      -145.5637  155.7947 -150.5028 H         1 LEU         0.0232
@<TRIPOS>BOND
     1    1    2 1  
     2    2    3 1  
     3    2    5 1  
     4    3    4 2  
     5    3    8 am 
     6    5    6 1  
     7    5    7 1  
     8    8    9 1  
     9    9   10 1  
    10    9   12 1  
    11   10   11 2  
    12   10   16 am 
    13   12   13 1  
    14   13   14 1  
    15   14   15 1  
    16   16   17 1  
    17   17   18 1  
    18   17   20 1  
    19   18   19 2  
    20   18   21 am 
    21   21   22 1  
    22   21   27 1  
    23   22   23 1  
    24   22   25 1  
    25   23   24 2  
    26   23   28 am 
    27   25   26 1  
    28   26   27 1  
    29   28   29 1  
    30   29   30 1  
    31   29   32 1  
    32   30   31 2  
    33   30   39 am 
    34   32   33 1  
    35   33   34 1  
    36   34   35 1  
    37   35   36 ar 
    38   36   37 ar 
    39   36   38 ar 
    40   39   40 1  
    41   40   41 1  
    42   40   43 1  
    43   41   42 2  
    44   41   46 am 
    45   43   44 1  
    46   43   45 1  
    47   46   47 1  
    48   47   48 1  
    49   47   50 1  
    50   48   49 2  
    51   48   54 am 
    52   50   51 1  
    53   51   52 1  
    54   51   53 1  
    55   54   55 1  
    56   55   56 1  
    57   55   58 1  
    58   56   57 2  
    59   56   65 am 
    60   58   59 1  
    61   59   60 ar 
    62   59   61 ar 
    63   60   62 ar 
    64   61   63 ar 
    65   62   64 ar 
    66   63   64 ar 
    67   65   66 1  
    68   66   67 1  
    69   66   69 1  
    70   67   68 ar 
    71   67   73 ar 
    72   69   70 1  
    73   70   71 1  
    74   70   72 1  
    75    1   74 1  
    76    1   75 1  
    77    1   76 1  
    78    2   77 1  
    79    5   78 1  
    80    6   79 1  
    81    6   80 1  
    82    6   81 1  
    83    7   82 1  
    84    7   83 1  
    85    7   84 1  
    86    8   85 1  
    87    9   86 1  
    88   12   87 1  
    89   12   88 1  
    90   13   89 1  
    91   13   90 1  
    92   15   91 1  
    93   15   92 1  
    94   15   93 1  
    95   16   94 1  
    96   17   95 1  
    97   20   96 1  
    98   20   97 1  
    99   20   98 1  
   100   22   99 1  
   101   25  100 1  
   102   25  101 1  
   103   26  102 1  
   104   26  103 1  
   105   27  104 1  
   106   27  105 1  
   107   28  106 1  
   108   29  107 1  
   109   32  108 1  
   110   32  109 1  
   111   33  110 1  
   112   33  111 1  
   113   34  112 1  
   114   34  113 1  
   115   35  114 1  
   116   37  115 1  
   117   37  116 1  
   118   38  117 1  
   119   38  118 1  
   120   39  119 1  
   121   40  120 1  
   122   43  121 1  
   123   44  122 1  
   124   45  123 1  
   125   45  124 1  
   126   45  125 1  
   127   46  126 1  
   128   47  127 1  
   129   50  128 1  
   130   50  129 1  
   131   51  130 1  
   132   52  131 1  
   133   52  132 1  
   134   52  133 1  
   135   53  134 1  
   136   53  135 1  
   137   53  136 1  
   138   54  137 1  
   139   55  138 1  
   140   58  139 1  
   141   58  140 1  
   142   60  141 1  
   143   61  142 1  
   144   62  143 1  
   145   63  144 1  
   146   64  145 1  
   147   65  146 1  
   148   66  147 1  
   149   69  148 1  
   150   69  149 1  
   151   70  150 1  
   152   71  151 1  
   153   71  152 1  
   154   71  153 1  
   155   72  154 1  
   156   72  155 1  
   157   72  156 1  
@<TRIPOS>SUBSTRUCTURE
     1 VAL         1

