3cii_ligand
  -I-interpret- 

156157  0  0  0  0  0  0  0  0999 V2000
 -129.2320  158.0150 -137.3420 N   0  3  0  0  0
 -129.4480  158.4690 -138.7400 C   0  0  0  0  0
 -130.7700  157.9750 -139.2740 C   0  0  0  0  0
 -131.2170  156.8860 -138.9350 O   0  0  0  0  0
 -128.3530  157.9610 -139.6960 C   0  0  0  0  0
 -127.0090  158.5840 -139.3500 C   0  0  0  0  0
 -128.2730  156.4390 -139.6600 C   0  0  0  0  0
 -131.3880  158.7830 -140.1240 N   0  0  0  0  0
 -132.6160  158.3800 -140.7990 C   0  0  0  0  0
 -132.2920  157.8190 -142.1790 C   0  0  0  0  0
 -131.2100  158.0630 -142.7370 O   0  0  0  0  0
 -133.6550  159.5270 -140.8990 C   0  0  0  0  0
 -133.1570  160.8830 -141.4340 C   0  0  0  0  0
 -134.4640  162.1300 -141.6820 S   0  0  0  0  0
 -135.3200  161.4670 -143.1050 C   0  0  0  0  0
 -133.2550  157.0600 -142.7030 N   0  0  0  0  0
 -133.1720  156.4460 -144.0220 C   0  0  0  0  0
 -132.6950  157.4540 -145.0610 C   0  0  0  0  0
 -133.2410  158.5550 -145.1460 O   0  0  0  0  0
 -134.5310  155.8740 -144.4230 C   0  0  0  0  0
 -131.6810  157.0780 -145.8630 N   0  0  0  0  0
 -131.1360  158.0210 -146.8360 C   0  0  0  0  0
 -132.0280  158.2440 -148.0720 C   0  0  0  0  0
 -131.6370  158.9920 -148.9760 O   0  0  0  0  0
 -129.8040  157.3670 -147.2390 C   0  0  0  0  0
 -130.0180  155.9000 -147.0460 C   0  0  0  0  0
 -131.0010  155.7650 -145.9190 C   0  0  0  0  0
 -133.2140  157.6270 -148.1030 N   0  0  0  0  0
 -133.9950  157.5310 -149.3340 C   0  0  0  0  0
 -135.4210  157.0950 -149.0560 C   0  0  0  0  0
 -135.6380  156.1500 -148.3020 O   0  0  0  0  0
 -133.3230  156.5140 -150.2660 C   0  0  0  0  0
 -133.9920  156.2960 -151.6230 C   0  0  0  0  0
 -133.0720  155.5210 -152.5760 C   0  0  0  0  0
 -132.1530  156.4110 -153.2900 N   0  0  0  0  0
 -132.2890  156.8040 -154.5570 C   0  0  0  0  0
 -133.3090  156.3850 -155.3010 N   0  0  0  0  0
 -131.3830  157.6180 -155.0880 N   0  0  0  0  0
 -136.3770  157.7730 -149.6890 N   0  0  0  0  0
 -137.8010  157.4830 -149.5130 C   0  0  0  0  0
 -138.4280  156.9450 -150.7990 C   0  0  0  0  0
 -137.7240  156.5000 -151.7070 O   0  0  0  0  0
 -138.5790  158.7400 -149.0740 C   0  0  0  0  0
 -137.7190  159.5880 -148.3110 O   0  0  0  0  0
 -139.8040  158.3610 -148.2380 C   0  0  0  0  0
 -139.7580  156.9650 -150.8470 N   0  0  0  0  0
 -140.5080  156.5790 -152.0270 C   0  0  0  0  0
 -141.1800  157.7760 -152.6320 C   0  0  0  0  0
 -141.6380  158.6560 -151.9070 O   0  0  0  0  0
 -141.6020  155.5880 -151.6580 C   0  0  0  0  0
 -141.1470  154.1470 -151.4960 C   0  0  0  0  0
 -142.3600  153.2500 -151.3180 C   0  0  0  0  0
 -140.3160  153.7110 -152.6910 C   0  0  0  0  0
 -141.2320  157.8060 -153.9630 N   0  0  0  0  0
 -142.1570  158.6840 -154.6900 C   0  0  0  0  0
 -143.4300  157.8810 -154.8540 C   0  0  0  0  0
 -143.4360  156.9000 -155.5950 O   0  0  0  0  0
 -141.6330  159.0530 -156.0880 C   0  0  0  0  0
 -140.7840  160.2990 -156.1270 C   0  0  0  0  0
 -139.4890  160.2580 -156.6290 C   0  0  0  0  0
 -141.2830  161.5130 -155.6850 C   0  0  0  0  0
 -138.7080  161.4010 -156.6770 C   0  0  0  0  0
 -140.5020  162.6550 -155.7290 C   0  0  0  0  0
 -139.2160  162.5980 -156.2280 C   0  0  0  0  0
 -144.4960  158.2650 -154.1610 N   0  0  0  0  0
 -145.7370  157.5040 -154.2410 C   0  0  0  0  0
 -146.3960  157.7880 -155.5820 C   0  0  0  0  0
 -147.2240  157.0020 -156.0450 O   0  0  0  0  0
 -146.6700  157.8360 -153.0730 C   0  0  0  0  0
 -146.1230  157.5030 -151.6830 C   0  0  0  0  0
 -146.9910  158.1120 -150.6030 C   0  0  0  0  0
 -146.0130  156.0030 -151.4850 C   0  0  0  0  0
 -146.0790  158.7960 -156.2310 O   0  0  0  0  0
 -129.9799  158.3754 -136.7494 H   0  0  0  0  0
 -129.2347  156.9954 -137.3126 H   0  0  0  0  0
 -128.3336  158.3636 -137.0076 H   0  0  0  0  0
 -129.4258  159.5581 -138.7018 H   0  0  0  0  0
 -128.6146  158.2622 -140.7104 H   0  0  0  0  0
 -126.7123  158.2718 -138.3487 H   0  0  0  0  0
 -126.2609  158.2548 -140.0712 H   0  0  0  0  0
 -127.0942  159.6702 -139.3830 H   0  0  0  0  0
 -127.5318  156.0982 -140.3829 H   0  0  0  0  0
 -127.9831  156.1152 -138.6604 H   0  0  0  0  0
 -129.2471  156.0192 -139.9111 H   0  0  0  0  0
 -130.9962  159.7062 -140.3098 H   0  0  0  0  0
 -133.0778  157.6023 -140.1908 H   0  0  0  0  0
 -133.9870  159.7155 -139.8781 H   0  0  0  0  0
 -134.4056  159.1852 -141.6117 H   0  0  0  0  0
 -132.7091  160.6942 -142.4096 H   0  0  0  0  0
 -132.4712  161.2858 -140.6887 H   0  0  0  0  0
 -134.6269  161.3946 -143.9432 H   0  0  0  0  0
 -135.7073  160.4766 -142.8656 H   0  0  0  0  0
 -136.1458  162.1270 -143.3707 H   0  0  0  0  0
 -134.0968  156.9002 -142.1497 H   0  0  0  0  0
 -132.4461  155.6341 -143.9773 H   0  0  0  0  0
 -134.8355  155.1209 -143.6963 H   0  0  0  0  0
 -135.2685  156.6762 -144.4475 H   0  0  0  0  0
 -134.4550  155.4183 -145.4102 H   0  0  0  0  0
 -131.0434  159.0188 -146.4070 H   0  0  0  0  0
 -128.9744  157.7365 -146.6363 H   0  0  0  0  0
 -129.5334  157.6034 -148.2681 H   0  0  0  0  0
 -129.0813  155.3934 -146.8134 H   0  0  0  0  0
 -130.3971  155.4350 -147.9560 H   0  0  0  0  0
 -131.7029  154.9476 -146.0841 H   0  0  0  0  0
 -130.5118  155.5172 -144.9770 H   0  0  0  0  0
 -133.5823  157.2134 -147.2465 H   0  0  0  0  0
 -134.0311  158.5158 -149.7999 H   0  0  0  0  0
 -133.3635  155.5550 -149.7494 H   0  0  0  0  0
 -132.3280  156.9060 -150.4770 H   0  0  0  0  0
 -134.2104  157.2686 -152.0639 H   0  0  0  0  0
 -134.9041  155.7184 -151.4729 H   0  0  0  0  0
 -133.6933  155.0094 -153.3110 H   0  0  0  0  0
 -132.4809  154.8200 -151.9866 H   0  0  0  0  0
 -131.3432  156.7583 -152.7761 H   0  0  0  0  0
 -133.3912  156.6887 -156.2713 H   0  0  0  0  0
 -134.0090  155.7600 -154.9012 H   0  0  0  0  0
 -130.5926  157.9364 -154.5274 H   0  0  0  0  0
 -136.1057  158.5251 -150.3223 H   0  0  0  0  0
 -137.8678  156.7227 -148.7348 H   0  0  0  0  0
 -138.9220  159.2655 -149.9652 H   0  0  0  0  0
 -138.2033  160.3705 -148.0377 H   0  0  0  0  0
 -140.4651  157.7285 -148.8305 H   0  0  0  0  0
 -139.4819  157.8195 -147.3486 H   0  0  0  0  0
 -140.3343  159.2661 -147.9418 H   0  0  0  0  0
 -140.2719  157.2646 -150.0184 H   0  0  0  0  0
 -139.8062  156.1333 -152.7319 H   0  0  0  0  0
 -142.3206  155.5977 -152.4775 H   0  0  0  0  0
 -141.9934  155.9019 -150.6903 H   0  0  0  0  0
 -140.5176  154.0662 -150.6097 H   0  0  0  0  0
 -142.9120  153.5594 -150.4305 H   0  0  0  0  0
 -143.0029  153.3324 -152.1943 H   0  0  0  0  0
 -142.0324  152.2169 -151.2019 H   0  0  0  0  0
 -140.9151  153.7929 -153.5979 H   0  0  0  0  0
 -139.4382  154.3518 -152.7748 H   0  0  0  0  0
 -140.0006  152.6766 -152.5546 H   0  0  0  0  0
 -140.6083  157.1987 -154.4946 H   0  0  0  0  0
 -142.2934  159.6164 -154.1421 H   0  0  0  0  0
 -142.5036  159.2396 -156.7167 H   0  0  0  0  0
 -141.0045  158.2274 -156.4220 H   0  0  0  0  0
 -139.0821  159.3134 -156.9900 H   0  0  0  0  0
 -142.3007  161.5697 -155.2987 H   0  0  0  0  0
 -137.6925  161.3521 -157.0699 H   0  0  0  0  0
 -140.9035  163.6021 -155.3686 H   0  0  0  0  0
 -138.6045  163.4995 -156.2661 H   0  0  0  0  0
 -144.4463  159.0953 -153.5707 H   0  0  0  0  0
 -145.5168  156.4390 -154.1673 H   0  0  0  0  0
 -147.5666  157.2311 -153.2084 H   0  0  0  0  0
 -146.8271  158.9144 -153.0962 H   0  0  0  0  0
 -145.1239  157.9323 -151.6083 H   0  0  0  0  0
 -147.0113  159.1952 -150.7228 H   0  0  0  0  0
 -148.0034  157.7169 -150.6865 H   0  0  0  0  0
 -146.5812  157.8610 -149.6247 H   0  0  0  0  0
 -146.9991  155.5507 -151.5901 H   0  0  0  0  0
 -145.3394  155.5873 -152.2344 H   0  0  0  0  0
 -145.6217  155.7970 -150.4887 H   0  0  0  0  0
 -145.4291  159.3016 -155.7375 H   0  0  0  0  0
  1  2  1  0  0  0
  2  3  1  0  0  0
  2  5  1  0  0  0
  3  4  2  0  0  0
  3  8  1  0  0  0
  5  6  1  0  0  0
  5  7  1  0  0  0
  8  9  1  0  0  0
  9 10  1  0  0  0
  9 12  1  0  0  0
 10 11  2  0  0  0
 10 16  1  0  0  0
 12 13  1  0  0  0
 13 14  1  0  0  0
 14 15  1  0  0  0
 16 17  1  0  0  0
 17 18  1  0  0  0
 17 20  1  0  0  0
 18 19  2  0  0  0
 18 21  1  0  0  0
 21 22  1  0  0  0
 21 27  1  0  0  0
 22 23  1  0  0  0
 22 25  1  0  0  0
 23 24  2  0  0  0
 23 28  1  0  0  0
 25 26  1  0  0  0
 26 27  1  0  0  0
 28 29  1  0  0  0
 29 30  1  0  0  0
 29 32  1  0  0  0
 30 31  2  0  0  0
 30 39  1  0  0  0
 32 33  1  0  0  0
 33 34  1  0  0  0
 34 35  1  0  0  0
 35 36  1  0  0  0
 36 37  1  0  0  0
 36 38  2  0  0  0
 39 40  1  0  0  0
 40 41  1  0  0  0
 40 43  1  0  0  0
 41 42  2  0  0  0
 41 46  1  0  0  0
 43 44  1  0  0  0
 43 45  1  0  0  0
 46 47  1  0  0  0
 47 48  1  0  0  0
 47 50  1  0  0  0
 48 49  2  0  0  0
 48 54  1  0  0  0
 50 51  1  0  0  0
 51 52  1  0  0  0
 51 53  1  0  0  0
 54 55  1  0  0  0
 55 56  1  0  0  0
 55 58  1  0  0  0
 56 57  2  0  0  0
 56 65  1  0  0  0
 58 59  1  0  0  0
 59 60  4  0  0  0
 59 61  4  0  0  0
 60 62  4  0  0  0
 61 63  4  0  0  0
 62 64  4  0  0  0
 63 64  4  0  0  0
 65 66  1  0  0  0
 66 67  1  0  0  0
 66 69  1  0  0  0
 67 68  2  0  0  0
 67 73  1  0  0  0
 69 70  1  0  0  0
 70 71  1  0  0  0
 70 72  1  0  0  0
  1 74  1  0  0  0
  1 75  1  0  0  0
  1 76  1  0  0  0
  2 77  1  0  0  0
  5 78  1  0  0  0
  6 79  1  0  0  0
  6 80  1  0  0  0
  6 81  1  0  0  0
  7 82  1  0  0  0
  7 83  1  0  0  0
  7 84  1  0  0  0
  8 85  1  0  0  0
  9 86  1  0  0  0
 12 87  1  0  0  0
 12 88  1  0  0  0
 13 89  1  0  0  0
 13 90  1  0  0  0
 15 91  1  0  0  0
 15 92  1  0  0  0
 15 93  1  0  0  0
 16 94  1  0  0  0
 17 95  1  0  0  0
 20 96  1  0  0  0
 20 97  1  0  0  0
 20 98  1  0  0  0
 22 99  1  0  0  0
 25100  1  0  0  0
 25101  1  0  0  0
 26102  1  0  0  0
 26103  1  0  0  0
 27104  1  0  0  0
 27105  1  0  0  0
 28106  1  0  0  0
 29107  1  0  0  0
 32108  1  0  0  0
 32109  1  0  0  0
 33110  1  0  0  0
 33111  1  0  0  0
 34112  1  0  0  0
 34113  1  0  0  0
 35114  1  0  0  0
 37115  1  0  0  0
 37116  1  0  0  0
 38117  1  0  0  0
 39118  1  0  0  0
 40119  1  0  0  0
 43120  1  0  0  0
 44121  1  0  0  0
 45122  1  0  0  0
 45123  1  0  0  0
 45124  1  0  0  0
 46125  1  0  0  0
 47126  1  0  0  0
 50127  1  0  0  0
 50128  1  0  0  0
 51129  1  0  0  0
 52130  1  0  0  0
 52131  1  0  0  0
 52132  1  0  0  0
 53133  1  0  0  0
 53134  1  0  0  0
 53135  1  0  0  0
 54136  1  0  0  0
 55137  1  0  0  0
 58138  1  0  0  0
 58139  1  0  0  0
 60140  1  0  0  0
 61141  1  0  0  0
 62142  1  0  0  0
 63143  1  0  0  0
 64144  1  0  0  0
 65145  1  0  0  0
 66146  1  0  0  0
 69147  1  0  0  0
 69148  1  0  0  0
 70149  1  0  0  0
 71150  1  0  0  0
 71151  1  0  0  0
 71152  1  0  0  0
 72153  1  0  0  0
 72154  1  0  0  0
 72155  1  0  0  0
 73156  1  0  0  0
M  END
$$$$
