2qi3_ligand
  -I-interpret- 

 74 76  0  0  0  0  0  0  0  0999 V2000
   21.4330   30.0840   11.9560 O   0  0  0  0  0
   21.5390   28.9180   12.2790 C   0  0  0  0  0
   22.6030   28.1080   11.5800 C   0  0  0  0  0
   22.2530   28.0620   10.0820 C   0  0  0  0  0
   20.8680   27.4650    9.8500 C   0  0  0  0  0
   23.3090   27.3000    9.2750 C   0  0  0  0  0
   22.6790   26.7540   12.0370 O   0  0  0  0  0
   20.7450   28.3470   13.2010 N   0  0  0  0  0
   19.6600   29.0970   13.8510 C   0  0  0  0  0
   18.4030   28.2190   13.7830 C   0  0  0  0  0
   17.9970   27.9210   12.3590 C   0  0  0  0  0
   17.5360   28.9420   11.5340 C   0  0  0  0  0
   17.1650   28.6490   10.2200 C   0  0  0  0  0
   17.2310   27.3500    9.7110 C   0  0  0  0  0
   17.7000   26.3370   10.5420 C   0  0  0  0  0
   18.0760   26.6120   11.8610 C   0  0  0  0  0
   20.0680   29.4470   15.2870 C   0  0  0  0  0
   19.9750   28.3220   16.1610 O   0  0  0  0  0
   19.1910   30.5480   15.8790 C   0  0  0  0  0
   19.4240   31.8010   15.1370 N   0  0  0  0  0
   20.1500   32.7950   15.9520 C   0  0  0  0  0
   21.6520   32.4860   15.9480 C   0  0  0  0  0
   22.2280   32.6120   14.5310 C   0  0  0  0  0
   22.4080   33.3440   16.9670 C   0  0  0  0  0
   22.0400   34.8110   16.9250 C   0  0  0  0  0
   18.0790   32.3910   14.4330 S   0  0  0  0  0
   17.3170   31.2870   13.9400 O   0  0  0  0  0
   18.5480   33.2510   13.3750 O   0  0  0  0  0
   17.1760   33.2420   15.5010 C   0  0  0  0  0
   17.3210   34.6360   15.7500 C   0  0  0  0  0
   16.5110   35.2980   16.7140 C   0  0  0  0  0
   16.6020   36.9690   17.0940 S   0  0  0  0  0
   15.3370   36.6190   18.2380 C   0  0  0  0  0
   14.9230   35.3360   18.3060 N   0  0  0  0  0
   15.5740   34.5430   17.4320 C   0  0  0  0  0
   15.4390   33.1880   17.1910 C   0  0  0  0  0
   16.2240   32.5430   16.2450 C   0  0  0  0  0
   23.5603   28.5861   11.7876 H   0  0  0  0  0
   22.2421   29.0930    9.7284 H   0  0  0  0  0
   20.6189   27.5292    8.7908 H   0  0  0  0  0
   20.8670   26.4207   10.1622 H   0  0  0  0  0
   20.1323   28.0202   10.4319 H   0  0  0  0  0
   23.3171   26.2550    9.5850 H   0  0  0  0  0
   23.0690   27.3636    8.2136 H   0  0  0  0  0
   24.2895   27.7411    9.4542 H   0  0  0  0  0
   22.8966   26.7448   12.9720 H   0  0  0  0  0
   20.8986   27.3713   13.4556 H   0  0  0  0  0
   19.4549   30.0440   13.3517 H   0  0  0  0  0
   17.5859   28.7558   14.2650 H   0  0  0  0  0
   18.6203   27.2737   14.2803 H   0  0  0  0  0
   17.4650   29.9625   11.9103 H   0  0  0  0  0
   16.8149   29.4548    9.5749 H   0  0  0  0  0
   16.9227   27.1349    8.6879 H   0  0  0  0  0
   17.7752   25.3185   10.1611 H   0  0  0  0  0
   18.4315   25.8067   12.5038 H   0  0  0  0  0
   21.1020   29.7842   15.2147 H   0  0  0  0  0
   20.2382   28.5835   17.0464 H   0  0  0  0  0
   19.4421   30.6918   16.9299 H   0  0  0  0  0
   18.1417   30.2640   15.7991 H   0  0  0  0  0
   19.7800   32.7558   16.9765 H   0  0  0  0  0
   19.9884   33.7878   15.5321 H   0  0  0  0  0
   21.7877   31.4509   16.2613 H   0  0  0  0  0
   21.7212   31.9086   13.8703 H   0  0  0  0  0
   22.0758   33.6282   14.1673 H   0  0  0  0  0
   23.2946   32.3884   14.5525 H   0  0  0  0  0
   23.4694   33.2688   16.7306 H   0  0  0  0  0
   22.1497   32.9729   17.9588 H   0  0  0  0  0
   22.2623   35.2119   15.9361 H   0  0  0  0  0
   20.9760   34.9235   17.1333 H   0  0  0  0  0
   22.6175   35.3508   17.6755 H   0  0  0  0  0
   18.0649   35.2055   15.1929 H   0  0  0  0  0
   14.9018   37.3958   18.8668 H   0  0  0  0  0
   14.7022   32.6155   17.7545 H   0  0  0  0  0
   16.0949   31.4733   16.0805 H   0  0  0  0  0
  1  2  2  0  0  0
  2  3  1  0  0  0
  2  8  1  0  0  0
  3  4  1  0  0  0
  3  7  1  0  0  0
  4  5  1  0  0  0
  4  6  1  0  0  0
  8  9  1  0  0  0
  9 10  1  0  0  0
  9 17  1  0  0  0
 10 11  1  0  0  0
 11 12  4  0  0  0
 11 16  4  0  0  0
 12 13  4  0  0  0
 13 14  4  0  0  0
 14 15  4  0  0  0
 15 16  4  0  0  0
 17 18  1  0  0  0
 17 19  1  0  0  0
 19 20  1  0  0  0
 20 21  1  0  0  0
 20 26  1  0  0  0
 21 22  1  0  0  0
 22 23  1  0  0  0
 22 24  1  0  0  0
 24 25  1  0  0  0
 26 27  2  0  0  0
 26 28  2  0  0  0
 26 29  1  0  0  0
 29 30  4  0  0  0
 29 37  4  0  0  0
 30 31  4  0  0  0
 31 32  4  0  0  0
 31 35  4  0  0  0
 32 33  4  0  0  0
 33 34  4  0  0  0
 34 35  4  0  0  0
 35 36  4  0  0  0
 36 37  4  0  0  0
  3 38  1  0  0  0
  4 39  1  0  0  0
  5 40  1  0  0  0
  5 41  1  0  0  0
  5 42  1  0  0  0
  6 43  1  0  0  0
  6 44  1  0  0  0
  6 45  1  0  0  0
  7 46  1  0  0  0
  8 47  1  0  0  0
  9 48  1  0  0  0
 10 49  1  0  0  0
 10 50  1  0  0  0
 12 51  1  0  0  0
 13 52  1  0  0  0
 14 53  1  0  0  0
 15 54  1  0  0  0
 16 55  1  0  0  0
 17 56  1  0  0  0
 18 57  1  0  0  0
 19 58  1  0  0  0
 19 59  1  0  0  0
 21 60  1  0  0  0
 21 61  1  0  0  0
 22 62  1  0  0  0
 23 63  1  0  0  0
 23 64  1  0  0  0
 23 65  1  0  0  0
 24 66  1  0  0  0
 24 67  1  0  0  0
 25 68  1  0  0  0
 25 69  1  0  0  0
 25 70  1  0  0  0
 30 71  1  0  0  0
 33 72  1  0  0  0
 36 73  1  0  0  0
 37 74  1  0  0  0
M  END
$$$$
