5ka9_ligand
  -I-interpret- 

 29 30  0  0  0  0  0  0  0  0999 V2000
   31.4230  -30.5800   -0.9150 N   0  3  0  0  0
   31.5910  -30.3730   -2.3380 C   0  0  0  0  0
   32.9950  -30.0800   -2.8540 C   0  0  0  0  0
   34.0630  -30.3910   -1.9520 C   0  0  0  0  0
   33.8380  -30.9850   -0.6020 C   0  0  0  0  0
   32.4580  -31.3730   -0.2390 C   0  0  0  0  0
   33.5570  -29.4700   -4.1980 S   0  0  0  0  0
   35.1050  -29.4920   -3.9700 C   0  0  0  0  0
   35.4070  -30.0050   -2.6800 C   0  0  0  0  0
   36.8440  -30.1550   -2.0870 C   0  0  0  0  0
   37.0100  -30.3680   -0.8120 O   0  0  0  0  0
   37.8450  -30.0410   -2.8590 O   0  0  0  0  0
   36.1680  -29.0530   -4.7980 N   0  0  0  0  0
   36.0470  -28.5940   -6.1170 C   0  0  0  0  0
   37.3420  -28.1420   -6.7590 C   0  0  0  0  0
   38.3820  -28.8190   -6.5420 O   0  0  0  0  0
   37.3540  -27.0640   -7.4720 O   0  0  0  0  0
   34.9510  -28.5720   -6.7310 O   0  0  0  0  0
   30.5532  -31.1017   -0.8071 H   0  0  0  0  0
   31.4557  -29.6534   -0.4898 H   0  0  0  0  0
   31.0039  -29.4854   -2.5737 H   0  0  0  0  0
   31.3006  -31.3143   -2.8047 H   0  0  0  0  0
   34.1169  -30.2063    0.1079 H   0  0  0  0  0
   34.4119  -31.9116   -0.5932 H   0  0  0  0  0
   32.3217  -32.4113   -0.5414 H   0  0  0  0  0
   32.3452  -31.2092    0.8327 H   0  0  0  0  0
   36.1526  -30.4270   -0.3843 H   0  0  0  0  0
   37.1061  -29.0728   -4.3980 H   0  0  0  0  0
   36.4664  -26.7008   -7.5158 H   0  0  0  0  0
  1  2  1  0  0  0
  1  6  1  0  0  0
  2  3  1  0  0  0
  3  4  4  0  0  0
  3  7  4  0  0  0
  4  5  1  0  0  0
  4  9  4  0  0  0
  5  6  1  0  0  0
  7  8  4  0  0  0
  8  9  4  0  0  0
  8 13  1  0  0  0
  9 10  1  0  0  0
 10 11  1  0  0  0
 10 12  2  0  0  0
 13 14  1  0  0  0
 14 15  1  0  0  0
 14 18  2  0  0  0
 15 16  2  0  0  0
 15 17  1  0  0  0
  1 19  1  0  0  0
  1 20  1  0  0  0
  2 21  1  0  0  0
  2 22  1  0  0  0
  5 23  1  0  0  0
  5 24  1  0  0  0
  6 25  1  0  0  0
  6 26  1  0  0  0
 11 27  1  0  0  0
 13 28  1  0  0  0
 17 29  1  0  0  0
M  END
$$$$
