6ccl_ligand
  -I-interpret- 

 27 29  0  0  0  0  0  0  0  0999 V2000
   24.8060  -10.9260   31.9190 C   0  0  0  0  0
   23.8380  -10.5930   32.8580 C   0  0  0  0  0
   23.4770  -11.4910   33.8540 C   0  0  0  0  0
   28.3170  -10.7900   30.7750 C   0  0  0  0  0
   27.7150   -9.6390   31.2730 C   0  0  0  0  0
   29.6920  -10.8820   30.9340 C   0  0  0  0  0
   30.3660   -9.8620   31.6000 C   0  0  0  0  0
   29.7700   -8.7570   32.0870 N   0  0  0  0  0
   28.4410   -8.6560   31.9030 C   0  0  0  0  0
   27.6370   -7.6060   32.2900 N   0  0  0  0  0
   26.4390   -7.9690   31.9010 C   0  0  0  0  0
   26.4080   -9.1840   31.2850 N   0  0  0  0  0
   25.2240   -9.9340   30.8630 C   0  0  0  0  0
   25.4110  -12.1760   32.0030 C   0  0  0  0  0
   25.0530  -13.0730   33.0000 C   0  0  0  0  0
   24.0840  -12.7310   33.9260 C   0  0  0  0  0
   23.3565   -9.6162   32.8126 H   0  0  0  0  0
   22.7126  -11.2173   34.5813 H   0  0  0  0  0
   27.7404  -11.5758   30.2870 H   0  0  0  0  0
   30.2372  -11.7410   30.5429 H   0  0  0  0  0
   31.4427   -9.9641   31.7356 H   0  0  0  0  0
   25.5509   -7.3563   32.0558 H   0  0  0  0  0
   24.4060   -9.2323   30.6999 H   0  0  0  0  0
   25.4624  -10.4772   29.9486 H   0  0  0  0  0
   26.1752  -12.4543   31.2773 H   0  0  0  0  0
   25.5363  -14.0486   33.0533 H   0  0  0  0  0
   23.8006  -13.4353   34.7081 H   0  0  0  0  0
  1  2  4  0  0  0
 13  1  1  0  0  0
  1 14  4  0  0  0
  2  3  4  0  0  0
  3 16  4  0  0  0
  5  4  4  0  0  0
  4  6  4  0  0  0
  5  9  4  0  0  0
 12  5  4  0  0  0
  6  7  4  0  0  0
  8  7  4  0  0  0
  9  8  4  0  0  0
 10  9  4  0  0  0
 11 10  4  0  0  0
 12 11  4  0  0  0
 12 13  1  0  0  0
 14 15  4  0  0  0
 15 16  4  0  0  0
  2 17  1  0  0  0
  3 18  1  0  0  0
  4 19  1  0  0  0
  6 20  1  0  0  0
  7 21  1  0  0  0
 11 22  1  0  0  0
 13 23  1  0  0  0
 13 24  1  0  0  0
 14 25  1  0  0  0
 15 26  1  0  0  0
 16 27  1  0  0  0
M  END
$$$$
