4wym_ligand
  -I-interpret- 

197203  0  0  0  0  0  0  0  0999 V2000
    1.9290  -66.1060  -56.7640 N   0  3  0  0  0
    2.1250  -64.8360  -56.0550 C   0  0  0  0  0
    0.8060  -64.2220  -55.5870 C   0  0  0  0  0
    0.1510  -63.5040  -56.3420 O   0  0  0  0  0
    2.8020  -63.9490  -57.1050 C   0  0  0  0  0
    2.3810  -64.5260  -58.4140 C   0  0  0  0  0
    2.2790  -66.0050  -58.1910 C   0  0  0  0  0
    0.4300  -64.5080  -54.3440 N   0  0  0  0  0
   -0.8120  -64.0020  -53.7710 C   0  0  0  0  0
   -0.7510  -62.4970  -53.5270 C   0  0  0  0  0
   -1.6660  -61.7600  -53.8940 O   0  0  0  0  0
   -1.1450  -64.7160  -52.4440 C   0  0  0  0  0
   -2.3080  -64.0330  -51.7360 C   0  0  0  0  0
   -1.4530  -66.1820  -52.6970 C   0  0  0  0  0
    0.3340  -62.0470  -52.9050 N   0  0  0  0  0
    0.5010  -60.6330  -52.5920 C   0  0  0  0  0
    1.6610  -60.0200  -53.3670 C   0  0  0  0  0
    2.7270  -60.6240  -53.4920 O   0  0  0  0  0
    0.7170  -60.4400  -51.0890 C   0  0  0  0  0
   -0.4760  -60.7720  -50.1920 C   0  0  0  0  0
   -0.1030  -60.6450  -48.7220 C   0  0  0  0  0
   -1.6490  -59.8680  -50.5310 C   0  0  0  0  0
    1.4410  -58.8160  -53.8840 N   0  0  0  0  0
    2.4640  -58.0960  -54.6310 C   0  0  0  0  0
    2.9310  -56.8620  -53.8580 C   0  0  0  0  0
    2.1830  -56.3220  -53.0420 O   0  0  0  0  0
    1.9330  -57.6960  -56.0100 C   0  0  0  0  0
    1.7150  -58.8580  -56.9370 C   0  0  0  0  0
    2.7820  -59.4440  -57.5990 C   0  0  0  0  0
    0.4430  -59.3620  -57.1510 C   0  0  0  0  0
    2.5850  -60.5110  -58.4540 C   0  0  0  0  0
    0.2400  -60.4290  -58.0060 C   0  0  0  0  0
    1.3130  -61.0040  -58.6570 C   0  0  0  0  0
    4.1770  -56.4240  -54.1010 N   0  0  0  0  0
    4.7140  -55.2370  -53.4240 C   0  0  0  0  0
    3.8800  -53.9840  -53.6690 C   0  0  0  0  0
    3.6210  -53.6320  -54.8200 O   0  0  0  0  0
    6.1060  -55.0820  -54.0410 C   0  0  0  0  0
    6.4710  -56.4450  -54.4940 C   0  0  0  0  0
    5.1920  -57.0830  -54.9420 C   0  0  0  0  0
    3.4650  -53.3260  -52.5910 N   0  0  0  0  0
    2.7250  -52.0830  -52.6990 C   0  0  0  0  0
    1.2370  -52.2250  -52.4420 C   0  0  0  0  0
    0.5980  -51.3020  -51.9360 O   0  0  0  0  0
    0.6810  -53.3800  -52.7930 N   0  0  0  0  0
   -0.7510  -53.6060  -52.6390 C   0  0  0  0  0
   -1.0870  -54.0090  -51.2060 C   0  0  0  0  0
   -0.3110  -54.7030  -50.5510 O   0  0  0  0  0
   -1.2400  -54.6740  -53.6230 C   0  0  0  0  0
   -0.9350  -56.1040  -53.2130 C   0  0  0  0  0
   -1.4640  -57.1180  -54.2040 C   0  0  0  0  0
   -1.3140  -56.9550  -55.4150 O   0  0  0  0  0
   -2.0930  -58.1710  -53.6940 N   0  0  0  0  0
   -2.2440  -53.5510  -50.7080 N   0  0  0  0  0
   -2.7100  -53.8710  -49.3540 C   0  0  0  0  0
   -2.9940  -55.3610  -49.1640 C   0  0  0  0  0
   -3.0880  -56.1030  -50.1440 O   0  0  0  0  0
   -3.9990  -53.0520  -49.2240 C   0  0  0  0  0
   -3.8590  -51.9610  -50.2240 C   0  0  0  0  0
   -3.1180  -52.5690  -51.3700 C   0  0  0  0  0
   -3.1170  -55.7870  -47.9110 N   0  0  0  0  0
   -3.4450  -57.1730  -47.5960 C   0  0  0  0  0
   -4.8990  -57.4790  -47.9550 C   0  0  0  0  0
   -5.7950  -56.6810  -47.6780 O   0  0  0  0  0
   -3.1970  -57.4640  -46.1120 C   0  0  0  0  0
   -1.7460  -57.4160  -45.7100 C   0  0  0  0  0
   -1.1490  -56.2200  -45.3430 C   0  0  0  0  0
   -0.9840  -58.5730  -45.6830 C   0  0  0  0  0
    0.1840  -56.1770  -44.9690 C   0  0  0  0  0
    0.3490  -58.5360  -45.3090 C   0  0  0  0  0
    0.9320  -57.3370  -44.9520 C   0  0  0  0  0
   -5.1280  -58.6350  -48.5710 N   0  0  0  0  0
   -6.4690  -59.0480  -48.9470 C   0  0  0  0  0
   -6.9620  -58.3970  -50.2260 C   0  0  0  0  0
   -8.1500  -58.4630  -50.5500 O   0  0  0  0  0
   -6.0460  -57.7700  -50.9560 N   0  0  0  0  0
   -6.3840  -57.1010  -52.2060 C   0  0  0  0  0
   -6.4890  -58.0970  -53.3560 C   0  0  0  0  0
   -5.5190  -58.7870  -53.6740 O   0  0  0  0  0
   -5.3420  -56.0290  -52.5340 C   0  0  0  0  0
   -5.6030  -55.2810  -53.8300 C   0  0  0  0  0
   -6.8590  -54.4360  -53.7740 C   0  0  0  0  0
   -7.6790  -54.4600  -54.6930 O   0  0  0  0  0
   -7.0150  -53.6770  -52.6960 N   0  0  0  0  0
   -7.6730  -58.1710  -53.9850 N   0  0  0  0  0
   -7.9180  -59.0600  -55.1260 C   0  0  0  0  0
   -7.0960  -58.6690  -56.3530 C   0  0  0  0  0
   -6.8380  -57.4820  -56.5560 O   0  0  0  0  0
   -9.4180  -58.8850  -55.3910 C   0  0  0  0  0
   -9.7460  -57.5400  -54.8370 C   0  0  0  0  0
   -8.8690  -57.3880  -53.6290 C   0  0  0  0  0
   -6.6860  -59.6630  -57.1600 N   0  0  0  0  0
   -5.8630  -59.4420  -58.3560 C   0  0  0  0  0
   -6.5230  -58.5080  -59.3670 C   0  0  0  0  0
   -5.8790  -58.1520  -60.3540 O   0  0  0  0  0
   -5.7120  -60.8510  -58.9430 C   0  0  0  0  0
   -5.9250  -61.7680  -57.7890 C   0  0  0  0  0
   -6.9580  -61.0940  -56.9390 C   0  0  0  0  0
   -7.7055  -58.1086  -59.1945 O   0  0  0  0  0
    0.9433  -66.3591  -56.6958 H   0  0  0  0  0
    2.5361  -66.8054  -56.3367 H   0  0  0  0  0
    2.7111  -64.9578  -55.1441 H   0  0  0  0  0
    3.8862  -63.9410  -56.9934 H   0  0  0  0  0
    2.5071  -62.9043  -57.0068 H   0  0  0  0  0
    3.0976  -64.2910  -59.2010 H   0  0  0  0  0
    1.4309  -64.1074  -58.7459 H   0  0  0  0  0
    1.5419  -66.4785  -58.8396 H   0  0  0  0  0
    3.2010  -66.5321  -58.4364 H   0  0  0  0  0
    1.0307  -65.1015  -53.7718 H   0  0  0  0  0
   -1.5968  -64.2072  -54.4990 H   0  0  0  0  0
   -0.2738  -64.6534  -51.7920 H   0  0  0  0  0
   -2.0432  -62.9978  -51.5207 H   0  0  0  0  0
   -3.1881  -64.0581  -52.3785 H   0  0  0  0  0
   -2.5220  -64.5560  -50.8039 H   0  0  0  0  0
   -2.3076  -66.2617  -53.3689 H   0  0  0  0  0
   -0.5858  -66.6609  -53.1516 H   0  0  0  0  0
   -1.6858  -66.6715  -51.7513 H   0  0  0  0  0
    1.0664  -62.7059  -52.6407 H   0  0  0  0  0
   -0.4131  -60.1207  -52.8921 H   0  0  0  0  0
    0.9237  -59.3798  -50.9432 H   0  0  0  0  0
    1.5145  -61.1261  -50.8039 H   0  0  0  0  0
   -0.7684  -61.8064  -50.3723 H   0  0  0  0  0
    0.7099  -61.3343  -48.4939 H   0  0  0  0  0
    0.2168  -59.6234  -48.5166 H   0  0  0  0  0
   -0.9695  -60.8866  -48.1064 H   0  0  0  0  0
   -1.3614  -58.8282  -50.3757 H   0  0  0  0  0
   -1.9312  -60.0165  -51.5733 H   0  0  0  0  0
   -2.4931  -60.1130  -49.8863 H   0  0  0  0  0
    0.5271  -58.3820  -53.7539 H   0  0  0  0  0
    3.3201  -58.7570  -54.7662 H   0  0  0  0  0
    2.6796  -57.0489  -56.4704 H   0  0  0  0  0
    0.9665  -57.2152  -55.8589 H   0  0  0  0  0
    3.7895  -59.0582  -57.4431 H   0  0  0  0  0
   -0.4079  -58.9122  -56.6394 H   0  0  0  0  0
    3.4337  -60.9627  -58.9675 H   0  0  0  0  0
   -0.7663  -60.8160  -58.1660 H   0  0  0  0  0
    1.1552  -61.8464  -59.3305 H   0  0  0  0  0
    4.7173  -55.3580  -52.3407 H   0  0  0  0  0
    6.8260  -54.6851  -53.3253 H   0  0  0  0  0
    6.1089  -54.3661  -54.8629 H   0  0  0  0  0
    6.9396  -57.0166  -53.6929 H   0  0  0  0  0
    7.2016  -56.4116  -55.3023 H   0  0  0  0  0
    5.0062  -56.9511  -56.0079 H   0  0  0  0  0
    5.1978  -58.1666  -54.8241 H   0  0  0  0  0
    3.6717  -53.7039  -51.6664 H   0  0  0  0  0
    2.8433  -51.7247  -53.7216 H   0  0  0  0  0
    3.1201  -51.4053  -51.9422 H   0  0  0  0  0
    1.2667  -54.1216  -53.1770 H   0  0  0  0  0
   -1.2650  -52.6707  -52.8609 H   0  0  0  0  0
   -0.7217  -54.4973  -54.5655 H   0  0  0  0  0
   -2.3250  -54.5839  -53.6748 H   0  0  0  0  0
   -1.4182  -56.2885  -52.2536 H   0  0  0  0  0
    0.1482  -56.2156  -53.1644 H   0  0  0  0  0
   -2.4752  -58.8859  -54.3131 H   0  0  0  0  0
   -2.1938  -58.2646  -52.6833 H   0  0  0  0  0
   -1.9598  -53.6359  -48.5990 H   0  0  0  0  0
   -4.1319  -52.6624  -48.2147 H   0  0  0  0  0
   -4.8855  -53.6591  -49.4076 H   0  0  0  0  0
   -3.3263  -51.1044  -49.8111 H   0  0  0  0  0
   -4.8297  -51.5741  -50.5340 H   0  0  0  0  0
   -3.7781  -53.0197  -52.1111 H   0  0  0  0  0
   -2.5646  -51.8346  -51.9552 H   0  0  0  0  0
   -2.9780  -55.1253  -47.1473 H   0  0  0  0  0
   -2.7965  -57.8164  -48.1906 H   0  0  0  0  0
   -3.5521  -58.4761  -45.9181 H   0  0  0  0  0
   -3.7154  -56.6936  -45.5412 H   0  0  0  0  0
   -1.7361  -55.3016  -45.3488 H   0  0  0  0  0
   -1.4393  -59.5240  -45.9595 H   0  0  0  0  0
    0.6417  -55.2284  -44.6885 H   0  0  0  0  0
    0.9375  -59.4534  -45.2966 H   0  0  0  0  0
    1.9809  -57.3062  -44.6572 H   0  0  0  0  0
   -4.3413  -59.2479  -48.7851 H   0  0  0  0  0
   -7.1428  -58.7485  -48.1443 H   0  0  0  0  0
   -6.4472  -60.1250  -49.1131 H   0  0  0  0  0
   -5.0788  -57.7564  -50.6325 H   0  0  0  0  0
   -7.3569  -56.6263  -52.0783 H   0  0  0  0  0
   -4.3832  -56.5359  -52.6433 H   0  0  0  0  0
   -5.3714  -55.2954  -51.7283 H   0  0  0  0  0
   -5.7307  -56.0185  -54.6224 H   0  0  0  0  0
   -4.7589  -54.6148  -54.0079 H   0  0  0  0  0
   -7.8392  -53.0830  -52.6054 H   0  0  0  0  0
   -6.3107  -53.6879  -51.9583 H   0  0  0  0  0
   -7.6296  -60.0901  -54.9168 H   0  0  0  0  0
  -10.0082  -59.6726  -54.9227 H   0  0  0  0  0
   -9.6544  -58.9561  -56.4527 H   0  0  0  0  0
  -10.8021  -57.4573  -54.5803 H   0  0  0  0  0
   -9.5667  -56.7499  -55.5662 H   0  0  0  0  0
   -8.6395  -56.3467  -53.4028 H   0  0  0  0  0
   -9.3464  -57.7395  -52.7143 H   0  0  0  0  0
   -4.9171  -58.9584  -58.1121 H   0  0  0  0  0
   -4.7344  -60.9968  -59.4024 H   0  0  0  0  0
   -6.4264  -61.0353  -59.7453 H   0  0  0  0  0
   -5.0011  -61.9424  -57.2375 H   0  0  0  0  0
   -6.2531  -62.7552  -58.1144 H   0  0  0  0  0
   -7.9759  -61.3770  -57.2070 H   0  0  0  0  0
   -6.8930  -61.3793  -55.8890 H   0  0  0  0  0
   -8.0525  -58.4815  -58.3808 H   0  0  0  0  0
  1  2  1  0  0  0
  1  7  1  0  0  0
  2  3  1  0  0  0
  2  5  1  0  0  0
  3  4  2  0  0  0
  3  8  1  0  0  0
  5  6  1  0  0  0
  6  7  1  0  0  0
  8  9  1  0  0  0
  9 10  1  0  0  0
  9 12  1  0  0  0
 10 11  2  0  0  0
 10 15  1  0  0  0
 12 13  1  0  0  0
 12 14  1  0  0  0
 15 16  1  0  0  0
 16 17  1  0  0  0
 16 19  1  0  0  0
 17 18  2  0  0  0
 17 23  1  0  0  0
 19 20  1  0  0  0
 20 21  1  0  0  0
 20 22  1  0  0  0
 23 24  1  0  0  0
 24 25  1  0  0  0
 24 27  1  0  0  0
 25 26  2  0  0  0
 25 34  1  0  0  0
 27 28  1  0  0  0
 28 29  4  0  0  0
 28 30  4  0  0  0
 29 31  4  0  0  0
 30 32  4  0  0  0
 31 33  4  0  0  0
 32 33  4  0  0  0
 34 35  1  0  0  0
 34 40  1  0  0  0
 35 36  1  0  0  0
 35 38  1  0  0  0
 36 37  2  0  0  0
 36 41  1  0  0  0
 38 39  1  0  0  0
 39 40  1  0  0  0
 41 42  1  0  0  0
 42 43  1  0  0  0
 43 44  2  0  0  0
 43 45  1  0  0  0
 45 46  1  0  0  0
 46 47  1  0  0  0
 46 49  1  0  0  0
 47 48  2  0  0  0
 47 54  1  0  0  0
 49 50  1  0  0  0
 50 51  1  0  0  0
 51 52  2  0  0  0
 51 53  1  0  0  0
 54 55  1  0  0  0
 54 60  1  0  0  0
 55 56  1  0  0  0
 55 58  1  0  0  0
 56 57  2  0  0  0
 56 61  1  0  0  0
 58 59  1  0  0  0
 59 60  1  0  0  0
 61 62  1  0  0  0
 62 63  1  0  0  0
 62 65  1  0  0  0
 63 64  2  0  0  0
 63 72  1  0  0  0
 65 66  1  0  0  0
 66 67  4  0  0  0
 66 68  4  0  0  0
 67 69  4  0  0  0
 68 70  4  0  0  0
 69 71  4  0  0  0
 70 71  4  0  0  0
 72 73  1  0  0  0
 73 74  1  0  0  0
 74 75  2  0  0  0
 74 76  1  0  0  0
 76 77  1  0  0  0
 77 78  1  0  0  0
 77 80  1  0  0  0
 78 79  2  0  0  0
 78 85  1  0  0  0
 80 81  1  0  0  0
 81 82  1  0  0  0
 82 83  2  0  0  0
 82 84  1  0  0  0
 85 86  1  0  0  0
 85 91  1  0  0  0
 86 87  1  0  0  0
 86 89  1  0  0  0
 87 88  2  0  0  0
 87 92  1  0  0  0
 89 90  1  0  0  0
 90 91  1  0  0  0
 92 93  1  0  0  0
 92 98  1  0  0  0
 93 94  1  0  0  0
 93 96  1  0  0  0
 94 95  2  0  0  0
 96 97  1  0  0  0
 97 98  1  0  0  0
 94 99  1  0  0  0
  1100  1  0  0  0
  1101  1  0  0  0
  2102  1  0  0  0
  5103  1  0  0  0
  5104  1  0  0  0
  6105  1  0  0  0
  6106  1  0  0  0
  7107  1  0  0  0
  7108  1  0  0  0
  8109  1  0  0  0
  9110  1  0  0  0
 12111  1  0  0  0
 13112  1  0  0  0
 13113  1  0  0  0
 13114  1  0  0  0
 14115  1  0  0  0
 14116  1  0  0  0
 14117  1  0  0  0
 15118  1  0  0  0
 16119  1  0  0  0
 19120  1  0  0  0
 19121  1  0  0  0
 20122  1  0  0  0
 21123  1  0  0  0
 21124  1  0  0  0
 21125  1  0  0  0
 22126  1  0  0  0
 22127  1  0  0  0
 22128  1  0  0  0
 23129  1  0  0  0
 24130  1  0  0  0
 27131  1  0  0  0
 27132  1  0  0  0
 29133  1  0  0  0
 30134  1  0  0  0
 31135  1  0  0  0
 32136  1  0  0  0
 33137  1  0  0  0
 35138  1  0  0  0
 38139  1  0  0  0
 38140  1  0  0  0
 39141  1  0  0  0
 39142  1  0  0  0
 40143  1  0  0  0
 40144  1  0  0  0
 41145  1  0  0  0
 42146  1  0  0  0
 42147  1  0  0  0
 45148  1  0  0  0
 46149  1  0  0  0
 49150  1  0  0  0
 49151  1  0  0  0
 50152  1  0  0  0
 50153  1  0  0  0
 53154  1  0  0  0
 53155  1  0  0  0
 55156  1  0  0  0
 58157  1  0  0  0
 58158  1  0  0  0
 59159  1  0  0  0
 59160  1  0  0  0
 60161  1  0  0  0
 60162  1  0  0  0
 61163  1  0  0  0
 62164  1  0  0  0
 65165  1  0  0  0
 65166  1  0  0  0
 67167  1  0  0  0
 68168  1  0  0  0
 69169  1  0  0  0
 70170  1  0  0  0
 71171  1  0  0  0
 72172  1  0  0  0
 73173  1  0  0  0
 73174  1  0  0  0
 76175  1  0  0  0
 77176  1  0  0  0
 80177  1  0  0  0
 80178  1  0  0  0
 81179  1  0  0  0
 81180  1  0  0  0
 84181  1  0  0  0
 84182  1  0  0  0
 86183  1  0  0  0
 89184  1  0  0  0
 89185  1  0  0  0
 90186  1  0  0  0
 90187  1  0  0  0
 91188  1  0  0  0
 91189  1  0  0  0
 93190  1  0  0  0
 96191  1  0  0  0
 96192  1  0  0  0
 97193  1  0  0  0
 97194  1  0  0  0
 98195  1  0  0  0
 98196  1  0  0  0
 99197  1  0  0  0
M  END
$$$$
