### 
### Created by X-TOOL on Mon Sep 10 21:13:19 2018
### 

@<TRIPOS>MOLECULE
4wym_ligand
  196   202     1     0     0
SMALL
GAST_HUCK


@<TRIPOS>ATOM
      1 N           1.9290  -66.1060  -56.7640 N.4       1 PRO         0.2461
      2 CA          2.1250  -64.8360  -56.0550 C.3       1 PRO         0.0670
      3 C           0.8060  -64.2220  -55.5870 C.2       1 PRO         0.2268
      4 O           0.1510  -63.5040  -56.3420 O.2       1 PRO        -0.3907
      5 CB          2.8020  -63.9490  -57.1050 C.3       1 PRO         0.0127
      6 CG          2.3810  -64.5260  -58.4140 C.3       1 PRO        -0.0053
      7 CD          2.2790  -66.0050  -58.1910 C.3       1 PRO        -0.0313
      8 N           0.4300  -64.5080  -54.3440 N.am      1 VAL        -0.2608
      9 CA         -0.8120  -64.0020  -53.7710 C.3       1 VAL         0.1334
     10 C          -0.7510  -62.4970  -53.5270 C.2       1 VAL         0.2042
     11 O          -1.6660  -61.7600  -53.8940 O.2       1 VAL        -0.3944
     12 CB         -1.1450  -64.7160  -52.4440 C.3       1 VAL        -0.0063
     13 CG1        -2.3080  -64.0330  -51.7360 C.3       1 VAL        -0.0584
     14 CG2        -1.4530  -66.1820  -52.6970 C.3       1 VAL        -0.0584
     15 N           0.3340  -62.0470  -52.9050 N.am      1 LEU        -0.2637
     16 CA          0.5010  -60.6330  -52.5920 C.3       1 LEU         0.1312
     17 C           1.6610  -60.0200  -53.3670 C.2       1 LEU         0.2040
     18 O           2.7270  -60.6240  -53.4920 O.2       1 LEU        -0.3944
     19 CB          0.7170  -60.4400  -51.0890 C.3       1 LEU        -0.0101
     20 CG         -0.4760  -60.7720  -50.1920 C.3       1 LEU        -0.0425
     21 CD1        -0.1030  -60.6450  -48.7220 C.3       1 LEU        -0.0625
     22 CD2        -1.6490  -59.8680  -50.5310 C.3       1 LEU        -0.0625
     23 N           1.4410  -58.8160  -53.8840 N.am      1 PHE        -0.2619
     24 CA          2.4640  -58.0960  -54.6310 C.3       1 PHE         0.1406
     25 C           2.9310  -56.8620  -53.8580 C.2       1 PHE         0.2085
     26 O           2.1830  -56.3220  -53.0420 O.2       1 PHE        -0.3940
     27 CB          1.9330  -57.6960  -56.0100 C.3       1 PHE         0.0214
     28 CG          1.7150  -58.8580  -56.9370 C.ar      1 PHE        -0.0386
     29 CD1         2.7820  -59.4440  -57.5990 C.ar      1 PHE        -0.0601
     30 CD2         0.4430  -59.3620  -57.1510 C.ar      1 PHE        -0.0601
     31 CE1         2.5850  -60.5110  -58.4540 C.ar      1 PHE        -0.0686
     32 CE2         0.2400  -60.4290  -58.0060 C.ar      1 PHE        -0.0686
     33 CZ          1.3130  -61.0040  -58.6570 C.ar      1 PHE        -0.0687
     34 N           4.1770  -56.4240  -54.1010 N.am      1 PRO        -0.2497
     35 CA          4.7140  -55.2370  -53.4240 C.3       1 PRO         0.1338
     36 C           3.8800  -53.9840  -53.6690 C.2       1 PRO         0.2039
     37 O           3.6210  -53.6320  -54.8200 O.2       1 PRO        -0.3944
     38 CB          6.1060  -55.0820  -54.0410 C.3       1 PRO        -0.0104
     39 CG          6.4710  -56.4450  -54.4940 C.3       1 PRO        -0.0281
     40 CD          5.1920  -57.0830  -54.9420 C.3       1 PRO         0.0369
     41 N           3.4650  -53.3260  -52.5910 N.am      1 GLY        -0.2664
     42 CA          2.7250  -52.0830  -52.6990 C.3       1 GLY         0.1201
     43 C           1.2370  -52.2250  -52.4420 C.2       1 GLY         0.2007
     44 O           0.5980  -51.3020  -51.9360 O.2       1 GLY        -0.3947
     45 N           0.6810  -53.3800  -52.7930 N.am      1 GLN        -0.2638
     46 CA         -0.7510  -53.6060  -52.6390 C.3       1 GLN         0.1332
     47 C          -1.0870  -54.0090  -51.2060 C.2       1 GLN         0.2065
     48 O          -0.3110  -54.7030  -50.5510 O.2       1 GLN        -0.3942
     49 CB         -1.2400  -54.6740  -53.6230 C.3       1 GLN         0.0045
     50 CG         -0.9350  -56.1040  -53.2130 C.3       1 GLN         0.0412
     51 CD         -1.4640  -57.1180  -54.2040 C.2       1 GLN         0.1737
     52 OE1        -1.3140  -56.9550  -55.4150 O.2       1 GLN        -0.3973
     53 NE2        -2.0930  -58.1710  -53.6940 N.am      1 GLN        -0.3009
     54 N          -2.2440  -53.5510  -50.7080 N.am      1 PRO        -0.2498
     55 CA         -2.7100  -53.8710  -49.3540 C.3       1 PRO         0.1338
     56 C          -2.9940  -55.3610  -49.1640 C.2       1 PRO         0.2042
     57 O          -3.0880  -56.1030  -50.1440 O.2       1 PRO        -0.3944
     58 CB         -3.9990  -53.0520  -49.2240 C.3       1 PRO        -0.0104
     59 CG         -3.8590  -51.9610  -50.2240 C.3       1 PRO        -0.0281
     60 CD         -3.1180  -52.5690  -51.3700 C.3       1 PRO         0.0369
     61 N          -3.1170  -55.7870  -47.9110 N.am      1 PHE        -0.2619
     62 CA         -3.4450  -57.1730  -47.5960 C.3       1 PHE         0.1404
     63 C          -4.8990  -57.4790  -47.9550 C.2       1 PHE         0.2058
     64 O          -5.7950  -56.6810  -47.6780 O.2       1 PHE        -0.3942
     65 CB         -3.1970  -57.4640  -46.1120 C.3       1 PHE         0.0214
     66 CG         -1.7460  -57.4160  -45.7100 C.ar      1 PHE        -0.0386
     67 CD1        -1.1490  -56.2200  -45.3430 C.ar      1 PHE        -0.0601
     68 CD2        -0.9840  -58.5730  -45.6830 C.ar      1 PHE        -0.0601
     69 CE1         0.1840  -56.1770  -44.9690 C.ar      1 PHE        -0.0686
     70 CE2         0.3490  -58.5360  -45.3090 C.ar      1 PHE        -0.0686
     71 CZ          0.9320  -57.3370  -44.9520 C.ar      1 PHE        -0.0687
     72 N          -5.1280  -58.6350  -48.5710 N.am      1 GLY        -0.2663
     73 CA         -6.4690  -59.0480  -48.9470 C.3       1 GLY         0.1201
     74 C          -6.9620  -58.3970  -50.2260 C.2       1 GLY         0.2007
     75 O          -8.1500  -58.4630  -50.5500 O.2       1 GLY        -0.3947
     76 N          -6.0460  -57.7700  -50.9560 N.am      1 GLN        -0.2638
     77 CA         -6.3840  -57.1010  -52.2060 C.3       1 GLN         0.1332
     78 C          -6.4890  -58.0970  -53.3560 C.2       1 GLN         0.2065
     79 O          -5.5190  -58.7870  -53.6740 O.2       1 GLN        -0.3942
     80 CB         -5.3420  -56.0290  -52.5340 C.3       1 GLN         0.0045
     81 CG         -5.6030  -55.2810  -53.8300 C.3       1 GLN         0.0412
     82 CD         -6.8590  -54.4360  -53.7740 C.2       1 GLN         0.1737
     83 OE1        -7.6790  -54.4600  -54.6930 O.2       1 GLN        -0.3973
     84 NE2        -7.0150  -53.6770  -52.6960 N.am      1 GLN        -0.3009
     85 N          -7.6730  -58.1710  -53.9850 N.am      1 PRO        -0.2498
     86 CA         -7.9180  -59.0600  -55.1260 C.3       1 PRO         0.1339
     87 C          -7.0960  -58.6690  -56.3530 C.2       1 PRO         0.2061
     88 O          -6.8380  -57.4820  -56.5560 O.2       1 PRO        -0.3942
     89 CB         -9.4180  -58.8850  -55.3910 C.3       1 PRO        -0.0104
     90 CG         -9.7460  -57.5400  -54.8370 C.3       1 PRO        -0.0281
     91 CD         -8.8690  -57.3880  -53.6290 C.3       1 PRO         0.0369
     92 N          -6.6860  -59.6630  -57.1600 N.am      1 PRO        -0.2531
     93 CA         -5.8630  -59.4420  -58.3560 C.3       1 PRO         0.1254
     94 C          -6.5230  -58.5080  -59.3670 C.2       1 PRO         0.2151
     95 O          -5.8790  -58.1520  -60.3540 O.co2     1 PRO        -0.4120
     96 CB         -5.7120  -60.8510  -58.9430 C.3       1 PRO        -0.0135
     97 CG         -5.9250  -61.7680  -57.7890 C.3       1 PRO        -0.0287
     98 CD         -6.9580  -61.0940  -56.9390 C.3       1 PRO         0.0363
     99 H           0.9610  -66.3759  -56.6853 H         1 PRO         0.2035
    100 H           2.5100  -66.8099  -56.3362 H         1 PRO         0.2035
    101 H           2.7814  -64.9790  -55.1840 H         1 PRO         0.1099
    102 H           3.8961  -63.9869  -56.9980 H         1 PRO         0.0347
    103 H           2.4603  -62.9076  -57.0120 H         1 PRO         0.0347
    104 H           3.1299  -64.3057  -59.1890 H         1 PRO         0.0320
    105 H           1.4068  -64.1159  -58.7184 H         1 PRO         0.0320
    106 H           1.4934  -66.4459  -58.8222 H         1 PRO         0.0814
    107 H           3.2380  -66.5023  -58.3982 H         1 PRO         0.0814
    108 H           1.0189  -65.0898  -53.7830 H         1 VAL         0.1885
    109 H          -1.6220  -64.2036  -54.4874 H         1 VAL         0.0802
    110 H          -0.2627  -64.6567  -51.7897 H         1 VAL         0.0343
    111 H          -2.5249  -64.5600  -50.7951 H         1 VAL         0.0234
    112 H          -3.1969  -64.0577  -52.3834 H         1 VAL         0.0234
    113 H          -2.0420  -62.9881  -51.5181 H         1 VAL         0.0234
    114 H          -0.6003  -66.6529  -53.2081 H         1 VAL         0.0234
    115 H          -2.3500  -66.2646  -53.3283 H         1 VAL         0.0234
    116 H          -1.6316  -66.6900  -51.7378 H         1 VAL         0.0234
    117 H           1.0520  -62.6930  -52.6459 H         1 LEU         0.1883
    118 H          -0.4212  -60.1076  -52.8811 H         1 LEU         0.0800
    119 H           0.9821  -59.3859  -50.9197 H         1 LEU         0.0315
    120 H           1.5561  -61.0827  -50.7844 H         1 LEU         0.0315
    121 H          -0.7739  -61.8136  -50.3825 H         1 LEU         0.0298
    122 H          -0.9767  -60.8886  -48.0997 H         1 LEU         0.0232
    123 H           0.2199  -59.6144  -48.5133 H         1 LEU         0.0232
    124 H           0.7174  -61.3403  -48.4904 H         1 LEU         0.0232
    125 H          -1.8998  -59.9768  -51.5965 H         1 LEU         0.0232
    126 H          -1.3782  -58.8223  -50.3231 H         1 LEU         0.0232
    127 H          -2.5184  -60.1503  -49.9190 H         1 LEU         0.0232
    128 H           0.5451  -58.3906  -53.7564 H         1 PHE         0.1885
    129 H           3.3266  -58.7642  -54.7708 H         1 PHE         0.0823
    130 H           2.6580  -57.0123  -56.4757 H         1 PHE         0.0474
    131 H           0.9733  -57.1759  -55.8745 H         1 PHE         0.0474
    132 H           3.7839  -59.0603  -57.4440 H         1 PHE         0.0557
    133 H          -0.4032  -58.9146  -56.6422 H         1 PHE         0.0557
    134 H           3.4291  -60.9602  -58.9647 H         1 PHE         0.0599
    135 H          -0.7608  -60.8139  -58.1652 H         1 PHE         0.0599
    136 H           1.1560  -61.8418  -59.3268 H         1 PHE         0.0559
    137 H           4.7832  -55.4134  -52.3405 H         1 PRO         0.0802
    138 H           6.8239  -54.7171  -53.2917 H         1 PRO         0.0313
    139 H           6.0778  -54.3852  -54.8917 H         1 PRO         0.0313
    140 H           6.9151  -57.0175  -53.6664 H         1 PRO         0.0287
    141 H           7.1856  -56.3926  -55.3286 H         1 PRO         0.0287
    142 H           5.0069  -56.8896  -56.0089 H         1 PRO         0.0524
    143 H           5.2085  -58.1683  -54.7636 H         1 PRO         0.0524
    144 H           3.6677  -53.6965  -51.6846 H         1 GLY         0.1881
    145 H           2.8638  -51.6853  -53.7151 H         1 GLY         0.0763
    146 H           3.1357  -51.3715  -51.9675 H         1 GLY         0.0763
    147 H           1.2552  -54.1070  -53.1695 H         1 GLN         0.1883
    148 H          -1.2735  -52.6645  -52.8637 H         1 GLN         0.0801
    149 H          -0.7620  -54.4876  -54.5960 H         1 GLN         0.0337
    150 H          -2.3305  -54.5723  -53.7246 H         1 GLN         0.0337
    151 H          -1.3959  -56.2956  -52.2328 H         1 GLN         0.0504
    152 H           0.1557  -56.2233  -53.1350 H         1 GLN         0.0504
    153 H          -2.4639  -58.8740  -54.3007 H         1 GLN         0.1814
    154 H          -2.1956  -58.2607  -52.7033 H         1 GLN         0.1814
    155 H          -1.9675  -53.5516  -48.6079 H         1 PRO         0.0802
    156 H          -4.0941  -52.6377  -48.2095 H         1 PRO         0.0313
    157 H          -4.8776  -53.6740  -49.4499 H         1 PRO         0.0313
    158 H          -3.2902  -51.1204  -49.8000 H         1 PRO         0.0287
    159 H          -4.8484  -51.6072  -50.5493 H         1 PRO         0.0287
    160 H          -3.8077  -53.0615  -52.0713 H         1 PRO         0.0524
    161 H          -2.5279  -51.8117  -51.9069 H         1 PRO         0.0524
    162 H          -2.9807  -55.1383  -47.1623 H         1 PHE         0.1885
    163 H          -2.7933  -57.8276  -48.1933 H         1 PHE         0.0823
    164 H          -3.5846  -58.4687  -45.8875 H         1 PHE         0.0474
    165 H          -3.7450  -56.7182  -45.5174 H         1 PHE         0.0474
    166 H          -1.7328  -55.3067  -45.3488 H         1 PHE         0.0557
    167 H          -1.4368  -59.5187  -45.9580 H         1 PHE         0.0557
    168 H           0.6392  -55.2336  -44.6900 H         1 PHE         0.0599
    169 H           0.9342  -59.4484  -45.2967 H         1 PHE         0.0599
    170 H           1.9752  -57.3063  -44.6589 H         1 PHE         0.0559
    171 H          -4.3567  -59.2359  -48.7810 H         1 GLY         0.1881
    172 H          -7.1577  -58.7814  -48.1318 H         1 GLY         0.0763
    173 H          -6.4717  -60.1390  -49.0873 H         1 GLY         0.0763
    174 H          -5.0977  -57.7567  -50.6388 H         1 GLN         0.1883
    175 H          -7.3613  -56.6117  -52.0819 H         1 GLN         0.0801
    176 H          -4.3585  -56.5158  -52.6091 H         1 GLN         0.0337
    177 H          -5.3279  -55.2988  -51.7114 H         1 GLN         0.0337
    178 H          -5.7075  -56.0133  -54.6442 H         1 GLN         0.0504
    179 H          -4.7454  -54.6236  -54.0359 H         1 GLN         0.0504
    180 H          -7.8254  -53.0983  -52.6050 H         1 GLN         0.1814
    181 H          -6.3221  -53.6840  -51.9750 H         1 GLN         0.1814
    182 H          -7.6881  -60.1020  -54.8587 H         1 PRO         0.0802
    183 H          -9.9964  -59.6674  -54.8779 H         1 PRO         0.0313
    184 H          -9.6282  -58.9218  -56.4701 H         1 PRO         0.0313
    185 H         -10.8072  -57.4883  -54.5522 H         1 PRO         0.0287
    186 H          -9.5257  -56.7546  -55.5749 H         1 PRO         0.0287
    187 H          -8.6131  -56.3321  -53.4570 H         1 PRO         0.0524
    188 H          -9.3571  -57.7978  -52.7324 H         1 PRO         0.0524
    189 H          -4.8833  -59.0282  -58.0750 H         1 PRO         0.0753
    190 O1         -7.7055  -58.1086  -59.1945 O.co2     1 PRO        -0.4120
    191 H          -4.7063  -60.9886  -59.3669 H         1 PRO         0.0307
    192 H          -6.4664  -61.0286  -59.7236 H         1 PRO         0.0307
    193 H          -4.9899  -61.9031  -57.2256 H         1 PRO         0.0286
    194 H          -6.2890  -62.7465  -58.1356 H         1 PRO         0.0286
    195 H          -7.9740  -61.3587  -57.2671 H         1 PRO         0.0524
    196 H          -6.8336  -61.3611  -55.8792 H         1 PRO         0.0524
@<TRIPOS>BOND
     1    1    2 1  
     2    1    7 1  
     3    2    3 1  
     4    2    5 1  
     5    3    4 2  
     6    3    8 am 
     7    5    6 1  
     8    6    7 1  
     9    8    9 1  
    10    9   10 1  
    11    9   12 1  
    12   10   11 2  
    13   10   15 am 
    14   12   13 1  
    15   12   14 1  
    16   15   16 1  
    17   16   17 1  
    18   16   19 1  
    19   17   18 2  
    20   17   23 am 
    21   19   20 1  
    22   20   21 1  
    23   20   22 1  
    24   23   24 1  
    25   24   25 1  
    26   24   27 1  
    27   25   26 2  
    28   25   34 am 
    29   27   28 1  
    30   28   29 ar 
    31   28   30 ar 
    32   29   31 ar 
    33   30   32 ar 
    34   31   33 ar 
    35   32   33 ar 
    36   34   35 1  
    37   34   40 1  
    38   35   36 1  
    39   35   38 1  
    40   36   37 2  
    41   36   41 am 
    42   38   39 1  
    43   39   40 1  
    44   41   42 1  
    45   42   43 1  
    46   43   44 2  
    47   43   45 am 
    48   45   46 1  
    49   46   47 1  
    50   46   49 1  
    51   47   48 2  
    52   47   54 am 
    53   49   50 1  
    54   50   51 1  
    55   51   52 2  
    56   51   53 am 
    57   54   55 1  
    58   54   60 1  
    59   55   56 1  
    60   55   58 1  
    61   56   57 2  
    62   56   61 am 
    63   58   59 1  
    64   59   60 1  
    65   61   62 1  
    66   62   63 1  
    67   62   65 1  
    68   63   64 2  
    69   63   72 am 
    70   65   66 1  
    71   66   67 ar 
    72   66   68 ar 
    73   67   69 ar 
    74   68   70 ar 
    75   69   71 ar 
    76   70   71 ar 
    77   72   73 1  
    78   73   74 1  
    79   74   75 2  
    80   74   76 am 
    81   76   77 1  
    82   77   78 1  
    83   77   80 1  
    84   78   79 2  
    85   78   85 am 
    86   80   81 1  
    87   81   82 1  
    88   82   83 2  
    89   82   84 am 
    90   85   86 1  
    91   85   91 1  
    92   86   87 1  
    93   86   89 1  
    94   87   88 2  
    95   87   92 am 
    96   89   90 1  
    97   90   91 1  
    98   92   93 1  
    99   92   98 1  
   100   93   94 1  
   101   93   96 1  
   102   94   95 ar 
   103   96   97 1  
   104   97   98 1  
   105    1   99 1  
   106    1  100 1  
   107    2  101 1  
   108    5  102 1  
   109    5  103 1  
   110    6  104 1  
   111    6  105 1  
   112    7  106 1  
   113    7  107 1  
   114    8  108 1  
   115    9  109 1  
   116   12  110 1  
   117   13  111 1  
   118   13  112 1  
   119   13  113 1  
   120   14  114 1  
   121   14  115 1  
   122   14  116 1  
   123   15  117 1  
   124   16  118 1  
   125   19  119 1  
   126   19  120 1  
   127   20  121 1  
   128   21  122 1  
   129   21  123 1  
   130   21  124 1  
   131   22  125 1  
   132   22  126 1  
   133   22  127 1  
   134   23  128 1  
   135   24  129 1  
   136   27  130 1  
   137   27  131 1  
   138   29  132 1  
   139   30  133 1  
   140   31  134 1  
   141   32  135 1  
   142   33  136 1  
   143   35  137 1  
   144   38  138 1  
   145   38  139 1  
   146   39  140 1  
   147   39  141 1  
   148   40  142 1  
   149   40  143 1  
   150   41  144 1  
   151   42  145 1  
   152   42  146 1  
   153   45  147 1  
   154   46  148 1  
   155   49  149 1  
   156   49  150 1  
   157   50  151 1  
   158   50  152 1  
   159   53  153 1  
   160   53  154 1  
   161   55  155 1  
   162   58  156 1  
   163   58  157 1  
   164   59  158 1  
   165   59  159 1  
   166   60  160 1  
   167   60  161 1  
   168   61  162 1  
   169   62  163 1  
   170   65  164 1  
   171   65  165 1  
   172   67  166 1  
   173   68  167 1  
   174   69  168 1  
   175   70  169 1  
   176   71  170 1  
   177   72  171 1  
   178   73  172 1  
   179   73  173 1  
   180   76  174 1  
   181   77  175 1  
   182   80  176 1  
   183   80  177 1  
   184   81  178 1  
   185   81  179 1  
   186   84  180 1  
   187   84  181 1  
   188   86  182 1  
   189   89  183 1  
   190   89  184 1  
   191   90  185 1  
   192   90  186 1  
   193   91  187 1  
   194   91  188 1  
   195   93  189 1  
   196   94  190 ar 
   197   96  191 1  
   198   96  192 1  
   199   97  193 1  
   200   97  194 1  
   201   98  195 1  
   202   98  196 1  
@<TRIPOS>SUBSTRUCTURE
     1 PRO         1

