4dfl_ligand
  -I-interpret- 

 53 55  0  0  0  0  0  0  0  0999 V2000
    0.6800   -1.0190   14.5190 C   0  0  0  0  0
    0.1780   -0.2040   13.5150 C   0  0  0  0  0
   -0.1410   -1.9360   15.1640 C   0  0  0  0  0
   -1.1500   -0.3160   13.1280 C   0  0  0  0  0
   -1.4630   -2.0350   14.7880 C   0  0  0  0  0
   -1.9670   -1.2290   13.7860 C   0  0  0  0  0
    2.0800   -0.8490   14.8630 C   0  0  0  0  0
    2.7550   -1.6360   15.7810 C   0  0  0  0  0
    4.0770   -1.3830   16.0350 N   0  0  0  0  0
    4.0730    0.4120   14.4360 C   0  0  0  0  0
    4.7410   -0.3550   15.3710 C   0  0  0  0  0
    5.7620    1.9600   13.9340 O   0  0  0  0  0
    4.1950    3.3130   11.9700 C   0  0  0  0  0
    2.9890    4.2530   12.0310 C   0  0  0  0  0
    2.8270    4.8460   13.4450 C   0  0  0  0  0
    3.1330    5.4050   11.0290 C   0  0  0  0  0
    1.8000    6.1630   11.0190 C   0  0  0  0  0
    1.4660    6.6540   12.3710 N   0  3  0  0  0
    0.4130    1.6000   11.2630 O   0  0  0  0  0
   -1.3290    3.1870   12.5510 C   0  0  0  0  0
   -1.6070    2.0940   10.1510 O   0  0  0  0  0
   -1.0030    1.8100   11.4370 S   0  0  0  0  0
   -1.7250    0.5080   12.1270 N   0  0  0  0  0
    2.7420    0.1530   14.2040 N   0  0  0  0  0
    6.0840   -0.1510   15.6830 N   0  0  0  0  0
    4.6450    1.5490   13.6920 C   0  0  0  0  0
    3.8220    2.1360   12.7660 N   0  0  0  0  0
    1.5450    5.6930   13.4980 C   0  0  0  0  0
    0.8271    0.5249   13.0297 H   0  0  0  0  0
    0.2558   -2.5692   15.9576 H   0  0  0  0  0
   -2.1150   -2.7538   15.2844 H   0  0  0  0  0
   -3.0178   -1.3095   13.5076 H   0  0  0  0  0
    2.2402   -2.4474   16.2955 H   0  0  0  0  0
    5.0921    3.7911   12.3635 H   0  0  0  0  0
    4.4337    3.0387   10.9425 H   0  0  0  0  0
    2.1088    3.6622   11.7774 H   0  0  0  0  0
    3.6878    5.4726   13.6783 H   0  0  0  0  0
    2.7606    4.0381   14.1737 H   0  0  0  0  0
    3.3662    5.0235   10.0349 H   0  0  0  0  0
    3.9497    6.0665   11.3180 H   0  0  0  0  0
    1.0131    5.4860   10.6865 H   0  0  0  0  0
    1.8859    7.0164   10.3464 H   0  0  0  0  0
    0.4869    6.9358   12.3230 H   0  0  0  0  0
    2.1601    7.3722   12.5779 H   0  0  0  0  0
   -0.8869    2.9772   13.5250 H   0  0  0  0  0
   -0.8911    4.0966   12.1401 H   0  0  0  0  0
   -2.4057    3.3176   12.6598 H   0  0  0  0  0
   -2.6652    0.2717   11.8098 H   0  0  0  0  0
    6.5427   -0.7441   16.3745 H   0  0  0  0  0
    6.6081    0.5914   15.2198 H   0  0  0  0  0
    2.8967    1.7319   12.6213 H   0  0  0  0  0
    1.5495    6.2597   14.4291 H   0  0  0  0  0
    0.6896    5.0205   13.4327 H   0  0  0  0  0
  1  2  4  0  0  0
  1  3  4  0  0  0
  7  1  1  0  0  0
  2  4  4  0  0  0
  3  5  4  0  0  0
  4  6  4  0  0  0
  4 23  1  0  0  0
  5  6  4  0  0  0
  7  8  4  0  0  0
 24  7  4  0  0  0
  9  8  4  0  0  0
 11  9  4  0  0  0
 10 11  4  0  0  0
 10 24  4  0  0  0
 26 10  1  0  0  0
 11 25  1  0  0  0
 26 12  2  0  0  0
 13 14  1  0  0  0
 27 13  1  0  0  0
 14 15  1  0  0  0
 14 16  1  0  0  0
 15 28  1  0  0  0
 16 17  1  0  0  0
 17 18  1  0  0  0
 28 18  1  0  0  0
 22 19  2  0  0  0
 22 20  1  0  0  0
 22 21  2  0  0  0
 23 22  1  0  0  0
 26 27  1  0  0  0
  2 29  1  0  0  0
  3 30  1  0  0  0
  5 31  1  0  0  0
  6 32  1  0  0  0
  8 33  1  0  0  0
 13 34  1  0  0  0
 13 35  1  0  0  0
 14 36  1  0  0  0
 15 37  1  0  0  0
 15 38  1  0  0  0
 16 39  1  0  0  0
 16 40  1  0  0  0
 17 41  1  0  0  0
 17 42  1  0  0  0
 18 43  1  0  0  0
 18 44  1  0  0  0
 20 45  1  0  0  0
 20 46  1  0  0  0
 20 47  1  0  0  0
 23 48  1  0  0  0
 25 49  1  0  0  0
 25 50  1  0  0  0
 27 51  1  0  0  0
 28 52  1  0  0  0
 28 53  1  0  0  0
M  END
$$$$
