### 
### Created by X-TOOL on Mon Sep 10 21:13:23 2018
### 

@<TRIPOS>MOLECULE
4y32_ligand
  116   117     1     0     0
SMALL
GAST_HUCK


@<TRIPOS>ATOM
      1 N          23.7170    5.1350   14.9800 N.4       1 ARG         0.2379
      2 CA         23.4650    5.7100   16.3310 C.3       1 ARG         0.0651
      3 C          22.6160    6.9830   16.2930 C.2       1 ARG         0.2268
      4 O          21.6750    7.0760   17.0730 O.2       1 ARG        -0.3907
      5 CB         24.7610    5.9920   17.0940 C.3       1 ARG         0.0110
      6 CG         24.5100    6.5530   18.4900 C.3       1 ARG        -0.0125
      7 CD         24.3640    5.4110   19.4790 C.3       1 ARG         0.0629
      8 NE         23.1830    5.5490   20.3220 N.pl3     1 ARG        -0.2723
      9 CZ         22.0240    4.9270   20.1070 C.cat     1 ARG         0.2882
     10 NH1        21.0040    5.1220   20.9400 N.pl3     1 ARG        -0.2849
     11 NH2        21.8810    4.1120   19.0640 N.pl3     1 ARG        -0.2849
     12 N          22.9520    7.9650   15.4340 N.am      1 THR        -0.2586
     13 CA         22.1770    9.2100   15.3910 C.3       1 THR         0.1568
     14 C          20.7890    8.9320   14.7470 C.2       1 THR         0.2090
     15 O          20.6890    8.3550   13.6680 O.2       1 THR        -0.3941
     16 CB         22.8450   10.2920   14.5010 C.3       1 THR         0.0924
     17 OG1        24.2210   10.5070   14.8720 O.3       1 THR        -0.3874
     18 CG2        22.0560   11.5990   14.5630 C.3       1 THR        -0.0346
     19 N          19.7120    9.3970   15.3910 N.am      1 PRO        -0.2498
     20 CA         18.4100    9.1990   14.7670 C.3       1 PRO         0.1338
     21 C          18.0570    9.9770   13.4680 C.2       1 PRO         0.2042
     22 O          18.3250   11.2060   13.2760 O.2       1 PRO        -0.3944
     23 CB         17.4110    9.5220   15.9030 C.3       1 PRO        -0.0104
     24 CG         18.1720   10.3100   16.9400 C.3       1 PRO        -0.0281
     25 CD         19.6570   10.0290   16.7200 C.3       1 PRO         0.0369
     26 N          17.3760    9.2790   12.5580 N.am      1 SEP        -0.2613
     27 CA         16.9160    9.8830   11.3050 C.3       1 SEP         0.1586
     28 CB         17.0850    8.8660   10.1710 C.3       1 SEP         0.1184
     29 OG         16.3240    7.6810   10.5300 O.3       1 SEP        -0.2714
     30 C          15.4720   10.2920   11.4230 C.2       1 SEP         0.2065
     31 O          14.8670   10.1930   12.5270 O.2       1 SEP        -0.3943
     32 P          16.5740    6.4000    9.5990 P.3       1 SEP         0.2010
     33 O1P        16.2340    6.7710    8.2010 O.co2     1 SEP        -0.5537
     34 O2P        15.5360    5.4390   10.2150 O.co2     1 SEP        -0.5537
     35 O3P        18.0110    6.0290    9.7470 O.co2     1 SEP        -0.5537
     36 N          14.8900   10.8110   10.3590 N.am      1 LEU        -0.2636
     37 CA         13.4740   11.2930   10.4040 C.3       1 LEU         0.1314
     38 C          12.4980   10.1220   10.7370 C.2       1 LEU         0.2064
     39 O          12.5120    9.0870   10.1100 O.2       1 LEU        -0.3942
     40 CB         13.1460   11.8520    9.0140 C.3       1 LEU        -0.0101
     41 CG         11.7450   12.4950    8.9390 C.3       1 LEU        -0.0425
     42 CD1        11.7170   13.8580    9.6360 C.3       1 LEU        -0.0625
     43 CD2        11.4100   12.7220    7.4590 C.3       1 LEU        -0.0625
     44 N          11.7240   10.2860   11.7990 N.am      1 PRO        -0.2498
     45 CA         10.7890    9.1620   12.1620 C.3       1 PRO         0.1337
     46 C           9.4830    9.0910   11.3780 C.2       1 PRO         0.2036
     47 O           8.7680    8.0410   11.4090 O.2       1 PRO        -0.3944
     48 CB         10.5730    9.4130   13.6470 C.3       1 PRO        -0.0104
     49 CG         10.7210   10.9170   13.8070 C.3       1 PRO        -0.0281
     50 CD         11.7160   11.4020   12.7680 C.3       1 PRO         0.0369
     51 N           9.1690   10.1300   10.6400 N.am      1 THR        -0.2670
     52 CA          7.9980   10.2140    9.8420 C.3       1 THR         0.1198
     53 C           8.4330    9.9370    8.3880 C.2       1 THR         0.0626
     54 O           9.6270    9.7700    8.0930 O.co2     1 THR        -0.5665
     55 CB          7.4320   11.6380    9.9590 C.3       1 THR         0.0869
     56 OG1         8.4920   12.5500    9.6750 O.3       1 THR        -0.3880
     57 CG2         6.9500   11.9300   11.4390 C.3       1 THR        -0.0352
     58 OXT         7.6030    9.8720    7.4680 O.co2     1 THR        -0.5665
     59 H1         24.2784    4.3025   15.0686 H         1 ARG         0.2015
     60 H2         24.2050    5.8105   14.4130 H         1 ARG         0.2015
     61 H3         22.8382    4.9028   14.5443 H         1 ARG         0.2015
     62 H4         22.9021    4.9547   16.8990 H         1 ARG         0.1098
     63 H5         25.3545    6.7211   16.5229 H         1 ARG         0.0347
     64 H6         25.3258    5.0528   17.1882 H         1 ARG         0.0347
     65 H7         23.5873    7.1518   18.4835 H         1 ARG         0.0302
     66 H8         25.3574    7.1884   18.7870 H         1 ARG         0.0302
     67 H9         25.2556    5.3859   20.1227 H         1 ARG         0.0689
     68 H10        24.2892    4.4671   18.9192 H         1 ARG         0.0689
     69 H11        23.2487    6.1704   21.1408 H         1 ARG         0.2642
     70 H12        20.1069    4.6429   20.7768 H         1 ARG         0.2615
     71 H13        21.1119    5.7520   21.7477 H         1 ARG         0.2615
     72 H14        22.6685    3.9593   18.4179 H         1 ARG         0.2615
     73 H15        20.9828    3.6341   18.9031 H         1 ARG         0.2615
     74 H16        23.7339    7.8446   14.8224 H         1 THR         0.1885
     75 H17        22.0551    9.5932   16.4148 H         1 THR         0.0826
     76 H18        22.8281    9.9326   13.4615 H         1 THR         0.0639
     77 H19        24.7049    9.6955   14.7733 H         1 THR         0.2101
     78 H20        22.5439   12.3523   13.9271 H         1 THR         0.0257
     79 H21        22.0256   11.9601   15.6016 H         1 THR         0.0257
     80 H22        21.0305   11.4256   14.2049 H         1 THR         0.0257
     81 H23        18.3287    8.1324   14.5105 H         1 PRO         0.0802
     82 H24        17.0240    8.5912   16.3432 H         1 PRO         0.0313
     83 H25        16.5736   10.1190   15.5128 H         1 PRO         0.0313
     84 H26        17.8736    9.9912   17.9496 H         1 PRO         0.0287
     85 H27        17.9699   11.3846   16.8201 H         1 PRO         0.0287
     86 H28        20.2368   10.9637   16.7318 H         1 PRO         0.0524
     87 H29        20.0437    9.3478   17.4923 H         1 PRO         0.0524
     88 H30        17.1737    8.3160   12.7361 H         1 SEP         0.1884
     89 H31        17.5238   10.7736   11.0873 H         1 SEP         0.0827
     90 H32        18.1478    8.6083   10.0529 H         1 SEP         0.0662
     91 H33        16.7029    9.2866    9.2292 H         1 SEP         0.0662
     92 H34        15.4054   10.8838    9.5052 H         1 LEU         0.1883
     93 H35        13.3712   12.0816   11.1639 H         1 LEU         0.0800
     94 H36        13.1939   11.0297    8.2850 H         1 LEU         0.0315
     95 H37        13.8960   12.6144    8.7566 H         1 LEU         0.0315
     96 H38        11.0049   11.8259    9.4022 H         1 LEU         0.0298
     97 H39        10.7064   14.2862    9.5635 H         1 LEU         0.0232
     98 H40        12.4369   14.5331    9.1503 H         1 LEU         0.0232
     99 H41        11.9875   13.7340   10.6950 H         1 LEU         0.0232
    100 H42        11.4220   11.7585    6.9284 H         1 LEU         0.0232
    101 H43        12.1568   13.3954    7.0131 H         1 LEU         0.0232
    102 H44        10.4111   13.1748    7.3744 H         1 LEU         0.0232
    103 H45        11.3049    8.2016   12.0159 H         1 PRO         0.0802
    104 H46        11.3291    8.8827   14.2445 H         1 PRO         0.0313
    105 H47         9.5683    9.0869   13.9539 H         1 PRO         0.0313
    106 H48        11.0910   11.1507   14.8162 H         1 PRO         0.0287
    107 H49         9.7487   11.4069   13.6503 H         1 PRO         0.0287
    108 H50        11.3773   12.3367   12.2972 H         1 PRO         0.0524
    109 H51        12.7119   11.5538   13.2098 H         1 PRO         0.0524
    110 H52         9.7935   10.9110   10.6399 H         1 THR         0.1876
    111 H53         7.2476    9.4786   10.1677 H         1 THR         0.0752
    112 H54         6.5989   11.7735    9.2537 H         1 THR         0.0632
    113 H55         8.1681   13.4406    9.7406 H         1 THR         0.2100
    114 H56         6.5495   12.9527   11.4991 H         1 THR         0.0256
    115 H57         7.8010   11.8284   12.1286 H         1 THR         0.0256
    116 H58         6.1647   11.2118   11.7173 H         1 THR         0.0256
@<TRIPOS>BOND
     1    1    2 1  
     2    2    3 1  
     3    2    5 1  
     4    3    4 2  
     5    3   12 am 
     6    5    6 1  
     7    6    7 1  
     8    7    8 1  
     9    8    9 ar 
    10    9   10 ar 
    11    9   11 ar 
    12   12   13 1  
    13   13   14 1  
    14   13   16 1  
    15   14   15 2  
    16   14   19 am 
    17   16   17 1  
    18   16   18 1  
    19   19   20 1  
    20   19   25 1  
    21   20   21 1  
    22   20   23 1  
    23   21   22 2  
    24   21   26 am 
    25   23   24 1  
    26   24   25 1  
    27   26   27 1  
    28   27   28 1  
    29   27   30 1  
    30   28   29 1  
    31   29   32 1  
    32   30   31 2  
    33   30   36 am 
    34   32   33 ar 
    35   32   34 ar 
    36   32   35 ar 
    37   36   37 1  
    38   37   38 1  
    39   37   40 1  
    40   38   39 2  
    41   38   44 am 
    42   40   41 1  
    43   41   42 1  
    44   41   43 1  
    45   44   45 1  
    46   44   50 1  
    47   45   46 1  
    48   45   48 1  
    49   46   47 2  
    50   46   51 am 
    51   48   49 1  
    52   49   50 1  
    53   51   52 1  
    54   52   53 1  
    55   52   55 1  
    56   53   54 ar 
    57   53   58 ar 
    58   55   56 1  
    59   55   57 1  
    60    1   59 1  
    61    1   60 1  
    62    1   61 1  
    63    2   62 1  
    64    5   63 1  
    65    5   64 1  
    66    6   65 1  
    67    6   66 1  
    68    7   67 1  
    69    7   68 1  
    70    8   69 1  
    71   10   70 1  
    72   10   71 1  
    73   11   72 1  
    74   11   73 1  
    75   12   74 1  
    76   13   75 1  
    77   16   76 1  
    78   17   77 1  
    79   18   78 1  
    80   18   79 1  
    81   18   80 1  
    82   20   81 1  
    83   23   82 1  
    84   23   83 1  
    85   24   84 1  
    86   24   85 1  
    87   25   86 1  
    88   25   87 1  
    89   26   88 1  
    90   27   89 1  
    91   28   90 1  
    92   28   91 1  
    93   36   92 1  
    94   37   93 1  
    95   40   94 1  
    96   40   95 1  
    97   41   96 1  
    98   42   97 1  
    99   42   98 1  
   100   42   99 1  
   101   43  100 1  
   102   43  101 1  
   103   43  102 1  
   104   45  103 1  
   105   48  104 1  
   106   48  105 1  
   107   49  106 1  
   108   49  107 1  
   109   50  108 1  
   110   50  109 1  
   111   51  110 1  
   112   52  111 1  
   113   55  112 1  
   114   56  113 1  
   115   57  114 1  
   116   57  115 1  
   117   57  116 1  
@<TRIPOS>SUBSTRUCTURE
     1 ARG         1

