4y32_ligand
  -I-interpret- 

118119  0  0  0  0  0  0  0  0999 V2000
   23.7170    5.1350   14.9800 N   0  3  0  0  0
   23.4650    5.7100   16.3310 C   0  0  0  0  0
   22.6160    6.9830   16.2930 C   0  0  0  0  0
   21.6750    7.0760   17.0730 O   0  0  0  0  0
   24.7610    5.9920   17.0940 C   0  0  0  0  0
   24.5100    6.5530   18.4900 C   0  0  0  0  0
   24.3640    5.4110   19.4790 C   0  0  0  0  0
   23.1830    5.5490   20.3220 N   0  0  0  0  0
   22.0240    4.9270   20.1070 C   0  0  0  0  0
   21.0040    5.1220   20.9400 N   0  0  0  0  0
   21.8810    4.1120   19.0640 N   0  0  0  0  0
   22.9520    7.9650   15.4340 N   0  0  0  0  0
   22.1770    9.2100   15.3910 C   0  0  0  0  0
   20.7890    8.9320   14.7470 C   0  0  0  0  0
   20.6890    8.3550   13.6680 O   0  0  0  0  0
   22.8450   10.2920   14.5010 C   0  0  0  0  0
   24.2210   10.5070   14.8720 O   0  0  0  0  0
   22.0560   11.5990   14.5630 C   0  0  0  0  0
   19.7120    9.3970   15.3910 N   0  0  0  0  0
   18.4100    9.1990   14.7670 C   0  0  0  0  0
   18.0570    9.9770   13.4680 C   0  0  0  0  0
   18.3250   11.2060   13.2760 O   0  0  0  0  0
   17.4110    9.5220   15.9030 C   0  0  0  0  0
   18.1720   10.3100   16.9400 C   0  0  0  0  0
   19.6570   10.0290   16.7200 C   0  0  0  0  0
   17.3760    9.2790   12.5580 N   0  0  0  0  0
   16.9160    9.8830   11.3050 C   0  0  0  0  0
   17.0850    8.8660   10.1710 C   0  0  0  0  0
   16.3240    7.6810   10.5300 O   0  0  0  0  0
   15.4720   10.2920   11.4230 C   0  0  0  0  0
   14.8670   10.1930   12.5270 O   0  0  0  0  0
   16.5740    6.4000    9.5990 P   0  0  0  0  0
   16.2340    6.7710    8.2010 O   0  0  0  0  0
   15.5360    5.4390   10.2150 O   0  0  0  0  0
   18.0110    6.0290    9.7470 O   0  0  0  0  0
   14.8900   10.8110   10.3590 N   0  0  0  0  0
   13.4740   11.2930   10.4040 C   0  0  0  0  0
   12.4980   10.1220   10.7370 C   0  0  0  0  0
   12.5120    9.0870   10.1100 O   0  0  0  0  0
   13.1460   11.8520    9.0140 C   0  0  0  0  0
   11.7450   12.4950    8.9390 C   0  0  0  0  0
   11.7170   13.8580    9.6360 C   0  0  0  0  0
   11.4100   12.7220    7.4590 C   0  0  0  0  0
   11.7240   10.2860   11.7990 N   0  0  0  0  0
   10.7890    9.1620   12.1620 C   0  0  0  0  0
    9.4830    9.0910   11.3780 C   0  0  0  0  0
    8.7680    8.0410   11.4090 O   0  0  0  0  0
   10.5730    9.4130   13.6470 C   0  0  0  0  0
   10.7210   10.9170   13.8070 C   0  0  0  0  0
   11.7160   11.4020   12.7680 C   0  0  0  0  0
    9.1690   10.1300   10.6400 N   0  0  0  0  0
    7.9980   10.2140    9.8420 C   0  0  0  0  0
    8.4330    9.9370    8.3880 C   0  0  0  0  0
    9.6270    9.7700    8.0930 O   0  0  0  0  0
    7.4320   11.6380    9.9590 C   0  0  0  0  0
    8.4920   12.5500    9.6750 O   0  0  0  0  0
    6.9500   11.9300   11.4390 C   0  0  0  0  0
    7.6030    9.8720    7.4680 O   0  0  0  0  0
   22.8265    4.9651   14.5126 H   0  0  0  0  0
   24.2711    5.7917   14.4303 H   0  0  0  0  0
   24.2254    4.2559   15.0754 H   0  0  0  0  0
   22.9017    4.9410   16.8596 H   0  0  0  0  0
   25.3268    6.7344   16.5310 H   0  0  0  0  0
   25.2978    5.0496   17.2029 H   0  0  0  0  0
   23.5950    7.1454   18.4832 H   0  0  0  0  0
   25.3504    7.1817   18.7842 H   0  0  0  0  0
   25.2409    5.4130   20.1264 H   0  0  0  0  0
   24.2654    4.4856   18.9115 H   0  0  0  0  0
   23.2480    6.1644   21.1329 H   0  0  0  0  0
   21.1108    5.7459   21.7399 H   0  0  0  0  0
   20.9916    3.6388   18.9047 H   0  0  0  0  0
   22.6609    3.9608   18.4242 H   0  0  0  0  0
   23.7496    7.8422   14.8101 H   0  0  0  0  0
   22.1060    9.5644   16.4193 H   0  0  0  0  0
   22.8356    9.9293   13.4731 H   0  0  0  0  0
   24.6031   11.1799   14.3038 H   0  0  0  0  0
   21.0401   11.4258   14.2080 H   0  0  0  0  0
   22.0266   11.9557   15.5926 H   0  0  0  0  0
   22.5404   12.3446   13.9325 H   0  0  0  0  0
   18.3853    8.1827   14.3737 H   0  0  0  0  0
   17.0034    8.6071   16.3330 H   0  0  0  0  0
   16.5648   10.0951   15.5242 H   0  0  0  0  0
   17.8700   10.0145   17.9448 H   0  0  0  0  0
   17.9641   11.3754   16.8416 H   0  0  0  0  0
   20.2590   10.9363   16.7692 H   0  0  0  0  0
   20.0741    9.3889   17.4974 H   0  0  0  0  0
   17.1696    8.2968   12.7396 H   0  0  0  0  0
   17.5079   10.7728   11.0907 H   0  0  0  0  0
   18.1375    8.6168   10.0362 H   0  0  0  0  0
   16.7234    9.2807    9.2300 H   0  0  0  0  0
   15.7933    5.2260   11.1150 H   0  0  0  0  0
   18.1879    5.7971   10.6616 H   0  0  0  0  0
   15.4157   10.8853    9.4881 H   0  0  0  0  0
   13.3595   12.0515   11.1784 H   0  0  0  0  0
   13.1690   11.0219    8.3079 H   0  0  0  0  0
   13.8793   12.6253    8.7851 H   0  0  0  0  0
   11.0307   11.8336    9.4294 H   0  0  0  0  0
   11.9852   13.7337   10.6852 H   0  0  0  0  0
   12.4308   14.5259    9.1538 H   0  0  0  0  0
   10.7151   14.2812    9.5634 H   0  0  0  0  0
   12.1543   13.3843    7.0168 H   0  0  0  0  0
   11.4158   11.7659    6.9357 H   0  0  0  0  0
   10.4227   13.1766    7.3768 H   0  0  0  0  0
   11.2139    8.1895   11.9135 H   0  0  0  0  0
   11.2880    8.8655   14.2611 H   0  0  0  0  0
    9.5971    9.0616   13.9820 H   0  0  0  0  0
   11.0756   11.1566   14.8095 H   0  0  0  0  0
    9.7582   11.4079   13.6652 H   0  0  0  0  0
   11.4401   12.3573   12.3214 H   0  0  0  0  0
   12.7004   11.6180   13.1832 H   0  0  0  0  0
    9.8060   10.9266   10.6399 H   0  0  0  0  0
    7.2343    9.5027   10.1565 H   0  0  0  0  0
   10.1645    9.8437    8.8850 H   0  0  0  0  0
    6.5921   11.7453    9.2726 H   0  0  0  0  0
    8.1646   13.4500    9.7413 H   0  0  0  0  0
    6.1720   11.2177   11.7136 H   0  0  0  0  0
    7.7941   11.8289   12.1212 H   0  0  0  0  0
    6.5534   12.9436   11.4973 H   0  0  0  0  0
  1  2  1  0  0  0
  2  3  1  0  0  0
  2  5  1  0  0  0
  3  4  2  0  0  0
  3 12  1  0  0  0
  5  6  1  0  0  0
  6  7  1  0  0  0
  7  8  1  0  0  0
  8  9  1  0  0  0
  9 10  2  0  0  0
  9 11  1  0  0  0
 12 13  1  0  0  0
 13 14  1  0  0  0
 13 16  1  0  0  0
 14 15  2  0  0  0
 14 19  1  0  0  0
 16 17  1  0  0  0
 16 18  1  0  0  0
 19 20  1  0  0  0
 19 25  1  0  0  0
 20 21  1  0  0  0
 20 23  1  0  0  0
 21 22  2  0  0  0
 21 26  1  0  0  0
 23 24  1  0  0  0
 24 25  1  0  0  0
 26 27  1  0  0  0
 27 28  1  0  0  0
 27 30  1  0  0  0
 28 29  1  0  0  0
 29 32  1  0  0  0
 30 31  2  0  0  0
 30 36  1  0  0  0
 32 33  2  0  0  0
 32 34  1  0  0  0
 32 35  1  0  0  0
 36 37  1  0  0  0
 37 38  1  0  0  0
 37 40  1  0  0  0
 38 39  2  0  0  0
 38 44  1  0  0  0
 40 41  1  0  0  0
 41 42  1  0  0  0
 41 43  1  0  0  0
 44 45  1  0  0  0
 44 50  1  0  0  0
 45 46  1  0  0  0
 45 48  1  0  0  0
 46 47  2  0  0  0
 46 51  1  0  0  0
 48 49  1  0  0  0
 49 50  1  0  0  0
 51 52  1  0  0  0
 52 53  1  0  0  0
 52 55  1  0  0  0
 53 54  1  0  0  0
 53 58  2  0  0  0
 55 56  1  0  0  0
 55 57  1  0  0  0
  1 59  1  0  0  0
  1 60  1  0  0  0
  1 61  1  0  0  0
  2 62  1  0  0  0
  5 63  1  0  0  0
  5 64  1  0  0  0
  6 65  1  0  0  0
  6 66  1  0  0  0
  7 67  1  0  0  0
  7 68  1  0  0  0
  8 69  1  0  0  0
 10 70  1  0  0  0
 11 71  1  0  0  0
 11 72  1  0  0  0
 12 73  1  0  0  0
 13 74  1  0  0  0
 16 75  1  0  0  0
 17 76  1  0  0  0
 18 77  1  0  0  0
 18 78  1  0  0  0
 18 79  1  0  0  0
 20 80  1  0  0  0
 23 81  1  0  0  0
 23 82  1  0  0  0
 24 83  1  0  0  0
 24 84  1  0  0  0
 25 85  1  0  0  0
 25 86  1  0  0  0
 26 87  1  0  0  0
 27 88  1  0  0  0
 28 89  1  0  0  0
 28 90  1  0  0  0
 34 91  1  0  0  0
 35 92  1  0  0  0
 36 93  1  0  0  0
 37 94  1  0  0  0
 40 95  1  0  0  0
 40 96  1  0  0  0
 41 97  1  0  0  0
 42 98  1  0  0  0
 42 99  1  0  0  0
 42100  1  0  0  0
 43101  1  0  0  0
 43102  1  0  0  0
 43103  1  0  0  0
 45104  1  0  0  0
 48105  1  0  0  0
 48106  1  0  0  0
 49107  1  0  0  0
 49108  1  0  0  0
 50109  1  0  0  0
 50110  1  0  0  0
 51111  1  0  0  0
 52112  1  0  0  0
 54113  1  0  0  0
 55114  1  0  0  0
 56115  1  0  0  0
 57116  1  0  0  0
 57117  1  0  0  0
 57118  1  0  0  0
M  END
$$$$
