5c13_ligand
  -I-interpret- 

113112  0  0  0  0  0  0  0  0999 V2000
   13.7220   -0.1780   33.2540 N   0  3  0  0  0
   13.2910    0.8800   34.1950 C   0  0  0  0  0
   13.7900    0.5980   35.6060 C   0  0  0  0  0
   14.7010   -0.2130   35.8170 O   0  0  0  0  0
   11.8050    0.9840   34.1800 C   0  0  0  0  0
   13.2270    1.3010   36.5690 N   0  0  0  0  0
   13.5220    1.0480   37.9780 C   0  0  0  0  0
   12.5700    0.0110   38.5520 C   0  0  0  0  0
   11.3470    0.1860   38.4930 O   0  0  0  0  0
   13.4530    2.3530   38.7630 C   0  0  0  0  0
   14.2170    3.4970   38.1280 C   0  0  0  0  0
   13.8940    4.8110   38.8190 C   0  0  0  0  0
   12.5450    5.2160   38.4760 N   0  0  0  0  0
   11.6110    5.5990   39.3460 C   0  0  0  0  0
   11.8630    5.6700   40.6450 N   0  0  0  0  0
   10.4060    5.9350   38.9010 N   0  0  0  0  0
   13.1310   -1.0720   39.0920 N   0  0  0  0  0
   12.3620   -2.1430   39.7170 C   0  0  0  0  0
   12.9020   -2.4880   41.1150 C   0  0  0  0  0
   14.0470   -2.1400   41.4840 O   0  0  0  0  0
   12.3780   -3.4230   38.8510 C   0  0  0  0  0
   13.7260   -3.8690   38.6940 O   0  0  0  0  0
   11.7530   -3.1600   37.4620 C   0  0  0  0  0
   12.0900   -3.1960   41.8950 N   0  0  0  0  0
   12.5620   -3.6690   43.1550 C   0  0  0  0  0
   12.4730   -2.5500   44.1840 C   0  0  0  0  0
   11.0380   -2.1030   44.5330 C   0  0  0  0  0
   11.0430   -1.0130   45.6590 C   0  0  0  0  0
    9.6380   -0.5100   45.9870 C   0  0  0  0  0
    9.4820    0.6090   47.0560 C   0  0  0  0  0
    9.9340    0.1530   48.3820 C   0  0  0  0  0
   10.2150    1.8950   46.6930 C   0  0  0  0  0
    8.0090    0.9300   47.2140 C   0  0  0  0  0
   11.8620   -4.9480   43.6470 C   0  0  0  0  0
   10.8690   -5.4090   43.1250 O   0  0  0  0  0
   12.5700   -5.5950   44.5850 N   0  0  0  0  0
   12.1200   -6.8220   45.2810 C   0  0  0  0  0
   12.6970   -6.8240   46.6980 C   0  0  0  0  0
   13.6950   -6.1700   46.9430 O   0  0  0  0  0
   12.6000   -8.0780   44.5740 C   0  0  0  0  0
   13.0030   -7.8770   43.1560 C   0  0  0  0  0
   13.5010   -9.1580   42.5160 C   0  0  0  0  0
   13.9600  -10.0780   43.2100 O   0  0  0  0  0
   13.4050   -9.2300   41.1790 N   0  0  0  0  0
   12.1140   -7.5960   47.6020 N   0  0  0  0  0
   12.7420   -7.8140   48.8960 C   0  0  0  0  0
   13.9250   -8.7810   48.7470 C   0  0  0  0  0
   15.0050   -8.5340   49.3150 O   0  0  0  0  0
   11.7270   -8.3440   49.9250 C   0  0  0  0  0
   10.9290   -7.2490   50.3840 O   0  0  0  0  0
   12.4100   -8.9590   51.1250 C   0  0  0  0  0
   13.8030   -9.8110   48.0580 O   0  0  0  0  0
   14.7395   -0.2478   33.2656 H   0  0  0  0  0
   13.3156   -1.0696   33.5374 H   0  0  0  0  0
   13.4068    0.0568   32.3128 H   0  0  0  0  0
   13.7233    1.8279   33.8746 H   0  0  0  0  0
   11.3729    0.0461   34.5289 H   0  0  0  0  0
   11.4922    1.7960   34.8364 H   0  0  0  0  0
   11.4664    1.1857   33.1637 H   0  0  0  0  0
   12.5685    2.0406   36.3243 H   0  0  0  0  0
   14.5320    0.6467   38.0607 H   0  0  0  0  0
   13.9022    2.1670   39.7386 H   0  0  0  0  0
   12.4048    2.6491   38.8055 H   0  0  0  0  0
   13.9302    3.5718   37.0791 H   0  0  0  0  0
   15.2852    3.3026   38.2244 H   0  0  0  0  0
   14.5981    5.5766   38.4930 H   0  0  0  0  0
   13.9725    4.6836   39.8987 H   0  0  0  0  0
   12.2900    5.2071   37.4884 H   0  0  0  0  0
   12.7887    5.4286   40.9989 H   0  0  0  0  0
    9.6879    6.2431   39.5566 H   0  0  0  0  0
   10.1984    5.8850   37.9036 H   0  0  0  0  0
   14.1473   -1.1556   39.0668 H   0  0  0  0  0
   11.3396   -1.7765   39.8086 H   0  0  0  0  0
   11.7869   -4.1897   39.3519 H   0  0  0  0  0
   13.7382   -4.6642   38.1563 H   0  0  0  0  0
   10.7203   -2.8337   37.5855 H   0  0  0  0  0
   12.3219   -2.3838   36.9501 H   0  0  0  0  0
   11.7776   -4.0776   36.8743 H   0  0  0  0  0
   11.1368   -3.3992   41.5943 H   0  0  0  0  0
   13.6035   -3.9593   43.0168 H   0  0  0  0  0
   12.9779   -1.6847   43.7545 H   0  0  0  0  0
   12.9181   -2.9301   45.1035 H   0  0  0  0  0
   10.4804   -2.9692   44.8893 H   0  0  0  0  0
   10.5784   -1.6792   43.6401 H   0  0  0  0  0
   11.6313   -0.1658   45.3064 H   0  0  0  0  0
   11.4605   -1.4609   46.5608 H   0  0  0  0  0
    9.1150   -1.3730   46.3990 H   0  0  0  0  0
    9.2680   -0.0723   45.0598 H   0  0  0  0  0
    9.3396   -0.7067   48.6912 H   0  0  0  0  0
   10.9851   -0.1307   48.3284 H   0  0  0  0  0
    9.8106    0.9603   49.1039 H   0  0  0  0  0
   11.2797    1.6872   46.5869 H   0  0  0  0  0
    9.8234    2.2817   45.7521 H   0  0  0  0  0
   10.0642    2.6325   47.4813 H   0  0  0  0  0
    7.6084    1.2712   46.2594 H   0  0  0  0  0
    7.4757    0.0349   47.5342 H   0  0  0  0  0
    7.8874    1.7139   47.9616 H   0  0  0  0  0
   13.4825   -5.2149   44.8364 H   0  0  0  0  0
   11.0300   -6.8226   45.2912 H   0  0  0  0  0
   11.7653   -8.7790   44.5705 H   0  0  0  0  0
   13.4838   -8.4254   45.1091 H   0  0  0  0  0
   13.8138   -7.1488   43.1335 H   0  0  0  0  0
   12.1295   -7.5370   42.5998 H   0  0  0  0  0
   13.7171  -10.0688   40.6897 H   0  0  0  0  0
   13.0200   -8.4459   40.6524 H   0  0  0  0  0
   11.2204   -8.0399   47.3902 H   0  0  0  0  0
   13.1136   -6.8580   49.2649 H   0  0  0  0  0
   11.1237   -9.1103   49.4383 H   0  0  0  0  0
   10.2911   -7.5669   51.0272 H   0  0  0  0  0
   13.0335   -9.7917   50.7994 H   0  0  0  0  0
   13.0309   -8.2075   51.6128 H   0  0  0  0  0
   11.6564   -9.3197   51.8251 H   0  0  0  0  0
   12.9153   -9.8482   47.6945 H   0  0  0  0  0
  1  2  1  0  0  0
  2  3  1  0  0  0
  2  5  1  0  0  0
  3  4  2  0  0  0
  3  6  1  0  0  0
  6  7  1  0  0  0
  7  8  1  0  0  0
  7 10  1  0  0  0
  8  9  2  0  0  0
  8 17  1  0  0  0
 10 11  1  0  0  0
 11 12  1  0  0  0
 12 13  1  0  0  0
 13 14  1  0  0  0
 14 15  2  0  0  0
 14 16  1  0  0  0
 17 18  1  0  0  0
 18 19  1  0  0  0
 18 21  1  0  0  0
 19 20  2  0  0  0
 19 24  1  0  0  0
 21 22  1  0  0  0
 21 23  1  0  0  0
 24 25  1  0  0  0
 25 26  1  0  0  0
 25 34  1  0  0  0
 26 27  1  0  0  0
 27 28  1  0  0  0
 28 29  1  0  0  0
 29 30  1  0  0  0
 30 31  1  0  0  0
 30 32  1  0  0  0
 30 33  1  0  0  0
 34 35  2  0  0  0
 34 36  1  0  0  0
 36 37  1  0  0  0
 37 38  1  0  0  0
 37 40  1  0  0  0
 38 39  2  0  0  0
 38 45  1  0  0  0
 40 41  1  0  0  0
 41 42  1  0  0  0
 42 43  2  0  0  0
 42 44  1  0  0  0
 45 46  1  0  0  0
 46 47  1  0  0  0
 46 49  1  0  0  0
 47 48  2  0  0  0
 47 52  1  0  0  0
 49 50  1  0  0  0
 49 51  1  0  0  0
  1 53  1  0  0  0
  1 54  1  0  0  0
  1 55  1  0  0  0
  2 56  1  0  0  0
  5 57  1  0  0  0
  5 58  1  0  0  0
  5 59  1  0  0  0
  6 60  1  0  0  0
  7 61  1  0  0  0
 10 62  1  0  0  0
 10 63  1  0  0  0
 11 64  1  0  0  0
 11 65  1  0  0  0
 12 66  1  0  0  0
 12 67  1  0  0  0
 13 68  1  0  0  0
 15 69  1  0  0  0
 16 70  1  0  0  0
 16 71  1  0  0  0
 17 72  1  0  0  0
 18 73  1  0  0  0
 21 74  1  0  0  0
 22 75  1  0  0  0
 23 76  1  0  0  0
 23 77  1  0  0  0
 23 78  1  0  0  0
 24 79  1  0  0  0
 25 80  1  0  0  0
 26 81  1  0  0  0
 26 82  1  0  0  0
 27 83  1  0  0  0
 27 84  1  0  0  0
 28 85  1  0  0  0
 28 86  1  0  0  0
 29 87  1  0  0  0
 29 88  1  0  0  0
 31 89  1  0  0  0
 31 90  1  0  0  0
 31 91  1  0  0  0
 32 92  1  0  0  0
 32 93  1  0  0  0
 32 94  1  0  0  0
 33 95  1  0  0  0
 33 96  1  0  0  0
 33 97  1  0  0  0
 36 98  1  0  0  0
 37 99  1  0  0  0
 40100  1  0  0  0
 40101  1  0  0  0
 41102  1  0  0  0
 41103  1  0  0  0
 44104  1  0  0  0
 44105  1  0  0  0
 45106  1  0  0  0
 46107  1  0  0  0
 49108  1  0  0  0
 50109  1  0  0  0
 51110  1  0  0  0
 51111  1  0  0  0
 51112  1  0  0  0
 52113  1  0  0  0
M  END
$$$$
