### 
### Created by X-TOOL on Mon Sep 10 21:13:25 2018
### 

@<TRIPOS>MOLECULE
5c13_ligand
  113   112     1     0     0
SMALL
GAST_HUCK


@<TRIPOS>ATOM
      1 N          13.7220   -0.1780   33.2540 N.4       1 ALA         0.2377
      2 CA         13.2910    0.8800   34.1950 C.3       1 ALA         0.0621
      3 C          13.7900    0.5980   35.6060 C.2       1 ALA         0.2264
      4 O          14.7010   -0.2130   35.8170 O.2       1 ALA        -0.3907
      5 CB         11.8050    0.9840   34.1800 C.3       1 ALA        -0.0040
      6 N          13.2270    1.3010   36.5690 N.am      1 ARG        -0.2610
      7 CA         13.5220    1.0480   37.9780 C.3       1 ARG         0.1312
      8 C          12.5700    0.0110   38.5520 C.2       1 ARG         0.2040
      9 O          11.3470    0.1860   38.4930 O.2       1 ARG        -0.3944
     10 CB         13.4530    2.3530   38.7630 C.3       1 ARG        -0.0092
     11 CG         14.2170    3.4970   38.1280 C.3       1 ARG        -0.0156
     12 CD         13.8940    4.8110   38.8190 C.3       1 ARG         0.0627
     13 NE         12.5450    5.2160   38.4760 N.pl3     1 ARG        -0.2723
     14 CZ         11.6110    5.5990   39.3460 C.cat     1 ARG         0.2882
     15 NH1        11.8630    5.6700   40.6450 N.pl3     1 ARG        -0.2849
     16 NH2        10.4060    5.9350   38.9010 N.pl3     1 ARG        -0.2849
     17 N          13.1310   -1.0720   39.0920 N.am      1 THR        -0.2613
     18 CA         12.3620   -2.1430   39.7170 C.3       1 THR         0.1565
     19 C          12.9020   -2.4880   41.1150 C.2       1 THR         0.2065
     20 O          14.0470   -2.1400   41.4840 O.2       1 THR        -0.3943
     21 CB         12.3780   -3.4230   38.8510 C.3       1 THR         0.0924
     22 OG1        13.7260   -3.8690   38.6940 O.3       1 THR        -0.3874
     23 CG2        11.7530   -3.1600   37.4620 C.3       1 THR        -0.0346
     24 N          12.0900   -3.1960   41.8950 N.am      1 4WQ        -0.2637
     25 CA         12.5620   -3.6690   43.1550 C.3       1 4WQ         0.1310
     26 CB         12.4730   -2.5500   44.1840 C.3       1 4WQ        -0.0124
     27 CG         11.0380   -2.1030   44.5330 C.3       1 4WQ        -0.0488
     28 CD         11.0430   -1.0130   45.6590 C.3       1 4WQ        -0.0524
     29 CE          9.6380   -0.5100   45.9870 C.3       1 4WQ        -0.0481
     30 CZ          9.4820    0.6090   47.0560 C.3       1 4WQ        -0.0377
     31 CM3         9.9340    0.1530   48.3820 C.3       1 4WQ        -0.0601
     32 CM2        10.2150    1.8950   46.6930 C.3       1 4WQ        -0.0601
     33 CM1         8.0090    0.9300   47.2140 C.3       1 4WQ        -0.0601
     34 C          11.8620   -4.9480   43.6470 C.2       1 4WQ         0.2039
     35 O          10.8690   -5.4090   43.1250 O.2       1 4WQ        -0.3944
     36 N          12.5700   -5.5950   44.5850 N.am      1 GLN        -0.2636
     37 CA         12.1200   -6.8220   45.2810 C.3       1 GLN         0.1330
     38 C          12.6970   -6.8240   46.6980 C.2       1 GLN         0.2036
     39 O          13.6950   -6.1700   46.9430 O.2       1 GLN        -0.3944
     40 CB         12.6000   -8.0780   44.5740 C.3       1 GLN         0.0045
     41 CG         13.0030   -7.8770   43.1560 C.3       1 GLN         0.0412
     42 CD         13.5010   -9.1580   42.5160 C.2       1 GLN         0.1737
     43 OE1        13.9600  -10.0780   43.2100 O.2       1 GLN        -0.3973
     44 NE2        13.4050   -9.2300   41.1790 N.am      1 GLN        -0.3009
     45 N          12.1140   -7.5960   47.6020 N.am      1 THR        -0.2670
     46 CA         12.7420   -7.8140   48.8960 C.3       1 THR         0.1198
     47 C          13.9250   -8.7810   48.7470 C.2       1 THR         0.0626
     48 O          15.0050   -8.5340   49.3150 O.co2     1 THR        -0.5665
     49 CB         11.7270   -8.3440   49.9250 C.3       1 THR         0.0869
     50 OG1        10.9290   -7.2490   50.3840 O.3       1 THR        -0.3880
     51 CG2        12.4100   -8.9590   51.1250 C.3       1 THR        -0.0352
     52 OXT        13.8030   -9.8110   48.0580 O.co2     1 THR        -0.5665
     53 H1         13.3787    0.0338   32.3302 H         1 ALA         0.2015
     54 H2         13.3519   -1.0661   33.5545 H         1 ALA         0.2015
     55 H3         14.7289   -0.2221   33.2363 H         1 ALA         0.2015
     56 H4         13.7152    1.8388   33.8622 H         1 ALA         0.1095
     57 H5         11.4854    1.7705   34.8795 H         1 ALA         0.0310
     58 H6         11.3670    0.0221   34.4848 H         1 ALA         0.0310
     59 H7         11.4653    1.2363   33.1647 H         1 ALA         0.0310
     60 H8         12.5814    2.0261   36.3291 H         1 ARG         0.1884
     61 H9         14.5456    0.6523   38.0532 H         1 ARG         0.0800
     62 H10        13.8677    2.1752   39.7662 H         1 ARG         0.0313
     63 H11        12.3971    2.6487   38.8498 H         1 ARG         0.0313
     64 H12        13.9397    3.5704   37.0661 H         1 ARG         0.0301
     65 H13        15.2961    3.3009   38.2125 H         1 ARG         0.0301
     66 H14        14.6042    5.5835   38.4891 H         1 ARG         0.0689
     67 H15        13.9726    4.6818   39.9085 H         1 ARG         0.0689
     68 H16        12.2874    5.2070   37.4788 H         1 ARG         0.2642
     69 H17        11.1241    5.9689   41.2974 H         1 ARG         0.2615
     70 H18        12.7978    5.4263   41.0023 H         1 ARG         0.2615
     71 H19        10.1964    5.8845   37.8938 H         1 ARG         0.2615
     72 H20         9.6808    6.2461   39.5630 H         1 ARG         0.2615
     73 H21        14.1273   -1.1539   39.0673 H         1 THR         0.1884
     74 H22        11.3216   -1.8006   39.8186 H         1 THR         0.0826
     75 H23        11.7956   -4.2050   39.3601 H         1 THR         0.0639
     76 H24        13.7381   -4.6558   38.1619 H         1 THR         0.2101
     77 H25        11.7773   -4.0854   36.8679 H         1 THR         0.0257
     78 H26        12.3262   -2.3768   36.9443 H         1 THR         0.0257
     79 H27        10.7107   -2.8307   37.5853 H         1 THR         0.0257
     80 H28        11.1554   -3.3952   41.6002 H         1 4WQ         0.1883
     81 H29        13.6255   -3.9200   43.0283 H         1 4WQ         0.0800
     82 H30        13.0162   -1.6786   43.7895 H         1 4WQ         0.0312
     83 H31        12.9577   -2.8964   45.1087 H         1 4WQ         0.0312
     84 H32        10.4648   -2.9752   44.8803 H         1 4WQ         0.0267
     85 H33        10.5627   -1.6867   43.6326 H         1 4WQ         0.0267
     86 H34        11.6540   -0.1618   45.3243 H         1 4WQ         0.0266
     87 H35        11.4846   -1.4463   46.5685 H         1 4WQ         0.0266
     88 H36         9.0561   -1.3759   46.3358 H         1 4WQ         0.0270
     89 H37         9.2028   -0.1285   45.0515 H         1 4WQ         0.0270
     90 H38         9.8100    0.9669   49.1115 H         1 4WQ         0.0235
     91 H39        10.9947   -0.1336   48.3293 H         1 4WQ         0.0235
     92 H40         9.3348   -0.7146   48.6953 H         1 4WQ         0.0235
     93 H41         9.8813    2.2403   45.7033 H         1 4WQ         0.0235
     94 H42        11.2983    1.7054   46.6691 H         1 4WQ         0.0235
     95 H43         9.9944    2.6674   47.4444 H         1 4WQ         0.0235
     96 H44         7.4602    0.0136   47.4767 H         1 4WQ         0.0235
     97 H45         7.6180    1.3331   46.2682 H         1 4WQ         0.0235
     98 H46         7.8798    1.6761   48.0119 H         1 4WQ         0.0235
     99 H47        13.4647   -5.2224   44.8315 H         1 GLN         0.1883
    100 H48        11.0209   -6.8285   45.3253 H         1 GLN         0.0801
    101 H49        11.7856   -8.8170   44.5974 H         1 GLN         0.0337
    102 H50        13.4675   -8.4709   45.1244 H         1 GLN         0.0337
    103 H51        13.8065   -7.1267   43.1188 H         1 GLN         0.0504
    104 H52        12.1340   -7.5121   42.5889 H         1 GLN         0.0504
    105 H53        13.7170  -10.0498   40.6987 H         1 GLN         0.1814
    106 H54        13.0215   -8.4639   40.6633 H         1 GLN         0.1814
    107 H55        11.2380   -8.0312   47.3943 H         1 THR         0.1876
    108 H56        13.1263   -6.8498   49.2602 H         1 THR         0.0752
    109 H57        11.0872   -9.0991   49.4450 H         1 THR         0.0632
    110 H58        10.2977   -7.5636   51.0205 H         1 THR         0.2100
    111 H59        11.6505   -9.3234   51.8323 H         1 THR         0.0256
    112 H60        13.0369   -8.2016   51.6182 H         1 THR         0.0256
    113 H61        13.0396   -9.7996   50.7978 H         1 THR         0.0256
@<TRIPOS>BOND
     1    1    2 1  
     2    2    3 1  
     3    2    5 1  
     4    3    4 2  
     5    3    6 am 
     6    6    7 1  
     7    7    8 1  
     8    7   10 1  
     9    8    9 2  
    10    8   17 am 
    11   10   11 1  
    12   11   12 1  
    13   12   13 1  
    14   13   14 ar 
    15   14   15 ar 
    16   14   16 ar 
    17   17   18 1  
    18   18   19 1  
    19   18   21 1  
    20   19   20 2  
    21   19   24 am 
    22   21   22 1  
    23   21   23 1  
    24   24   25 1  
    25   25   26 1  
    26   25   34 1  
    27   26   27 1  
    28   27   28 1  
    29   28   29 1  
    30   29   30 1  
    31   30   31 1  
    32   30   32 1  
    33   30   33 1  
    34   34   35 2  
    35   34   36 am 
    36   36   37 1  
    37   37   38 1  
    38   37   40 1  
    39   38   39 2  
    40   38   45 am 
    41   40   41 1  
    42   41   42 1  
    43   42   43 2  
    44   42   44 am 
    45   45   46 1  
    46   46   47 1  
    47   46   49 1  
    48   47   48 ar 
    49   47   52 ar 
    50   49   50 1  
    51   49   51 1  
    52    1   53 1  
    53    1   54 1  
    54    1   55 1  
    55    2   56 1  
    56    5   57 1  
    57    5   58 1  
    58    5   59 1  
    59    6   60 1  
    60    7   61 1  
    61   10   62 1  
    62   10   63 1  
    63   11   64 1  
    64   11   65 1  
    65   12   66 1  
    66   12   67 1  
    67   13   68 1  
    68   15   69 1  
    69   15   70 1  
    70   16   71 1  
    71   16   72 1  
    72   17   73 1  
    73   18   74 1  
    74   21   75 1  
    75   22   76 1  
    76   23   77 1  
    77   23   78 1  
    78   23   79 1  
    79   24   80 1  
    80   25   81 1  
    81   26   82 1  
    82   26   83 1  
    83   27   84 1  
    84   27   85 1  
    85   28   86 1  
    86   28   87 1  
    87   29   88 1  
    88   29   89 1  
    89   31   90 1  
    90   31   91 1  
    91   31   92 1  
    92   32   93 1  
    93   32   94 1  
    94   32   95 1  
    95   33   96 1  
    96   33   97 1  
    97   33   98 1  
    98   36   99 1  
    99   37  100 1  
   100   40  101 1  
   101   40  102 1  
   102   41  103 1  
   103   41  104 1  
   104   44  105 1  
   105   44  106 1  
   106   45  107 1  
   107   46  108 1  
   108   49  109 1  
   109   50  110 1  
   110   51  111 1  
   111   51  112 1  
   112   51  113 1  
@<TRIPOS>SUBSTRUCTURE
     1 ALA         1

