4awm_ligand
  -I-interpret- 

 51 54  0  0  0  0  0  0  0  0999 V2000
   13.5850  -32.1570   16.3220 O   0  0  0  0  0
   12.5790  -32.2250   17.2250 C   0  0  0  0  0
   11.3030  -31.7200   16.9390 C   0  0  0  0  0
   11.0020  -31.1340   15.7460 O   0  0  0  0  0
   10.3180  -31.8120   17.9010 C   0  0  0  0  0
    9.0670  -31.3420   17.6630 O   0  0  0  0  0
   10.5890  -32.3880   19.1280 C   0  0  0  0  0
   11.8490  -32.8940   19.4150 C   0  0  0  0  0
   12.1240  -33.5240   20.7320 C   0  0  0  0  0
   10.8110  -33.4030   22.8090 C   0  0  0  0  0
   10.1280  -32.5980   23.7130 C   0  0  0  0  0
    9.5350  -33.1600   24.8350 C   0  0  0  0  0
    9.6190  -34.5390   25.0450 C   0  0  0  0  0
   10.3080  -35.3450   24.1400 C   0  0  0  0  0
   10.9060  -34.7790   23.0200 C   0  0  0  0  0
   11.7120  -34.9950   20.6900 C   0  0  0  0  0
   10.0900  -35.2650   18.8830 C   0  0  0  0  0
    8.6970  -34.9830   18.4490 C   0  0  0  0  0
    8.4910  -34.4370   17.1980 C   0  0  0  0  0
    7.6240  -35.2710   19.3010 C   0  0  0  0  0
   11.6750  -35.6520   22.0470 C   0  0  0  0  0
   11.3830  -32.7990   21.7210 O   0  0  0  0  0
    8.8710  -32.3520   25.7180 O   0  0  0  0  0
   10.4010  -36.6840   24.3660 O   0  0  0  0  0
   12.8470  -32.8140   18.4600 C   0  0  0  0  0
   10.3600  -35.0940   20.2800 O   0  0  0  0  0
   10.9590  -35.6360   18.1270 O   0  0  0  0  0
    6.3210  -35.0100   18.8730 C   0  0  0  0  0
    5.2530  -35.2870   19.6890 O   0  0  0  0  0
    6.1200  -34.4570   17.6090 C   0  0  0  0  0
    4.8480  -34.1830   17.2060 O   0  0  0  0  0
    7.2010  -34.1720   16.7700 C   0  0  0  0  0
    7.0470  -33.6180   15.5300 O   0  0  0  0  0
   14.3763  -32.5514   16.6959 H   0  0  0  0  0
   10.0828  -30.8572   15.7496 H   0  0  0  0  0
    8.5185  -31.4890   18.4370 H   0  0  0  0  0
    9.8024  -32.4456   19.8803 H   0  0  0  0  0
   13.1857  -33.4885   20.9764 H   0  0  0  0  0
   10.0580  -31.5240   23.5406 H   0  0  0  0  0
    9.1445  -34.9856   25.9188 H   0  0  0  0  0
   12.4431  -35.4659   20.0329 H   0  0  0  0  0
    9.3394  -34.2156   16.5504 H   0  0  0  0  0
    7.8042  -35.6949   20.2889 H   0  0  0  0  0
   11.1821  -36.6207   21.9650 H   0  0  0  0  0
   12.6939  -35.7856   22.4105 H   0  0  0  0  0
    8.5193  -32.8846   26.4352 H   0  0  0  0  0
   10.9025  -37.0930   23.6569 H   0  0  0  0  0
   13.8399  -33.2103   18.6726 H   0  0  0  0  0
    4.4386  -35.0477   19.2406 H   0  0  0  0  0
    4.8671  -33.8092   16.3220 H   0  0  0  0  0
    6.1127  -33.4849   15.3540 H   0  0  0  0  0
  2  1  1  0  0  0
  2  3  4  0  0  0
 25  2  4  0  0  0
  3  4  1  0  0  0
  5  3  4  0  0  0
  5  6  1  0  0  0
  7  5  4  0  0  0
  8  7  4  0  0  0
  9  8  1  0  0  0
  8 25  4  0  0  0
 16  9  1  0  0  0
  9 22  1  0  0  0
 10 11  4  0  0  0
 15 10  4  0  0  0
 22 10  1  0  0  0
 11 12  4  0  0  0
 13 12  4  0  0  0
 12 23  1  0  0  0
 14 13  4  0  0  0
 15 14  4  0  0  0
 14 24  1  0  0  0
 21 15  1  0  0  0
 16 21  1  0  0  0
 26 16  1  0  0  0
 17 18  1  0  0  0
 17 26  1  0  0  0
 17 27  2  0  0  0
 18 19  4  0  0  0
 18 20  4  0  0  0
 19 32  4  0  0  0
 20 28  4  0  0  0
 28 29  1  0  0  0
 28 30  4  0  0  0
 30 31  1  0  0  0
 30 32  4  0  0  0
 32 33  1  0  0  0
  1 34  1  0  0  0
  4 35  1  0  0  0
  6 36  1  0  0  0
  7 37  1  0  0  0
  9 38  1  0  0  0
 11 39  1  0  0  0
 13 40  1  0  0  0
 16 41  1  0  0  0
 19 42  1  0  0  0
 20 43  1  0  0  0
 21 44  1  0  0  0
 21 45  1  0  0  0
 23 46  1  0  0  0
 24 47  1  0  0  0
 25 48  1  0  0  0
 29 49  1  0  0  0
 31 50  1  0  0  0
 33 51  1  0  0  0
M  END
$$$$
