### 
### Created by X-TOOL on Wed Jan  1 15:39:36 2020
### 

@<TRIPOS>MOLECULE
6h0b_ligand
  155   156     1     0     0
SMALL
GAST_HUCK


@<TRIPOS>ATOM
      1 N          29.7750  -37.8090   55.2750 N.4       1 ALA         0.2377
      2 CA         30.1330  -36.8470   54.1790 C.3       1 ALA         0.0621
      3 C          28.9960  -35.8630   53.9050 C.2       1 ALA         0.2265
      4 O          29.1370  -34.6540   54.1420 O.2       1 ALA        -0.3907
      5 CB         30.5120  -37.5950   52.9000 C.3       1 ALA        -0.0040
      6 N          27.8760  -36.4050   53.4220 N.am      1 THR        -0.2586
      7 CA         26.6690  -35.6600   52.9800 C.3       1 THR         0.1566
      8 C          26.8520  -34.6810   51.8010 C.2       1 THR         0.2063
      9 O          26.0170  -34.6660   50.8900 O.2       1 THR        -0.3943
     10 CB         25.8860  -34.9630   54.1480 C.3       1 THR         0.0924
     11 OG1        26.3350  -33.6050   54.3630 O.3       1 THR        -0.3874
     12 CG2        25.9700  -35.7880   55.4410 C.3       1 THR        -0.0346
     13 N          27.8820  -33.8320   51.8540 N.am      1 GLY        -0.2663
     14 CA         28.0930  -32.7820   50.8610 C.3       1 GLY         0.1201
     15 C          28.7510  -33.3250   49.6120 C.2       1 GLY         0.2007
     16 O          29.7060  -34.0990   49.7020 O.2       1 GLY        -0.3947
     17 N          28.2380  -32.9060   48.4540 N.am      1 ALA        -0.2642
     18 CA         28.6720  -33.3970   47.1380 C.3       1 ALA         0.1282
     19 C          28.5910  -34.9420   47.0220 C.2       1 ALA         0.2034
     20 O          27.5150  -35.5140   47.2370 O.2       1 ALA        -0.3944
     21 CB         30.0540  -32.8340   46.7730 C.3       1 ALA        -0.0244
     22 N          29.7140  -35.6110   46.7500 N.am      1 GLY        -0.2664
     23 CA         29.7210  -36.9790   46.2310 C.3       1 GLY         0.1201
     24 C          30.5950  -36.9800   44.9870 C.2       1 GLY         0.2007
     25 O          30.0870  -36.9140   43.8610 O.2       1 GLY        -0.3947
     26 N          31.9120  -37.0460   45.2110 N.am      1 ALA        -0.2642
     27 CA         32.9360  -36.8790   44.1710 C.3       1 ALA         0.1282
     28 C          32.7430  -37.7910   42.9530 C.2       1 ALA         0.2034
     29 O          32.1390  -38.8800   43.0460 O.2       1 ALA        -0.3944
     30 CB         34.3260  -37.0990   44.7640 C.3       1 ALA        -0.0244
     31 N          33.2570  -37.3340   41.8130 N.am      1 GLY        -0.2664
     32 CA         33.2480  -38.1330   40.5900 C.3       1 GLY         0.1201
     33 C          32.0070  -38.0200   39.7200 C.2       1 GLY         0.2007
     34 O          31.9140  -38.7240   38.7170 O.2       1 GLY        -0.3947
     35 N          31.0670  -37.1430   40.0870 N.am      1 ALA        -0.2642
     36 CA         29.8210  -36.9310   39.3430 C.3       1 ALA         0.1282
     37 C          29.7510  -35.4890   38.7450 C.2       1 ALA         0.2034
     38 O          28.6630  -35.0370   38.3280 O.2       1 ALA        -0.3944
     39 CB         28.6100  -37.2100   40.2670 C.3       1 ALA        -0.0244
     40 N          30.8890  -34.7740   38.7220 N.am      1 GLY        -0.2664
     41 CA         30.9090  -33.3660   38.2630 C.3       1 GLY         0.1201
     42 C          30.3470  -33.2590   36.8360 C.2       1 GLY         0.2008
     43 O          30.4620  -34.2170   36.0280 O.2       1 GLY        -0.3947
     44 N          29.6940  -32.1360   36.5320 N.am      1 THR        -0.2616
     45 CA         29.1990  -31.8340   35.1660 C.3       1 THR         0.1565
     46 C          29.5680  -30.3960   34.7800 C.2       1 THR         0.2065
     47 O          29.8770  -29.5600   35.6480 O.2       1 THR        -0.3943
     48 CB         27.6660  -31.9440   35.0540 C.3       1 THR         0.0924
     49 OG1        27.0760  -31.0490   36.0080 O.3       1 THR        -0.3874
     50 CG2        27.1470  -33.4110   35.3070 C.3       1 THR        -0.0346
     51 N          29.4920  -30.1160   33.4810 N.am      1 THR        -0.2613
     52 CA         29.6540  -28.7500   32.9610 C.3       1 THR         0.1567
     53 C          28.2250  -28.2810   32.6630 C.2       1 THR         0.2090
     54 O          27.5330  -28.9300   31.9040 O.2       1 THR        -0.3941
     55 CB         30.4980  -28.7700   31.6800 C.3       1 THR         0.0924
     56 OG1        31.7750  -29.4150   31.9300 O.3       1 THR        -0.3874
     57 CG2        30.6610  -27.3780   31.1310 C.3       1 THR        -0.0346
     58 N          27.7650  -27.1680   33.2970 N.am      1 PRO        -0.2498
     59 CA         26.3620  -26.7460   33.1150 C.3       1 PRO         0.1338
     60 C          26.0600  -26.1570   31.7120 C.2       1 PRO         0.2039
     61 O          26.9510  -25.5130   31.0950 O.2       1 PRO        -0.3944
     62 CB         26.1860  -25.6560   34.1790 C.3       1 PRO        -0.0104
     63 CG         27.5500  -25.0340   34.2740 C.3       1 PRO        -0.0281
     64 CD         28.5320  -26.1840   34.0960 C.3       1 PRO         0.0369
     65 N          24.8360  -26.3890   31.2220 N.am      1 GLY        -0.2664
     66 CA         24.3930  -25.8200   29.9440 C.3       1 GLY         0.1203
     67 C          23.9580  -24.3830   30.1520 C.2       1 GLY         0.2032
     68 O          23.6860  -23.9920   31.3070 O.2       1 GLY        -0.3945
     69 N          23.9150  -23.5730   29.0550 N.am      1 PRO        -0.2501
     70 CA         23.5920  -22.1490   29.1930 C.3       1 PRO         0.1337
     71 C          22.1670  -21.8300   29.6650 C.2       1 PRO         0.2033
     72 O          21.9630  -20.7390   30.1840 O.2       1 PRO        -0.3944
     73 CB         23.8510  -21.5750   27.7820 C.3       1 PRO        -0.0104
     74 CG         23.7040  -22.7370   26.9020 C.3       1 PRO        -0.0281
     75 CD         24.2460  -23.9080   27.6610 C.3       1 PRO         0.0369
     76 N          21.2100  -22.7340   29.4870 N.am      1 GLY        -0.2722
     77 CA         19.7920  -22.4280   29.7910 C.3       1 GLY         0.0833
     78 C          19.4810  -22.2230   31.2730 C.2       1 GLY         0.0570
     79 O          19.9310  -22.9950   32.1230 O.co2     1 GLY        -0.5669
     80 OXT        18.7750  -21.2820   31.6430 O.co2     1 GLY        -0.5669
     81 H1         30.5437  -38.4423   55.4305 H         1 ALA         0.2015
     82 H2         28.9566  -38.3333   55.0079 H         1 ALA         0.2015
     83 H3         29.5846  -37.2973   56.1223 H         1 ALA         0.2015
     84 H4         31.0091  -36.2697   54.5092 H         1 ALA         0.1095
     85 H5         30.7695  -36.8700   52.1139 H         1 ALA         0.0310
     86 H6         29.6615  -38.2087   52.5684 H         1 ALA         0.0310
     87 H7         31.3776  -38.2443   53.0977 H         1 ALA         0.0310
     88 H8         27.8467  -37.4021   53.3513 H         1 THR         0.1885
     89 H9         25.9940  -36.4404   52.5987 H         1 THR         0.0826
     90 H10        24.8274  -34.9164   53.8528 H         1 THR         0.0639
     91 H11        27.2588  -33.6094   54.5843 H         1 THR         0.2101
     92 H12        25.4134  -35.2757   56.2396 H         1 THR         0.0257
     93 H13        27.0232  -35.8959   55.7394 H         1 THR         0.0257
     94 H14        25.5335  -36.7831   55.2701 H         1 THR         0.0257
     95 H15        28.5362  -33.9191   52.6053 H         1 GLY         0.1881
     96 H16        28.7377  -32.0036   51.2952 H         1 GLY         0.0763
     97 H17        27.1205  -32.3443   50.5913 H         1 GLY         0.0763
     98 H18        27.5145  -32.2163   48.4829 H         1 ALA         0.1883
     99 H19        27.9630  -32.9944   46.3996 H         1 ALA         0.0797
    100 H20        30.3562  -33.2150   45.7863 H         1 ALA         0.0277
    101 H21        30.7892  -33.1485   47.5283 H         1 ALA         0.0277
    102 H22        30.0062  -31.7355   46.7429 H         1 ALA         0.0277
    103 H23        30.5905  -35.1563   46.9082 H         1 GLY         0.1881
    104 H24        28.6979  -37.2903   45.9736 H         1 GLY         0.0763
    105 H25        30.1350  -37.6661   46.9836 H         1 GLY         0.0763
    106 H26        32.2193  -37.2202   46.1465 H         1 ALA         0.1883
    107 H27        32.8754  -35.8396   43.8160 H         1 ALA         0.0797
    108 H28        35.0845  -36.9717   43.9775 H         1 ALA         0.0277
    109 H29        34.3921  -38.1169   45.1758 H         1 ALA         0.0277
    110 H30        34.5027  -36.3669   45.5657 H         1 ALA         0.0277
    111 H31        33.6601  -36.4191   41.7934 H         1 GLY         0.1881
    112 H32        33.3597  -39.1886   40.8786 H         1 GLY         0.0763
    113 H33        34.1120  -37.8255   39.9826 H         1 GLY         0.0763
    114 H34        31.2219  -36.6022   40.9137 H         1 ALA         0.1883
    115 H35        29.7917  -37.6467   38.5082 H         1 ALA         0.0797
    116 H36        27.6769  -37.0503   39.7068 H         1 ALA         0.0277
    117 H37        28.6415  -36.5274   41.1290 H         1 ALA         0.0277
    118 H38        28.6513  -38.2505   40.6215 H         1 ALA         0.0277
    119 H39        31.7414  -35.2025   39.0216 H         1 GLY         0.1881
    120 H40        31.9449  -32.9962   38.2731 H         1 GLY         0.0763
    121 H41        30.2949  -32.7551   38.9410 H         1 GLY         0.0763
    122 H42        29.5307  -31.4675   37.2575 H         1 THR         0.1884
    123 H43        29.6645  -32.5386   34.4612 H         1 THR         0.0826
    124 H44        27.3654  -31.6404   34.0404 H         1 THR         0.0639
    125 H45        26.1294  -31.1059   35.9506 H         1 THR         0.2101
    126 H46        26.0510  -33.4331   35.2154 H         1 THR         0.0257
    127 H47        27.4370  -33.7333   36.3179 H         1 THR         0.0257
    128 H48        27.5907  -34.0902   34.5642 H         1 THR         0.0257
    129 H49        29.3187  -30.8604   32.8362 H         1 THR         0.1884
    130 H50        30.1308  -28.0990   33.7085 H         1 THR         0.0826
    131 H51        29.9621  -29.3662   30.9267 H         1 THR         0.0639
    132 H52        32.2435  -28.9368   32.6040 H         1 THR         0.2101
    133 H53        31.2680  -27.4141   30.2144 H         1 THR         0.0257
    134 H54        31.1626  -26.7455   31.8782 H         1 THR         0.0257
    135 H55        29.6715  -26.9571   30.8991 H         1 THR         0.0257
    136 H56        25.6842  -27.5924   33.3000 H         1 PRO         0.0802
    137 H57        25.8851  -26.0925   35.1428 H         1 PRO         0.0313
    138 H58        25.4373  -24.9149   33.8624 H         1 PRO         0.0313
    139 H59        27.6885  -24.5582   35.2560 H         1 PRO         0.0287
    140 H60        27.6873  -24.2844   33.4807 H         1 PRO         0.0287
    141 H61        29.4316  -25.8537   33.5560 H         1 PRO         0.0524
    142 H62        28.8230  -26.6075   35.0686 H         1 PRO         0.0524
    143 H63        24.2059  -26.9662   31.7414 H         1 GLY         0.1881
    144 H64        23.5471  -26.4062   29.5557 H         1 GLY         0.0763
    145 H65        25.2225  -25.8507   29.2222 H         1 GLY         0.0763
    146 H66        24.2877  -21.6951   29.9140 H         1 PRO         0.0802
    147 H67        24.8647  -21.1541   27.7098 H         1 PRO         0.0313
    148 H68        23.1128  -20.7985   27.5328 H         1 PRO         0.0313
    149 H69        24.2751  -22.5870   25.9739 H         1 PRO         0.0287
    150 H70        22.6437  -22.8987   26.6580 H         1 PRO         0.0287
    151 H71        23.7559  -24.8426   27.3508 H         1 PRO         0.0524
    152 H72        25.3333  -24.0008   27.5231 H         1 PRO         0.0524
    153 H73        21.4515  -23.6404   29.1405 H         1 GLY         0.1873
    154 H74        19.1763  -23.2629   29.4251 H         1 GLY         0.0689
    155 H75        19.5184  -21.5078   29.2541 H         1 GLY         0.0689
@<TRIPOS>BOND
     1    1    2 1  
     2    2    3 1  
     3    2    5 1  
     4    3    4 2  
     5    3    6 am 
     6    6    7 1  
     7    7    8 1  
     8    7   10 1  
     9    8    9 2  
    10    8   13 am 
    11   10   11 1  
    12   10   12 1  
    13   13   14 1  
    14   14   15 1  
    15   15   16 2  
    16   15   17 am 
    17   17   18 1  
    18   18   19 1  
    19   18   21 1  
    20   19   20 2  
    21   19   22 am 
    22   22   23 1  
    23   23   24 1  
    24   24   25 2  
    25   24   26 am 
    26   26   27 1  
    27   27   28 1  
    28   27   30 1  
    29   28   29 2  
    30   28   31 am 
    31   31   32 1  
    32   32   33 1  
    33   33   34 2  
    34   33   35 am 
    35   35   36 1  
    36   36   37 1  
    37   36   39 1  
    38   37   38 2  
    39   37   40 am 
    40   40   41 1  
    41   41   42 1  
    42   42   43 2  
    43   42   44 am 
    44   44   45 1  
    45   45   46 1  
    46   45   48 1  
    47   46   47 2  
    48   46   51 am 
    49   48   49 1  
    50   48   50 1  
    51   51   52 1  
    52   52   53 1  
    53   52   55 1  
    54   53   54 2  
    55   53   58 am 
    56   55   56 1  
    57   55   57 1  
    58   58   59 1  
    59   58   64 1  
    60   59   60 1  
    61   59   62 1  
    62   60   61 2  
    63   60   65 am 
    64   62   63 1  
    65   63   64 1  
    66   65   66 1  
    67   66   67 1  
    68   67   68 2  
    69   67   69 am 
    70   69   70 1  
    71   69   75 1  
    72   70   71 1  
    73   70   73 1  
    74   71   72 2  
    75   71   76 am 
    76   73   74 1  
    77   74   75 1  
    78   76   77 1  
    79   77   78 1  
    80   78   79 ar 
    81   78   80 ar 
    82    1   81 1  
    83    1   82 1  
    84    1   83 1  
    85    2   84 1  
    86    5   85 1  
    87    5   86 1  
    88    5   87 1  
    89    6   88 1  
    90    7   89 1  
    91   10   90 1  
    92   11   91 1  
    93   12   92 1  
    94   12   93 1  
    95   12   94 1  
    96   13   95 1  
    97   14   96 1  
    98   14   97 1  
    99   17   98 1  
   100   18   99 1  
   101   21  100 1  
   102   21  101 1  
   103   21  102 1  
   104   22  103 1  
   105   23  104 1  
   106   23  105 1  
   107   26  106 1  
   108   27  107 1  
   109   30  108 1  
   110   30  109 1  
   111   30  110 1  
   112   31  111 1  
   113   32  112 1  
   114   32  113 1  
   115   35  114 1  
   116   36  115 1  
   117   39  116 1  
   118   39  117 1  
   119   39  118 1  
   120   40  119 1  
   121   41  120 1  
   122   41  121 1  
   123   44  122 1  
   124   45  123 1  
   125   48  124 1  
   126   49  125 1  
   127   50  126 1  
   128   50  127 1  
   129   50  128 1  
   130   51  129 1  
   131   52  130 1  
   132   55  131 1  
   133   56  132 1  
   134   57  133 1  
   135   57  134 1  
   136   57  135 1  
   137   59  136 1  
   138   62  137 1  
   139   62  138 1  
   140   63  139 1  
   141   63  140 1  
   142   64  141 1  
   143   64  142 1  
   144   65  143 1  
   145   66  144 1  
   146   66  145 1  
   147   70  146 1  
   148   73  147 1  
   149   73  148 1  
   150   74  149 1  
   151   74  150 1  
   152   75  151 1  
   153   75  152 1  
   154   76  153 1  
   155   77  154 1  
   156   77  155 1  
@<TRIPOS>SUBSTRUCTURE
     1 ALA         1

