6h0b_ligand
  -I-interpret- 

156157  0  0  0  0  0  0  0  0999 V2000
   29.7750  -37.8090   55.2750 N   0  3  0  0  0
   30.1330  -36.8470   54.1790 C   0  0  0  0  0
   28.9960  -35.8630   53.9050 C   0  0  0  0  0
   29.1370  -34.6540   54.1420 O   0  0  0  0  0
   30.5120  -37.5950   52.9000 C   0  0  0  0  0
   27.8760  -36.4050   53.4220 N   0  0  0  0  0
   26.6690  -35.6600   52.9800 C   0  0  0  0  0
   26.8520  -34.6810   51.8010 C   0  0  0  0  0
   26.0170  -34.6660   50.8900 O   0  0  0  0  0
   25.8860  -34.9630   54.1480 C   0  0  0  0  0
   26.3350  -33.6050   54.3630 O   0  0  0  0  0
   25.9700  -35.7880   55.4410 C   0  0  0  0  0
   27.8820  -33.8320   51.8540 N   0  0  0  0  0
   28.0930  -32.7820   50.8610 C   0  0  0  0  0
   28.7510  -33.3250   49.6120 C   0  0  0  0  0
   29.7060  -34.0990   49.7020 O   0  0  0  0  0
   28.2380  -32.9060   48.4540 N   0  0  0  0  0
   28.6720  -33.3970   47.1380 C   0  0  0  0  0
   28.5910  -34.9420   47.0220 C   0  0  0  0  0
   27.5150  -35.5140   47.2370 O   0  0  0  0  0
   30.0540  -32.8340   46.7730 C   0  0  0  0  0
   29.7140  -35.6110   46.7500 N   0  0  0  0  0
   29.7210  -36.9790   46.2310 C   0  0  0  0  0
   30.5950  -36.9800   44.9870 C   0  0  0  0  0
   30.0870  -36.9140   43.8610 O   0  0  0  0  0
   31.9120  -37.0460   45.2110 N   0  0  0  0  0
   32.9360  -36.8790   44.1710 C   0  0  0  0  0
   32.7430  -37.7910   42.9530 C   0  0  0  0  0
   32.1390  -38.8800   43.0460 O   0  0  0  0  0
   34.3260  -37.0990   44.7640 C   0  0  0  0  0
   33.2570  -37.3340   41.8130 N   0  0  0  0  0
   33.2480  -38.1330   40.5900 C   0  0  0  0  0
   32.0070  -38.0200   39.7200 C   0  0  0  0  0
   31.9140  -38.7240   38.7170 O   0  0  0  0  0
   31.0670  -37.1430   40.0870 N   0  0  0  0  0
   29.8210  -36.9310   39.3430 C   0  0  0  0  0
   29.7510  -35.4890   38.7450 C   0  0  0  0  0
   28.6630  -35.0370   38.3280 O   0  0  0  0  0
   28.6100  -37.2100   40.2670 C   0  0  0  0  0
   30.8890  -34.7740   38.7220 N   0  0  0  0  0
   30.9090  -33.3660   38.2630 C   0  0  0  0  0
   30.3470  -33.2590   36.8360 C   0  0  0  0  0
   30.4620  -34.2170   36.0280 O   0  0  0  0  0
   29.6940  -32.1360   36.5320 N   0  0  0  0  0
   29.1990  -31.8340   35.1660 C   0  0  0  0  0
   29.5680  -30.3960   34.7800 C   0  0  0  0  0
   29.8770  -29.5600   35.6480 O   0  0  0  0  0
   27.6660  -31.9440   35.0540 C   0  0  0  0  0
   27.0760  -31.0490   36.0080 O   0  0  0  0  0
   27.1470  -33.4110   35.3070 C   0  0  0  0  0
   29.4920  -30.1160   33.4810 N   0  0  0  0  0
   29.6540  -28.7500   32.9610 C   0  0  0  0  0
   28.2250  -28.2810   32.6630 C   0  0  0  0  0
   27.5330  -28.9300   31.9040 O   0  0  0  0  0
   30.4980  -28.7700   31.6800 C   0  0  0  0  0
   31.7750  -29.4150   31.9300 O   0  0  0  0  0
   30.6610  -27.3780   31.1310 C   0  0  0  0  0
   27.7650  -27.1680   33.2970 N   0  0  0  0  0
   26.3620  -26.7460   33.1150 C   0  0  0  0  0
   26.0600  -26.1570   31.7120 C   0  0  0  0  0
   26.9510  -25.5130   31.0950 O   0  0  0  0  0
   26.1860  -25.6560   34.1790 C   0  0  0  0  0
   27.5500  -25.0340   34.2740 C   0  0  0  0  0
   28.5320  -26.1840   34.0960 C   0  0  0  0  0
   24.8360  -26.3890   31.2220 N   0  0  0  0  0
   24.3930  -25.8200   29.9440 C   0  0  0  0  0
   23.9580  -24.3830   30.1520 C   0  0  0  0  0
   23.6860  -23.9920   31.3070 O   0  0  0  0  0
   23.9150  -23.5730   29.0550 N   0  0  0  0  0
   23.5920  -22.1490   29.1930 C   0  0  0  0  0
   22.1670  -21.8300   29.6650 C   0  0  0  0  0
   21.9630  -20.7390   30.1840 O   0  0  0  0  0
   23.8510  -21.5750   27.7820 C   0  0  0  0  0
   23.7040  -22.7370   26.9020 C   0  0  0  0  0
   24.2460  -23.9080   27.6610 C   0  0  0  0  0
   21.2100  -22.7340   29.4870 N   0  0  0  0  0
   19.7920  -22.4280   29.7910 C   0  0  0  0  0
   19.4810  -22.2230   31.2730 C   0  0  0  0  0
   19.9310  -22.9950   32.1230 O   0  0  0  0  0
   18.7750  -21.2820   31.6430 O   0  0  0  0  0
   29.5265  -37.2876   56.1157 H   0  0  0  0  0
   28.9821  -38.3788   54.9801 H   0  0  0  0  0
   30.5741  -38.4118   55.4711 H   0  0  0  0  0
   30.9977  -36.2749   54.5153 H   0  0  0  0  0
   29.6462  -38.1460   52.5327 H   0  0  0  0  0
   30.8360  -36.8792   52.1445 H   0  0  0  0  0
   31.3230  -38.2910   53.1144 H   0  0  0  0  0
   27.8461  -37.4220   53.3499 H   0  0  0  0  0
   26.0593  -36.4741   52.5880 H   0  0  0  0  0
   24.8389  -34.9117   53.8496 H   0  0  0  0  0
   25.8342  -33.2137   55.0825 H   0  0  0  0  0
   27.0031  -35.8138   55.7876 H   0  0  0  0  0
   25.3407  -35.3301   56.2042 H   0  0  0  0  0
   25.6256  -36.8035   55.2456 H   0  0  0  0  0
   28.5493  -33.9208   52.6203 H   0  0  0  0  0
   28.7457  -32.0237   51.2935 H   0  0  0  0  0
   27.1236  -32.3654   50.5875 H   0  0  0  0  0
   27.5001  -32.2025   48.4834 H   0  0  0  0  0
   27.9684  -33.0206   46.3954 H   0  0  0  0  0
   30.0053  -31.7455   46.7435 H   0  0  0  0  0
   30.7815  -33.1463   47.5222 H   0  0  0  0  0
   30.3523  -33.2122   45.7952 H   0  0  0  0  0
   30.6080  -35.1472   46.9114 H   0  0  0  0  0
   28.7090  -37.3048   45.9907 H   0  0  0  0  0
   30.1116  -37.6716   46.9765 H   0  0  0  0  0
   32.2255  -37.2237   46.1652 H   0  0  0  0  0
   32.8312  -35.8564   43.8085 H   0  0  0  0  0
   34.4998  -36.3730   45.5583 H   0  0  0  0  0
   34.3902  -38.1078   45.1717 H   0  0  0  0  0
   35.0766  -36.9726   43.9838 H   0  0  0  0  0
   33.6682  -36.4008   41.7930 H   0  0  0  0  0
   33.3018  -39.1743   40.9077 H   0  0  0  0  0
   34.0775  -37.7689   39.9838 H   0  0  0  0  0
   31.2250  -36.5914   40.9303 H   0  0  0  0  0
   29.7945  -37.6265   38.5042 H   0  0  0  0  0
   28.6521  -38.2412   40.6176 H   0  0  0  0  0
   28.6424  -36.5330   41.1207 H   0  0  0  0  0
   27.6861  -37.0515   39.7108 H   0  0  0  0  0
   31.7585  -35.2110   39.0276 H   0  0  0  0  0
   31.9378  -33.0060   38.2671 H   0  0  0  0  0
   30.2933  -32.7656   38.9328 H   0  0  0  0  0
   29.5274  -31.4541   37.2720 H   0  0  0  0  0
   29.6642  -32.5667   34.5067 H   0  0  0  0  0
   27.3779  -31.6774   34.0371 H   0  0  0  0  0
   26.1195  -31.1065   35.9500 H   0  0  0  0  0
   27.5874  -34.0829   34.5704 H   0  0  0  0  0
   27.4350  -33.7292   36.3090 H   0  0  0  0  0
   26.0610  -33.4316   35.2160 H   0  0  0  0  0
   29.3152  -30.8753   32.8233 H   0  0  0  0  0
   30.1646  -28.0900   33.6622 H   0  0  0  0  0
   29.9801  -29.3545   30.9195 H   0  0  0  0  0
   32.2929  -29.4210   31.1217 H   0  0  0  0  0
   29.6799  -26.9621   30.9017 H   0  0  0  0  0
   31.1581  -26.7523   31.8723 H   0  0  0  0  0
   31.2626  -27.4151   30.2228 H   0  0  0  0  0
   25.6854  -27.5956   33.2071 H   0  0  0  0  0
   25.8420  -26.0555   35.1330 H   0  0  0  0  0
   25.4151  -24.9330   33.9124 H   0  0  0  0  0
   27.6940  -24.5289   35.2291 H   0  0  0  0  0
   27.6928  -24.2646   33.5153 H   0  0  0  0  0
   29.4553  -25.8748   33.6062 H   0  0  0  0  0
   28.8759  -26.5925   35.0462 H   0  0  0  0  0
   24.1933  -26.9778   31.7518 H   0  0  0  0  0
   23.5544  -26.4007   29.5599 H   0  0  0  0  0
   25.2154  -25.8500   29.2293 H   0  0  0  0  0
   24.2014  -21.7077   29.9816 H   0  0  0  0  0
   24.8331  -21.1100   27.6961 H   0  0  0  0  0
   23.1610  -20.7706   27.5273 H   0  0  0  0  0
   24.2438  -22.5917   25.9663 H   0  0  0  0  0
   22.6602  -22.8943   26.6303 H   0  0  0  0  0
   23.8181  -24.8575   27.3393 H   0  0  0  0  0
   25.3138  -24.0593   27.5027 H   0  0  0  0  0
   21.4563  -23.6585   29.1335 H   0  0  0  0  0
   19.2065  -23.2864   29.4617 H   0  0  0  0  0
   19.5565  -21.4908   29.2868 H   0  0  0  0  0
   20.4575  -23.6722   31.6919 H   0  0  0  0  0
  1  2  1  0  0  0
  2  3  1  0  0  0
  2  5  1  0  0  0
  3  4  2  0  0  0
  3  6  1  0  0  0
  6  7  1  0  0  0
  7  8  1  0  0  0
  7 10  1  0  0  0
  8  9  2  0  0  0
  8 13  1  0  0  0
 10 11  1  0  0  0
 10 12  1  0  0  0
 13 14  1  0  0  0
 14 15  1  0  0  0
 15 16  2  0  0  0
 15 17  1  0  0  0
 17 18  1  0  0  0
 18 19  1  0  0  0
 18 21  1  0  0  0
 19 20  2  0  0  0
 19 22  1  0  0  0
 22 23  1  0  0  0
 23 24  1  0  0  0
 24 25  2  0  0  0
 24 26  1  0  0  0
 26 27  1  0  0  0
 27 28  1  0  0  0
 27 30  1  0  0  0
 28 29  2  0  0  0
 28 31  1  0  0  0
 31 32  1  0  0  0
 32 33  1  0  0  0
 33 34  2  0  0  0
 33 35  1  0  0  0
 35 36  1  0  0  0
 36 37  1  0  0  0
 36 39  1  0  0  0
 37 38  2  0  0  0
 37 40  1  0  0  0
 40 41  1  0  0  0
 41 42  1  0  0  0
 42 43  2  0  0  0
 42 44  1  0  0  0
 44 45  1  0  0  0
 45 46  1  0  0  0
 45 48  1  0  0  0
 46 47  2  0  0  0
 46 51  1  0  0  0
 48 49  1  0  0  0
 48 50  1  0  0  0
 51 52  1  0  0  0
 52 53  1  0  0  0
 52 55  1  0  0  0
 53 54  2  0  0  0
 53 58  1  0  0  0
 55 56  1  0  0  0
 55 57  1  0  0  0
 58 59  1  0  0  0
 58 64  1  0  0  0
 59 60  1  0  0  0
 59 62  1  0  0  0
 60 61  2  0  0  0
 60 65  1  0  0  0
 62 63  1  0  0  0
 63 64  1  0  0  0
 65 66  1  0  0  0
 66 67  1  0  0  0
 67 68  2  0  0  0
 67 69  1  0  0  0
 69 70  1  0  0  0
 69 75  1  0  0  0
 70 71  1  0  0  0
 70 73  1  0  0  0
 71 72  2  0  0  0
 71 76  1  0  0  0
 73 74  1  0  0  0
 74 75  1  0  0  0
 76 77  1  0  0  0
 77 78  1  0  0  0
 78 79  1  0  0  0
 78 80  2  0  0  0
  1 81  1  0  0  0
  1 82  1  0  0  0
  1 83  1  0  0  0
  2 84  1  0  0  0
  5 85  1  0  0  0
  5 86  1  0  0  0
  5 87  1  0  0  0
  6 88  1  0  0  0
  7 89  1  0  0  0
 10 90  1  0  0  0
 11 91  1  0  0  0
 12 92  1  0  0  0
 12 93  1  0  0  0
 12 94  1  0  0  0
 13 95  1  0  0  0
 14 96  1  0  0  0
 14 97  1  0  0  0
 17 98  1  0  0  0
 18 99  1  0  0  0
 21100  1  0  0  0
 21101  1  0  0  0
 21102  1  0  0  0
 22103  1  0  0  0
 23104  1  0  0  0
 23105  1  0  0  0
 26106  1  0  0  0
 27107  1  0  0  0
 30108  1  0  0  0
 30109  1  0  0  0
 30110  1  0  0  0
 31111  1  0  0  0
 32112  1  0  0  0
 32113  1  0  0  0
 35114  1  0  0  0
 36115  1  0  0  0
 39116  1  0  0  0
 39117  1  0  0  0
 39118  1  0  0  0
 40119  1  0  0  0
 41120  1  0  0  0
 41121  1  0  0  0
 44122  1  0  0  0
 45123  1  0  0  0
 48124  1  0  0  0
 49125  1  0  0  0
 50126  1  0  0  0
 50127  1  0  0  0
 50128  1  0  0  0
 51129  1  0  0  0
 52130  1  0  0  0
 55131  1  0  0  0
 56132  1  0  0  0
 57133  1  0  0  0
 57134  1  0  0  0
 57135  1  0  0  0
 59136  1  0  0  0
 62137  1  0  0  0
 62138  1  0  0  0
 63139  1  0  0  0
 63140  1  0  0  0
 64141  1  0  0  0
 64142  1  0  0  0
 65143  1  0  0  0
 66144  1  0  0  0
 66145  1  0  0  0
 70146  1  0  0  0
 73147  1  0  0  0
 73148  1  0  0  0
 74149  1  0  0  0
 74150  1  0  0  0
 75151  1  0  0  0
 75152  1  0  0  0
 76153  1  0  0  0
 77154  1  0  0  0
 77155  1  0  0  0
 79156  1  0  0  0
M  END
$$$$
