4kju_ligand
  -I-interpret- 

 75 79  0  0  0  0  0  0  0  0999 V2000
   28.7790   29.4480   11.6380 C   0  0  0  0  0
   28.7590   30.9010   11.6220 O   0  0  0  0  0
   29.1160   31.4850   12.7850 C   0  0  0  0  0
   29.9090   30.8530   13.7510 C   0  0  0  0  0
   30.2270   31.5100   14.9310 C   0  0  0  0  0
   29.7350   32.8020   15.1620 C   0  0  0  0  0
   30.0500   33.4610   16.3410 C   0  0  0  0  0
   29.5610   34.7460   16.6420 C   0  0  0  0  0
   28.7580   35.3110   15.6860 C   0  0  0  0  0
   28.4640   34.7050   14.4750 C   0  0  0  0  0
   28.9350   33.4180   14.1700 C   0  0  0  0  0
   28.6160   32.7900   12.9740 C   0  0  0  0  0
   27.7990   33.3530   11.9820 C   0  0  0  0  0
   28.5030   34.4290   11.1490 N   0  0  0  0  0
   27.8800   35.6150   10.9440 C   0  0  0  0  0
   26.7500   35.8470   11.4610 O   0  0  0  0  0
   28.4720   36.5760   10.0520 C   0  0  0  0  0
   29.6610   37.2680   10.6120 C   0  0  0  0  0
   27.4660   37.5310    9.6340 N   0  0  0  0  0
   26.6750   37.4170    8.5810 C   0  0  0  0  0
   26.6320   36.4740    7.7690 O   0  0  0  0  0
   25.6470   38.5280    8.4790 C   0  0  0  0  0
   24.4860   38.1470    9.5070 C   0  0  0  0  0
   25.0950   38.5410    7.1320 N   0  3  0  0  0
   26.0520   39.0330    6.0730 C   0  0  0  0  0
   29.7330   34.1860   10.6090 C   0  0  0  0  0
   29.9800   32.9620    9.9530 C   0  0  0  0  0
   31.2460   32.7130    9.3820 C   0  0  0  0  0
   32.2520   33.6690    9.4450 C   0  0  0  0  0
   32.0160   34.8810   10.0600 C   0  0  0  0  0
   30.7460   35.1090   10.6700 C   0  0  0  0  0
   30.6430   36.3390   11.1790 N   0  0  0  0  0
   31.4830   36.9060   12.0710 C   0  0  0  0  0
   31.3130   38.0880   12.3770 O   0  0  0  0  0
   32.4100   36.2050   12.8490 C   0  0  0  0  0
   33.6120   36.8330   13.1700 C   0  0  0  0  0
   34.5240   36.1820   13.9980 C   0  0  0  0  0
   34.2280   34.9380   14.5230 C   0  0  0  0  0
   35.1120   34.3250   15.3090 N   0  0  0  0  0
   33.0220   34.3260   14.2100 C   0  0  0  0  0
   32.1300   34.9560   13.3840 C   0  0  0  0  0
   29.7870   29.1023   11.8674 H   0  0  0  0  0
   28.0872   29.0847   12.3980 H   0  0  0  0  0
   28.4778   29.0710   10.6606 H   0  0  0  0  0
   30.2774   29.8423   13.5754 H   0  0  0  0  0
   30.8570   31.0233   15.6755 H   0  0  0  0  0
   30.7006   32.9652   17.0614 H   0  0  0  0  0
   29.8047   35.2575   17.5732 H   0  0  0  0  0
   28.3268   36.2912   15.8894 H   0  0  0  0  0
   27.8551   35.2380   13.7448 H   0  0  0  0  0
   26.9545   33.8265   12.4827 H   0  0  0  0  0
   27.5079   32.5513   11.3032 H   0  0  0  0  0
   28.8432   36.0204    9.1908 H   0  0  0  0  0
   29.3196   37.9235   11.4132 H   0  0  0  0  0
   30.1447   37.8111    9.8001 H   0  0  0  0  0
   27.3580   38.3691   10.2052 H   0  0  0  0  0
   26.0817   39.5037    8.6963 H   0  0  0  0  0
   24.0566   37.1849    9.2278 H   0  0  0  0  0
   24.9000   38.0833   10.5133 H   0  0  0  0  0
   23.7117   38.9137    9.4791 H   0  0  0  0  0
   24.3007   39.1809    7.1393 H   0  0  0  0  0
   24.8560   37.5778    6.8963 H   0  0  0  0  0
   26.3541   40.0544    6.3044 H   0  0  0  0  0
   26.9310   38.3888    6.0519 H   0  0  0  0  0
   25.5594   39.0098    5.1009 H   0  0  0  0  0
   29.1941   32.2096    9.8873 H   0  0  0  0  0
   31.4366   31.7610    8.8865 H   0  0  0  0  0
   33.2287   33.4612    9.0081 H   0  0  0  0  0
   32.7866   35.6517   10.0798 H   0  0  0  0  0
   33.8366   37.8245   12.7768 H   0  0  0  0  0
   35.4767   36.6565   14.2332 H   0  0  0  0  0
   36.0031   34.7737   15.5212 H   0  0  0  0  0
   34.8977   33.4070   15.6985 H   0  0  0  0  0
   32.7853   33.3448   14.6214 H   0  0  0  0  0
   31.1853   34.4686   13.1431 H   0  0  0  0  0
  1  2  1  0  0  0
  2  3  1  0  0  0
  3  4  4  0  0  0
  3 12  4  0  0  0
  4  5  4  0  0  0
  5  6  4  0  0  0
  6  7  4  0  0  0
  6 11  4  0  0  0
  7  8  4  0  0  0
  8  9  4  0  0  0
  9 10  4  0  0  0
 10 11  4  0  0  0
 11 12  4  0  0  0
 12 13  1  0  0  0
 13 14  1  0  0  0
 14 15  1  0  0  0
 14 26  1  0  0  0
 15 16  2  0  0  0
 15 17  1  0  0  0
 17 18  1  0  0  0
 17 19  1  0  0  0
 18 32  1  0  0  0
 19 20  1  0  0  0
 20 21  2  0  0  0
 20 22  1  0  0  0
 22 23  1  0  0  0
 22 24  1  0  0  0
 24 25  1  0  0  0
 26 27  4  0  0  0
 26 31  4  0  0  0
 27 28  4  0  0  0
 28 29  4  0  0  0
 29 30  4  0  0  0
 30 31  4  0  0  0
 31 32  1  0  0  0
 32 33  1  0  0  0
 33 34  2  0  0  0
 33 35  1  0  0  0
 35 36  4  0  0  0
 35 41  4  0  0  0
 36 37  4  0  0  0
 37 38  4  0  0  0
 38 39  1  0  0  0
 38 40  4  0  0  0
 40 41  4  0  0  0
  1 42  1  0  0  0
  1 43  1  0  0  0
  1 44  1  0  0  0
  4 45  1  0  0  0
  5 46  1  0  0  0
  7 47  1  0  0  0
  8 48  1  0  0  0
  9 49  1  0  0  0
 10 50  1  0  0  0
 13 51  1  0  0  0
 13 52  1  0  0  0
 17 53  1  0  0  0
 18 54  1  0  0  0
 18 55  1  0  0  0
 19 56  1  0  0  0
 22 57  1  0  0  0
 23 58  1  0  0  0
 23 59  1  0  0  0
 23 60  1  0  0  0
 24 61  1  0  0  0
 24 62  1  0  0  0
 25 63  1  0  0  0
 25 64  1  0  0  0
 25 65  1  0  0  0
 27 66  1  0  0  0
 28 67  1  0  0  0
 29 68  1  0  0  0
 30 69  1  0  0  0
 36 70  1  0  0  0
 37 71  1  0  0  0
 39 72  1  0  0  0
 39 73  1  0  0  0
 40 74  1  0  0  0
 41 75  1  0  0  0
M  END
$$$$
