3k9x_ligand
  -I-interpret- 

 70 74  0  0  0  0  0  0  0  0999 V2000
   -3.4890    8.5340   24.8720 C   0  0  0  0  0
    3.0780    6.0130   25.5820 N   0  0  0  0  0
    0.8180    6.3350   24.0420 O   0  0  0  0  0
   -2.9220    7.9800   23.7230 C   0  0  0  0  0
   -2.8700    8.5350   26.0810 N   0  0  0  0  0
    8.3070    4.7780   26.6490 O   0  0  0  0  0
   -1.6400    7.4410   23.8270 C   0  0  0  0  0
    1.1840    7.4420   26.0400 N   0  0  0  0  0
    3.9920   12.6780   28.3460 O   0  0  0  0  0
    2.3670    6.8890   26.3660 C   0  0  0  0  0
    2.9510    7.4920   27.4810 N   0  0  0  0  0
    4.5110    8.9200   28.7340 O   0  0  0  0  0
    0.4170    6.9750   25.0120 C   0  0  0  0  0
    5.4050   13.2200   29.9820 N   0  0  0  0  0
   -1.6150    8.0060   26.1600 C   0  0  0  0  0
    2.9600   10.5040   29.4180 N   0  0  0  0  0
   -0.9680    7.4740   25.0490 C   0  0  0  0  0
    8.8510    4.8850   25.3750 C   0  0  0  0  0
    7.8950    5.2090   24.4340 C   0  0  0  0  0
   10.3080    4.6970   25.2640 C   0  0  0  0  0
    4.3890    5.6510   25.9040 C   0  0  0  0  0
    5.3300    5.6960   24.8320 C   0  0  0  0  0
    6.6380    5.3730   25.1750 C   0  0  0  0  0
    4.7240    5.3750   27.2480 C   0  0  0  0  0
    6.0590    5.0650   27.5920 C   0  0  0  0  0
    6.9590    5.0690   26.5430 C   0  0  0  0  0
    5.8440   14.4190   29.2670 C   0  0  0  0  0
    4.0080   11.1810   30.2320 C   0  0  0  0  0
    4.3940   12.4460   29.4730 C   0  0  0  0  0
    6.1930   12.9310   31.2040 C   0  0  0  0  0
    7.0860   14.8790   30.0230 C   0  0  0  0  0
    7.0700   14.2050   31.3690 C   0  0  0  0  0
    1.2450    7.9250   29.2070 C   0  0  0  0  0
    3.3330    9.3290   28.7980 C   0  0  0  0  0
    2.2000    8.5680   28.1720 C   0  0  0  0  0
    1.5500   10.9460   29.5640 C   0  0  0  0  0
    0.1100    8.8470   29.7170 C   0  0  0  0  0
    0.6990   10.0380   30.4980 C   0  0  0  0  0
   -4.4769    8.9881   24.7952 H   0  0  0  0  0
    2.6407    5.6192   24.7489 H   0  0  0  0  0
   -3.4629    7.9691   22.7767 H   0  0  0  0  0
   -1.1635    6.9944   22.9543 H   0  0  0  0  0
    3.8706    7.2002   27.8121 H   0  0  0  0  0
   -1.1037    7.9999   27.1226 H   0  0  0  0  0
    8.0428    5.3204   23.3598 H   0  0  0  0  0
   10.8170    5.4468   25.8697 H   0  0  0  0  0
   10.5726    3.7009   25.6187 H   0  0  0  0  0
   10.6086    4.8047   24.2218 H   0  0  0  0  0
    5.0432    5.9648   23.8153 H   0  0  0  0  0
    3.9538    5.4011   28.0188 H   0  0  0  0  0
    6.3587    4.8381   28.6151 H   0  0  0  0  0
    5.0712   15.1874   29.2436 H   0  0  0  0  0
    6.0560   14.2149   28.2175 H   0  0  0  0  0
    4.8720   10.5319   30.3745 H   0  0  0  0  0
    3.6349   11.4212   31.2276 H   0  0  0  0  0
    6.7856   12.0203   31.1173 H   0  0  0  0  0
    5.5652   12.7365   32.0736 H   0  0  0  0  0
    7.0829   15.9628   30.1387 H   0  0  0  0  0
    7.9884   14.6120   29.4730 H   0  0  0  0  0
    8.0788   13.9491   31.6930 H   0  0  0  0  0
    6.6642   14.8656   32.1352 H   0  0  0  0  0
    1.8518    7.6657   30.0746 H   0  0  0  0  0
    0.7646    7.0826   28.7092 H   0  0  0  0  0
    1.5593    9.1988   27.5558 H   0  0  0  0  0
    1.0947   10.9106   28.5743 H   0  0  0  0  0
    1.5664   11.9420   30.0066 H   0  0  0  0  0
   -0.5427    8.2761   30.3774 H   0  0  0  0  0
   -0.4527    9.2245   28.8632 H   0  0  0  0  0
   -0.1202   10.6275   30.9096 H   0  0  0  0  0
    1.3386    9.6547   31.2930 H   0  0  0  0  0
  4  1  4  0  0  0
  5  1  4  0  0  0
 10  2  1  0  0  0
  2 21  1  0  0  0
 13  3  2  0  0  0
  7  4  4  0  0  0
 15  5  4  0  0  0
  6 18  4  0  0  0
 26  6  4  0  0  0
 17  7  4  0  0  0
 10  8  4  0  0  0
  8 13  1  0  0  0
 29  9  2  0  0  0
 11 10  1  0  0  0
 35 11  1  0  0  0
 34 12  2  0  0  0
 13 17  1  0  0  0
 14 27  1  0  0  0
 29 14  1  0  0  0
 14 30  1  0  0  0
 17 15  4  0  0  0
 16 28  1  0  0  0
 34 16  1  0  0  0
 16 36  1  0  0  0
 19 18  4  0  0  0
 18 20  1  0  0  0
 23 19  4  0  0  0
 21 22  4  0  0  0
 21 24  4  0  0  0
 22 23  4  0  0  0
 23 26  4  0  0  0
 24 25  4  0  0  0
 25 26  4  0  0  0
 27 31  1  0  0  0
 28 29  1  0  0  0
 30 32  1  0  0  0
 32 31  1  0  0  0
 35 33  1  0  0  0
 33 37  1  0  0  0
 34 35  1  0  0  0
 36 38  1  0  0  0
 37 38  1  0  0  0
  1 39  1  0  0  0
  2 40  1  0  0  0
  4 41  1  0  0  0
  7 42  1  0  0  0
 11 43  1  0  0  0
 15 44  1  0  0  0
 19 45  1  0  0  0
 20 46  1  0  0  0
 20 47  1  0  0  0
 20 48  1  0  0  0
 22 49  1  0  0  0
 24 50  1  0  0  0
 25 51  1  0  0  0
 27 52  1  0  0  0
 27 53  1  0  0  0
 28 54  1  0  0  0
 28 55  1  0  0  0
 30 56  1  0  0  0
 30 57  1  0  0  0
 31 58  1  0  0  0
 31 59  1  0  0  0
 32 60  1  0  0  0
 32 61  1  0  0  0
 33 62  1  0  0  0
 33 63  1  0  0  0
 35 64  1  0  0  0
 36 65  1  0  0  0
 36 66  1  0  0  0
 37 67  1  0  0  0
 37 68  1  0  0  0
 38 69  1  0  0  0
 38 70  1  0  0  0
M  END
$$$$
