3opr_ligand
  -I-interpret- 

 42 41  0  0  0  0  0  0  0  0999 V2000
   34.8600   59.8770    3.7490 O   0  0  0  0  0
   35.5130   60.8500    3.3170 C   0  0  0  0  0
   36.7470   60.9900    3.4470 O   0  0  0  0  0
   34.7560   61.9250    2.5800 C   0  0  0  0  0
   35.0110   61.6570    1.0960 C   0  0  0  0  0
   33.9440   62.2840    0.2130 C   0  0  0  0  0
   33.9920   63.7840    0.3680 C   0  0  0  0  0
   34.9310   64.4430   -0.0590 O   0  0  0  0  0
   32.9090   64.4450    1.0510 O   0  0  0  0  0
   32.9830   65.8370    1.3660 C   0  0  0  0  0
   31.7520   66.2670    2.1490 C   0  0  0  0  0
   31.9860   67.8570    2.6580 S   0  0  0  0  0
   33.0780   67.9040    3.6040 O   0  0  0  0  0
   32.3460   68.6550    1.5190 O   0  0  0  0  0
   30.5530   66.1820    1.2080 C   0  0  0  0  0
   31.5340   65.3000    3.3350 C   0  0  0  0  0
   30.3720   65.6630    4.2210 C   0  0  0  0  0
   30.5330   66.4910    5.1380 O   0  0  0  0  0
   29.2770   65.1070    4.0250 O   0  0  0  0  0
   32.7380   65.1560    4.1480 N   0  0  0  0  0
   33.0540   64.0670    4.8390 C   0  0  0  0  0
   32.2560   63.0190    5.0560 C   0  0  0  0  0
   32.7940   61.9110    5.8350 C   0  0  0  0  0
   33.8380   62.0580    6.4500 O   0  0  0  0  0
   33.9328   59.9921    3.5286 H   0  0  0  0  0
   35.0909   62.9209    2.8701 H   0  0  0  0  0
   33.6919   61.8975    2.8145 H   0  0  0  0  0
   34.9953   60.5788    0.9366 H   0  0  0  0  0
   35.9734   62.0946    0.8309 H   0  0  0  0  0
   32.9614   61.9165    0.5089 H   0  0  0  0  0
   34.1269   62.0173   -0.8279 H   0  0  0  0  0
   33.0335   66.4093    0.4397 H   0  0  0  0  0
   33.8711   66.0182    1.9714 H   0  0  0  0  0
   29.6589   66.5244    1.7290 H   0  0  0  0  0
   30.7312   66.8123    0.3367 H   0  0  0  0  0
   30.4158   65.1489    0.8887 H   0  0  0  0  0
   31.2931   64.3462    2.8655 H   0  0  0  0  0
   31.4397   66.8062    5.1275 H   0  0  0  0  0
   34.0553   64.0250    5.2677 H   0  0  0  0  0
   32.0404   62.6063    4.0704 H   0  0  0  0  0
   31.4177   63.4047    5.6361 H   0  0  0  0  0
   32.2675   60.9572    5.8682 H   0  0  0  0  0
  1  2  1  0  0  0
  2  3  2  0  0  0
  2  4  1  0  0  0
  4  5  1  0  0  0
  5  6  1  0  0  0
  6  7  1  0  0  0
  7  8  2  0  0  0
  7  9  1  0  0  0
  9 10  1  0  0  0
 10 11  1  0  0  0
 11 12  1  0  0  0
 11 15  1  0  0  0
 11 16  1  0  0  0
 12 13  4  0  0  0
 12 14  4  0  0  0
 16 17  1  0  0  0
 16 20  1  0  0  0
 17 18  1  0  0  0
 17 19  2  0  0  0
 20 21  2  0  0  0
 21 22  1  0  0  0
 22 23  1  0  0  0
 23 24  2  0  0  0
  1 25  1  0  0  0
  4 26  1  0  0  0
  4 27  1  0  0  0
  5 28  1  0  0  0
  5 29  1  0  0  0
  6 30  1  0  0  0
  6 31  1  0  0  0
 10 32  1  0  0  0
 10 33  1  0  0  0
 15 34  1  0  0  0
 15 35  1  0  0  0
 15 36  1  0  0  0
 16 37  1  0  0  0
 18 38  1  0  0  0
 21 39  1  0  0  0
 22 40  1  0  0  0
 22 41  1  0  0  0
 23 42  1  0  0  0
M  END
$$$$
