6s9b_ligand
  -I-interpret- 

 51 54  0  0  0  0  0  0  0  0999 V2000
  -54.5450   25.0960    1.0980 C   0  0  0  0  0
  -53.7550   25.8070    0.1920 C   0  0  0  0  0
  -52.5750   25.2440   -0.3150 C   0  0  0  0  0
  -52.2120   23.9580    0.1010 C   0  0  0  0  0
  -52.9920   23.2320    1.0270 C   0  0  0  0  0
  -54.1770   23.8190    1.5040 C   0  0  0  0  0
  -52.6410   21.8400    1.4400 C   0  0  0  0  0
  -53.1120   21.3680    2.4600 O   0  0  0  0  0
  -51.8460   21.1010    0.6130 N   0  0  0  0  0
  -51.4590   19.7790    0.7620 C   0  0  0  0  0
  -50.9510   15.3290    1.5210 C   0  0  0  0  0
  -49.8210   15.5280    0.7270 C   0  0  0  0  0
  -49.5250   16.7890    0.2230 C   0  0  0  0  0
  -50.3640   17.8700    0.4990 C   0  0  0  0  0
  -49.5730   19.8230   -2.1960 C   0  0  0  0  0
  -50.5560   20.8950   -2.6700 C   0  0  0  0  0
  -50.3800   25.9820   -3.3200 C   0  0  0  0  0
  -51.4720   27.3500   -1.2030 C   0  0  0  0  0
  -55.6820   25.6450    1.5880 F   0  0  0  0  0
  -52.1330   18.8630    1.4090 N   0  0  0  0  0
  -51.5060   17.6690    1.3020 C   0  0  0  0  0
  -51.7890   16.3920    1.8100 C   0  0  0  0  0
  -50.3650   19.2170    0.1500 N   0  0  0  0  0
  -49.3480   19.9060   -0.6740 C   0  0  0  0  0
  -48.2460   20.0850   -2.9140 C   0  0  0  0  0
  -50.0550   18.5310   -2.5890 O   0  0  0  0  0
  -51.7210   25.9740   -1.3040 C   0  0  0  0  0
  -51.1620   25.2840   -2.4070 C   0  0  0  0  0
  -50.1780   27.3430   -3.1360 C   0  0  0  0  0
  -50.7210   27.9740   -2.1020 N   0  0  0  0  0
  -54.0575   26.8057   -0.1230 H   0  0  0  0  0
  -51.3048   23.5059   -0.2998 H   0  0  0  0  0
  -54.8121   23.2681    2.1977 H   0  0  0  0  0
  -51.4938   21.5802   -0.2157 H   0  0  0  0  0
  -51.1737   14.3368    1.9135 H   0  0  0  0  0
  -49.1650   14.6876    0.5001 H   0  0  0  0  0
  -48.6352   16.9343   -0.3895 H   0  0  0  0  0
  -51.5136   20.7553   -2.1685 H   0  0  0  0  0
  -50.1593   21.8815   -2.4301 H   0  0  0  0  0
  -50.6930   20.8094   -3.7480 H   0  0  0  0  0
  -49.9312   25.4672   -4.1695 H   0  0  0  0  0
  -51.9008   27.9148   -0.3752 H   0  0  0  0  0
  -52.6699   16.2369    2.4330 H   0  0  0  0  0
  -49.3918   20.9621   -0.4078 H   0  0  0  0  0
  -48.3956   19.4164   -0.4707 H   0  0  0  0  0
  -48.3983   20.0200   -3.9914 H   0  0  0  0  0
  -47.8853   21.0807   -2.6562 H   0  0  0  0  0
  -47.5132   19.3401   -2.6037 H   0  0  0  0  0
  -49.4391   17.8571   -2.2922 H   0  0  0  0  0
  -51.3429   24.2172   -2.5387 H   0  0  0  0  0
  -49.5675   27.8990   -3.8475 H   0  0  0  0  0
  2  1  4  0  0  0
  1  6  4  0  0  0
  1 19  1  0  0  0
  3  2  4  0  0  0
  3  4  4  0  0  0
 27  3  1  0  0  0
  4  5  4  0  0  0
  5  6  4  0  0  0
  5  7  1  0  0  0
  7  8  2  0  0  0
  7  9  1  0  0  0
  9 10  1  0  0  0
 10 20  4  0  0  0
 10 23  4  0  0  0
 12 11  4  0  0  0
 22 11  4  0  0  0
 13 12  4  0  0  0
 14 13  4  0  0  0
 14 21  4  0  0  0
 23 14  4  0  0  0
 15 16  1  0  0  0
 24 15  1  0  0  0
 15 25  1  0  0  0
 15 26  1  0  0  0
 28 17  4  0  0  0
 17 29  4  0  0  0
 27 18  4  0  0  0
 18 30  4  0  0  0
 20 21  4  0  0  0
 21 22  4  0  0  0
 23 24  1  0  0  0
 27 28  4  0  0  0
 29 30  4  0  0  0
  2 31  1  0  0  0
  4 32  1  0  0  0
  6 33  1  0  0  0
  9 34  1  0  0  0
 11 35  1  0  0  0
 12 36  1  0  0  0
 13 37  1  0  0  0
 16 38  1  0  0  0
 16 39  1  0  0  0
 16 40  1  0  0  0
 17 41  1  0  0  0
 18 42  1  0  0  0
 22 43  1  0  0  0
 24 44  1  0  0  0
 24 45  1  0  0  0
 25 46  1  0  0  0
 25 47  1  0  0  0
 25 48  1  0  0  0
 26 49  1  0  0  0
 28 50  1  0  0  0
 29 51  1  0  0  0
M  END
$$$$
