### 
### Created by X-TOOL on Mon Sep 10 21:13:09 2018
### 

@<TRIPOS>MOLECULE
4glr_ligand
  174   175     1     0     0
SMALL
GAST_HUCK


@<TRIPOS>ATOM
      1 N         -28.7300   98.8160  -24.9260 N.4       1 LYS         0.2379
      2 CA        -27.4430   98.2000  -25.2280 C.3       1 LYS         0.0650
      3 C         -27.0900   98.3700  -26.7000 C.2       1 LYS         0.2267
      4 O         -27.9670   98.2590  -27.5560 O.2       1 LYS        -0.3907
      5 CB        -27.4570   96.7080  -24.8630 C.3       1 LYS         0.0080
      6 CG        -26.0740   96.1500  -24.5540 C.3       1 LYS        -0.0410
      7 CD        -25.9950   94.6470  -24.8010 C.3       1 LYS        -0.0123
      8 CE        -24.5690   94.1650  -24.9220 C.3       1 LYS        -0.0354
      9 NZ        -23.8150   94.8900  -25.9900 N.4       1 LYS         0.2185
     10 N         -25.8050   98.6190  -26.9990 N.am      1 VAL        -0.2608
     11 CA        -25.3320   98.7880  -28.3780 C.3       1 VAL         0.1334
     12 C         -24.3300   97.6720  -28.7430 C.2       1 VAL         0.2041
     13 O         -23.3210   97.5050  -28.0430 O.2       1 VAL        -0.3944
     14 CB        -24.7340  100.2080  -28.6290 C.3       1 VAL        -0.0063
     15 CG1       -24.2680  100.3670  -30.0730 C.3       1 VAL        -0.0584
     16 CG2       -25.7360  101.3140  -28.2700 C.3       1 VAL        -0.0584
     17 N         -24.5930   96.9410  -29.8550 N.am      1 ALA        -0.2640
     18 CA        -23.7080   95.8740  -30.3560 C.3       1 ALA         0.1282
     19 C         -22.3120   96.4220  -30.6480 C.2       1 ALA         0.2036
     20 O         -22.1780   97.5150  -31.1950 O.2       1 ALA        -0.3944
     21 CB        -24.3000   95.2370  -31.6060 C.3       1 ALA        -0.0244
     22 N         -21.2690   95.6830  -30.2550 N.am      1 VAL        -0.2635
     23 CA        -19.8670   96.0940  -30.4550 C.3       1 VAL         0.1332
     24 C         -19.4630   96.0870  -31.9240 C.2       1 VAL         0.2042
     25 O         -18.3900   96.5890  -32.2700 O.2       1 VAL        -0.3944
     26 CB        -18.8700   95.2790  -29.5940 C.3       1 VAL        -0.0063
     27 CG1       -19.1640   95.4250  -28.1080 C.3       1 VAL        -0.0584
     28 CG2       -18.8330   93.8010  -30.0150 C.3       1 VAL        -0.0584
     29 N         -20.2850   95.4510  -32.7760 N.am      1 VAL        -0.2635
     30 CA        -20.0250   95.2900  -34.1970 C.3       1 VAL         0.1332
     31 C         -21.3360   95.1570  -34.9600 C.2       1 VAL         0.2041
     32 O         -22.3220   94.6030  -34.4450 O.2       1 VAL        -0.3944
     33 CB        -19.0430   94.0920  -34.4500 C.3       1 VAL        -0.0063
     34 CG1       -19.6510   92.7580  -34.0020 C.3       1 VAL        -0.0584
     35 CG2       -18.5680   94.0250  -35.9080 C.3       1 VAL        -0.0584
     36 N         -21.3450   95.7060  -36.1790 N.am      1 ARG        -0.2637
     37 CA        -22.4440   95.6620  -37.1410 C.3       1 ARG         0.1311
     38 C         -21.9080   96.0810  -38.4870 C.2       1 ARG         0.2040
     39 O         -20.7760   96.5610  -38.5600 O.2       1 ARG        -0.3944
     40 CB        -23.6740   96.5020  -36.7050 C.3       1 ARG        -0.0092
     41 CG        -23.4420   98.0110  -36.5840 C.3       1 ARG        -0.0156
     42 CD        -24.7070   98.7000  -36.1120 C.3       1 ARG         0.0627
     43 NE        -25.7880   98.5990  -37.0950 N.pl3     1 ARG        -0.2723
     44 CZ        -27.0770   98.7370  -36.8060 C.cat     1 ARG         0.2882
     45 NH1       -27.4630   98.9720  -35.5590 N.pl3     1 ARG        -0.2849
     46 NH2       -27.9900   98.6410  -37.7620 N.pl3     1 ARG        -0.2849
     47 N         -22.6710   95.8540  -39.5600 N.am      1 TPO        -0.2611
     48 CA        -22.2070   96.2440  -40.8870 C.3       1 TPO         0.1614
     49 CB        -23.2150   95.7930  -41.9300 C.3       1 TPO         0.1262
     50 CG2       -22.6420   96.0840  -43.3220 C.3       1 TPO        -0.0298
     51 OG1       -23.3530   94.3520  -41.8220 O.3       1 TPO        -0.2685
     52 P         -24.7840   93.8440  -41.4500 P.3       1 TPO         0.2014
     53 O1P       -25.1260   94.2400  -40.0460 O.co2     1 TPO        -0.5537
     54 O2P       -25.7580   94.4550  -42.4720 O.co2     1 TPO        -0.5537
     55 O3P       -24.6640   92.2710  -41.6940 O.co2     1 TPO        -0.5537
     56 C         -22.0820   97.7840  -40.9030 C.2       1 TPO         0.2093
     57 O         -22.9870   98.4590  -40.4020 O.2       1 TPO        -0.3941
     58 N         -20.9400   98.3460  -41.3720 N.am      1 PRO        -0.2497
     59 CA        -20.8050   99.8200  -41.4050 C.3       1 PRO         0.1340
     60 C         -21.8920  100.4470  -42.2860 C.2       1 PRO         0.2066
     61 O         -22.2260   99.8480  -43.3150 O.2       1 PRO        -0.3942
     62 CB        -19.4050  100.0430  -41.9970 C.3       1 PRO        -0.0104
     63 CG        -18.6940   98.7170  -41.8350 C.3       1 PRO        -0.0281
     64 CD        -19.7680   97.6840  -41.9750 C.3       1 PRO         0.0369
     65 N         -22.5150  101.5870  -41.8910 N.am      1 PRO        -0.2498
     66 CA        -23.5590  102.1790  -42.7490 C.3       1 PRO         0.1337
     67 C         -22.9500  102.7780  -44.0080 C.2       1 PRO         0.2035
     68 O         -21.9710  103.5290  -43.9160 O.2       1 PRO        -0.3944
     69 CB        -24.2160  103.2470  -41.8570 C.3       1 PRO        -0.0104
     70 CG        -23.5890  103.1020  -40.5020 C.3       1 PRO        -0.0281
     71 CD        -22.2650  102.4340  -40.7100 C.3       1 PRO         0.0369
     72 N         -23.4860  102.3810  -45.1820 N.am      1 LYS        -0.2695
     73 CA        -23.0310  102.8180  -46.5060 C.3       1 LYS         0.0944
     74 C         -24.1550  102.6590  -47.5270 C.2       1 LYS         0.0601
     75 O         -24.9148  101.6548  -47.4851 O.co2     1 LYS        -0.5666
     76 CB        -21.7950  102.0100  -46.9500 C.3       1 LYS        -0.0177
     77 CG        -20.8230  102.7880  -47.8310 C.3       1 LYS        -0.0446
     78 CD        -19.6860  103.4050  -47.0210 C.3       1 LYS        -0.0125
     79 CE        -18.7000  104.1410  -47.8930 C.3       1 LYS        -0.0354
     80 NZ        -17.5980  104.7370  -47.0930 N.4       1 LYS         0.2185
     81 O         -24.3235  103.5361  -48.4157 O.co2     1 LYS        -0.5666
     82 H1        -28.9413   98.6907  -23.9484 H         1 LYS         0.2015
     83 H2        -29.4492   98.3823  -25.4834 H         1 LYS         0.2015
     84 H3        -28.6891   99.8007  -25.1373 H         1 LYS         0.2015
     85 H4        -26.6708   98.6998  -24.6248 H         1 LYS         0.1098
     86 H5        -27.8793   96.1456  -25.7088 H         1 LYS         0.0346
     87 H6        -28.0944   96.5713  -23.9770 H         1 LYS         0.0346
     88 H7        -25.8387   96.3490  -23.4981 H         1 LYS         0.0270
     89 H8        -25.3363   96.6543  -25.1954 H         1 LYS         0.0270
     90 H9        -26.5289   94.4123  -25.7336 H         1 LYS         0.0317
     91 H10       -26.4761   94.1239  -23.9614 H         1 LYS         0.0317
     92 H11       -24.5773   93.0914  -25.1613 H         1 LYS         0.0813
     93 H12       -24.0593   94.3223  -23.9600 H         1 LYS         0.0813
     94 H13       -22.8720   94.5366  -26.0345 H         1 LYS         0.1994
     95 H14       -23.7949   95.8751  -25.7774 H         1 LYS         0.1994
     96 H15       -24.2696   94.7471  -26.8783 H         1 LYS         0.1994
     97 H16       -25.1438   98.6922  -26.2523 H         1 VAL         0.1885
     98 H17       -26.2033   98.6810  -29.0408 H         1 VAL         0.0802
     99 H18       -23.8567  100.3214  -27.9752 H         1 VAL         0.0343
    100 H19       -23.8533  101.3758  -30.2154 H         1 VAL         0.0234
    101 H20       -25.1214  100.2222  -30.7518 H         1 VAL         0.0234
    102 H21       -23.4933   99.6177  -30.2929 H         1 VAL         0.0234
    103 H22       -26.0635  101.1877  -27.2275 H         1 VAL         0.0234
    104 H23       -26.6074  101.2504  -28.9383 H         1 VAL         0.0234
    105 H24       -25.2552  102.2964  -28.3868 H         1 VAL         0.0234
    106 H25       -25.4324   97.1365  -30.3621 H         1 ALA         0.1883
    107 H26       -23.6218   95.1007  -29.5784 H         1 ALA         0.0797
    108 H27       -23.6284   94.4440  -31.9666 H         1 ALA         0.0277
    109 H28       -24.4165   96.0023  -32.3875 H         1 ALA         0.0277
    110 H29       -25.2827   94.8045  -31.3669 H         1 ALA         0.0277
    111 H30       -21.4486   94.8090  -29.8035 H         1 VAL         0.1883
    112 H31       -19.7978   97.1372  -30.1130 H         1 VAL         0.0802
    113 H32       -17.8677   95.6955  -29.7724 H         1 VAL         0.0343
    114 H33       -18.4377   94.8340  -27.5308 H         1 VAL         0.0234
    115 H34       -20.1811   95.0625  -27.8981 H         1 VAL         0.0234
    116 H35       -19.0856   96.4840  -27.8210 H         1 VAL         0.0234
    117 H36       -18.6188   93.7317  -31.0917 H         1 VAL         0.0234
    118 H37       -19.8069   93.3352  -29.8042 H         1 VAL         0.0234
    119 H38       -18.0468   93.2785  -29.4504 H         1 VAL         0.0234
    120 H39       -21.1304   95.0634  -32.4085 H         1 VAL         0.1883
    121 H40       -19.5268   96.2031  -34.5548 H         1 VAL         0.0802
    122 H41       -18.1530   94.2691  -33.8283 H         1 VAL         0.0343
    123 H42       -18.9350   91.9455  -34.1950 H         1 VAL         0.0234
    124 H43       -20.5782   92.5707  -34.5634 H         1 VAL         0.0234
    125 H44       -19.8760   92.8005  -32.9261 H         1 VAL         0.0234
    126 H45       -18.1380   94.9949  -36.1984 H         1 VAL         0.0234
    127 H46       -19.4216   93.7920  -36.5614 H         1 VAL         0.0234
    128 H47       -17.8039   93.2402  -36.0090 H         1 VAL         0.0234
    129 H48       -20.5189   96.1945  -36.4599 H         1 ARG         0.1883
    130 H49       -22.7803   94.6176  -37.2199 H         1 ARG         0.0800
    131 H50       -24.0047   96.1317  -35.7234 H         1 ARG         0.0313
    132 H51       -24.4717   96.3416  -37.4452 H         1 ARG         0.0313
    133 H52       -23.1538   98.4140  -37.5661 H         1 ARG         0.0301
    134 H53       -22.6352   98.1975  -35.8600 H         1 ARG         0.0301
    135 H54       -24.4870   99.7631  -35.9345 H         1 ARG         0.0689
    136 H55       -25.0367   98.2320  -35.1727 H         1 ARG         0.0689
    137 H56       -25.5319   98.4085  -38.0743 H         1 ARG         0.2642
    138 H57       -28.4641   99.0781  -35.3411 H         1 ARG         0.2615
    139 H58       -26.7617   99.0484  -34.8085 H         1 ARG         0.2615
    140 H59       -27.7010   98.4587  -38.7337 H         1 ARG         0.2615
    141 H60       -28.9885   98.7487  -37.5332 H         1 ARG         0.2615
    142 H61       -23.5632   95.4152  -39.4531 H         1 TPO         0.1884
    143 H62       -21.2294   95.7851  -41.0957 H         1 TPO         0.0830
    144 H63       -24.1816   96.2979  -41.7861 H         1 TPO         0.0695
    145 H64       -23.3616   95.7624  -44.0893 H         1 TPO         0.0260
    146 H65       -21.6977   95.5350  -43.4520 H         1 TPO         0.0260
    147 H66       -22.4556   97.1633  -43.4235 H         1 TPO         0.0260
    148 H67       -20.8704  100.2418  -40.3912 H         1 PRO         0.0802
    149 H68       -18.8750  100.8352  -41.4479 H         1 PRO         0.0313
    150 H69       -19.4741  100.3169  -43.0601 H         1 PRO         0.0313
    151 H70       -18.2200   98.6505  -40.8446 H         1 PRO         0.0287
    152 H71       -17.9303   98.5894  -42.6163 H         1 PRO         0.0287
    153 H72       -19.9500   97.4428  -43.0327 H         1 PRO         0.0524
    154 H73       -19.5075   96.7654  -41.4289 H         1 PRO         0.0524
    155 H74       -24.2982  101.4174  -43.0380 H         1 PRO         0.0802
    156 H75       -25.3011  103.0778  -41.7953 H         1 PRO         0.0313
    157 H76       -24.0240  104.2521  -42.2607 H         1 PRO         0.0313
    158 H77       -24.2273  102.4845  -39.8530 H         1 PRO         0.0287
    159 H78       -23.4465  104.0911  -40.0423 H         1 PRO         0.0287
    160 H79       -21.4748  103.1724  -40.9108 H         1 PRO         0.0524
    161 H80       -21.9854  101.8259  -39.8370 H         1 PRO         0.0524
    162 H81       -24.2523  101.7395  -45.1459 H         1 LYS         0.1875
    163 H82       -22.7537  103.8809  -46.4487 H         1 LYS         0.0726
    164 H83       -22.1416  101.1303  -47.5121 H         1 LYS         0.0305
    165 H84       -21.2563  101.6807  -46.0493 H         1 LYS         0.0305
    166 H85       -21.3725  103.5925  -48.3417 H         1 LYS         0.0269
    167 H86       -20.3957  102.1037  -48.5788 H         1 LYS         0.0269
    168 H87       -19.1562  102.6030  -46.4861 H         1 LYS         0.0317
    169 H88       -20.1120  104.1117  -46.2936 H         1 LYS         0.0317
    170 H89       -19.2273  104.9446  -48.4279 H         1 LYS         0.0813
    171 H90       -18.2716  103.4359  -48.6205 H         1 LYS         0.0813
    172 H91       -16.9602  105.2194  -47.7067 H         1 LYS         0.1994
    173 H92       -17.1053  104.0067  -46.6032 H         1 LYS         0.1994
    174 H93       -17.9811  105.3891  -46.4267 H         1 LYS         0.1994
@<TRIPOS>BOND
     1    1    2 1  
     2    2    3 1  
     3    2    5 1  
     4    3    4 2  
     5    3   10 am 
     6    5    6 1  
     7    6    7 1  
     8    7    8 1  
     9    8    9 1  
    10   10   11 1  
    11   11   12 1  
    12   11   14 1  
    13   12   13 2  
    14   12   17 am 
    15   14   15 1  
    16   14   16 1  
    17   17   18 1  
    18   18   19 1  
    19   18   21 1  
    20   19   20 2  
    21   19   22 am 
    22   22   23 1  
    23   23   24 1  
    24   23   26 1  
    25   24   25 2  
    26   24   29 am 
    27   26   27 1  
    28   26   28 1  
    29   29   30 1  
    30   30   31 1  
    31   30   33 1  
    32   31   32 2  
    33   31   36 am 
    34   33   34 1  
    35   33   35 1  
    36   36   37 1  
    37   37   38 1  
    38   37   40 1  
    39   38   39 2  
    40   38   47 am 
    41   40   41 1  
    42   41   42 1  
    43   42   43 1  
    44   43   44 ar 
    45   44   45 ar 
    46   44   46 ar 
    47   47   48 1  
    48   48   49 1  
    49   48   56 1  
    50   49   50 1  
    51   49   51 1  
    52   51   52 1  
    53   52   53 ar 
    54   52   54 ar 
    55   52   55 ar 
    56   56   57 2  
    57   56   58 am 
    58   58   59 1  
    59   58   64 1  
    60   59   60 1  
    61   59   62 1  
    62   60   61 2  
    63   60   65 am 
    64   62   63 1  
    65   63   64 1  
    66   65   66 1  
    67   65   71 1  
    68   66   67 1  
    69   66   69 1  
    70   67   68 2  
    71   67   72 am 
    72   69   70 1  
    73   70   71 1  
    74   72   73 1  
    75   73   74 1  
    76   73   76 1  
    77   74   75 ar 
    78   76   77 1  
    79   77   78 1  
    80   78   79 1  
    81   79   80 1  
    82   74   81 ar 
    83    1   82 1  
    84    1   83 1  
    85    1   84 1  
    86    2   85 1  
    87    5   86 1  
    88    5   87 1  
    89    6   88 1  
    90    6   89 1  
    91    7   90 1  
    92    7   91 1  
    93    8   92 1  
    94    8   93 1  
    95    9   94 1  
    96    9   95 1  
    97    9   96 1  
    98   10   97 1  
    99   11   98 1  
   100   14   99 1  
   101   15  100 1  
   102   15  101 1  
   103   15  102 1  
   104   16  103 1  
   105   16  104 1  
   106   16  105 1  
   107   17  106 1  
   108   18  107 1  
   109   21  108 1  
   110   21  109 1  
   111   21  110 1  
   112   22  111 1  
   113   23  112 1  
   114   26  113 1  
   115   27  114 1  
   116   27  115 1  
   117   27  116 1  
   118   28  117 1  
   119   28  118 1  
   120   28  119 1  
   121   29  120 1  
   122   30  121 1  
   123   33  122 1  
   124   34  123 1  
   125   34  124 1  
   126   34  125 1  
   127   35  126 1  
   128   35  127 1  
   129   35  128 1  
   130   36  129 1  
   131   37  130 1  
   132   40  131 1  
   133   40  132 1  
   134   41  133 1  
   135   41  134 1  
   136   42  135 1  
   137   42  136 1  
   138   43  137 1  
   139   45  138 1  
   140   45  139 1  
   141   46  140 1  
   142   46  141 1  
   143   47  142 1  
   144   48  143 1  
   145   49  144 1  
   146   50  145 1  
   147   50  146 1  
   148   50  147 1  
   149   59  148 1  
   150   62  149 1  
   151   62  150 1  
   152   63  151 1  
   153   63  152 1  
   154   64  153 1  
   155   64  154 1  
   156   66  155 1  
   157   69  156 1  
   158   69  157 1  
   159   70  158 1  
   160   70  159 1  
   161   71  160 1  
   162   71  161 1  
   163   72  162 1  
   164   73  163 1  
   165   76  164 1  
   166   76  165 1  
   167   77  166 1  
   168   77  167 1  
   169   78  168 1  
   170   78  169 1  
   171   79  170 1  
   172   79  171 1  
   173   80  172 1  
   174   80  173 1  
   175   80  174 1  
@<TRIPOS>SUBSTRUCTURE
     1 LYS         1

