4glr_ligand
  -I-interpret- 

176177  0  0  0  0  0  0  0  0999 V2000
  -28.7300   98.8160  -24.9260 N   0  3  0  0  0
  -27.4430   98.2000  -25.2280 C   0  0  0  0  0
  -27.0900   98.3700  -26.7000 C   0  0  0  0  0
  -27.9670   98.2590  -27.5560 O   0  0  0  0  0
  -27.4570   96.7080  -24.8630 C   0  0  0  0  0
  -26.0740   96.1500  -24.5540 C   0  0  0  0  0
  -25.9950   94.6470  -24.8010 C   0  0  0  0  0
  -24.5690   94.1650  -24.9220 C   0  0  0  0  0
  -23.8150   94.8900  -25.9900 N   0  3  0  0  0
  -25.8050   98.6190  -26.9990 N   0  0  0  0  0
  -25.3320   98.7880  -28.3780 C   0  0  0  0  0
  -24.3300   97.6720  -28.7430 C   0  0  0  0  0
  -23.3210   97.5050  -28.0430 O   0  0  0  0  0
  -24.7340  100.2080  -28.6290 C   0  0  0  0  0
  -24.2680  100.3670  -30.0730 C   0  0  0  0  0
  -25.7360  101.3140  -28.2700 C   0  0  0  0  0
  -24.5930   96.9410  -29.8550 N   0  0  0  0  0
  -23.7080   95.8740  -30.3560 C   0  0  0  0  0
  -22.3120   96.4220  -30.6480 C   0  0  0  0  0
  -22.1780   97.5150  -31.1950 O   0  0  0  0  0
  -24.3000   95.2370  -31.6060 C   0  0  0  0  0
  -21.2690   95.6830  -30.2550 N   0  0  0  0  0
  -19.8670   96.0940  -30.4550 C   0  0  0  0  0
  -19.4630   96.0870  -31.9240 C   0  0  0  0  0
  -18.3900   96.5890  -32.2700 O   0  0  0  0  0
  -18.8700   95.2790  -29.5940 C   0  0  0  0  0
  -19.1640   95.4250  -28.1080 C   0  0  0  0  0
  -18.8330   93.8010  -30.0150 C   0  0  0  0  0
  -20.2850   95.4510  -32.7760 N   0  0  0  0  0
  -20.0250   95.2900  -34.1970 C   0  0  0  0  0
  -21.3360   95.1570  -34.9600 C   0  0  0  0  0
  -22.3220   94.6030  -34.4450 O   0  0  0  0  0
  -19.0430   94.0920  -34.4500 C   0  0  0  0  0
  -19.6510   92.7580  -34.0020 C   0  0  0  0  0
  -18.5680   94.0250  -35.9080 C   0  0  0  0  0
  -21.3450   95.7060  -36.1790 N   0  0  0  0  0
  -22.4440   95.6620  -37.1410 C   0  0  0  0  0
  -21.9080   96.0810  -38.4870 C   0  0  0  0  0
  -20.7760   96.5610  -38.5600 O   0  0  0  0  0
  -23.6740   96.5020  -36.7050 C   0  0  0  0  0
  -23.4420   98.0110  -36.5840 C   0  0  0  0  0
  -24.7070   98.7000  -36.1120 C   0  0  0  0  0
  -25.7880   98.5990  -37.0950 N   0  0  0  0  0
  -27.0770   98.7370  -36.8060 C   0  0  0  0  0
  -27.4630   98.9720  -35.5590 N   0  0  0  0  0
  -27.9900   98.6410  -37.7620 N   0  0  0  0  0
  -22.6710   95.8540  -39.5600 N   0  0  0  0  0
  -22.2070   96.2440  -40.8870 C   0  0  0  0  0
  -23.2150   95.7930  -41.9300 C   0  0  0  0  0
  -22.6420   96.0840  -43.3220 C   0  0  0  0  0
  -23.3530   94.3520  -41.8220 O   0  0  0  0  0
  -24.7840   93.8440  -41.4500 P   0  0  0  0  0
  -25.1260   94.2400  -40.0460 O   0  0  0  0  0
  -25.7580   94.4550  -42.4720 O   0  0  0  0  0
  -24.6640   92.2710  -41.6940 O   0  0  0  0  0
  -22.0820   97.7840  -40.9030 C   0  0  0  0  0
  -22.9870   98.4590  -40.4020 O   0  0  0  0  0
  -20.9400   98.3460  -41.3720 N   0  0  0  0  0
  -20.8050   99.8200  -41.4050 C   0  0  0  0  0
  -21.8920  100.4470  -42.2860 C   0  0  0  0  0
  -22.2260   99.8480  -43.3150 O   0  0  0  0  0
  -19.4050  100.0430  -41.9970 C   0  0  0  0  0
  -18.6940   98.7170  -41.8350 C   0  0  0  0  0
  -19.7680   97.6840  -41.9750 C   0  0  0  0  0
  -22.5150  101.5870  -41.8910 N   0  0  0  0  0
  -23.5590  102.1790  -42.7490 C   0  0  0  0  0
  -22.9500  102.7780  -44.0080 C   0  0  0  0  0
  -21.9710  103.5290  -43.9160 O   0  0  0  0  0
  -24.2160  103.2470  -41.8570 C   0  0  0  0  0
  -23.5890  103.1020  -40.5020 C   0  0  0  0  0
  -22.2650  102.4340  -40.7100 C   0  0  0  0  0
  -23.4860  102.3810  -45.1820 N   0  0  0  0  0
  -23.0310  102.8180  -46.5060 C   0  0  0  0  0
  -24.1550  102.6590  -47.5270 C   0  0  0  0  0
  -24.9148  101.6548  -47.4851 O   0  0  0  0  0
  -21.7950  102.0100  -46.9500 C   0  0  0  0  0
  -20.8230  102.7880  -47.8310 C   0  0  0  0  0
  -19.6860  103.4050  -47.0210 C   0  0  0  0  0
  -18.7000  104.1410  -47.8930 C   0  0  0  0  0
  -17.5980  104.7370  -47.0930 N   0  3  0  0  0
  -24.3235  103.5361  -48.4157 O   0  0  0  0  0
  -28.6993   99.8046  -25.1754 H   0  0  0  0  0
  -29.4623   98.3513  -25.4628 H   0  0  0  0  0
  -28.9253   98.7214  -23.9294 H   0  0  0  0  0
  -26.6844   98.7028  -24.6282 H   0  0  0  0  0
  -27.8478   96.1625  -25.7220 H   0  0  0  0  0
  -28.0659   96.5941  -23.9662 H   0  0  0  0  0
  -25.8601   96.3337  -23.5011 H   0  0  0  0  0
  -25.3545   96.6410  -25.2092 H   0  0  0  0  0
  -26.5080   94.4291  -25.7377 H   0  0  0  0  0
  -26.4548   94.1387  -23.9535 H   0  0  0  0  0
  -24.5902   93.1066  -25.1816 H   0  0  0  0  0
  -24.0683   94.3469  -23.9711 H   0  0  0  0  0
  -22.8611   94.5316  -26.0341 H   0  0  0  0  0
  -24.2759   94.7447  -26.8883 H   0  0  0  0  0
  -23.7954   95.8866  -25.7738 H   0  0  0  0  0
  -25.1306   98.6937  -26.2374 H   0  0  0  0  0
  -26.1954   98.7011  -29.0376 H   0  0  0  0  0
  -23.8680  100.3086  -27.9747 H   0  0  0  0  0
  -23.5005   99.6240  -30.2896 H   0  0  0  0  0
  -25.1145  100.2233  -30.7445 H   0  0  0  0  0
  -23.8573  101.3669  -30.2129 H   0  0  0  0  0
  -26.6314  101.2038  -28.8817 H   0  0  0  0  0
  -26.0022  101.2332  -27.2161 H   0  0  0  0  0
  -25.2834  102.2876  -28.4582 H   0  0  0  0  0
  -25.4492   97.1404  -30.3723 H   0  0  0  0  0
  -23.6212   95.1103  -29.5832 H   0  0  0  0  0
  -25.2737   94.8089  -31.3678 H   0  0  0  0  0
  -24.4149   95.9963  -32.3796 H   0  0  0  0  0
  -23.6336   94.4514  -31.9623 H   0  0  0  0  0
  -21.4522   94.7915  -29.7944 H   0  0  0  0  0
  -19.8135   97.1257  -30.1074 H   0  0  0  0  0
  -17.8779   95.6933  -29.7732 H   0  0  0  0  0
  -19.0861   96.4747  -27.8249 H   0  0  0  0  0
  -20.1720   95.0655  -27.9013 H   0  0  0  0  0
  -18.4437   94.8390  -27.5371 H   0  0  0  0  0
  -19.8254   93.3659  -29.8968 H   0  0  0  0  0
  -18.5254   93.7293  -31.0582 H   0  0  0  0  0
  -18.1221   93.2635  -29.3875 H   0  0  0  0  0
  -21.1473   95.0556  -32.4012 H   0  0  0  0  0
  -19.5259   96.1814  -34.5770 H   0  0  0  0  0
  -18.1617   94.2782  -33.8362 H   0  0  0  0  0
  -19.8735   92.8014  -32.9358 H   0  0  0  0  0
  -20.5696   92.5736  -34.5590 H   0  0  0  0  0
  -18.9407   91.9538  -34.1938 H   0  0  0  0  0
  -19.4294   93.9001  -36.5641 H   0  0  0  0  0
  -18.0472   94.9482  -36.1619 H   0  0  0  0  0
  -17.8913   93.1793  -36.0298 H   0  0  0  0  0
  -20.5024   96.2043  -36.4655 H   0  0  0  0  0
  -22.8225   94.6414  -37.1973 H   0  0  0  0  0
  -23.9484   96.1521  -35.7098 H   0  0  0  0  0
  -24.4286   96.3679  -37.4801 H   0  0  0  0  0
  -23.1628   98.4081  -37.5600 H   0  0  0  0  0
  -22.6464   98.1925  -35.8613 H   0  0  0  0  0
  -24.4829   99.7558  -35.9599 H   0  0  0  0  0
  -25.0362   98.2148  -35.1931 H   0  0  0  0  0
  -25.5344   98.4104  -38.0648 H   0  0  0  0  0
  -28.4544   99.0770  -35.3432 H   0  0  0  0  0
  -26.7685   99.0477  -34.8158 H   0  0  0  0  0
  -27.7038   98.4605  -38.7242 H   0  0  0  0  0
  -23.5811   95.4065  -39.4510 H   0  0  0  0  0
  -21.2459   95.7826  -41.1139 H   0  0  0  0  0
  -24.1664   96.3039  -41.7817 H   0  0  0  0  0
  -22.4578   97.1537  -43.4213 H   0  0  0  0  0
  -21.7064   95.5395  -43.4495 H   0  0  0  0  0
  -23.3559   95.7649  -44.0814 H   0  0  0  0  0
  -25.5066   94.1791  -43.3565 H   0  0  0  0  0
  -24.4438   92.1069  -42.6139 H   0  0  0  0  0
  -20.9212  100.2817  -40.4245 H   0  0  0  0  0
  -18.8759  100.8492  -41.4890 H   0  0  0  0  0
  -19.4530  100.3501  -43.0417 H   0  0  0  0  0
  -18.1863   98.6450  -40.8732 H   0  0  0  0  0
  -17.9075   98.5862  -42.5782 H   0  0  0  0  0
  -19.9359   97.3846  -43.0095 H   0  0  0  0  0
  -19.5161   96.7419  -41.4881 H   0  0  0  0  0
  -24.2846  101.4475  -43.1046 H   0  0  0  0  0
  -25.2960  103.1083  -41.8077 H   0  0  0  0  0
  -24.0570  104.2476  -42.2591 H   0  0  0  0  0
  -24.2232  102.5103  -39.8418 H   0  0  0  0  0
  -23.4629  104.0745  -40.0262 H   0  0  0  0  0
  -21.4490  103.1414  -40.8576 H   0  0  0  0  0
  -21.9325  101.8664  -39.8409 H   0  0  0  0  0
  -24.2676  101.7267  -45.1452 H   0  0  0  0  0
  -22.7528  103.8701  -46.4448 H   0  0  0  0  0
  -22.1565  101.1660  -47.5374 H   0  0  0  0  0
  -21.2544  101.7268  -46.0468 H   0  0  0  0  0
  -21.3730  103.5946  -48.3158 H   0  0  0  0  0
  -20.3903  102.0968  -48.5543 H   0  0  0  0  0
  -19.1550  102.5996  -46.5136 H   0  0  0  0  0
  -20.1177  104.1191  -46.3197 H   0  0  0  0  0
  -19.2276  104.9459  -48.4047 H   0  0  0  0  0
  -18.2678  103.4310  -48.5982 H   0  0  0  0  0
  -16.9533  105.2248  -47.7149 H   0  0  0  0  0
  -17.9869  105.3966  -46.4192 H   0  0  0  0  0
  -17.1003  103.9971  -46.5979 H   0  0  0  0  0
  -23.6671  104.2285  -48.3089 H   0  0  0  0  0
  1  2  1  0  0  0
  2  3  1  0  0  0
  2  5  1  0  0  0
  3  4  2  0  0  0
  3 10  1  0  0  0
  5  6  1  0  0  0
  6  7  1  0  0  0
  7  8  1  0  0  0
  8  9  1  0  0  0
 10 11  1  0  0  0
 11 12  1  0  0  0
 11 14  1  0  0  0
 12 13  2  0  0  0
 12 17  1  0  0  0
 14 15  1  0  0  0
 14 16  1  0  0  0
 17 18  1  0  0  0
 18 19  1  0  0  0
 18 21  1  0  0  0
 19 20  2  0  0  0
 19 22  1  0  0  0
 22 23  1  0  0  0
 23 24  1  0  0  0
 23 26  1  0  0  0
 24 25  2  0  0  0
 24 29  1  0  0  0
 26 27  1  0  0  0
 26 28  1  0  0  0
 29 30  1  0  0  0
 30 31  1  0  0  0
 30 33  1  0  0  0
 31 32  2  0  0  0
 31 36  1  0  0  0
 33 34  1  0  0  0
 33 35  1  0  0  0
 36 37  1  0  0  0
 37 38  1  0  0  0
 37 40  1  0  0  0
 38 39  2  0  0  0
 38 47  1  0  0  0
 40 41  1  0  0  0
 41 42  1  0  0  0
 42 43  1  0  0  0
 43 44  1  0  0  0
 44 45  1  0  0  0
 44 46  2  0  0  0
 47 48  1  0  0  0
 48 49  1  0  0  0
 48 56  1  0  0  0
 49 50  1  0  0  0
 49 51  1  0  0  0
 51 52  1  0  0  0
 52 53  2  0  0  0
 52 54  1  0  0  0
 52 55  1  0  0  0
 56 57  2  0  0  0
 56 58  1  0  0  0
 58 59  1  0  0  0
 58 64  1  0  0  0
 59 60  1  0  0  0
 59 62  1  0  0  0
 60 61  2  0  0  0
 60 65  1  0  0  0
 62 63  1  0  0  0
 63 64  1  0  0  0
 65 66  1  0  0  0
 65 71  1  0  0  0
 66 67  1  0  0  0
 66 69  1  0  0  0
 67 68  2  0  0  0
 67 72  1  0  0  0
 69 70  1  0  0  0
 70 71  1  0  0  0
 72 73  1  0  0  0
 73 74  1  0  0  0
 73 76  1  0  0  0
 74 75  2  0  0  0
 76 77  1  0  0  0
 77 78  1  0  0  0
 78 79  1  0  0  0
 79 80  1  0  0  0
 74 81  1  0  0  0
  1 82  1  0  0  0
  1 83  1  0  0  0
  1 84  1  0  0  0
  2 85  1  0  0  0
  5 86  1  0  0  0
  5 87  1  0  0  0
  6 88  1  0  0  0
  6 89  1  0  0  0
  7 90  1  0  0  0
  7 91  1  0  0  0
  8 92  1  0  0  0
  8 93  1  0  0  0
  9 94  1  0  0  0
  9 95  1  0  0  0
  9 96  1  0  0  0
 10 97  1  0  0  0
 11 98  1  0  0  0
 14 99  1  0  0  0
 15100  1  0  0  0
 15101  1  0  0  0
 15102  1  0  0  0
 16103  1  0  0  0
 16104  1  0  0  0
 16105  1  0  0  0
 17106  1  0  0  0
 18107  1  0  0  0
 21108  1  0  0  0
 21109  1  0  0  0
 21110  1  0  0  0
 22111  1  0  0  0
 23112  1  0  0  0
 26113  1  0  0  0
 27114  1  0  0  0
 27115  1  0  0  0
 27116  1  0  0  0
 28117  1  0  0  0
 28118  1  0  0  0
 28119  1  0  0  0
 29120  1  0  0  0
 30121  1  0  0  0
 33122  1  0  0  0
 34123  1  0  0  0
 34124  1  0  0  0
 34125  1  0  0  0
 35126  1  0  0  0
 35127  1  0  0  0
 35128  1  0  0  0
 36129  1  0  0  0
 37130  1  0  0  0
 40131  1  0  0  0
 40132  1  0  0  0
 41133  1  0  0  0
 41134  1  0  0  0
 42135  1  0  0  0
 42136  1  0  0  0
 43137  1  0  0  0
 45138  1  0  0  0
 45139  1  0  0  0
 46140  1  0  0  0
 47141  1  0  0  0
 48142  1  0  0  0
 49143  1  0  0  0
 50144  1  0  0  0
 50145  1  0  0  0
 50146  1  0  0  0
 54147  1  0  0  0
 55148  1  0  0  0
 59149  1  0  0  0
 62150  1  0  0  0
 62151  1  0  0  0
 63152  1  0  0  0
 63153  1  0  0  0
 64154  1  0  0  0
 64155  1  0  0  0
 66156  1  0  0  0
 69157  1  0  0  0
 69158  1  0  0  0
 70159  1  0  0  0
 70160  1  0  0  0
 71161  1  0  0  0
 71162  1  0  0  0
 72163  1  0  0  0
 73164  1  0  0  0
 76165  1  0  0  0
 76166  1  0  0  0
 77167  1  0  0  0
 77168  1  0  0  0
 78169  1  0  0  0
 78170  1  0  0  0
 79171  1  0  0  0
 79172  1  0  0  0
 80173  1  0  0  0
 80174  1  0  0  0
 80175  1  0  0  0
 81176  1  0  0  0
M  END
$$$$
