5b56_ligand
  -I-interpret- 

196195  0  0  0  0  0  0  0  0999 V2000
    6.2970   -9.6560   45.6490 N   0  3  0  0  0
    7.5810   -9.1770   46.1420 C   0  0  0  0  0
    8.6440  -10.2600   46.0130 C   0  0  0  0  0
    8.3300  -11.4490   46.0270 O   0  0  0  0  0
    7.4630   -8.7320   47.5970 C   0  0  0  0  0
    6.5660   -7.5250   47.8060 C   0  0  0  0  0
    6.4670   -7.1240   49.2630 C   0  0  0  0  0
    5.9470   -7.8760   50.0900 O   0  0  0  0  0
    6.9750   -5.9390   49.5890 N   0  0  0  0  0
    9.9010   -9.8470   45.8920 N   0  0  0  0  0
   10.9880  -10.7950   45.6850 C   0  0  0  0  0
   12.3480  -10.1890   45.9970 C   0  0  0  0  0
   12.7910   -9.2670   45.3130 O   0  0  0  0  0
   10.9720  -11.3010   44.2380 C   0  0  0  0  0
   12.1250  -12.2270   43.8670 C   0  0  0  0  0
   12.1070  -13.5320   44.6380 C   0  0  0  0  0
   12.2260  -13.5530   45.8640 O   0  0  0  0  0
   11.9590  -14.6350   43.9150 N   0  0  0  0  0
   13.0110  -10.7170   47.0220 N   0  0  0  0  0
   14.3880  -10.3340   47.3090 C   0  0  0  0  0
   15.3220  -11.0960   46.3860 C   0  0  0  0  0
   15.1290  -12.2850   46.1410 O   0  0  0  0  0
   14.7430  -10.6020   48.7700 C   0  0  0  0  0
   14.0510   -9.6660   49.7460 C   0  0  0  0  0
   14.3710  -10.0220   51.1870 C   0  0  0  0  0
   13.5520   -9.2660   52.1340 N   0  0  0  0  0
   13.8580   -8.0590   52.6020 C   0  0  0  0  0
   13.0470   -7.4570   53.4610 N   0  0  0  0  0
   14.9700   -7.4480   52.2140 N   0  0  0  0  0
   16.3290  -10.4020   45.8710 N   0  0  0  0  0
   17.2510  -10.9820   44.9050 C   0  0  0  0  0
   18.6850  -10.8290   45.3840 C   0  0  0  0  0
   19.0250   -9.8500   46.0500 O   0  0  0  0  0
   17.0800  -10.3170   43.5350 C   0  0  0  0  0
   15.6550  -10.3460   42.9920 C   0  0  0  0  0
   15.5130   -9.4630   41.7640 C   0  0  0  0  0
   15.8140   -8.0630   42.0770 N   0  0  0  0  0
   16.7360   -7.3180   41.4690 C   0  0  0  0  0
   16.9130   -6.0630   41.8560 N   0  0  0  0  0
   17.4780   -7.8020   40.4780 N   0  0  0  0  0
   19.5200  -11.8080   45.0530 N   0  0  0  0  0
   20.9460  -11.7190   45.3310 C   0  0  0  0  0
   21.5700  -10.7680   44.3220 C   0  0  0  0  0
   20.9060  -10.3340   43.3800 O   0  0  0  0  0
   21.6370  -13.0930   45.2580 C   0  0  0  0  0
   21.4420  -13.6620   43.9580 O   0  0  0  0  0
   21.0710  -14.0300   46.3080 C   0  0  0  0  0
   22.8460  -10.4550   44.5160 N   0  0  0  0  0
   23.5140   -9.4350   43.7140 C   0  0  0  0  0
   23.5050   -9.7630   42.2210 C   0  0  0  0  0
   23.5050   -8.8600   41.3830 O   0  0  0  0  0
   24.9520   -9.2490   44.2010 C   0  0  0  0  0
   25.6930   -8.1210   43.5080 C   0  0  0  0  0
   26.9970   -7.7820   44.2150 C   0  0  0  0  0
   26.7740   -7.0410   45.4570 N   0  0  0  0  0
   26.6940   -7.5830   46.6710 C   0  0  0  0  0
   26.4920   -6.7990   47.7210 N   0  0  0  0  0
   26.8160   -8.8940   46.8490 N   0  0  0  0  0
   23.4870  -11.0520   41.8910 N   0  0  0  0  0
   23.4490  -11.4840   40.4960 C   0  0  0  0  0
   22.0660  -11.2960   39.8640 C   0  0  0  0  0
   21.8910  -11.5050   38.6640 O   0  0  0  0  0
   23.8850  -12.9500   40.3800 C   0  0  0  0  0
   23.0850  -13.8780   41.2810 C   0  0  0  0  0
   21.9460  -13.5850   41.6440 O   0  0  0  0  0
   23.6850  -15.0070   41.6470 N   0  0  0  0  0
   21.0880  -10.9100   40.6800 N   0  0  0  0  0
   19.7560  -10.5950   40.1920 C   0  0  0  0  0
   18.8670  -11.8050   39.9770 C   0  0  0  0  0
   17.9460  -11.7630   39.1600 O   0  0  0  0  0
   19.1270  -12.8770   40.7190 N   0  0  0  0  0
   18.3520  -14.1040   40.5820 C   0  0  0  0  0
   17.1740  -14.0990   41.5520 C   0  0  0  0  0
   16.1140  -13.5490   41.2490 O   0  0  0  0  0
   19.2400  -15.3230   40.8090 C   0  0  0  0  0
   17.3650  -14.7070   42.7180 N   0  0  0  0  0
   16.3260  -14.7820   43.7380 C   0  0  0  0  0
   16.8940  -15.4410   44.9840 C   0  0  0  0  0
   17.7310  -16.3410   44.8900 O   0  0  0  0  0
   15.1120  -15.5620   43.2330 C   0  0  0  0  0
   14.3820  -14.8110   42.2790 O   0  0  0  0  0
   16.4400  -14.9920   46.1480 N   0  0  0  0  0
   16.9770  -15.4840   47.4110 C   0  0  0  0  0
   16.6270  -16.9590   47.6230 C   0  0  0  0  0
   15.4760  -17.3010   47.9030 O   0  0  0  0  0
   16.4570  -14.6370   48.5760 C   0  0  0  0  0
   17.1190  -14.9370   49.9160 C   0  0  0  0  0
   18.6320  -14.7750   49.8420 C   0  0  0  0  0
   19.2590  -14.6770   51.2250 C   0  0  0  0  0
   20.7170  -14.3700   51.1560 N   0  3  0  0  0
   17.6290  -17.8240   47.4850 N   0  0  0  0  0
   17.4430  -19.2630   47.6630 C   0  0  0  0  0
   17.3710  -19.6200   49.1440 C   0  0  0  0  0
   17.3800  -18.7440   50.0090 O   0  0  0  0  0
   18.5790  -20.0420   46.9900 C   0  0  0  0  0
   18.6260  -19.7840   45.5960 O   0  0  0  0  0
   17.3000  -20.7930   49.5100 O   0  0  0  0  0
    6.3951   -9.9486   44.6768 H   0  0  0  0  0
    5.9910  -10.4479   46.2144 H   0  0  0  0  0
    5.6087   -8.9058   45.7118 H   0  0  0  0  0
    7.8793   -8.3215   45.5359 H   0  0  0  0  0
    8.4623   -8.4524   47.9305 H   0  0  0  0  0
    7.0233   -9.5603   48.1527 H   0  0  0  0  0
    5.5657   -7.7843   47.4591 H   0  0  0  0  0
    6.9935   -6.6878   47.2543 H   0  0  0  0  0
    6.9437   -5.6196   50.5572 H   0  0  0  0  0
    7.3960   -5.3495   48.8709 H   0  0  0  0  0
   10.1085   -8.8497   45.9449 H   0  0  0  0  0
   10.8292  -11.6248   46.3738 H   0  0  0  0  0
   11.0540  -10.4235   43.5967 H   0  0  0  0  0
   10.0543  -11.8763   44.1157 H   0  0  0  0  0
   13.0553  -11.7120   44.1069 H   0  0  0  0  0
   12.0320  -12.4656   42.8075 H   0  0  0  0  0
   11.9404  -15.5463   44.3729 H   0  0  0  0  0
   11.8638  -14.5715   42.9014 H   0  0  0  0  0
   12.5474  -11.4026   47.6183 H   0  0  0  0  0
   14.4984   -9.2635   47.1361 H   0  0  0  0  0
   15.8170  -10.4509   48.8782 H   0  0  0  0  0
   14.4189  -11.6160   49.0042 H   0  0  0  0  0
   12.9742   -9.7534   49.6013 H   0  0  0  0  0
   14.4016   -8.6514   49.5566 H   0  0  0  0  0
   15.4174   -9.7802   51.3731 H   0  0  0  0  0
   14.1647  -11.0828   51.3295 H   0  0  0  0  0
   12.6851   -9.6945   52.4585 H   0  0  0  0  0
   12.1893   -7.9194   53.7625 H   0  0  0  0  0
   15.1959   -6.5217   52.5763 H   0  0  0  0  0
   15.5989   -7.9046   51.5535 H   0  0  0  0  0
   16.4611   -9.4330   46.1607 H   0  0  0  0  0
   17.0247  -12.0439   44.8086 H   0  0  0  0  0
   17.7011  -10.8713   42.8314 H   0  0  0  0  0
   17.3557   -9.2690   43.6522 H   0  0  0  0  0
   14.9819   -9.9754   43.7651 H   0  0  0  0  0
   15.4116  -11.3709   42.7119 H   0  0  0  0  0
   14.4845   -9.5257   41.4086 H   0  0  0  0  0
   16.2158   -9.8078   41.0055 H   0  0  0  0  0
   15.2731   -7.6230   42.8215 H   0  0  0  0  0
   16.3465   -5.6776   42.6116 H   0  0  0  0  0
   18.1735   -7.2091   40.0251 H   0  0  0  0  0
   17.3518   -8.7663   40.1704 H   0  0  0  0  0
   19.1532  -12.6414   44.5933 H   0  0  0  0  0
   21.0818  -11.3493   46.3474 H   0  0  0  0  0
   22.7022  -12.9567   45.4447 H   0  0  0  0  0
   21.8742  -14.5182   43.9166 H   0  0  0  0  0
   21.2329  -13.6042   47.2983 H   0  0  0  0  0
   20.0024  -14.1613   46.1378 H   0  0  0  0  0
   21.5724  -14.9954   46.2398 H   0  0  0  0  0
   23.3720  -10.9394   45.2434 H   0  0  0  0  0
   22.9559   -8.5075   43.8414 H   0  0  0  0  0
   25.4900  -10.1720   43.9848 H   0  0  0  0  0
   24.9064   -9.0039   45.2621 H   0  0  0  0  0
   25.0571   -7.2358   43.5197 H   0  0  0  0  0
   25.9271   -8.4387   42.4919 H   0  0  0  0  0
   27.5922   -7.1574   43.5489 H   0  0  0  0  0
   27.5020   -8.7157   44.4624 H   0  0  0  0  0
   26.6717   -6.0285   45.3875 H   0  0  0  0  0
   26.3995   -5.7911   47.5946 H   0  0  0  0  0
   26.7541   -9.2892   47.7873 H   0  0  0  0  0
   26.9716   -9.5052   46.0474 H   0  0  0  0  0
   23.5000  -11.7552   42.6297 H   0  0  0  0  0
   24.1463  -10.8515   39.9466 H   0  0  0  0  0
   24.9303  -13.0115   40.6826 H   0  0  0  0  0
   23.7228  -13.2651   39.3492 H   0  0  0  0  0
   23.1997  -15.6696   42.2519 H   0  0  0  0  0
   24.6305  -15.2103   41.3229 H   0  0  0  0  0
   21.2794  -10.8329   41.6789 H   0  0  0  0  0
   19.8760  -10.1093   39.2236 H   0  0  0  0  0
   19.2757   -9.9749   40.9489 H   0  0  0  0  0
   19.8859  -12.8401   41.3995 H   0  0  0  0  0
   17.9571  -14.1568   39.5674 H   0  0  0  0  0
   20.0444  -15.3269   40.0735 H   0  0  0  0  0
   19.6636  -15.2805   41.8124 H   0  0  0  0  0
   18.6444  -16.2297   40.7027 H   0  0  0  0  0
   18.2708  -15.1365   42.9061 H   0  0  0  0  0
   15.9949  -13.7711   43.9759 H   0  0  0  0  0
   14.4599  -15.7775   44.0794 H   0  0  0  0  0
   15.4602  -16.4805   42.7605 H   0  0  0  0  0
   13.6273  -15.3233   41.9797 H   0  0  0  0  0
   15.7010  -14.2890   46.1589 H   0  0  0  0  0
   18.0630  -15.3993   47.3728 H   0  0  0  0  0
   15.3959  -14.8606   48.6859 H   0  0  0  0  0
   16.6747  -13.5960   48.3372 H   0  0  0  0  0
   16.8957  -15.9688   50.1873 H   0  0  0  0  0
   16.7331  -14.2356   50.6557 H   0  0  0  0  0
   18.8517  -13.8548   49.3006 H   0  0  0  0  0
   19.0457  -15.6495   49.3398 H   0  0  0  0  0
   19.1360  -15.6381   51.7243 H   0  0  0  0  0
   18.7657  -13.8701   51.7668 H   0  0  0  0  0
   21.0964  -14.3133   52.1011 H   0  0  0  0  0
   21.1948  -15.1090   50.6403 H   0  0  0  0  0
   20.8533  -13.4785   50.6796 H   0  0  0  0  0
   18.5563  -17.4717   47.2475 H   0  0  0  0  0
   16.5002  -19.5411   47.1918 H   0  0  0  0  0
   17.4380  -17.8824   49.5897 H   0  0  0  0  0
   18.4052  -21.1076   47.1399 H   0  0  0  0  0
   19.5244  -19.7286   47.4328 H   0  0  0  0  0
   19.3451  -20.2842   45.2032 H   0  0  0  0  0
  1  2  1  0  0  0
  2  3  1  0  0  0
  2  5  1  0  0  0
  3  4  2  0  0  0
  3 10  1  0  0  0
  5  6  1  0  0  0
  6  7  1  0  0  0
  7  8  2  0  0  0
  7  9  1  0  0  0
 10 11  1  0  0  0
 11 12  1  0  0  0
 11 14  1  0  0  0
 12 13  2  0  0  0
 12 19  1  0  0  0
 14 15  1  0  0  0
 15 16  1  0  0  0
 16 17  2  0  0  0
 16 18  1  0  0  0
 19 20  1  0  0  0
 20 21  1  0  0  0
 20 23  1  0  0  0
 21 22  2  0  0  0
 21 30  1  0  0  0
 23 24  1  0  0  0
 24 25  1  0  0  0
 25 26  1  0  0  0
 26 27  1  0  0  0
 27 28  2  0  0  0
 27 29  1  0  0  0
 30 31  1  0  0  0
 31 32  1  0  0  0
 31 34  1  0  0  0
 32 33  2  0  0  0
 32 41  1  0  0  0
 34 35  1  0  0  0
 35 36  1  0  0  0
 36 37  1  0  0  0
 37 38  1  0  0  0
 38 39  2  0  0  0
 38 40  1  0  0  0
 41 42  1  0  0  0
 42 43  1  0  0  0
 42 45  1  0  0  0
 43 44  2  0  0  0
 43 48  1  0  0  0
 45 46  1  0  0  0
 45 47  1  0  0  0
 48 49  1  0  0  0
 49 50  1  0  0  0
 49 52  1  0  0  0
 50 51  2  0  0  0
 50 59  1  0  0  0
 52 53  1  0  0  0
 53 54  1  0  0  0
 54 55  1  0  0  0
 55 56  1  0  0  0
 56 57  2  0  0  0
 56 58  1  0  0  0
 59 60  1  0  0  0
 60 61  1  0  0  0
 60 63  1  0  0  0
 61 62  2  0  0  0
 61 67  1  0  0  0
 63 64  1  0  0  0
 64 65  2  0  0  0
 64 66  1  0  0  0
 67 68  1  0  0  0
 68 69  1  0  0  0
 69 70  2  0  0  0
 69 71  1  0  0  0
 71 72  1  0  0  0
 72 73  1  0  0  0
 72 75  1  0  0  0
 73 74  2  0  0  0
 73 76  1  0  0  0
 76 77  1  0  0  0
 77 78  1  0  0  0
 77 80  1  0  0  0
 78 79  2  0  0  0
 78 82  1  0  0  0
 80 81  1  0  0  0
 82 83  1  0  0  0
 83 84  1  0  0  0
 83 86  1  0  0  0
 84 85  2  0  0  0
 84 91  1  0  0  0
 86 87  1  0  0  0
 87 88  1  0  0  0
 88 89  1  0  0  0
 89 90  1  0  0  0
 91 92  1  0  0  0
 92 93  1  0  0  0
 92 95  1  0  0  0
 93 94  1  0  0  0
 93 97  2  0  0  0
 95 96  1  0  0  0
  1 98  1  0  0  0
  1 99  1  0  0  0
  1100  1  0  0  0
  2101  1  0  0  0
  5102  1  0  0  0
  5103  1  0  0  0
  6104  1  0  0  0
  6105  1  0  0  0
  9106  1  0  0  0
  9107  1  0  0  0
 10108  1  0  0  0
 11109  1  0  0  0
 14110  1  0  0  0
 14111  1  0  0  0
 15112  1  0  0  0
 15113  1  0  0  0
 18114  1  0  0  0
 18115  1  0  0  0
 19116  1  0  0  0
 20117  1  0  0  0
 23118  1  0  0  0
 23119  1  0  0  0
 24120  1  0  0  0
 24121  1  0  0  0
 25122  1  0  0  0
 25123  1  0  0  0
 26124  1  0  0  0
 28125  1  0  0  0
 29126  1  0  0  0
 29127  1  0  0  0
 30128  1  0  0  0
 31129  1  0  0  0
 34130  1  0  0  0
 34131  1  0  0  0
 35132  1  0  0  0
 35133  1  0  0  0
 36134  1  0  0  0
 36135  1  0  0  0
 37136  1  0  0  0
 39137  1  0  0  0
 40138  1  0  0  0
 40139  1  0  0  0
 41140  1  0  0  0
 42141  1  0  0  0
 45142  1  0  0  0
 46143  1  0  0  0
 47144  1  0  0  0
 47145  1  0  0  0
 47146  1  0  0  0
 48147  1  0  0  0
 49148  1  0  0  0
 52149  1  0  0  0
 52150  1  0  0  0
 53151  1  0  0  0
 53152  1  0  0  0
 54153  1  0  0  0
 54154  1  0  0  0
 55155  1  0  0  0
 57156  1  0  0  0
 58157  1  0  0  0
 58158  1  0  0  0
 59159  1  0  0  0
 60160  1  0  0  0
 63161  1  0  0  0
 63162  1  0  0  0
 66163  1  0  0  0
 66164  1  0  0  0
 67165  1  0  0  0
 68166  1  0  0  0
 68167  1  0  0  0
 71168  1  0  0  0
 72169  1  0  0  0
 75170  1  0  0  0
 75171  1  0  0  0
 75172  1  0  0  0
 76173  1  0  0  0
 77174  1  0  0  0
 80175  1  0  0  0
 80176  1  0  0  0
 81177  1  0  0  0
 82178  1  0  0  0
 83179  1  0  0  0
 86180  1  0  0  0
 86181  1  0  0  0
 87182  1  0  0  0
 87183  1  0  0  0
 88184  1  0  0  0
 88185  1  0  0  0
 89186  1  0  0  0
 89187  1  0  0  0
 90188  1  0  0  0
 90189  1  0  0  0
 90190  1  0  0  0
 91191  1  0  0  0
 92192  1  0  0  0
 94193  1  0  0  0
 95194  1  0  0  0
 95195  1  0  0  0
 96196  1  0  0  0
M  END
$$$$
