### 
### Created by X-TOOL on Mon Sep 10 21:13:28 2018
### 

@<TRIPOS>MOLECULE
5b56_ligand
  198   197     1     0     0
SMALL
GAST_HUCK


@<TRIPOS>ATOM
      1 N           6.2970   -9.6560   45.6490 N.4       1 GLN         0.2380
      2 CA          7.5810   -9.1770   46.1420 C.3       1 GLN         0.0671
      3 C           8.6440  -10.2600   46.0130 C.2       1 GLN         0.2269
      4 O           8.3300  -11.4490   46.0270 O.2       1 GLN        -0.3907
      5 CB          7.4630   -8.7320   47.5970 C.3       1 GLN         0.0247
      6 CG          6.5660   -7.5250   47.8060 C.3       1 GLN         0.0443
      7 CD          6.4670   -7.1240   49.2630 C.2       1 GLN         0.1738
      8 OE1         5.9470   -7.8760   50.0900 O.2       1 GLN        -0.3973
      9 NE2         6.9750   -5.9390   49.5890 N.am      1 GLN        -0.3009
     10 N           9.9010   -9.8470   45.8920 N.am      1 GLN        -0.2609
     11 CA         10.9880  -10.7950   45.6850 C.3       1 GLN         0.1331
     12 C          12.3480  -10.1890   45.9970 C.2       1 GLN         0.2040
     13 O          12.7910   -9.2670   45.3130 O.2       1 GLN        -0.3944
     14 CB         10.9720  -11.3010   44.2380 C.3       1 GLN         0.0045
     15 CG         12.1250  -12.2270   43.8670 C.3       1 GLN         0.0412
     16 CD         12.1070  -13.5320   44.6380 C.2       1 GLN         0.1737
     17 OE1        12.2260  -13.5530   45.8640 O.2       1 GLN        -0.3973
     18 NE2        11.9590  -14.6350   43.9150 N.am      1 GLN        -0.3009
     19 N          13.0110  -10.7170   47.0220 N.am      1 ARG        -0.2637
     20 CA         14.3880  -10.3340   47.3090 C.3       1 ARG         0.1311
     21 C          15.3220  -11.0960   46.3860 C.2       1 ARG         0.2039
     22 O          15.1290  -12.2850   46.1410 O.2       1 ARG        -0.3944
     23 CB         14.7430  -10.6020   48.7700 C.3       1 ARG        -0.0092
     24 CG         14.0510   -9.6660   49.7460 C.3       1 ARG        -0.0156
     25 CD         14.3710  -10.0220   51.1870 C.3       1 ARG         0.0627
     26 NE         13.5520   -9.2660   52.1340 N.pl3     1 ARG        -0.2723
     27 CZ         13.8580   -8.0590   52.6020 C.cat     1 ARG         0.2882
     28 NH1        13.0470   -7.4570   53.4610 N.pl3     1 ARG        -0.2849
     29 NH2        14.9700   -7.4480   52.2140 N.pl3     1 ARG        -0.2849
     30 N          16.3290  -10.4020   45.8710 N.am      1 ARG        -0.2637
     31 CA         17.2510  -10.9820   44.9050 C.3       1 ARG         0.1311
     32 C          18.6850  -10.8290   45.3840 C.2       1 ARG         0.2040
     33 O          19.0250   -9.8500   46.0500 O.2       1 ARG        -0.3944
     34 CB         17.0800  -10.3170   43.5350 C.3       1 ARG        -0.0092
     35 CG         15.6550  -10.3460   42.9920 C.3       1 ARG        -0.0156
     36 CD         15.5130   -9.4630   41.7640 C.3       1 ARG         0.0627
     37 NE         15.8140   -8.0630   42.0770 N.pl3     1 ARG        -0.2723
     38 CZ         16.7360   -7.3180   41.4690 C.cat     1 ARG         0.2882
     39 NH1        16.9130   -6.0630   41.8560 N.pl3     1 ARG        -0.2849
     40 NH2        17.4780   -7.8020   40.4780 N.pl3     1 ARG        -0.2849
     41 N          19.5200  -11.8080   45.0530 N.am      1 THR        -0.2613
     42 CA         20.9460  -11.7190   45.3310 C.3       1 THR         0.1565
     43 C          21.5700  -10.7680   44.3220 C.2       1 THR         0.2065
     44 O          20.9060  -10.3340   43.3800 O.2       1 THR        -0.3943
     45 CB         21.6370  -13.0930   45.2580 C.3       1 THR         0.0924
     46 OG1        21.4420  -13.6620   43.9580 O.3       1 THR        -0.3874
     47 CG2        21.0710  -14.0300   46.3080 C.3       1 THR        -0.0346
     48 N          22.8460  -10.4550   44.5160 N.am      1 ARG        -0.2636
     49 CA         23.5140   -9.4350   43.7140 C.3       1 ARG         0.1311
     50 C          23.5050   -9.7630   42.2210 C.2       1 ARG         0.2040
     51 O          23.5050   -8.8600   41.3830 O.2       1 ARG        -0.3944
     52 CB         24.9520   -9.2490   44.2010 C.3       1 ARG        -0.0092
     53 CG         25.6930   -8.1210   43.5080 C.3       1 ARG        -0.0156
     54 CD         26.9970   -7.7820   44.2150 C.3       1 ARG         0.0627
     55 NE         26.7740   -7.0410   45.4570 N.pl3     1 ARG        -0.2723
     56 CZ         26.6940   -7.5830   46.6710 C.cat     1 ARG         0.2882
     57 NH1        26.4920   -6.7990   47.7210 N.pl3     1 ARG        -0.2849
     58 NH2        26.8160   -8.8940   46.8490 N.pl3     1 ARG        -0.2849
     59 N          23.4870  -11.0520   41.8910 N.am      1 ASN        -0.2616
     60 CA         23.4490  -11.4840   40.4960 C.3       1 ASN         0.1476
     61 C          22.0660  -11.2960   39.8640 C.2       1 ASN         0.2061
     62 O          21.8910  -11.5050   38.6640 O.2       1 ASN        -0.3942
     63 CB         23.8850  -12.9500   40.3800 C.3       1 ASN         0.0773
     64 CG         23.0850  -13.8780   41.2810 C.2       1 ASN         0.1780
     65 OD1        21.9460  -13.5850   41.6440 O.2       1 ASN        -0.3970
     66 ND2        23.6850  -15.0070   41.6470 N.am      1 ASN        -0.3007
     67 N          21.0880  -10.9100   40.6800 N.am      1 GLY        -0.2663
     68 CA         19.7560  -10.5950   40.1920 C.3       1 GLY         0.1201
     69 C          18.8670  -11.8050   39.9770 C.2       1 GLY         0.2007
     70 O          17.9460  -11.7630   39.1600 O.2       1 GLY        -0.3947
     71 N          19.1270  -12.8770   40.7190 N.am      1 ALA        -0.2642
     72 CA         18.3520  -14.1040   40.5820 C.3       1 ALA         0.1282
     73 C          17.1740  -14.0990   41.5520 C.2       1 ALA         0.2037
     74 O          16.1140  -13.5490   41.2490 O.2       1 ALA        -0.3944
     75 CB         19.2400  -15.3230   40.8090 C.3       1 ALA        -0.0244
     76 N          17.3650  -14.7070   42.7180 N.am      1 SER        -0.2616
     77 CA         16.3260  -14.7820   43.7380 C.3       1 SER         0.1539
     78 C          16.8940  -15.4410   44.9840 C.2       1 SER         0.2062
     79 O          17.7310  -16.3410   44.8900 O.2       1 SER        -0.3943
     80 CB         15.1120  -15.5620   43.2330 C.3       1 SER         0.0843
     81 OG         14.3820  -14.8110   42.2790 O.3       1 SER        -0.3903
     82 N          16.4400  -14.9920   46.1480 N.am      1 LYS        -0.2637
     83 CA         16.9770  -15.4840   47.4110 C.3       1 LYS         0.1309
     84 C          16.6270  -16.9590   47.6230 C.2       1 LYS         0.2034
     85 O          15.4760  -17.3010   47.9030 O.2       1 LYS        -0.3944
     86 CB         16.4570  -14.6370   48.5760 C.3       1 LYS        -0.0122
     87 CG         17.1190  -14.9370   49.9160 C.3       1 LYS        -0.0440
     88 CD         18.6320  -14.7750   49.8420 C.3       1 LYS        -0.0124
     89 CE         19.2590  -14.6770   51.2250 C.3       1 LYS        -0.0354
     90 NZ         20.7170  -14.3700   51.1560 N.4       1 LYS         0.2185
     91 N          17.6290  -17.8240   47.4850 N.am      1 SER        -0.2672
     92 CA         17.4430  -19.2630   47.6630 C.3       1 SER         0.1173
     93 C          17.3710  -19.6200   49.1440 C.2       1 SER         0.0623
     94 O          17.3800  -18.7440   50.0090 O.co2     1 SER        -0.5665
     95 CB         18.5790  -20.0420   46.9900 C.3       1 SER         0.0789
     96 OG         18.6260  -19.7840   45.5960 O.3       1 SER        -0.3910
     97 OXT        17.3000  -20.7930   49.5100 O.co2     1 SER        -0.5665
     98 H1          5.6078   -8.9264   45.7426 H         1 GLN         0.2015
     99 H2          6.0100  -10.4600   46.1849 H         1 GLN         0.2015
    100 H3          6.3845   -9.9130   44.6783 H         1 GLN         0.2015
    101 H4          7.8867   -8.3123   45.5347 H         1 GLN         0.1100
    102 H5          8.4693   -8.4821   47.9644 H         1 GLN         0.0370
    103 H6          7.0565   -9.5698   48.1825 H         1 GLN         0.0370
    104 H7          5.5582   -7.7658   47.4368 H         1 GLN         0.0506
    105 H8          6.9737   -6.6787   47.2338 H         1 GLN         0.0506
    106 H9          6.9375   -5.6226   50.5369 H         1 GLN         0.1814
    107 H10         7.3945   -5.3644   48.8863 H         1 GLN         0.1814
    108 H11        10.1045   -8.8693   45.9439 H         1 GLN         0.1885
    109 H12        10.8297  -11.6499   46.3588 H         1 GLN         0.0801
    110 H13        11.0075  -10.4274   43.5705 H         1 GLN         0.0337
    111 H14        10.0306  -11.8470   44.0777 H         1 GLN         0.0337
    112 H15        13.0724  -11.7089   44.0767 H         1 GLN         0.0504
    113 H16        12.0610  -12.4536   42.7925 H         1 GLN         0.0504
    114 H17        11.9391  -15.5283   44.3641 H         1 GLN         0.1814
    115 H18        11.8674  -14.5728   42.9211 H         1 GLN         0.1814
    116 H19        12.5565  -11.3891   47.6066 H         1 ARG         0.1883
    117 H20        14.5008   -9.2569   47.1165 H         1 ARG         0.0800
    118 H21        15.8304  -10.4876   48.8902 H         1 ARG         0.0313
    119 H22        14.4537  -11.6348   49.0143 H         1 ARG         0.0313
    120 H23        12.9635   -9.7337   49.5950 H         1 ARG         0.0301
    121 H24        14.3850   -8.6363   49.5505 H         1 ARG         0.0301
    122 H25        15.4313   -9.8017   51.3800 H         1 ARG         0.0689
    123 H26        14.1865  -11.0960   51.3367 H         1 ARG         0.0689
    124 H27        12.6766   -9.6987   52.4616 H         1 ARG         0.2642
    125 H28        13.2831   -6.5224   53.8239 H         1 ARG         0.2615
    126 H29        12.1808   -7.9239   53.7654 H         1 ARG         0.2615
    127 H30        15.6051   -7.9091   51.5470 H         1 ARG         0.2615
    128 H31        15.1981   -6.5126   52.5798 H         1 ARG         0.2615
    129 H32        16.4585   -9.4520   46.1550 H         1 ARG         0.1883
    130 H33        17.0258  -12.0541   44.8057 H         1 ARG         0.0800
    131 H34        17.7319  -10.8363   42.8171 H         1 ARG         0.0313
    132 H35        17.3935   -9.2662   43.6215 H         1 ARG         0.0313
    133 H36        14.9671   -9.9878   43.7721 H         1 ARG         0.0301
    134 H37        15.3959  -11.3802   42.7213 H         1 ARG         0.0301
    135 H38        14.4809   -9.5326   41.3900 H         1 ARG         0.0689
    136 H39        16.2088   -9.8141   40.9877 H         1 ARG         0.0689
    137 H40        15.2678   -7.6187   42.8288 H         1 ARG         0.2642
    138 H41        17.6227   -5.4768   41.3938 H         1 ARG         0.2615
    139 H42        16.3409   -5.6738   42.6190 H         1 ARG         0.2615
    140 H43        17.3506   -8.7758   40.1674 H         1 ARG         0.2615
    141 H44        18.1804   -7.2033   40.0207 H         1 ARG         0.2615
    142 H45        19.1604  -12.6251   44.6024 H         1 THR         0.1884
    143 H46        21.0847  -11.3134   46.3440 H         1 THR         0.0826
    144 H47        22.7142  -12.9617   45.4377 H         1 THR         0.0639
    145 H48        21.8156  -13.0854   43.3019 H         1 THR         0.2101
    146 H49        21.5763  -15.0047   46.2402 H         1 THR         0.0257
    147 H50        19.9926  -14.1634   46.1373 H         1 THR         0.0257
    148 H51        21.2337  -13.6014   47.3079 H         1 THR         0.0257
    149 H52        23.3617  -10.9299   45.2291 H         1 ARG         0.1883
    150 H53        22.9742   -8.4870   43.8547 H         1 ARG         0.0800
    151 H54        25.5018  -10.1851   44.0239 H         1 ARG         0.0313
    152 H55        24.9278   -9.0364   45.2800 H         1 ARG         0.0313
    153 H56        25.0514   -7.2276   43.4971 H         1 ARG         0.0301
    154 H57        25.9169   -8.4243   42.4746 H         1 ARG         0.0301
    155 H58        27.6159   -7.1694   43.5429 H         1 ARG         0.0689
    156 H59        27.5263   -8.7171   44.4502 H         1 ARG         0.0689
    157 H60        26.6706   -6.0186   45.3868 H         1 ARG         0.2642
    158 H61        26.4285   -7.2077   48.6643 H         1 ARG         0.2615
    159 H62        26.3986   -5.7812   47.5934 H         1 ARG         0.2615
    160 H63        26.9731   -9.5112   46.0395 H         1 ARG         0.2615
    161 H64        26.7535   -9.2931   47.7965 H         1 ARG         0.2615
    162 H65        23.4998  -11.7414   42.6152 H         1 ASN         0.1885
    163 H66        24.1640  -10.8661   39.9330 H         1 ASN         0.0826
    164 H67        24.9474  -13.0232   40.6555 H         1 ASN         0.0551
    165 H68        23.7534  -13.2739   39.3371 H         1 ASN         0.0551
    166 H69        23.2088  -15.6571   42.2391 H         1 ASN         0.1814
    167 H70        24.6124  -15.2058   41.3301 H         1 ASN         0.1814
    168 H71        21.2756  -10.8344   41.6593 H         1 GLY         0.1881
    169 H72        19.8568  -10.0669   39.2324 H         1 GLY         0.0763
    170 H73        19.2681   -9.9350   40.9243 H         1 GLY         0.0763
    171 H74        19.8710  -12.8408   41.3862 H         1 ALA         0.1883
    172 H75        17.9555  -14.1518   39.5571 H         1 ALA         0.0797
    173 H76        18.6400  -16.2387   40.7020 H         1 ALA         0.0277
    174 H77        19.6681  -15.2814   41.8214 H         1 ALA         0.0277
    175 H78        20.0523  -15.3282   40.0673 H         1 ALA         0.0277
    176 H79        18.2531  -15.1281   42.9024 H         1 SER         0.1884
    177 H80        16.0046  -13.7607   43.9902 H         1 SER         0.0823
    178 H81        14.4558  -15.7954   44.0844 H         1 SER         0.0606
    179 H82        15.4549  -16.4976   42.7671 H         1 SER         0.0606
    180 H83        14.9431  -14.6100   41.5393 H         1 SER         0.2097
    181 H84        15.7155  -14.3028   46.1587 H         1 LYS         0.1883
    182 H85        18.0727  -15.3923   47.3780 H         1 LYS         0.0800
    183 H86        15.3767  -14.8177   48.6777 H         1 LYS         0.0312
    184 H87        16.6306  -13.5777   48.3358 H         1 LYS         0.0312
    185 H88        16.8845  -15.9717   50.2065 H         1 LYS         0.0269
    186 H89        16.7224  -14.2447   50.6732 H         1 LYS         0.0269
    187 H90        18.8648  -13.8585   49.2800 H         1 LYS         0.0317
    188 H91        19.0578  -15.6440   49.3190 H         1 LYS         0.0317
    189 H92        19.1222  -15.6361   51.7460 H         1 LYS         0.0813
    190 H93        18.7541  -13.8784   51.7883 H         1 LYS         0.0813
    191 H94        21.0930  -14.3137   52.0895 H         1 LYS         0.1994
    192 H95        20.8530  -13.4891   50.6854 H         1 LYS         0.1994
    193 H96        21.1903  -15.0997   50.6466 H         1 LYS         0.1994
    194 H97        18.5381  -17.4786   47.2521 H         1 SER         0.1876
    195 H98        16.4933  -19.5509   47.1884 H         1 SER         0.0749
    196 H99        18.4190  -21.1185   47.1499 H         1 SER         0.0599
    197 H100       19.5359  -19.7423   47.4422 H         1 SER         0.0599
    198 H101       19.3376  -20.2790   45.2073 H         1 SER         0.2096
@<TRIPOS>BOND
     1    1    2 1  
     2    2    3 1  
     3    2    5 1  
     4    3    4 2  
     5    3   10 am 
     6    5    6 1  
     7    6    7 1  
     8    7    8 2  
     9    7    9 am 
    10   10   11 1  
    11   11   12 1  
    12   11   14 1  
    13   12   13 2  
    14   12   19 am 
    15   14   15 1  
    16   15   16 1  
    17   16   17 2  
    18   16   18 am 
    19   19   20 1  
    20   20   21 1  
    21   20   23 1  
    22   21   22 2  
    23   21   30 am 
    24   23   24 1  
    25   24   25 1  
    26   25   26 1  
    27   26   27 ar 
    28   27   28 ar 
    29   27   29 ar 
    30   30   31 1  
    31   31   32 1  
    32   31   34 1  
    33   32   33 2  
    34   32   41 am 
    35   34   35 1  
    36   35   36 1  
    37   36   37 1  
    38   37   38 ar 
    39   38   39 ar 
    40   38   40 ar 
    41   41   42 1  
    42   42   43 1  
    43   42   45 1  
    44   43   44 2  
    45   43   48 am 
    46   45   46 1  
    47   45   47 1  
    48   48   49 1  
    49   49   50 1  
    50   49   52 1  
    51   50   51 2  
    52   50   59 am 
    53   52   53 1  
    54   53   54 1  
    55   54   55 1  
    56   55   56 ar 
    57   56   57 ar 
    58   56   58 ar 
    59   59   60 1  
    60   60   61 1  
    61   60   63 1  
    62   61   62 2  
    63   61   67 am 
    64   63   64 1  
    65   64   65 2  
    66   64   66 am 
    67   67   68 1  
    68   68   69 1  
    69   69   70 2  
    70   69   71 am 
    71   71   72 1  
    72   72   73 1  
    73   72   75 1  
    74   73   74 2  
    75   73   76 am 
    76   76   77 1  
    77   77   78 1  
    78   77   80 1  
    79   78   79 2  
    80   78   82 am 
    81   80   81 1  
    82   82   83 1  
    83   83   84 1  
    84   83   86 1  
    85   84   85 2  
    86   84   91 am 
    87   86   87 1  
    88   87   88 1  
    89   88   89 1  
    90   89   90 1  
    91   91   92 1  
    92   92   93 1  
    93   92   95 1  
    94   93   94 ar 
    95   93   97 ar 
    96   95   96 1  
    97    1   98 1  
    98    1   99 1  
    99    1  100 1  
   100    2  101 1  
   101    5  102 1  
   102    5  103 1  
   103    6  104 1  
   104    6  105 1  
   105    9  106 1  
   106    9  107 1  
   107   10  108 1  
   108   11  109 1  
   109   14  110 1  
   110   14  111 1  
   111   15  112 1  
   112   15  113 1  
   113   18  114 1  
   114   18  115 1  
   115   19  116 1  
   116   20  117 1  
   117   23  118 1  
   118   23  119 1  
   119   24  120 1  
   120   24  121 1  
   121   25  122 1  
   122   25  123 1  
   123   26  124 1  
   124   28  125 1  
   125   28  126 1  
   126   29  127 1  
   127   29  128 1  
   128   30  129 1  
   129   31  130 1  
   130   34  131 1  
   131   34  132 1  
   132   35  133 1  
   133   35  134 1  
   134   36  135 1  
   135   36  136 1  
   136   37  137 1  
   137   39  138 1  
   138   39  139 1  
   139   40  140 1  
   140   40  141 1  
   141   41  142 1  
   142   42  143 1  
   143   45  144 1  
   144   46  145 1  
   145   47  146 1  
   146   47  147 1  
   147   47  148 1  
   148   48  149 1  
   149   49  150 1  
   150   52  151 1  
   151   52  152 1  
   152   53  153 1  
   153   53  154 1  
   154   54  155 1  
   155   54  156 1  
   156   55  157 1  
   157   57  158 1  
   158   57  159 1  
   159   58  160 1  
   160   58  161 1  
   161   59  162 1  
   162   60  163 1  
   163   63  164 1  
   164   63  165 1  
   165   66  166 1  
   166   66  167 1  
   167   67  168 1  
   168   68  169 1  
   169   68  170 1  
   170   71  171 1  
   171   72  172 1  
   172   75  173 1  
   173   75  174 1  
   174   75  175 1  
   175   76  176 1  
   176   77  177 1  
   177   80  178 1  
   178   80  179 1  
   179   81  180 1  
   180   82  181 1  
   181   83  182 1  
   182   86  183 1  
   183   86  184 1  
   184   87  185 1  
   185   87  186 1  
   186   88  187 1  
   187   88  188 1  
   188   89  189 1  
   189   89  190 1  
   190   90  191 1  
   191   90  192 1  
   192   90  193 1  
   193   91  194 1  
   194   92  195 1  
   195   95  196 1  
   196   95  197 1  
   197   96  198 1  
@<TRIPOS>SUBSTRUCTURE
     1 GLN         1

