4kz3_ligand
  -I-interpret- 

 17 17  0  0  0  0  0  0  0  0999 V2000
   23.3320    6.2570   10.2560 C   0  0  0  0  0
   22.2480    5.8210    9.4180 C   0  0  0  0  0
   21.5220    4.8390   10.0820 C   0  0  0  0  0
   22.1480    4.4870   11.6350 S   0  0  0  0  0
   23.4120    5.6440   11.4530 C   0  0  0  0  0
   24.5210    5.8440   12.7080 Cl  0  0  0  0  0
   20.2940    3.9780    9.5560 C   0  0  0  0  0
   19.6900    3.4150   10.4900 O   0  0  0  0  0
   19.9920    4.0420    8.3650 O   0  0  0  0  0
   21.9560    6.4890    7.9240 S   0  0  0  0  0
   22.9510    7.4790    7.6590 O   0  0  0  0  0
   20.5980    6.8840    7.8010 O   0  0  0  0  0
   22.2860    5.3180    6.7870 N   0  0  0  0  0
   24.0377    7.0275    9.9454 H   0  0  0  0  0
   20.1774    3.5419   11.3073 H   0  0  0  0  0
   23.0582    5.4455    6.1329 H   0  0  0  0  0
   21.7159    4.4732    6.7446 H   0  0  0  0  0
  1  2  4  0  0  0
  1  5  4  0  0  0
  2  3  4  0  0  0
  2 10  1  0  0  0
  3  4  4  0  0  0
  3  7  1  0  0  0
  4  5  4  0  0  0
  5  6  1  0  0  0
  7  8  1  0  0  0
  7  9  2  0  0  0
 10 11  2  0  0  0
 10 12  2  0  0  0
 10 13  1  0  0  0
  1 14  1  0  0  0
  8 15  1  0  0  0
 13 16  1  0  0  0
 13 17  1  0  0  0
M  END
$$$$
