2wxd_ligand
  -I-interpret- 

 39 39  0  0  0  0  0  0  0  0999 V2000
   48.4250  115.6210   46.7350 O   0  0  0  0  0
   47.9040  116.9280   46.7210 S   0  0  0  0  0
   46.5110  116.9750   46.1670 O   0  0  0  0  0
   48.7180  117.9040   45.9910 O   0  0  0  0  0
   47.7430  117.6640   48.1600 O   0  0  0  0  0
   46.8930  118.7250   48.2070 N   0  0  0  0  0
   47.0640  119.6010   49.1030 C   0  0  0  0  0
   48.3910  119.3700   50.1930 S   0  0  0  0  0
   48.2930  119.8600   51.9440 C   0  0  0  0  0
   47.7810  121.2840   52.1280 C   0  0  0  0  0
   48.4010  122.2200   53.1180 N   0  3  0  0  0
   48.3140  121.7680   54.5400 C   0  0  0  0  0
   47.6230  123.4760   53.0240 C   0  0  0  0  0
   46.0100  120.7230   48.9760 C   0  0  0  0  0
   46.5720  121.9730   48.3900 C   0  0  0  0  0
   46.4560  123.2070   49.0010 C   0  0  0  0  0
   47.1160  124.3010   48.5570 C   0  0  0  0  0
   47.9140  124.1810   47.4230 C   0  0  0  0  0
   48.0620  122.9620   46.8280 C   0  0  0  0  0
   47.4340  121.8210   47.3120 C   0  0  0  0  0
   46.1949  117.8814   46.1755 H   0  0  0  0  0
   49.2980  119.8087   52.3629 H   0  0  0  0  0
   47.5954  119.1864   52.4417 H   0  0  0  0  0
   46.7658  121.1480   52.5008 H   0  0  0  0  0
   47.9786  121.7566   51.1659 H   0  0  0  0  0
   49.3927  122.2988   52.8929 H   0  0  0  0  0
   47.2668  121.6574   54.8213 H   0  0  0  0  0
   48.8234  120.8104   54.6473 H   0  0  0  0  0
   48.7886  122.5077   55.1847 H   0  0  0  0  0
   47.6913  123.8691   52.0097 H   0  0  0  0  0
   46.5798  123.2748   53.2676 H   0  0  0  0  0
   48.0271  124.2056   53.7258 H   0  0  0  0  0
   45.6454  120.9558   49.9765 H   0  0  0  0  0
   45.2199  120.3679   48.3144 H   0  0  0  0  0
   45.8088  123.3023   49.8729 H   0  0  0  0  0
   47.0249  125.2553   49.0757 H   0  0  0  0  0
   48.4180  125.0560   47.0125 H   0  0  0  0  0
   48.6939  122.8806   45.9436 H   0  0  0  0  0
   47.6112  120.8439   46.8627 H   0  0  0  0  0
  1  2  2  0  0  0
  2  3  1  0  0  0
  2  4  2  0  0  0
  2  5  1  0  0  0
  5  6  1  0  0  0
  6  7  2  0  0  0
  7  8  1  0  0  0
  7 14  1  0  0  0
  8  9  1  0  0  0
  9 10  1  0  0  0
 10 11  1  0  0  0
 11 12  1  0  0  0
 11 13  1  0  0  0
 14 15  1  0  0  0
 15 16  4  0  0  0
 15 20  4  0  0  0
 16 17  4  0  0  0
 17 18  4  0  0  0
 18 19  4  0  0  0
 19 20  4  0  0  0
  3 21  1  0  0  0
  9 22  1  0  0  0
  9 23  1  0  0  0
 10 24  1  0  0  0
 10 25  1  0  0  0
 11 26  1  0  0  0
 12 27  1  0  0  0
 12 28  1  0  0  0
 12 29  1  0  0  0
 13 30  1  0  0  0
 13 31  1  0  0  0
 13 32  1  0  0  0
 14 33  1  0  0  0
 14 34  1  0  0  0
 16 35  1  0  0  0
 17 36  1  0  0  0
 18 37  1  0  0  0
 19 38  1  0  0  0
 20 39  1  0  0  0
M  END
$$$$
