5voj_ligand
  -I-interpret- 

103108  0  0  0  0  0  0  0  0999 V2000
  -13.6490  -15.5820   15.5950 C   0  0  0  0  0
  -12.8690  -18.2300   16.8410 C   0  0  0  0  0
  -15.5700  -24.5640   15.9640 C   0  0  0  0  0
  -14.4940  -25.5260   15.3890 C   0  0  0  0  0
  -12.2530  -22.6190   14.4010 C   0  0  0  0  0
  -13.0850  -20.7140   15.7200 C   0  0  0  0  0
  -10.9710  -23.1940   15.0120 C   0  0  0  0  0
  -15.0480  -18.4220   17.3490 C   0  0  0  0  0
  -17.2150  -20.4070   16.2710 C   0  0  0  0  0
  -16.5430  -22.2710   17.8450 C   0  0  0  0  0
  -15.5240  -24.5810   17.5180 C   0  0  0  0  0
  -13.4900  -25.1540   14.5530 C   0  0  0  0  0
  -13.3030  -23.6900   14.1080 C   0  0  0  0  0
  -12.4850  -23.0790   12.9530 C   0  0  0  0  0
  -14.9430  -15.4080   13.2890 C   0  0  0  0  0
  -13.9200  -14.8410   14.2730 C   0  0  0  0  0
  -13.8450  -17.4600   17.0880 C   0  0  0  0  0
  -13.5780  -19.2490   15.7700 C   0  0  0  0  0
  -15.8090  -20.3690   15.6330 C   0  0  0  0  0
  -17.5130  -21.8360   16.6990 C   0  0  0  0  0
  -16.7440  -23.7950   18.0910 C   0  0  0  0  0
   -8.2230  -22.1090   17.6900 C   0  0  0  0  0
   -7.1110  -21.1840   17.1950 C   0  0  0  0  0
   -6.7710  -22.3980   18.0710 C   0  0  0  0  0
  -18.4490  -18.6860   14.8900 C   0  0  0  0  0
  -19.7450  -17.3020   13.3270 C   0  0  0  0  0
  -20.6610  -17.5980   12.1090 C   0  0  0  0  0
  -18.5280  -16.4650   12.8500 C   0  0  0  0  0
  -20.5530  -16.5740   14.4320 C   0  0  0  0  0
  -11.9950  -13.8550   16.2410 C   0  0  0  0  0
  -10.9860  -13.3440   17.2840 C   0  0  0  0  0
  -10.2080  -12.0590   17.0000 C   0  0  0  0  0
   -8.9370  -12.4330   19.0340 C   0  0  0  0  0
  -10.4510  -11.2830   15.6980 C   0  0  0  0  0
  -11.4600  -11.7960   14.6660 C   0  0  0  0  0
  -12.2390  -13.1070   14.9550 C   0  0  0  0  0
   -9.1910  -21.5630   18.7650 C   0  0  0  0  0
  -14.8150  -19.4060   16.1750 N   0  0  0  0  0
  -12.5280  -21.1920   14.4510 N   0  0  0  0  0
  -10.2840  -22.5040   15.8290 N   0  0  0  0  0
  -18.1800  -20.0730   15.2760 N   0  0  0  0  0
  -12.6950  -15.1000   16.5650 N   0  0  0  0  0
  -13.2130  -13.6110   13.9730 N   0  0  0  0  0
  -14.3450  -16.7640   15.8570 O   0  0  0  0  0
  -15.5380  -21.0950   14.7210 O   0  0  0  0  0
  -13.2040  -21.4500   16.6620 O   0  0  0  0  0
  -10.5900  -24.4830   14.6690 O   0  0  0  0  0
   -7.9180  -23.7550   15.5160 O   0  0  0  0  0
   -9.3720  -24.4310   17.2520 O   0  0  0  0  0
  -17.9790  -17.7480   15.4570 O   0  0  0  0  0
  -19.3230  -18.5860   13.7940 O   0  0  0  0  0
   -9.2890  -11.5850   17.9460 O   0  0  0  0  0
   -8.9210  -23.2630   16.4780 S   0  0  0  0  0
  -12.4472  -18.7198   17.7187 H   0  0  0  0  0
  -11.9801  -17.7250   16.4629 H   0  0  0  0  0
  -16.5557  -24.8890   15.6312 H   0  0  0  0  0
  -15.3714  -23.5521   15.6108 H   0  0  0  0  0
  -14.5487  -26.5757   15.6774 H   0  0  0  0  0
  -16.0280  -17.9451   17.3671 H   0  0  0  0  0
  -15.0713  -18.8779   18.3388 H   0  0  0  0  0
  -17.2532  -19.7161   17.1132 H   0  0  0  0  0
  -16.7587  -21.7106   18.7546 H   0  0  0  0  0
  -15.5101  -22.0677   17.5622 H   0  0  0  0  0
  -14.6008  -24.1107   17.8566 H   0  0  0  0  0
  -15.5627  -25.6123   17.8686 H   0  0  0  0  0
  -12.7974  -25.9117   14.1867 H   0  0  0  0  0
  -14.3527  -23.8312   14.3654 H   0  0  0  0  0
  -11.9029  -23.4110   12.0933 H   0  0  0  0  0
  -12.6533  -22.6412   11.9691 H   0  0  0  0  0
  -14.6332  -16.4062   12.9797 H   0  0  0  0  0
  -15.9185  -15.4624   13.7722 H   0  0  0  0  0
  -15.0043  -14.7583   12.4159 H   0  0  0  0  0
  -13.5388  -16.7624   17.8676 H   0  0  0  0  0
  -13.3781  -18.7860   14.8037 H   0  0  0  0  0
  -17.3761  -22.4996   15.8452 H   0  0  0  0  0
  -18.5398  -21.8930   17.0604 H   0  0  0  0  0
  -17.6553  -24.1259   17.5928 H   0  0  0  0  0
  -16.8257  -23.9821   19.1617 H   0  0  0  0  0
   -6.8914  -20.1172   17.1535 H   0  0  0  0  0
   -6.7792  -20.7294   16.2616 H   0  0  0  0  0
   -6.0765  -23.2381   18.0718 H   0  0  0  0  0
   -6.1888  -22.6259   18.9638 H   0  0  0  0  0
  -21.0059  -16.6579   11.6784 H   0  0  0  0  0
  -20.0992  -18.1573   11.3609 H   0  0  0  0  0
  -21.5188  -18.1859   12.4355 H   0  0  0  0  0
  -17.9732  -17.0280   12.0995 H   0  0  0  0  0
  -18.8799  -15.5287   12.4170 H   0  0  0  0  0
  -17.8792  -16.2526   13.6998 H   0  0  0  0  0
  -20.9414  -15.6351   14.0374 H   0  0  0  0  0
  -21.3818  -17.2062   14.7505 H   0  0  0  0  0
  -19.9019  -16.3707   15.2822 H   0  0  0  0  0
  -10.8279  -13.8911   18.2134 H   0  0  0  0  0
   -9.8310  -12.6739   19.6092 H   0  0  0  0  0
   -8.4930  -13.3509   18.6487 H   0  0  0  0  0
   -8.2184  -11.9212   19.6742 H   0  0  0  0  0
   -9.9020  -10.3610   15.5066 H   0  0  0  0  0
  -11.6289  -11.2469   13.7397 H   0  0  0  0  0
   -8.6261  -21.2927   19.6571 H   0  0  0  0  0
   -9.7034  -20.6826   18.3772 H   0  0  0  0  0
   -9.9235  -22.3302   19.0158 H   0  0  0  0  0
  -12.3470  -20.5706   13.6627 H   0  0  0  0  0
  -10.5403  -21.5487   16.0781 H   0  0  0  0  0
  -18.6989  -20.8229   14.8190 H   0  0  0  0  0
  1 16  4  0  0  0
  1 42  4  0  0  0
 44  1  1  0  0  0
  2 17  1  0  0  0
 18  2  1  0  0  0
  4  3  1  0  0  0
  3 11  1  0  0  0
 12  4  2  0  0  0
  7  5  1  0  0  0
  5 13  1  0  0  0
  5 14  1  0  0  0
  5 39  1  0  0  0
  6 18  1  0  0  0
 39  6  1  0  0  0
  6 46  2  0  0  0
 40  7  1  0  0  0
  7 47  2  0  0  0
  8 17  1  0  0  0
 38  8  1  0  0  0
 19  9  1  0  0  0
  9 20  1  0  0  0
  9 41  1  0  0  0
 20 10  1  0  0  0
 21 10  1  0  0  0
 11 21  1  0  0  0
 13 12  1  0  0  0
 14 13  1  0  0  0
 16 15  1  0  0  0
 16 43  4  0  0  0
 17 44  1  0  0  0
 18 38  1  0  0  0
 38 19  1  0  0  0
 19 45  2  0  0  0
 22 23  1  0  0  0
 22 24  1  0  0  0
 22 37  1  0  0  0
 53 22  1  0  0  0
 24 23  1  0  0  0
 41 25  1  0  0  0
 25 50  2  0  0  0
 25 51  1  0  0  0
 26 27  1  0  0  0
 26 28  1  0  0  0
 26 29  1  0  0  0
 51 26  1  0  0  0
 30 31  4  0  0  0
 30 36  4  0  0  0
 42 30  4  0  0  0
 31 32  4  0  0  0
 32 34  4  0  0  0
 32 52  1  0  0  0
 52 33  1  0  0  0
 35 34  4  0  0  0
 36 35  4  0  0  0
 43 36  4  0  0  0
 40 53  1  0  0  0
 53 48  2  0  0  0
 53 49  2  0  0  0
  2 54  1  0  0  0
  2 55  1  0  0  0
  3 56  1  0  0  0
  3 57  1  0  0  0
  4 58  1  0  0  0
  8 59  1  0  0  0
  8 60  1  0  0  0
  9 61  1  0  0  0
 10 62  1  0  0  0
 10 63  1  0  0  0
 11 64  1  0  0  0
 11 65  1  0  0  0
 12 66  1  0  0  0
 13 67  1  0  0  0
 14 68  1  0  0  0
 14 69  1  0  0  0
 15 70  1  0  0  0
 15 71  1  0  0  0
 15 72  1  0  0  0
 17 73  1  0  0  0
 18 74  1  0  0  0
 20 75  1  0  0  0
 20 76  1  0  0  0
 21 77  1  0  0  0
 21 78  1  0  0  0
 23 79  1  0  0  0
 23 80  1  0  0  0
 24 81  1  0  0  0
 24 82  1  0  0  0
 27 83  1  0  0  0
 27 84  1  0  0  0
 27 85  1  0  0  0
 28 86  1  0  0  0
 28 87  1  0  0  0
 28 88  1  0  0  0
 29 89  1  0  0  0
 29 90  1  0  0  0
 29 91  1  0  0  0
 31 92  1  0  0  0
 33 93  1  0  0  0
 33 94  1  0  0  0
 33 95  1  0  0  0
 34 96  1  0  0  0
 35 97  1  0  0  0
 37 98  1  0  0  0
 37 99  1  0  0  0
 37100  1  0  0  0
 39101  1  0  0  0
 40102  1  0  0  0
 41103  1  0  0  0
M  END
$$$$
