4asj_ligand
  -I-interpret- 

 45 47  0  0  0  0  0  0  0  0999 V2000
   34.5530  -23.6370   56.9570 C   0  0  0  0  0
   33.8250  -24.6250   56.2810 C   0  0  0  0  0
   33.6630  -24.5540   54.9000 C   0  0  0  0  0
   34.2400  -23.4940   54.2250 C   0  0  0  0  0
   34.9500  -22.5200   54.9070 C   0  0  0  0  0
   35.1150  -22.5760   56.2930 C   0  0  0  0  0
   35.8110  -21.5990   56.9980 C   0  0  0  0  0
   35.0940  -20.2560   56.9440 N   0  0  0  0  0
   34.1500  -19.8810   57.8890 C   0  0  0  0  0
   33.7720  -20.6210   58.9100 N   0  0  0  0  0
   35.3850  -19.4210   55.9440 C   0  0  0  0  0
   36.2070  -19.7450   55.0850 O   0  0  0  0  0
   34.7470  -18.1590   55.8610 N   0  0  0  0  0
   33.7750  -17.7750   56.8190 C   0  0  0  0  0
   33.1960  -16.6850   56.7260 O   0  0  0  0  0
   33.4860  -18.6840   57.8350 C   0  0  0  0  0
   32.6250  -18.3240   58.8330 N   0  0  0  0  0
   33.1420  -17.3340   59.7980 C   0  0  0  0  0
   31.0260  -18.7520   58.8950 S   0  0  0  0  0
   30.7660  -20.2760   58.9310 O   0  0  0  0  0
   30.4360  -18.1490   60.1260 O   0  0  0  0  0
   30.2820  -18.0680   57.5670 C   0  0  0  0  0
   30.4430  -18.6510   56.3300 C   0  0  0  0  0
   29.8210  -18.0870   55.2180 C   0  0  0  0  0
   29.0570  -16.9360   55.3890 C   0  0  0  0  0
   28.9050  -16.3430   56.6370 C   0  0  0  0  0
   29.5070  -16.9130   57.7260 C   0  0  0  0  0
   34.6759  -23.7132   58.0374 H   0  0  0  0  0
   33.3841  -25.4517   56.8380 H   0  0  0  0  0
   33.0955  -25.3150   54.3643 H   0  0  0  0  0
   34.1347  -23.4242   53.1424 H   0  0  0  0  0
   35.3894  -21.6921   54.3505 H   0  0  0  0  0
   36.7965  -21.4832   56.5469 H   0  0  0  0  0
   35.8838  -21.9104   58.0400 H   0  0  0  0  0
   34.1814  -21.5447   59.0496 H   0  0  0  0  0
   34.9895  -17.5198   55.1040 H   0  0  0  0  0
   32.6936  -19.2208   57.3134 H   0  0  0  0  0
   32.6033  -16.3943   59.6763 H   0  0  0  0  0
   32.9989  -17.7077   60.8119 H   0  0  0  0  0
   34.2043  -17.1715   59.6159 H   0  0  0  0  0
   31.0530  -19.5478   56.2214 H   0  0  0  0  0
   29.9307  -18.5389   54.2321 H   0  0  0  0  0
   28.5665  -16.4893   54.5241 H   0  0  0  0  0
   28.3131  -15.4344   56.7471 H   0  0  0  0  0
   29.3834  -16.4691   58.7138 H   0  0  0  0  0
  1  2  4  0  0  0
  1  6  4  0  0  0
  2  3  4  0  0  0
  3  4  4  0  0  0
  4  5  4  0  0  0
  5  6  4  0  0  0
  6  7  1  0  0  0
  7  8  1  0  0  0
  8  9  1  0  0  0
  8 11  1  0  0  0
  9 10  2  0  0  0
  9 16  1  0  0  0
 11 12  2  0  0  0
 11 13  1  0  0  0
 13 14  1  0  0  0
 14 15  2  0  0  0
 14 16  1  0  0  0
 16 17  1  0  0  0
 17 18  1  0  0  0
 17 19  1  0  0  0
 19 20  2  0  0  0
 19 21  2  0  0  0
 19 22  1  0  0  0
 22 23  4  0  0  0
 22 27  4  0  0  0
 23 24  4  0  0  0
 24 25  4  0  0  0
 25 26  4  0  0  0
 26 27  4  0  0  0
  1 28  1  0  0  0
  2 29  1  0  0  0
  3 30  1  0  0  0
  4 31  1  0  0  0
  5 32  1  0  0  0
  7 33  1  0  0  0
  7 34  1  0  0  0
 10 35  1  0  0  0
 13 36  1  0  0  0
 16 37  1  0  0  0
 18 38  1  0  0  0
 18 39  1  0  0  0
 18 40  1  0  0  0
 23 41  1  0  0  0
 24 42  1  0  0  0
 25 43  1  0  0  0
 26 44  1  0  0  0
 27 45  1  0  0  0
M  END
$$$$
