4mjo_ligand
  -I-interpret- 

 49 50  0  0  0  0  0  0  0  0999 V2000
   38.8300   12.2860  -22.8050 N   0  0  0  0  0
   38.9100   11.0320  -22.4070 C   0  0  0  0  0
   39.7480    8.9530  -23.2380 C   0  0  0  0  0
   40.8580    7.2510  -24.3380 C   0  0  0  0  0
   35.9700   12.9250  -20.9100 C   0  0  0  0  0
   34.4680   13.7350  -22.2960 C   0  0  0  0  0
   41.5240    6.7890  -25.4200 N   0  0  0  0  0
   34.7230   13.1370  -21.1520 C   0  0  0  0  0
   39.5030    8.1340  -22.1260 C   0  0  0  0  0
   41.8170    9.5930  -27.8640 C   0  0  0  0  0
   38.2640   13.3820  -21.9670 S   0  0  0  0  0
   36.6900   13.4330  -21.8430 C   0  0  0  0  0
   35.8240   14.2600  -23.0180 S   0  0  0  0  0
   40.4350    8.5070  -24.2830 N   0  0  0  0  0
   39.4490   10.2540  -23.3240 N   0  0  0  0  0
   41.8340    7.4790  -26.5260 C   0  0  0  0  0
   40.6150    6.3920  -23.2740 C   0  0  0  0  0
   38.7050   14.5360  -22.6080 O   0  0  0  0  0
   38.9410   13.4940  -20.7200 O   0  0  0  0  0
   39.9250    6.8030  -22.1250 C   0  0  0  0  0
   38.4870   10.6470  -21.3240 O   0  0  0  0  0
   42.4310    6.8940  -27.3970 O   0  0  0  0  0
   41.5240    8.7600  -26.7130 N   0  0  0  0  0
   33.1220   14.0820  -22.8410 C   0  0  0  0  0
   39.6050    5.5950  -20.6380 Br  0  0  0  0  0
   33.5810   12.8060  -20.2200 C   0  0  0  0  0
   31.8320   16.0820  -22.8890 O   0  0  0  0  0
   32.9360   15.4870  -22.2740 C   0  0  0  0  0
   31.7360   17.4760  -22.5990 C   0  0  0  0  0
   39.1738   12.5194  -23.7365 H   0  0  0  0  0
   36.3568   12.3927  -20.0410 H   0  0  0  0  0
   41.8214    5.8137  -25.3915 H   0  0  0  0  0
   38.9809    8.5383  -21.2588 H   0  0  0  0  0
   42.8962    9.6449  -28.0081 H   0  0  0  0  0
   41.3511    9.1626  -28.7504 H   0  0  0  0  0
   41.4231   10.5952  -27.6953 H   0  0  0  0  0
   39.6663   10.7017  -24.2144 H   0  0  0  0  0
   40.9727    5.3641  -23.3344 H   0  0  0  0  0
   41.0172    9.2123  -25.9521 H   0  0  0  0  0
   32.3358   13.3825  -22.5568 H   0  0  0  0  0
   33.0583   14.0315  -23.9280 H   0  0  0  0  0
   33.5757   11.7345  -20.0202 H   0  0  0  0  0
   33.7077   13.3507  -19.2844 H   0  0  0  0  0
   32.6386   13.0948  -20.6853 H   0  0  0  0  0
   33.8289   16.0822  -22.4653 H   0  0  0  0  0
   32.7718   15.4308  -21.1979 H   0  0  0  0  0
   31.6394   17.6160  -21.5224 H   0  0  0  0  0
   32.6339   17.9822  -22.9534 H   0  0  0  0  0
   30.8616   17.8908  -23.1005 H   0  0  0  0  0
  2  1  1  0  0  0
  1 11  1  0  0  0
 15  2  1  0  0  0
  2 21  2  0  0  0
  3  9  4  0  0  0
 14  3  4  0  0  0
  3 15  1  0  0  0
  7  4  1  0  0  0
  4 14  4  0  0  0
  4 17  4  0  0  0
  5  8  4  0  0  0
 12  5  4  0  0  0
  6  8  4  0  0  0
 13  6  4  0  0  0
  6 24  1  0  0  0
 16  7  1  0  0  0
  8 26  1  0  0  0
  9 20  4  0  0  0
 23 10  1  0  0  0
 11 12  1  0  0  0
 11 18  2  0  0  0
 11 19  2  0  0  0
 12 13  4  0  0  0
 16 22  2  0  0  0
 16 23  1  0  0  0
 17 20  4  0  0  0
 20 25  1  0  0  0
 24 28  1  0  0  0
 28 27  1  0  0  0
 27 29  1  0  0  0
  1 30  1  0  0  0
  5 31  1  0  0  0
  7 32  1  0  0  0
  9 33  1  0  0  0
 10 34  1  0  0  0
 10 35  1  0  0  0
 10 36  1  0  0  0
 15 37  1  0  0  0
 17 38  1  0  0  0
 23 39  1  0  0  0
 24 40  1  0  0  0
 24 41  1  0  0  0
 26 42  1  0  0  0
 26 43  1  0  0  0
 26 44  1  0  0  0
 28 45  1  0  0  0
 28 46  1  0  0  0
 29 47  1  0  0  0
 29 48  1  0  0  0
 29 49  1  0  0  0
M  END
$$$$
