4iku_ligand
  -I-interpret- 

 44 46  0  0  0  0  0  0  0  0999 V2000
   19.7080   -3.0930   16.8680 Cl  0  0  0  0  0
   20.3740   -4.2020   15.6480 C   0  0  0  0  0
   20.3920   -3.8150   14.3330 C   0  0  0  0  0
   19.8370   -2.4930   13.8860 C   0  0  0  0  0
   20.9280   -4.6610   13.4430 N   0  0  0  0  0
   21.4140   -5.8580   13.8310 C   0  0  0  0  0
   22.0770   -6.7050   12.8270 C   0  0  0  0  0
   22.4580   -8.0180   13.0820 C   0  0  0  0  0
   23.1440   -8.7190   12.0940 C   0  0  0  0  0
   23.4660   -8.0920   10.8900 C   0  0  0  0  0
   23.1000   -6.7610   10.7100 C   0  0  0  0  0
   22.4310   -6.0960   11.6640 N   0  0  0  0  0
   21.4180   -6.2440   15.1320 N   0  0  0  0  0
   20.8940   -5.4140   16.0470 C   0  0  0  0  0
   20.8490   -5.7630   17.3540 N   0  0  0  0  0
   21.1480   -7.1040   17.7980 C   0  0  0  0  0
   22.0380   -7.0150   19.0020 C   0  0  0  0  0
   22.0780   -5.8660   19.6730 N   0  0  0  0  0
   22.7070   -7.9830   19.3270 O   0  0  0  0  0
   19.8580   -7.8590   18.1320 C   0  0  0  0  0
   19.0130   -8.0220   16.8840 C   0  0  0  0  0
   17.9870   -7.1120   16.6020 C   0  0  0  0  0
   17.2220   -7.2630   15.4460 C   0  0  0  0  0
   17.4760   -8.3240   14.5740 C   0  0  0  0  0
   18.4950   -9.2300   14.8530 C   0  0  0  0  0
   19.2660   -9.0780   16.0040 C   0  0  0  0  0
   18.7789   -2.4392   14.1424 H   0  0  0  0  0
   20.3746   -1.6871   14.3855 H   0  0  0  0  0
   19.9560   -2.3966   12.8068 H   0  0  0  0  0
   22.2241   -8.4890   14.0367 H   0  0  0  0  0
   23.4295   -9.7576   12.2611 H   0  0  0  0  0
   23.9940   -8.6339   10.1054 H   0  0  0  0  0
   23.3604   -6.2524    9.7818 H   0  0  0  0  0
   20.5963   -5.0575   18.0460 H   0  0  0  0  0
   21.6548   -7.6543   17.0052 H   0  0  0  0  0
   22.6826   -5.7729   20.4892 H   0  0  0  0  0
   21.5041   -5.0787   19.3709 H   0  0  0  0  0
   19.2946   -7.2941   18.8747 H   0  0  0  0  0
   20.1109   -8.8440   18.5244 H   0  0  0  0  0
   17.7865   -6.2867   17.2852 H   0  0  0  0  0
   16.4257   -6.5529   15.2229 H   0  0  0  0  0
   16.8747   -8.4428   13.6727 H   0  0  0  0  0
   18.6900  -10.0581   14.1716 H   0  0  0  0  0
   20.0681   -9.7842   16.2184 H   0  0  0  0  0
  1  2  1  0  0  0
  2  3  4  0  0  0
  2 14  4  0  0  0
  3  4  1  0  0  0
  3  5  4  0  0  0
  5  6  4  0  0  0
  6  7  1  0  0  0
  6 13  4  0  0  0
  7  8  4  0  0  0
  7 12  4  0  0  0
  8  9  4  0  0  0
  9 10  4  0  0  0
 10 11  4  0  0  0
 11 12  4  0  0  0
 13 14  4  0  0  0
 14 15  1  0  0  0
 15 16  1  0  0  0
 16 17  1  0  0  0
 16 20  1  0  0  0
 17 18  1  0  0  0
 17 19  2  0  0  0
 20 21  1  0  0  0
 21 22  4  0  0  0
 21 26  4  0  0  0
 22 23  4  0  0  0
 23 24  4  0  0  0
 24 25  4  0  0  0
 25 26  4  0  0  0
  4 27  1  0  0  0
  4 28  1  0  0  0
  4 29  1  0  0  0
  8 30  1  0  0  0
  9 31  1  0  0  0
 10 32  1  0  0  0
 11 33  1  0  0  0
 15 34  1  0  0  0
 16 35  1  0  0  0
 18 36  1  0  0  0
 18 37  1  0  0  0
 20 38  1  0  0  0
 20 39  1  0  0  0
 22 40  1  0  0  0
 23 41  1  0  0  0
 24 42  1  0  0  0
 25 43  1  0  0  0
 26 44  1  0  0  0
M  END
$$$$
