3c1n_ligand
  -I-interpret- 

 18 17  0  0  0  0  0  0  0  0999 V2000
   34.7940    7.1690   25.1310 N   0  3  0  0  0
   34.1870    8.4520   24.6960 C   0  0  0  0  0
   32.9670    8.6800   25.5520 C   0  0  0  0  0
   31.9100    8.0940   25.3440 O   0  0  0  0  0
   33.8710    8.4910   23.1540 C   0  0  0  0  0
   34.8760    9.2560   22.4790 O   0  0  0  0  0
   32.5410    9.1420   22.8630 C   0  0  0  0  0
   33.0310    9.4430   26.5060 O   0  0  0  0  0
   34.9754    7.2029   26.1342 H   0  0  0  0  0
   34.1516    6.4036   24.9262 H   0  0  0  0  0
   35.6705    7.0220   24.6305 H   0  0  0  0  0
   34.8980    9.2662   24.8363 H   0  0  0  0  0
   32.0031    7.5335   24.5702 H   0  0  0  0  0
   33.8478    7.4577   22.8078 H   0  0  0  0  0
   35.7378    8.8667   22.6444 H   0  0  0  0  0
   32.5523   10.1683   23.2299 H   0  0  0  0  0
   32.3652    9.1412   21.7873 H   0  0  0  0  0
   31.7483    8.5850   23.3624 H   0  0  0  0  0
  1  2  1  0  0  0
  2  3  1  0  0  0
  2  5  1  0  0  0
  3  4  1  0  0  0
  3  8  2  0  0  0
  5  6  1  0  0  0
  5  7  1  0  0  0
  1  9  1  0  0  0
  1 10  1  0  0  0
  1 11  1  0  0  0
  2 12  1  0  0  0
  4 13  1  0  0  0
  5 14  1  0  0  0
  6 15  1  0  0  0
  7 16  1  0  0  0
  7 17  1  0  0  0
  7 18  1  0  0  0
M  END
$$$$
