4op2_ligand
  -I-interpret- 

 46 48  0  0  0  0  0  0  0  0999 V2000
  -44.4820  -20.6830   15.7820 C   0  0  0  0  0
  -45.2190  -19.5610   15.9580 C   0  0  0  0  0
  -44.9680  -18.4820   15.1110 C   0  0  0  0  0
  -45.7150  -17.4150   15.2580 N   0  0  0  0  0
  -44.0320  -18.5600   14.1350 N   0  0  0  0  0
  -43.3140  -19.6570   13.9690 C   0  0  0  0  0
  -43.5400  -20.7480   14.7650 C   0  0  0  0  0
  -42.5630  -22.1800   14.6780 S   0  0  0  0  0
  -43.3870  -23.3290   15.1580 O   0  0  0  0  0
  -42.0090  -22.2940   13.3620 O   0  0  0  0  0
  -41.3300  -21.8880   15.7760 C   0  0  0  0  0
  -40.4380  -20.8520   15.5020 C   0  0  0  0  0
  -39.4050  -20.5630   16.3890 C   0  0  0  0  0
  -41.1860  -22.6390   16.9240 C   0  0  0  0  0
  -40.1660  -22.3180   17.8200 C   0  0  0  0  0
  -39.2540  -21.2820   17.5630 C   0  0  0  0  0
  -38.1950  -20.9810   18.4690 C   0  0  0  0  0
  -37.1820  -20.0910   18.1340 C   0  0  0  0  0
  -36.1210  -19.8180   19.0100 C   0  0  0  0  0
  -38.1460  -21.5400   19.7580 C   0  0  0  0  0
  -37.1130  -21.2380   20.6550 C   0  0  0  0  0
  -36.0880  -20.3800   20.2800 C   0  0  0  0  0
  -34.9480  -20.0300   21.2370 C   0  0  0  0  0
  -34.3110  -21.2170   21.9250 C   0  0  0  0  0
  -35.1640  -21.7730   22.7530 F   0  0  0  0  0
  -33.8980  -22.0930   21.0090 F   0  0  0  0  0
  -33.2700  -20.7420   22.6010 F   0  0  0  0  0
  -35.4610  -19.0300   22.2980 C   0  0  0  0  0
  -33.8490  -19.5710   20.4950 O   0  0  0  0  0
  -44.6291  -21.5383   16.4415 H   0  0  0  0  0
  -45.9818  -19.5031   16.7345 H   0  0  0  0  0
  -46.4448  -17.3976   15.9704 H   0  0  0  0  0
  -45.5665  -16.6021   14.6600 H   0  0  0  0  0
  -42.5429  -19.6933   13.1995 H   0  0  0  0  0
  -40.5500  -20.2662   14.5897 H   0  0  0  0  0
  -38.7055  -19.7600   16.1565 H   0  0  0  0  0
  -41.8595  -23.4713   17.1282 H   0  0  0  0  0
  -40.0746  -22.8872   18.7451 H   0  0  0  0  0
  -37.2126  -19.5920   17.1654 H   0  0  0  0  0
  -35.3142  -19.1582   18.6910 H   0  0  0  0  0
  -38.9332  -22.2272   20.0680 H   0  0  0  0  0
  -37.1141  -21.6787   21.6519 H   0  0  0  0  0
  -35.8132  -18.1253   21.8024 H   0  0  0  0  0
  -36.2807  -19.4828   22.8559 H   0  0  0  0  0
  -34.6497  -18.7792   22.9813 H   0  0  0  0  0
  -33.1308  -19.3501   21.0924 H   0  0  0  0  0
  1  2  4  0  0  0
  1  7  4  0  0  0
  2  3  4  0  0  0
  3  4  1  0  0  0
  3  5  4  0  0  0
  5  6  4  0  0  0
  6  7  4  0  0  0
  7  8  1  0  0  0
  8  9  2  0  0  0
  8 10  2  0  0  0
  8 11  1  0  0  0
 11 12  4  0  0  0
 11 14  4  0  0  0
 12 13  4  0  0  0
 13 16  4  0  0  0
 14 15  4  0  0  0
 15 16  4  0  0  0
 16 17  1  0  0  0
 17 18  4  0  0  0
 17 20  4  0  0  0
 18 19  4  0  0  0
 19 22  4  0  0  0
 20 21  4  0  0  0
 21 22  4  0  0  0
 22 23  1  0  0  0
 23 24  1  0  0  0
 23 28  1  0  0  0
 23 29  1  0  0  0
 24 25  1  0  0  0
 24 26  1  0  0  0
 24 27  1  0  0  0
  1 30  1  0  0  0
  2 31  1  0  0  0
  4 32  1  0  0  0
  4 33  1  0  0  0
  6 34  1  0  0  0
 12 35  1  0  0  0
 13 36  1  0  0  0
 14 37  1  0  0  0
 15 38  1  0  0  0
 18 39  1  0  0  0
 19 40  1  0  0  0
 20 41  1  0  0  0
 21 42  1  0  0  0
 28 43  1  0  0  0
 28 44  1  0  0  0
 28 45  1  0  0  0
 29 46  1  0  0  0
M  END
$$$$
