4ucu_ligand
  -I-interpret- 

 21 22  0  0  0  0  0  0  0  0999 V2000
  110.7380   96.0760   22.8540 O   0  0  0  0  0
  111.0010   94.8990   23.1150 C   0  0  0  0  0
  110.8690   93.9270   22.2560 O   0  0  0  0  0
  111.5030   94.4670   24.4680 C   0  0  0  0  0
  111.7460   93.1740   24.6170 N   0  0  0  0  0
  112.2060   92.7420   25.8320 C   0  0  0  0  0
  112.4020   93.6190   26.9270 C   0  0  0  0  0
  112.8500   93.0730   28.1570 C   0  0  0  0  0
  113.0910   91.7320   28.2800 C   0  0  0  0  0
  112.9080   90.8720   27.2070 C   0  0  0  0  0
  112.4600   91.3530   25.9960 C   0  0  0  0  0
  112.2330   90.5160   24.9510 O   0  0  0  0  0
  112.1220   94.9860   26.7000 C   0  0  0  0  0
  111.6830   95.4100   25.4810 C   0  0  0  0  0
  111.1282   93.0997   22.6683 H   0  0  0  0  0
  113.0040   93.7291   29.0137 H   0  0  0  0  0
  113.4319   91.3333   29.2354 H   0  0  0  0  0
  113.1199   89.8091   27.3226 H   0  0  0  0  0
  112.4482   89.6170   25.2100 H   0  0  0  0  0
  112.2582   95.7068   27.5062 H   0  0  0  0  0
  111.4766   96.4650   25.3010 H   0  0  0  0  0
  1  2  2  0  0  0
  2  3  1  0  0  0
  2  4  1  0  0  0
  4  5  4  0  0  0
  4 14  4  0  0  0
  5  6  4  0  0  0
  6  7  4  0  0  0
  6 11  4  0  0  0
  7  8  4  0  0  0
  7 13  4  0  0  0
  8  9  4  0  0  0
  9 10  4  0  0  0
 10 11  4  0  0  0
 11 12  1  0  0  0
 13 14  4  0  0  0
  3 15  1  0  0  0
  8 16  1  0  0  0
  9 17  1  0  0  0
 10 18  1  0  0  0
 12 19  1  0  0  0
 13 20  1  0  0  0
 14 21  1  0  0  0
M  END
$$$$
