6eqw_ligand
  -I-interpret- 

108109  0  0  0  0  0  0  0  0999 V2000
   54.5120  -33.9040    2.1820 N   0  3  0  0  0
   53.8840  -33.1040   -2.3780 C   0  0  0  0  0
   54.0910  -32.6450   -1.0850 C   0  0  0  0  0
   54.7360  -33.4440   -0.1490 C   0  0  0  0  0
   55.1690  -34.7190   -0.5150 C   0  0  0  0  0
   54.9510  -35.1820   -1.8120 C   0  0  0  0  0
   54.0640  -34.8110   -4.0590 C   0  0  0  0  0
   52.5520  -35.0880   -4.1230 C   0  0  0  0  0
   52.0360  -35.8280   -3.2820 O   0  0  0  0  0
   54.3140  -34.3720   -2.7540 C   0  0  0  0  0
   54.9390  -32.9470    1.1460 C   0  0  0  0  0
   51.8530  -34.4430   -5.0830 N   0  0  0  0  0
   50.3900  -34.6170   -5.2160 C   0  0  0  0  0
   50.1140  -35.1630   -6.6260 C   0  0  0  0  0
   50.7360  -34.7240   -7.5870 O   0  0  0  0  0
   49.6500  -33.2830   -4.9510 C   0  0  0  0  0
   49.9220  -32.8160   -3.4950 C   0  0  0  0  0
   49.2950  -33.7910   -2.4730 C   0  0  0  0  0
   49.5180  -33.3290   -1.0760 N   0  0  0  0  0
   50.4140  -33.8930   -0.2310 C   0  0  0  0  0
   50.5330  -33.4480    1.0400 N   0  0  0  0  0
   51.1790  -34.9210   -0.6400 N   0  0  0  0  0
   49.2370  -36.1680   -6.7260 N   0  0  0  0  0
   48.9770  -36.8070   -8.0230 C   0  0  0  0  0
   49.3780  -38.3030   -7.9040 C   0  0  0  0  0
   49.2330  -38.9960   -9.2670 C   0  0  0  0  0
   50.8320  -38.4300   -7.4140 C   0  0  0  0  0
   48.4840  -39.0120   -6.8750 C   0  0  0  0  0
   47.4930  -36.6870   -8.4020 C   0  0  0  0  0
   46.6390  -36.6600   -7.5240 O   0  0  0  0  0
   47.2120  -36.6030   -9.7180 N   0  0  0  0  0
   45.8410  -36.5480  -10.2390 C   0  0  0  0  0
   45.2380  -37.9160   -9.8930 C   0  0  0  0  0
   45.8890  -38.9320  -10.1200 O   0  0  0  0  0
   45.8900  -36.3910  -11.7600 C   0  0  0  0  0
   46.3300  -34.9710  -12.1770 C   0  0  0  0  0
   46.6550  -34.9920  -13.6830 C   0  0  0  0  0
   47.0990  -33.6740  -14.1780 N   0  0  0  0  0
   48.3750  -33.2520  -14.0970 C   0  0  0  0  0
   49.2990  -34.0260  -13.5080 N   0  0  0  0  0
   48.7290  -32.0530  -14.5820 N   0  0  0  0  0
   44.0330  -37.9320   -9.2980 N   0  0  0  0  0
   43.3960  -39.1800   -8.8270 C   0  0  0  0  0
   43.5360  -39.2150   -7.3970 C   0  0  0  0  0
   42.5450  -38.7240   -6.5510 C   0  0  0  0  0
   42.7020  -38.7390   -5.1530 C   0  0  0  0  0
   43.8580  -39.2470   -4.5500 C   0  0  0  0  0
   44.0120  -39.2610   -3.1340 C   0  0  0  0  0
   45.1960  -39.5580   -2.5850 N   0  0  0  0  0
   42.9790  -38.9250   -2.3620 N   0  0  0  0  0
   44.8520  -39.7350   -5.3970 C   0  0  0  0  0
   44.6910  -39.7180   -6.7960 C   0  0  0  0  0
   54.6778  -33.5012    3.1043 H   0  0  0  0  0
   53.5179  -34.1030    2.0703 H   0  0  0  0  0
   55.0458  -34.7678    2.0859 H   0  0  0  0  0
   53.3806  -32.4660   -3.1044 H   0  0  0  0  0
   53.7453  -31.6509   -0.8017 H   0  0  0  0  0
   55.6771  -35.3523    0.2122 H   0  0  0  0  0
   55.2800  -36.1827   -2.0923 H   0  0  0  0  0
   54.3625  -34.0633   -4.7938 H   0  0  0  0  0
   54.6420  -35.7044   -4.2953 H   0  0  0  0  0
   56.0052  -32.7607    1.2748 H   0  0  0  0  0
   54.3465  -32.0390    1.2578 H   0  0  0  0  0
   52.3437  -33.8241   -5.7285 H   0  0  0  0  0
   50.0153  -35.3223   -4.4742 H   0  0  0  0  0
   48.5789  -33.4294   -5.0900 H   0  0  0  0  0
   50.0093  -32.5252   -5.6473 H   0  0  0  0  0
   49.4776  -31.8305   -3.3556 H   0  0  0  0  0
   50.9995  -32.7860   -3.3334 H   0  0  0  0  0
   49.7631  -34.7679   -2.5938 H   0  0  0  0  0
   48.2213  -33.8401   -2.6545 H   0  0  0  0  0
   48.9646  -32.5428   -0.7354 H   0  0  0  0  0
   51.1966  -33.8910    1.6754 H   0  0  0  0  0
   49.9591  -32.6693    1.3635 H   0  0  0  0  0
   51.0860  -35.2794   -1.5904 H   0  0  0  0  0
   48.7444  -36.4936   -5.8943 H   0  0  0  0  0
   49.5578  -36.3146   -8.8029 H   0  0  0  0  0
   48.1973  -38.9272   -9.5998 H   0  0  0  0  0
   49.8825  -38.5067   -9.9928 H   0  0  0  0  0
   49.5166  -40.0442   -9.1722 H   0  0  0  0  0
   51.4974  -37.9383   -8.1236 H   0  0  0  0  0
   50.9273  -37.9569   -6.4367 H   0  0  0  0  0
   51.0970  -39.4844   -7.3361 H   0  0  0  0  0
   48.6002  -38.5325   -5.9030 H   0  0  0  0  0
   47.4434  -38.9452   -7.1924 H   0  0  0  0  0
   48.7764  -40.0595   -6.8021 H   0  0  0  0  0
   47.9867  -36.5765  -10.3810 H   0  0  0  0  0
   45.2665  -35.7197   -9.8243 H   0  0  0  0  0
   44.8898  -36.5692  -12.1549 H   0  0  0  0  0
   46.6145  -37.1035  -12.1544 H   0  0  0  0  0
   47.2088  -34.6682  -11.6077 H   0  0  0  0  0
   45.5319  -34.2565  -11.9753 H   0  0  0  0  0
   45.7481  -35.2677  -14.2211 H   0  0  0  0  0
   47.4640  -35.7044  -13.8447 H   0  0  0  0  0
   46.4075  -33.0547  -14.6007 H   0  0  0  0  0
   50.2629  -33.7012  -13.4316 H   0  0  0  0  0
   49.0377  -34.9393  -13.1366 H   0  0  0  0  0
   48.0291  -31.4519  -15.0169 H   0  0  0  0  0
   43.5392  -37.0493   -9.1664 H   0  0  0  0  0
   43.8723  -40.0491   -9.2808 H   0  0  0  0  0
   42.3438  -39.2046   -9.1104 H   0  0  0  0  0
   41.6286  -38.3196   -6.9808 H   0  0  0  0  0
   41.9035  -38.3452   -4.5241 H   0  0  0  0  0
   45.3104  -39.5277   -1.5719 H   0  0  0  0  0
   45.9839  -39.8146   -3.1797 H   0  0  0  0  0
   42.0897  -38.6614   -2.7863 H   0  0  0  0  0
   45.7702  -40.1369   -4.9688 H   0  0  0  0  0
   45.4900  -40.1082   -7.4265 H   0  0  0  0  0
 11  1  1  0  0  0
  2  3  4  0  0  0
 10  2  4  0  0  0
  3  4  4  0  0  0
  5  4  4  0  0  0
  4 11  1  0  0  0
  6  5  4  0  0  0
 10  6  4  0  0  0
  7  8  1  0  0  0
  7 10  1  0  0  0
  8  9  2  0  0  0
  8 12  1  0  0  0
 12 13  1  0  0  0
 13 14  1  0  0  0
 13 16  1  0  0  0
 14 15  2  0  0  0
 14 23  1  0  0  0
 16 17  1  0  0  0
 17 18  1  0  0  0
 18 19  1  0  0  0
 19 20  1  0  0  0
 20 21  1  0  0  0
 20 22  2  0  0  0
 23 24  1  0  0  0
 24 25  1  0  0  0
 24 29  1  0  0  0
 25 26  1  0  0  0
 25 27  1  0  0  0
 25 28  1  0  0  0
 29 30  2  0  0  0
 29 31  1  0  0  0
 31 32  1  0  0  0
 32 33  1  0  0  0
 32 35  1  0  0  0
 33 34  2  0  0  0
 33 42  1  0  0  0
 35 36  1  0  0  0
 36 37  1  0  0  0
 37 38  1  0  0  0
 38 39  1  0  0  0
 39 40  1  0  0  0
 39 41  2  0  0  0
 42 43  1  0  0  0
 43 44  1  0  0  0
 44 45  4  0  0  0
 44 52  4  0  0  0
 45 46  4  0  0  0
 46 47  4  0  0  0
 47 48  1  0  0  0
 47 51  4  0  0  0
 48 49  1  0  0  0
 48 50  2  0  0  0
 51 52  4  0  0  0
  1 53  1  0  0  0
  1 54  1  0  0  0
  1 55  1  0  0  0
  2 56  1  0  0  0
  3 57  1  0  0  0
  5 58  1  0  0  0
  6 59  1  0  0  0
  7 60  1  0  0  0
  7 61  1  0  0  0
 11 62  1  0  0  0
 11 63  1  0  0  0
 12 64  1  0  0  0
 13 65  1  0  0  0
 16 66  1  0  0  0
 16 67  1  0  0  0
 17 68  1  0  0  0
 17 69  1  0  0  0
 18 70  1  0  0  0
 18 71  1  0  0  0
 19 72  1  0  0  0
 21 73  1  0  0  0
 21 74  1  0  0  0
 22 75  1  0  0  0
 23 76  1  0  0  0
 24 77  1  0  0  0
 26 78  1  0  0  0
 26 79  1  0  0  0
 26 80  1  0  0  0
 27 81  1  0  0  0
 27 82  1  0  0  0
 27 83  1  0  0  0
 28 84  1  0  0  0
 28 85  1  0  0  0
 28 86  1  0  0  0
 31 87  1  0  0  0
 32 88  1  0  0  0
 35 89  1  0  0  0
 35 90  1  0  0  0
 36 91  1  0  0  0
 36 92  1  0  0  0
 37 93  1  0  0  0
 37 94  1  0  0  0
 38 95  1  0  0  0
 40 96  1  0  0  0
 40 97  1  0  0  0
 41 98  1  0  0  0
 42 99  1  0  0  0
 43100  1  0  0  0
 43101  1  0  0  0
 45102  1  0  0  0
 46103  1  0  0  0
 49104  1  0  0  0
 49105  1  0  0  0
 50106  1  0  0  0
 51107  1  0  0  0
 52108  1  0  0  0
M  END
$$$$
