4l19_ligand
  -I-interpret- 

 35 37  0  0  0  0  0  0  0  0999 V2000
  -25.6230  -15.0880   11.4030 O   0  0  0  0  0
  -24.8320  -14.4660   12.1030 C   0  0  0  0  0
  -25.1720  -14.0450   13.3180 C   0  0  0  0  0
  -24.2950  -13.3630   14.0710 C   0  0  0  0  0
  -24.8700  -13.0310   15.2930 C   0  0  0  0  0
  -26.3740  -14.2030   13.9970 C   0  0  0  0  0
  -26.3410  -13.1490   15.0550 C   0  0  0  0  0
  -23.5650  -14.2000   11.6130 N   0  0  0  0  0
  -22.6770  -13.4910   12.4010 C   0  0  0  0  0
  -23.0620  -13.0920   13.6130 N   0  0  0  0  0
  -21.0900  -13.1650   11.7650 S   0  0  0  0  0
  -20.5860  -11.5770   12.5180 C   0  0  0  0  0
  -19.4110  -11.0710   11.9490 C   0  0  0  0  0
  -19.4690  -10.2760   10.8140 C   0  0  0  0  0
  -18.3070   -9.7720   10.2460 C   0  0  0  0  0
  -17.0760  -10.0660   10.8130 C   0  0  0  0  0
  -15.9100   -9.5650   10.2500 C   0  0  0  0  0
  -17.0140  -10.8640   11.9480 C   0  0  0  0  0
  -18.1780  -11.3640   12.5140 C   0  0  0  0  0
  -24.5869  -12.0308   15.6208 H   0  0  0  0  0
  -24.5311  -13.6850   16.0965 H   0  0  0  0  0
  -26.4798  -15.2032   14.4171 H   0  0  0  0  0
  -27.2352  -14.0958   13.3375 H   0  0  0  0  0
  -26.8170  -12.2135   14.7610 H   0  0  0  0  0
  -26.9136  -13.4014   15.9475 H   0  0  0  0  0
  -23.2906  -14.5220   10.6849 H   0  0  0  0  0
  -20.4028  -11.7478   13.5788 H   0  0  0  0  0
  -21.3835  -10.8534   12.3490 H   0  0  0  0  0
  -20.4347  -10.0451   10.3644 H   0  0  0  0  0
  -18.3620   -9.1459    9.3554 H   0  0  0  0  0
  -15.8191   -9.9249    9.2251 H   0  0  0  0  0
  -15.9460   -8.4756   10.2521 H   0  0  0  0  0
  -15.0527   -9.9026   10.8323 H   0  0  0  0  0
  -16.0481  -11.0982   12.3955 H   0  0  0  0  0
  -18.1236  -11.9890   13.4054 H   0  0  0  0  0
  1  2  2  0  0  0
  2  3  1  0  0  0
  2  8  1  0  0  0
  3  4  2  0  0  0
  3  6  1  0  0  0
  4  5  1  0  0  0
  4 10  1  0  0  0
  5  7  1  0  0  0
  6  7  1  0  0  0
  8  9  1  0  0  0
  9 10  2  0  0  0
  9 11  1  0  0  0
 11 12  1  0  0  0
 12 13  1  0  0  0
 13 14  4  0  0  0
 13 19  4  0  0  0
 14 15  4  0  0  0
 15 16  4  0  0  0
 16 17  1  0  0  0
 16 18  4  0  0  0
 18 19  4  0  0  0
  5 20  1  0  0  0
  5 21  1  0  0  0
  6 22  1  0  0  0
  6 23  1  0  0  0
  7 24  1  0  0  0
  7 25  1  0  0  0
  8 26  1  0  0  0
 12 27  1  0  0  0
 12 28  1  0  0  0
 14 29  1  0  0  0
 15 30  1  0  0  0
 17 31  1  0  0  0
 17 32  1  0  0  0
 17 33  1  0  0  0
 18 34  1  0  0  0
 19 35  1  0  0  0
M  END
$$$$
