1oyq_ligand
  -I-interpret- 

 70 74  0  0  0  0  0  0  0  0999 V2000
   -5.0190   10.1310   19.8050 N   0  0  0  0  0
   -3.1090   10.8320   19.0180 N   0  0  0  0  0
   -3.7590    9.8110   19.5430 C   0  0  0  0  0
   -3.1990    8.5470   19.7670 C   0  0  0  0  0
   -3.9600    7.4910   20.3590 C   0  0  0  0  0
   -3.4050    6.2260   20.5810 C   0  0  0  0  0
   -2.0670    5.9600   20.2190 C   0  0  0  0  0
   -1.2860    6.9720   19.6350 C   0  0  0  0  0
   -1.8370    8.2440   19.4110 C   0  0  0  0  0
   -1.4620    4.6710   20.4280 N   0  0  0  0  0
   -1.9140    3.5810   21.3250 C   0  0  0  0  0
   -3.3210    4.2790   23.2760 N   0  0  0  0  0
   -2.0490    3.9470   22.8090 C   0  0  0  0  0
   -0.9360    3.9540   23.6790 N   0  0  0  0  0
   -1.6050    4.3430   24.8400 C   0  0  0  0  0
   -3.0180    4.5350   24.5940 C   0  0  0  0  0
   -1.0780    4.5600   26.1550 C   0  0  0  0  0
   -1.9480    4.9610   27.1810 C   0  0  0  0  0
   -3.3470    5.1540   26.9540 C   0  0  0  0  0
   -3.8870    4.9410   25.6560 C   0  0  0  0  0
    0.5100    3.6470   23.4490 C   0  0  0  0  0
   -5.7810    5.6030   28.0770 C   0  0  0  0  0
   -5.0300    6.9050   27.7080 C   0  0  0  0  0
   -4.2700    5.6670   28.1120 C   0  0  0  0  0
   -3.6240    5.2410   29.4620 C   0  0  0  0  0
   -3.7730    4.0090   29.8970 N   0  0  0  0  0
   -2.8060    6.2900   31.6930 N   0  0  0  0  0
   -2.7890    6.2830   30.2730 C   0  0  0  0  0
   -2.0000    7.2410   29.5940 C   0  0  0  0  0
   -1.2420    8.1850   30.3270 C   0  0  0  0  0
   -1.2610    8.1900   31.7450 C   0  0  0  0  0
   -2.0430    7.2420   32.4320 C   0  0  0  0  0
   -4.5710    3.0370   29.1000 O   0  0  0  0  0
   -4.6000    1.7620   29.7460 C   0  0  0  0  0
   -5.3700    0.7670   28.8600 C   0  0  0  0  0
   -6.0520   -0.1190   29.3960 O   0  0  0  0  0
   -5.2870    0.8810   27.4870 O   0  0  0  0  0
   -6.2810    0.2790   25.3430 C   0  0  0  0  0
   -6.0670   -0.1290   26.8150 C   0  0  0  0  0
   -5.3609   11.0691   19.5963 H   0  0  0  0  0
   -5.6462    9.4391   20.2152 H   0  0  0  0  0
   -2.1315   10.7286   18.7455 H   0  0  0  0  0
   -4.9958    7.6757   20.6437 H   0  0  0  0  0
   -4.0094    5.4414   21.0361 H   0  0  0  0  0
   -0.2520    6.7694   19.3558 H   0  0  0  0  0
   -1.2198    9.0195   18.9574 H   0  0  0  0  0
   -0.6152    4.4839   19.8910 H   0  0  0  0  0
   -1.1536    2.8020   21.2689 H   0  0  0  0  0
   -2.9109    3.2984   20.9866 H   0  0  0  0  0
   -0.0164    4.4157   26.3556 H   0  0  0  0  0
   -1.5457    5.1302   28.1798 H   0  0  0  0  0
   -4.9516    5.0854   25.4718 H   0  0  0  0  0
    0.6106    2.6203   23.0972 H   0  0  0  0  0
    0.9104    4.3300   22.6999 H   0  0  0  0  0
    1.0588    3.7678   24.3830 H   0  0  0  0  0
   -6.5713    4.9653   27.6810 H   0  0  0  0  0
   -6.6083    5.2776   28.7077 H   0  0  0  0  0
   -5.0588    7.9679   27.9479 H   0  0  0  0  0
   -5.0217    7.6540   26.9162 H   0  0  0  0  0
   -1.9758    7.2521   28.5043 H   0  0  0  0  0
   -0.6356    8.9178   29.7946 H   0  0  0  0  0
   -0.6743    8.9227   32.2991 H   0  0  0  0  0
   -2.0652    7.2356   33.5218 H   0  0  0  0  0
   -5.0951    1.8517   30.7129 H   0  0  0  0  0
   -3.5816    1.4050   29.8992 H   0  0  0  0  0
   -6.8094    1.2316   25.3045 H   0  0  0  0  0
   -5.3137    0.3785   24.8506 H   0  0  0  0  0
   -6.8706   -0.4857   24.8374 H   0  0  0  0  0
   -7.0340   -0.2283   27.3081 H   0  0  0  0  0
   -5.5383   -1.0814   26.8542 H   0  0  0  0  0
  3  1  1  0  0  0
  4  3  1  0  0  0
  5  4  4  0  0  0
  9  4  4  0  0  0
  6  5  4  0  0  0
  7  6  4  0  0  0
  7  8  4  0  0  0
 10  7  1  0  0  0
  8  9  4  0  0  0
 11 10  1  0  0  0
 13 11  1  0  0  0
 14 13  4  0  0  0
 15 14  4  0  0  0
 14 21  1  0  0  0
 16 15  4  0  0  0
 17 15  4  0  0  0
 20 16  4  0  0  0
 18 17  4  0  0  0
 19 18  4  0  0  0
 19 20  4  0  0  0
 24 19  1  0  0  0
 22 23  1  0  0  0
 24 22  1  0  0  0
 23 24  1  0  0  0
 24 25  1  0  0  0
 25 26  2  0  0  0
 25 28  1  0  0  0
 26 33  1  0  0  0
 28 29  4  0  0  0
 29 30  4  0  0  0
 30 31  4  0  0  0
 31 32  4  0  0  0
 33 34  1  0  0  0
 34 35  1  0  0  0
 35 36  2  0  0  0
 35 37  1  0  0  0
 37 39  1  0  0  0
 39 38  1  0  0  0
 32 27  4  0  0  0
 28 27  4  0  0  0
 16 12  4  0  0  0
 13 12  4  0  0  0
  3  2  2  0  0  0
  1 40  1  0  0  0
  1 41  1  0  0  0
  2 42  1  0  0  0
  5 43  1  0  0  0
  6 44  1  0  0  0
  8 45  1  0  0  0
  9 46  1  0  0  0
 10 47  1  0  0  0
 11 48  1  0  0  0
 11 49  1  0  0  0
 17 50  1  0  0  0
 18 51  1  0  0  0
 20 52  1  0  0  0
 21 53  1  0  0  0
 21 54  1  0  0  0
 21 55  1  0  0  0
 22 56  1  0  0  0
 22 57  1  0  0  0
 23 58  1  0  0  0
 23 59  1  0  0  0
 29 60  1  0  0  0
 30 61  1  0  0  0
 31 62  1  0  0  0
 32 63  1  0  0  0
 34 64  1  0  0  0
 34 65  1  0  0  0
 38 66  1  0  0  0
 38 67  1  0  0  0
 38 68  1  0  0  0
 39 69  1  0  0  0
 39 70  1  0  0  0
M  END
$$$$
