1jyc_ligand
  -I-interpret- 

233238  0  0  0  0  0  0  0  0999 V2000
   60.8100   21.4450  127.5200 N   0  3  0  0  0
   61.5100   22.7130  127.1340 C   0  0  0  0  0
   62.7600   22.4960  126.2860 C   0  0  0  0  0
   63.8390   22.2980  126.8660 O   0  0  0  0  0
   61.9100   23.5030  128.4050 C   0  0  0  0  0
   62.4970   22.6460  129.5530 C   0  0  0  0  0
   62.9900   23.5150  130.7110 C   0  0  0  0  0
   62.0020   24.5310  131.0740 N   0  0  0  0  0
   62.2190   25.5240  131.9350 C   0  0  0  0  0
   63.4010   25.6450  132.5340 N   0  0  0  0  0
   61.2520   26.4020  132.1930 N   0  0  0  0  0
   62.6360   22.5090  124.9490 N   0  0  0  0  0
   63.8240   22.3730  124.1180 C   0  0  0  0  0
   64.4960   23.6290  124.6260 C   0  0  0  0  0
   64.0080   24.7540  124.3980 O   0  0  0  0  0
   63.5850   22.5320  122.5890 C   0  0  0  0  0
   64.9130   22.3770  121.8500 C   0  0  0  0  0
   62.5820   21.5020  122.0860 C   0  0  0  0  0
   65.5300   23.4270  125.4190 N   0  0  0  0  0
   66.2900   24.5570  125.9250 C   0  0  0  0  0
   66.7420   25.3200  124.6910 C   0  0  0  0  0
   65.9220   26.0900  124.1240 O   0  0  0  0  0
   67.5260   24.0610  126.6720 C   0  0  0  0  0
   67.8220   24.6430  128.0120 C   0  0  0  0  0
   67.6310   24.0440  129.2200 C   0  0  0  0  0
   68.3310   25.9420  128.2860 C   0  0  0  0  0
   68.0000   24.8870  130.2410 N   0  0  0  0  0
   68.4470   26.0650  129.6900 C   0  0  0  0  0
   68.7390   27.0090  127.4850 C   0  0  0  0  0
   68.9000   27.2410  130.3100 C   0  0  0  0  0
   69.1910   28.1570  128.0930 C   0  0  0  0  0
   69.2860   28.2650  129.4900 C   0  0  0  0  0
   68.0250   25.2020  124.2580 N   0  0  0  0  0
   68.5280   25.9200  123.0480 C   0  0  0  0  0
   70.0150   26.3290  123.0950 C   0  0  0  0  0
   70.6420   26.4740  124.1400 O   0  0  0  0  0
   67.7960   27.2450  122.8250 C   0  0  0  0  0
   68.2840   28.2060  123.8640 C   0  0  0  0  0
   67.5990   28.2730  125.0600 C   0  0  0  0  0
   69.4100   29.0080  123.6740 C   0  0  0  0  0
   68.0530   29.0630  126.0660 C   0  0  0  0  0
   69.8920   29.7890  124.6970 C   0  0  0  0  0
   69.2040   29.8050  125.8830 C   0  0  0  0  0
   69.6770   30.5710  126.9340 O   0  0  0  0  0
   70.5090   26.4880  121.8940 N   0  0  0  0  0
   71.8760   26.8250  121.5120 C   0  0  0  0  0
   72.1930   28.2920  121.5720 C   0  0  0  0  0
   72.7140   28.7870  122.5740 O   0  0  0  0  0
   71.9810   26.3090  120.0720 C   0  0  0  0  0
   70.6200   25.7990  119.7350 C   0  0  0  0  0
   69.6660   26.4140  120.6980 C   0  0  0  0  0
   71.8790   28.9820  120.4850 N   0  0  0  0  0
   72.1520   30.3880  120.3390 C   0  0  0  0  0
   71.6590   31.4090  121.3460 C   0  0  0  0  0
   70.8530   32.2990  121.0600 O   0  0  0  0  0
   71.8770   30.8100  118.8890 C   0  0  0  0  0
   73.1700   30.6170  118.2010 C   0  0  0  0  0
   73.4600   29.4350  117.5120 C   0  0  0  0  0
   74.2180   31.4670  118.5220 C   0  0  0  0  0
   74.7690   29.1210  117.1700 C   0  0  0  0  0
   75.5060   31.1580  118.2080 C   0  0  0  0  0
   75.7940   29.9810  117.5350 C   0  0  0  0  0
   77.1080   29.6970  117.2290 O   0  0  0  0  0
   72.2330   31.2620  122.5370 N   0  0  0  0  0
   71.9710   32.1020  123.6850 C   0  0  0  0  0
   73.2650   32.0520  124.5030 C   0  0  0  0  0
   73.7310   30.9800  124.8540 O   0  0  0  0  0
   73.8300   33.1940  124.8500 N   0  0  0  0  0
   75.1210   33.2570  125.5720 C   0  0  0  0  0
   75.1820   32.4680  126.9310 C   0  0  0  0  0
   74.4040   31.5190  127.1100 O   0  0  0  0  0
   75.5030   34.7260  125.8170 C   0  0  0  0  0
   76.9100   34.8780  125.9060 O   0  0  0  0  0
   76.1300   32.8400  127.8540 N   0  0  0  0  0
   76.3500   32.1500  129.1560 C   0  0  0  0  0
   76.3730   33.0830  130.3730 C   0  0  0  0  0
   75.9670   34.2350  130.2540 O   0  0  0  0  0
   77.6710   31.3990  129.1130 C   0  0  0  0  0
   78.8170   32.0950  128.4070 C   0  0  0  0  0
   80.0960   32.1910  128.9990 C   0  0  0  0  0
   78.6690   32.6520  127.1450 C   0  0  0  0  0
   81.1710   32.7640  128.3200 C   0  0  0  0  0
   79.7320   33.2230  126.4670 C   0  0  0  0  0
   80.9930   33.2620  127.0570 C   0  0  0  0  0
   82.0550   33.8000  126.3840 O   0  0  0  0  0
   76.7600   32.5690  131.5450 N   0  0  0  0  0
   76.8390   33.3480  132.7880 C   0  0  0  0  0
   75.6730   33.1340  133.7630 C   0  0  0  0  0
   75.5660   32.0430  134.3130 O   0  0  0  0  0
   77.1140   34.8080  132.4700 C   0  0  0  0  0
   78.5670   35.2370  132.6910 C   0  0  0  0  0
   79.3250   35.2780  131.3760 C   0  0  0  0  0
   78.6390   36.5800  133.4080 C   0  0  0  0  0
   74.8330   34.0980  134.0070 N   0  0  0  0  0
   73.8050   33.8490  135.0050 C   0  0  0  0  0
   72.4510   33.4610  134.4290 C   0  0  0  0  0
   71.8780   34.1390  133.5800 O   0  0  0  0  0
   73.7520   35.0910  135.9600 C   0  0  0  0  0
   72.4990   35.0290  136.6440 O   0  0  0  0  0
   73.8660   36.4250  135.2480 C   0  0  0  0  0
   71.9010   32.3730  134.9810 N   0  0  0  0  0
   70.6120   31.8930  134.4770 C   0  0  0  0  0
   69.5380   31.4360  135.4930 C   0  0  0  0  0
   69.6100   31.7140  136.6970 O   0  0  0  0  0
   70.8310   30.7930  133.4770 C   0  0  0  0  0
   68.5350   30.7140  134.9830 N   0  0  0  0  0
   67.3950   30.2410  135.7720 C   0  0  0  0  0
   66.5780   29.1880  134.9870 C   0  0  0  0  0
   66.2710   29.4000  133.8120 O   0  0  0  0  0
   66.5140   31.4610  136.1180 C   0  0  0  0  0
   66.8200   32.6040  135.2990 O   0  0  0  0  0
   66.2240   28.0670  135.6230 N   0  0  0  0  0
   65.4350   27.0520  134.9240 C   0  0  0  0  0
   65.2730   25.6960  135.6010 C   0  0  0  0  0
   65.5950   25.5370  136.7880 O   0  0  0  0  0
   64.7720   24.7160  134.8430 N   0  0  0  0  0
   64.5570   23.3610  135.3670 C   0  0  0  0  0
   64.0310   22.3610  134.3210 C   0  0  0  0  0
   64.6440   21.2730  134.2080 O   0  0  0  0  0
   63.5870   23.4180  136.5620 C   0  0  0  0  0
   63.5020   22.1830  137.2620 O   0  0  0  0  0
   63.0130   22.6620  133.6470 O   0  0  0  0  0
   60.5504   20.9315  126.6778 H   0  0  0  0  0
   61.4340   20.8734  128.0894 H   0  0  0  0  0
   59.9710   21.6704  128.0545 H   0  0  0  0  0
   60.7984   23.2705  126.5250 H   0  0  0  0  0
   60.9988   23.9611  128.7896 H   0  0  0  0  0
   62.6894   24.2041  128.1065 H   0  0  0  0  0
   63.3435   22.0813  129.1623 H   0  0  0  0  0
   61.7124   21.9880  129.9267 H   0  0  0  0  0
   63.9059   24.0180  130.4008 H   0  0  0  0  0
   63.1616   22.8743  131.5760 H   0  0  0  0  0
   61.0821   24.4751  130.6370 H   0  0  0  0  0
   64.1447   24.9761  132.3345 H   0  0  0  0  0
   61.4180   27.1655  132.8487 H   0  0  0  0  0
   60.3452   26.3112  131.7350 H   0  0  0  0  0
   61.7170   22.6133  124.5189 H   0  0  0  0  0
   64.3195   21.4048  124.1899 H   0  0  0  0  0
   63.1743   23.5236  122.3987 H   0  0  0  0  0
   65.6092   23.1427  122.1921 H   0  0  0  0  0
   65.3277   21.3898  122.0539 H   0  0  0  0  0
   64.7463   22.4883  120.7786 H   0  0  0  0  0
   62.9645   20.4998  122.2793 H   0  0  0  0  0
   61.6333   21.6367  122.6056 H   0  0  0  0  0
   62.4330   21.6350  121.0145 H   0  0  0  0  0
   65.7964   22.4769  125.6773 H   0  0  0  0  0
   65.6971   25.1669  126.6066 H   0  0  0  0  0
   68.3721   24.3410  126.0444 H   0  0  0  0  0
   67.3458   23.0013  126.8530 H   0  0  0  0  0
   67.2398   23.0360  129.3580 H   0  0  0  0  0
   68.7003   26.9343  126.3983 H   0  0  0  0  0
   68.9420   27.3332  131.3953 H   0  0  0  0  0
   69.4832   29.0054  127.4742 H   0  0  0  0  0
   69.6752   29.1834  129.9294 H   0  0  0  0  0
   68.6666   24.6026  124.7770 H   0  0  0  0  0
   68.3597   25.1838  122.2620 H   0  0  0  0  0
   66.7183   27.1052  122.9098 H   0  0  0  0  0
   67.9969   27.6290  121.8248 H   0  0  0  0  0
   66.6891   27.6888  125.1975 H   0  0  0  0  0
   69.9114   29.0151  122.7062 H   0  0  0  0  0
   67.5133   29.1117  127.0117 H   0  0  0  0  0
   70.7983   30.3808  124.5688 H   0  0  0  0  0
   70.4766   31.0270  126.6616 H   0  0  0  0  0
   72.5906   26.3804  122.2047 H   0  0  0  0  0
   72.7357   25.5279  119.9802 H   0  0  0  0  0
   72.2952   27.0958  119.3863 H   0  0  0  0  0
   70.5897   24.7118  119.8073 H   0  0  0  0  0
   70.3546   26.0632  118.7114 H   0  0  0  0  0
   69.2624   27.3739  120.3758 H   0  0  0  0  0
   68.7438   25.8494  120.8356 H   0  0  0  0  0
   71.4220   28.4936  119.7149 H   0  0  0  0  0
   73.2066   30.4311  120.6113 H   0  0  0  0  0
   71.5257   31.8396  118.8209 H   0  0  0  0  0
   71.0790   30.2225  118.4350 H   0  0  0  0  0
   72.6524   28.7549  117.2413 H   0  0  0  0  0
   74.0054   32.4036  119.0374 H   0  0  0  0  0
   74.9889   28.2064  116.6194 H   0  0  0  0  0
   76.3120   31.8371  118.4862 H   0  0  0  0  0
   77.6715   30.4009  117.5586 H   0  0  0  0  0
   72.9055   30.5032  122.6486 H   0  0  0  0  0
   71.1124   31.7526  124.2584 H   0  0  0  0  0
   71.7113   33.1200  123.3946 H   0  0  0  0  0
   73.3587   34.0665  124.6114 H   0  0  0  0  0
   75.8344   32.7553  124.9182 H   0  0  0  0  0
   75.0563   35.0511  126.7566 H   0  0  0  0  0
   75.1389   35.3255  124.9826 H   0  0  0  0  0
   77.1219   35.8018  126.0587 H   0  0  0  0  0
   76.7217   33.6409  127.6331 H   0  0  0  0  0
   75.4980   31.4818  129.2817 H   0  0  0  0  0
   77.4812   30.4832  128.5531 H   0  0  0  0  0
   77.9837   31.2756  130.1499 H   0  0  0  0  0
   80.2460   31.8088  130.0087 H   0  0  0  0  0
   77.6864   32.6396  126.6734 H   0  0  0  0  0
   82.1512   32.8153  128.7939 H   0  0  0  0  0
   79.5823   33.6419  125.4719 H   0  0  0  0  0
   81.7653   34.1012  125.5197 H   0  0  0  0  0
   77.0144   31.5818  131.5779 H   0  0  0  0  0
   77.6866   32.9576  133.3512 H   0  0  0  0  0
   76.4973   35.4047  133.1421 H   0  0  0  0  0
   76.8936   34.9533  131.4125 H   0  0  0  0  0
   79.0435   34.4937  133.3301 H   0  0  0  0  0
   79.3164   34.2870  130.9221 H   0  0  0  0  0
   78.8465   35.9908  130.7044 H   0  0  0  0  0
   80.3543   35.5855  131.5608 H   0  0  0  0  0
   78.1382   37.3388  132.8067 H   0  0  0  0  0
   78.1470   36.4997  134.3773 H   0  0  0  0  0
   79.6831   36.8586  133.5510 H   0  0  0  0  0
   74.8933   34.9913  133.5183 H   0  0  0  0  0
   74.0765   32.9611  135.5759 H   0  0  0  0  0
   74.6100   35.0418  136.6304 H   0  0  0  0  0
   72.4252   35.7758  137.2427 H   0  0  0  0  0
   74.8152   36.4705  134.7140 H   0  0  0  0  0
   73.0439   36.5288  134.5398 H   0  0  0  0  0
   73.8206   37.2312  135.9802 H   0  0  0  0  0
   72.3728   31.8847  135.7422 H   0  0  0  0  0
   70.1836   32.7969  134.0440 H   0  0  0  0  0
   71.4240   31.1728  132.6450 H   0  0  0  0  0
   71.3600   29.9688  133.9555 H   0  0  0  0  0
   69.8673   30.4423  133.1077 H   0  0  0  0  0
   68.5652   30.4798  133.9907 H   0  0  0  0  0
   67.7506   29.7615  136.6840 H   0  0  0  0  0
   66.7009   31.7297  137.1577 H   0  0  0  0  0
   65.4734   31.1878  135.9429 H   0  0  0  0  0
   66.2508   33.3360  135.5476 H   0  0  0  0  0
   66.5030   27.9194  136.5929 H   0  0  0  0  0
   65.9695   26.8538  133.9950 H   0  0  0  0  0
   64.4287   27.4639  134.8483 H   0  0  0  0  0
   64.5318   24.9150  133.8719 H   0  0  0  0  0
   65.5355   22.9931  135.6757 H   0  0  0  0  0
   62.5949   23.6519  136.1758 H   0  0  0  0  0
   63.9578   24.1711  137.2574 H   0  0  0  0  0
   62.8871   22.2729  137.9937 H   0  0  0  0  0
   62.7119   23.5383  133.8982 H   0  0  0  0  0
  1  2  1  0  0  0
  2  3  1  0  0  0
  2  5  1  0  0  0
  3  4  2  0  0  0
  3 12  1  0  0  0
  5  6  1  0  0  0
  6  7  1  0  0  0
  7  8  1  0  0  0
  8  9  1  0  0  0
  9 10  2  0  0  0
  9 11  1  0  0  0
 12 13  1  0  0  0
 13 14  1  0  0  0
 13 16  1  0  0  0
 14 15  2  0  0  0
 14 19  1  0  0  0
 16 17  1  0  0  0
 16 18  1  0  0  0
 19 20  1  0  0  0
 20 21  1  0  0  0
 20 23  1  0  0  0
 21 22  2  0  0  0
 21 33  1  0  0  0
 23 24  1  0  0  0
 24 25  4  0  0  0
 24 26  4  0  0  0
 25 27  4  0  0  0
 26 28  4  0  0  0
 26 29  4  0  0  0
 27 28  4  0  0  0
 28 30  4  0  0  0
 29 31  4  0  0  0
 30 32  4  0  0  0
 31 32  4  0  0  0
 33 34  1  0  0  0
 34 35  1  0  0  0
 34 37  1  0  0  0
 35 36  2  0  0  0
 35 45  1  0  0  0
 37 38  1  0  0  0
 38 39  4  0  0  0
 38 40  4  0  0  0
 39 41  4  0  0  0
 40 42  4  0  0  0
 41 43  4  0  0  0
 42 43  4  0  0  0
 43 44  1  0  0  0
 45 46  1  0  0  0
 45 51  1  0  0  0
 46 47  1  0  0  0
 46 49  1  0  0  0
 47 48  2  0  0  0
 47 52  1  0  0  0
 49 50  1  0  0  0
 50 51  1  0  0  0
 52 53  1  0  0  0
 53 54  1  0  0  0
 53 56  1  0  0  0
 54 55  2  0  0  0
 54 64  1  0  0  0
 56 57  1  0  0  0
 57 58  4  0  0  0
 57 59  4  0  0  0
 58 60  4  0  0  0
 59 61  4  0  0  0
 60 62  4  0  0  0
 61 62  4  0  0  0
 62 63  1  0  0  0
 64 65  1  0  0  0
 65 66  1  0  0  0
 66 67  2  0  0  0
 66 68  1  0  0  0
 68 69  1  0  0  0
 69 70  1  0  0  0
 69 72  1  0  0  0
 70 71  2  0  0  0
 70 74  1  0  0  0
 72 73  1  0  0  0
 74 75  1  0  0  0
 75 76  1  0  0  0
 75 78  1  0  0  0
 76 77  2  0  0  0
 76 86  1  0  0  0
 78 79  1  0  0  0
 79 80  4  0  0  0
 79 81  4  0  0  0
 80 82  4  0  0  0
 81 83  4  0  0  0
 82 84  4  0  0  0
 83 84  4  0  0  0
 84 85  1  0  0  0
 86 87  1  0  0  0
 87 88  1  0  0  0
 87 90  1  0  0  0
 88 89  2  0  0  0
 88 94  1  0  0  0
 90 91  1  0  0  0
 91 92  1  0  0  0
 91 93  1  0  0  0
 94 95  1  0  0  0
 95 96  1  0  0  0
 95 98  1  0  0  0
 96 97  2  0  0  0
 96101  1  0  0  0
 98 99  1  0  0  0
 98100  1  0  0  0
101102  1  0  0  0
102103  1  0  0  0
102105  1  0  0  0
103104  2  0  0  0
103106  1  0  0  0
106107  1  0  0  0
107108  1  0  0  0
107110  1  0  0  0
108109  2  0  0  0
108112  1  0  0  0
110111  1  0  0  0
112113  1  0  0  0
113114  1  0  0  0
114115  2  0  0  0
114116  1  0  0  0
116117  1  0  0  0
117118  1  0  0  0
117120  1  0  0  0
118119  2  0  0  0
118122  1  0  0  0
120121  1  0  0  0
  1123  1  0  0  0
  1124  1  0  0  0
  1125  1  0  0  0
  2126  1  0  0  0
  5127  1  0  0  0
  5128  1  0  0  0
  6129  1  0  0  0
  6130  1  0  0  0
  7131  1  0  0  0
  7132  1  0  0  0
  8133  1  0  0  0
 10134  1  0  0  0
 11135  1  0  0  0
 11136  1  0  0  0
 12137  1  0  0  0
 13138  1  0  0  0
 16139  1  0  0  0
 17140  1  0  0  0
 17141  1  0  0  0
 17142  1  0  0  0
 18143  1  0  0  0
 18144  1  0  0  0
 18145  1  0  0  0
 19146  1  0  0  0
 20147  1  0  0  0
 23148  1  0  0  0
 23149  1  0  0  0
 25150  1  0  0  0
 29151  1  0  0  0
 30152  1  0  0  0
 31153  1  0  0  0
 32154  1  0  0  0
 33155  1  0  0  0
 34156  1  0  0  0
 37157  1  0  0  0
 37158  1  0  0  0
 39159  1  0  0  0
 40160  1  0  0  0
 41161  1  0  0  0
 42162  1  0  0  0
 44163  1  0  0  0
 46164  1  0  0  0
 49165  1  0  0  0
 49166  1  0  0  0
 50167  1  0  0  0
 50168  1  0  0  0
 51169  1  0  0  0
 51170  1  0  0  0
 52171  1  0  0  0
 53172  1  0  0  0
 56173  1  0  0  0
 56174  1  0  0  0
 58175  1  0  0  0
 59176  1  0  0  0
 60177  1  0  0  0
 61178  1  0  0  0
 63179  1  0  0  0
 64180  1  0  0  0
 65181  1  0  0  0
 65182  1  0  0  0
 68183  1  0  0  0
 69184  1  0  0  0
 72185  1  0  0  0
 72186  1  0  0  0
 73187  1  0  0  0
 74188  1  0  0  0
 75189  1  0  0  0
 78190  1  0  0  0
 78191  1  0  0  0
 80192  1  0  0  0
 81193  1  0  0  0
 82194  1  0  0  0
 83195  1  0  0  0
 85196  1  0  0  0
 86197  1  0  0  0
 87198  1  0  0  0
 90199  1  0  0  0
 90200  1  0  0  0
 91201  1  0  0  0
 92202  1  0  0  0
 92203  1  0  0  0
 92204  1  0  0  0
 93205  1  0  0  0
 93206  1  0  0  0
 93207  1  0  0  0
 94208  1  0  0  0
 95209  1  0  0  0
 98210  1  0  0  0
 99211  1  0  0  0
100212  1  0  0  0
100213  1  0  0  0
100214  1  0  0  0
101215  1  0  0  0
102216  1  0  0  0
105217  1  0  0  0
105218  1  0  0  0
105219  1  0  0  0
106220  1  0  0  0
107221  1  0  0  0
110222  1  0  0  0
110223  1  0  0  0
111224  1  0  0  0
112225  1  0  0  0
113226  1  0  0  0
113227  1  0  0  0
116228  1  0  0  0
117229  1  0  0  0
120230  1  0  0  0
120231  1  0  0  0
121232  1  0  0  0
122233  1  0  0  0
M  END
$$$$
