### 
### Created by X-TOOL on Mon Sep 10 21:12:49 2018
### 

@<TRIPOS>MOLECULE
1jyc_ligand
  234   239     1     0     0
SMALL
GAST_HUCK


@<TRIPOS>ATOM
      1 N          60.8100   21.4450  127.5200 N.4       1 ARG         0.2379
      2 CA         61.5100   22.7130  127.1340 C.3       1 ARG         0.0651
      3 C          62.7600   22.4960  126.2860 C.2       1 ARG         0.2267
      4 O          63.8390   22.2980  126.8660 O.2       1 ARG        -0.3907
      5 CB         61.9100   23.5030  128.4050 C.3       1 ARG         0.0110
      6 CG         62.4970   22.6460  129.5530 C.3       1 ARG        -0.0125
      7 CD         62.9900   23.5150  130.7110 C.3       1 ARG         0.0629
      8 NE         62.0020   24.5310  131.0740 N.pl3     1 ARG        -0.2723
      9 CZ         62.2190   25.5240  131.9350 C.cat     1 ARG         0.2882
     10 NH1        63.4010   25.6450  132.5340 N.pl3     1 ARG        -0.2849
     11 NH2        61.2520   26.4020  132.1930 N.pl3     1 ARG        -0.2849
     12 N          62.6360   22.5090  124.9490 N.am      1 VAL        -0.2608
     13 CA         63.8240   22.3730  124.1180 C.3       1 VAL         0.1334
     14 C          64.4960   23.6290  124.6260 C.2       1 VAL         0.2042
     15 O          64.0080   24.7540  124.3980 O.2       1 VAL        -0.3944
     16 CB         63.5850   22.5320  122.5890 C.3       1 VAL        -0.0063
     17 CG1        64.9130   22.3770  121.8500 C.3       1 VAL        -0.0584
     18 CG2        62.5820   21.5020  122.0860 C.3       1 VAL        -0.0584
     19 N          65.5300   23.4270  125.4190 N.am      1 TRP        -0.2627
     20 CA         66.2900   24.5570  125.9250 C.3       1 TRP         0.1352
     21 C          66.7420   25.3200  124.6910 C.2       1 TRP         0.2053
     22 O          65.9220   26.0900  124.1240 O.2       1 TRP        -0.3942
     23 CB         67.5260   24.0610  126.6720 C.3       1 TRP         0.0042
     24 CG         67.8220   24.6430  128.0120 C.2       1 TRP        -0.0418
     25 CD1        67.6310   24.0440  129.2200 C.2       1 TRP         0.0167
     26 CD2        68.3310   25.9420  128.2860 C.ar      1 TRP        -0.0214
     27 NE1        68.0000   24.8870  130.2410 N.pl3     1 TRP        -0.2890
     28 CE2        68.4470   26.0650  129.6900 C.ar      1 TRP         0.0603
     29 CE3        68.7390   27.0090  127.4850 C.ar      1 TRP        -0.0747
     30 CZ2        68.9000   27.2410  130.3100 C.ar      1 TRP        -0.0443
     31 CZ3        69.1910   28.1570  128.0930 C.ar      1 TRP        -0.0792
     32 CH2        69.2860   28.2650  129.4900 C.ar      1 TRP        -0.0768
     33 N          68.0250   25.2020  124.2580 N.am      1 TYR        -0.2620
     34 CA         68.5280   25.9200  123.0480 C.3       1 TYR         0.1392
     35 C          70.0150   26.3290  123.0950 C.2       1 TYR         0.2082
     36 O          70.6420   26.4740  124.1400 O.2       1 TYR        -0.3940
     37 CB         67.7960   27.2450  122.8250 C.3       1 TYR         0.0164
     38 CG         68.2840   28.2060  123.8640 C.ar      1 TYR        -0.0493
     39 CD1        67.5990   28.2730  125.0600 C.ar      1 TYR        -0.0685
     40 CD2        69.4100   29.0080  123.6740 C.ar      1 TYR        -0.0685
     41 CE1        68.0530   29.0630  126.0660 C.ar      1 TYR        -0.0398
     42 CE2        69.8920   29.7890  124.6970 C.ar      1 TYR        -0.0398
     43 CZ         69.2040   29.8050  125.8830 C.ar      1 TYR         0.0805
     44 OH         69.6770   30.5710  126.9340 O.3       1 TYR        -0.3376
     45 N          70.5090   26.4880  121.8940 N.am      1 PRO        -0.2497
     46 CA         71.8760   26.8250  121.5120 C.3       1 PRO         0.1338
     47 C          72.1930   28.2920  121.5720 C.2       1 PRO         0.2042
     48 O          72.7140   28.7870  122.5740 O.2       1 PRO        -0.3944
     49 CB         71.9810   26.3090  120.0720 C.3       1 PRO        -0.0104
     50 CG         70.6200   25.7990  119.7350 C.3       1 PRO        -0.0281
     51 CD         69.6660   26.4140  120.6980 C.3       1 PRO         0.0369
     52 N          71.8790   28.9820  120.4850 N.am      1 TYR        -0.2621
     53 CA         72.1520   30.3880  120.3390 C.3       1 TYR         0.1390
     54 C          71.6590   31.4090  121.3460 C.2       1 TYR         0.2055
     55 O          70.8530   32.2990  121.0600 O.2       1 TYR        -0.3942
     56 CB         71.8770   30.8100  118.8890 C.3       1 TYR         0.0163
     57 CG         73.1700   30.6170  118.2010 C.ar      1 TYR        -0.0493
     58 CD1        73.4600   29.4350  117.5120 C.ar      1 TYR        -0.0685
     59 CD2        74.2180   31.4670  118.5220 C.ar      1 TYR        -0.0685
     60 CE1        74.7690   29.1210  117.1700 C.ar      1 TYR        -0.0398
     61 CE2        75.5060   31.1580  118.2080 C.ar      1 TYR        -0.0398
     62 CZ         75.7940   29.9810  117.5350 C.ar      1 TYR         0.0805
     63 OH         77.1080   29.6970  117.2290 O.3       1 TYR        -0.3376
     64 N          72.2330   31.2620  122.5370 N.am      1 GLY        -0.2663
     65 CA         71.9710   32.1020  123.6850 C.3       1 GLY         0.1201
     66 C          73.2650   32.0520  124.5030 C.2       1 GLY         0.2008
     67 O          73.7310   30.9800  124.8540 O.2       1 GLY        -0.3947
     68 N          73.8300   33.1940  124.8500 N.am      1 SER        -0.2618
     69 CA         75.1210   33.2570  125.5720 C.3       1 SER         0.1539
     70 C          75.1820   32.4680  126.9310 C.2       1 SER         0.2063
     71 O          74.4040   31.5190  127.1100 O.2       1 SER        -0.3943
     72 CB         75.5030   34.7260  125.8170 C.3       1 SER         0.0843
     73 OG         76.9100   34.8780  125.9060 O.3       1 SER        -0.3903
     74 N          76.1300   32.8400  127.8540 N.am      1 TYR        -0.2621
     75 CA         76.3500   32.1500  129.1560 C.3       1 TYR         0.1390
     76 C          76.3730   33.0830  130.3730 C.2       1 TYR         0.2057
     77 O          75.9670   34.2350  130.2540 O.2       1 TYR        -0.3942
     78 CB         77.6710   31.3990  129.1130 C.3       1 TYR         0.0163
     79 CG         78.8170   32.0950  128.4070 C.ar      1 TYR        -0.0493
     80 CD1        80.0960   32.1910  128.9990 C.ar      1 TYR        -0.0685
     81 CD2        78.6690   32.6520  127.1450 C.ar      1 TYR        -0.0685
     82 CE1        81.1710   32.7640  128.3200 C.ar      1 TYR        -0.0398
     83 CE2        79.7320   33.2230  126.4670 C.ar      1 TYR        -0.0398
     84 CZ         80.9930   33.2620  127.0570 C.ar      1 TYR         0.0805
     85 OH         82.0550   33.8000  126.3840 O.3       1 TYR        -0.3376
     86 N          76.7600   32.5690  131.5450 N.am      1 LEU        -0.2636
     87 CA         76.8390   33.3480  132.7880 C.3       1 LEU         0.1312
     88 C          75.6730   33.1340  133.7630 C.2       1 LEU         0.2040
     89 O          75.5660   32.0430  134.3130 O.2       1 LEU        -0.3944
     90 CB         77.1140   34.8080  132.4700 C.3       1 LEU        -0.0101
     91 CG         78.5670   35.2370  132.6910 C.3       1 LEU        -0.0425
     92 CD1        79.3250   35.2780  131.3760 C.3       1 LEU        -0.0625
     93 CD2        78.6390   36.5800  133.4080 C.3       1 LEU        -0.0625
     94 N          74.8330   34.0980  134.0070 N.am      1 THR        -0.2613
     95 CA         73.8050   33.8490  135.0050 C.3       1 THR         0.1565
     96 C          72.4510   33.4610  134.4290 C.2       1 THR         0.2065
     97 O          71.8780   34.1390  133.5800 O.2       1 THR        -0.3943
     98 CB         73.7520   35.0910  135.9600 C.3       1 THR         0.0924
     99 OG1        72.4990   35.0290  136.6440 O.3       1 THR        -0.3874
    100 CG2        73.8660   36.4250  135.2480 C.3       1 THR        -0.0346
    101 N          71.9010   32.3730  134.9810 N.am      1 ALA        -0.2639
    102 CA         70.6120   31.8930  134.4770 C.3       1 ALA         0.1282
    103 C          69.5380   31.4360  135.4930 C.2       1 ALA         0.2037
    104 O          69.6100   31.7140  136.6970 O.2       1 ALA        -0.3944
    105 CB         70.8310   30.7930  133.4770 C.3       1 ALA        -0.0244
    106 N          68.5350   30.7140  134.9830 N.am      1 SER        -0.2616
    107 CA         67.3950   30.2410  135.7720 C.3       1 SER         0.1539
    108 C          66.5780   29.1880  134.9870 C.2       1 SER         0.2060
    109 O          66.2710   29.4000  133.8120 O.2       1 SER        -0.3943
    110 CB         66.5140   31.4610  136.1180 C.3       1 SER         0.0843
    111 OG         66.8200   32.6040  135.2990 O.3       1 SER        -0.3903
    112 N          66.2240   28.0670  135.6230 N.am      1 GLY        -0.2663
    113 CA         65.4350   27.0520  134.9240 C.3       1 GLY         0.1201
    114 C          65.2730   25.6960  135.6010 C.2       1 GLY         0.2003
    115 O          65.5950   25.5370  136.7880 O.2       1 GLY        -0.3947
    116 N          64.7720   24.7160  134.8430 N.am      1 SER        -0.2675
    117 CA         64.5570   23.3610  135.3670 C.3       1 SER         0.1173
    118 C          64.0310   22.3610  134.3210 C.2       1 SER         0.0623
    119 O          64.6440   21.2730  134.2080 O.co2     1 SER        -0.5665
    120 CB         63.5870   23.4180  136.5620 C.3       1 SER         0.0789
    121 OG         63.5020   22.1830  137.2620 O.3       1 SER        -0.3910
    122 OXT        63.0130   22.6620  133.6470 O.co2     1 SER        -0.5665
    123 H1         59.9983   21.6651  128.0757 H         1 ARG         0.2015
    124 H2         61.4366   20.8649  128.0556 H         1 ARG         0.2015
    125 H3         60.5242   20.9524  126.6883 H         1 ARG         0.2015
    126 H4         60.8037   23.3195  126.5481 H         1 ARG         0.1098
    127 H5         61.0130   24.0137  128.7853 H         1 ARG         0.0347
    128 H6         62.6639   24.2509  128.1183 H         1 ARG         0.0347
    129 H7         63.3413   22.0583  129.1636 H         1 ARG         0.0302
    130 H8         61.7170   21.9654  129.9248 H         1 ARG         0.0302
    131 H9         63.9233   24.0143  130.4117 H         1 ARG         0.0689
    132 H10        63.1809   22.8735  131.5839 H         1 ARG         0.0689
    133 H11        61.0730   24.4745  130.6327 H         1 ARG         0.2642
    134 H12        63.5649   26.4142  133.1991 H         1 ARG         0.2615
    135 H13        64.1520   24.9695  132.3325 H         1 ARG         0.2615
    136 H14        60.3363   26.3103  131.7305 H         1 ARG         0.2615
    137 H15        61.4196   27.1730  132.8551 H         1 ARG         0.2615
    138 H16        61.7350   22.6113  124.5274 H         1 VAL         0.1885
    139 H17        64.3818   21.4472  124.3223 H         1 VAL         0.0802
    140 H18        63.1835   23.5377  122.3955 H         1 VAL         0.0343
    141 H19        64.7460   22.4891  120.7685 H         1 VAL         0.0234
    142 H20        65.3326   21.3810  122.0549 H         1 VAL         0.0234
    143 H21        65.6166   23.1492  122.1944 H         1 VAL         0.0234
    144 H22        61.6306   21.6231  122.6248 H         1 VAL         0.0234
    145 H23        62.9763   20.4902  122.2613 H         1 VAL         0.0234
    146 H24        62.4146   21.6488  121.0088 H         1 VAL         0.0234
    147 H25        65.7911   22.4955  125.6722 H         1 TRP         0.1884
    148 H26        65.6722   25.1872  126.5816 H         1 TRP         0.0815
    149 H27        68.3967   24.2613  126.0303 H         1 TRP         0.0397
    150 H28        67.4116   22.9753  126.8065 H         1 TRP         0.0397
    151 H29        67.2402   23.0369  129.3579 H         1 TRP         0.0795
    152 H30        67.9502   24.6729  131.2473 H         1 TRP         0.2216
    153 H31        68.7005   26.9347  126.4042 H         1 TRP         0.0540
    154 H32        68.9417   27.3327  131.3893 H         1 TRP         0.0541
    155 H33        69.4816   29.0007  127.4776 H         1 TRP         0.0510
    156 H34        69.6731   29.1784  129.9270 H         1 TRP         0.0530
    157 H35        68.6541   24.6143  124.7668 H         1 TYR         0.1885
    158 H36        68.3669   25.2589  122.1838 H         1 TYR         0.0821
    159 H37        66.7110   27.0974  122.9294 H         1 TYR         0.0453
    160 H38        68.0183   27.6330  121.8200 H         1 TYR         0.0453
    161 H39        66.6941   27.6920  125.1967 H         1 TYR         0.0530
    162 H40        69.9087   29.0151  122.7115 H         1 TYR         0.0530
    163 H41        67.5162   29.1114  127.0065 H         1 TYR         0.0525
    164 H42        70.7934   30.3775  124.5695 H         1 TYR         0.0525
    165 H43        69.7107   31.4829  126.6697 H         1 TYR         0.2458
    166 H44        72.5842   26.2922  122.1636 H         1 PRO         0.0802
    167 H45        72.7228   25.4994  120.0062 H         1 PRO         0.0313
    168 H46        72.2663   27.1241  119.3907 H         1 PRO         0.0313
    169 H47        70.5949   24.7032  119.8281 H         1 PRO         0.0287
    170 H48        70.3544   26.0859  118.7068 H         1 PRO         0.0287
    171 H49        69.3409   27.4115  120.3673 H         1 PRO         0.0524
    172 H50        68.7846   25.7762  120.8606 H         1 PRO         0.0524
    173 H51        71.4310   28.5031  119.7300 H         1 TYR         0.1885
    174 H52        73.2446   30.4460  120.4524 H         1 TYR         0.0821
    175 H53        71.5644   31.8636  118.8424 H         1 TYR         0.0453
    176 H54        71.0982   30.1762  118.4398 H         1 TYR         0.0453
    177 H55        72.6568   28.7586  117.2428 H         1 TYR         0.0530
    178 H56        74.0066   32.3985  119.0345 H         1 TYR         0.0530
    179 H57        74.9877   28.2114  116.6224 H         1 TYR         0.0525
    180 H58        76.3075   31.8333  118.4847 H         1 TYR         0.0525
    181 H59        77.1529   28.8655  116.7718 H         1 TYR         0.2458
    182 H60        72.8923   30.5181  122.6464 H         1 GLY         0.1881
    183 H61        71.1265   31.7084  124.2697 H         1 GLY         0.0763
    184 H62        71.7503   33.1325  123.3700 H         1 GLY         0.0763
    185 H63        73.3679   34.0494  124.6160 H         1 SER         0.1884
    186 H64        75.8787   32.8124  124.9100 H         1 SER         0.0823
    187 H65        75.0446   35.0646  126.7578 H         1 SER         0.0606
    188 H66        75.1271   35.3389  124.9845 H         1 SER         0.0606
    189 H67        77.1197   35.7922  126.0572 H         1 SER         0.2097
    190 H68        76.7101   33.6252  127.6375 H         1 TYR         0.1885
    191 H69        75.5316   31.4285  129.2958 H         1 TYR         0.0821
    192 H70        77.4952   30.4409  128.6021 H         1 TYR         0.0453
    193 H71        77.9826   31.2094  130.1508 H         1 TYR         0.0453
    194 H72        80.2452   31.8109  130.0032 H         1 TYR         0.0530
    195 H73        77.6918   32.6396  126.6760 H         1 TYR         0.0530
    196 H74        82.1458   32.8150  128.7913 H         1 TYR         0.0525
    197 H75        79.5832   33.6396  125.4774 H         1 TYR         0.0525
    198 H76        81.8715   34.7096  126.1803 H         1 TYR         0.2458
    199 H77        77.0094   31.6011  131.5772 H         1 LEU         0.1883
    200 H78        77.7288   32.9785  133.3188 H         1 LEU         0.0800
    201 H79        76.4703   35.4277  133.1115 H         1 LEU         0.0315
    202 H80        76.8591   34.9849  131.4147 H         1 LEU         0.0315
    203 H81        79.0472   34.4852  133.3345 H         1 LEU         0.0298
    204 H82        80.3640   35.5882  131.5612 H         1 LEU         0.0232
    205 H83        78.8431   35.9971  130.6972 H         1 LEU         0.0232
    206 H84        79.3172   34.2784  130.9169 H         1 LEU         0.0232
    207 H85        78.0825   36.5204  134.3549 H         1 LEU         0.0232
    208 H86        78.1963   37.3599  132.7711 H         1 LEU         0.0232
    209 H87        79.6901   36.8290  133.6156 H         1 LEU         0.0232
    210 H88        74.8922   34.9738  133.5279 H         1 THR         0.1884
    211 H89        74.1371   32.9891  135.6053 H         1 THR         0.0826
    212 H90        74.5758   35.0154  136.6850 H         1 THR         0.0639
    213 H91        71.7918   35.0586  136.0103 H         1 THR         0.2101
    214 H92        73.8203   37.2395  135.9859 H         1 THR         0.0257
    215 H93        73.0369   36.5311  134.5330 H         1 THR         0.0257
    216 H94        74.8236   36.4722  134.7087 H         1 THR         0.0257
    217 H95        72.3636   31.8943  135.7272 H         1 ALA         0.1883
    218 H96        70.1705   32.7453  133.9397 H         1 ALA         0.0797
    219 H97        69.8591   30.4382  133.1035 H         1 ALA         0.0277
    220 H98        71.3648   29.9605  133.9586 H         1 ALA         0.0277
    221 H99        71.4293   31.1750  132.6368 H         1 ALA         0.0277
    222 H100       68.5646   30.4844  134.0102 H         1 SER         0.1884
    223 H101       67.7629   29.7822  136.7016 H         1 SER         0.0823
    224 H102       66.6769   31.7275  137.1727 H         1 SER         0.0606
    225 H103       65.4587   31.1898  135.9671 H         1 SER         0.0606
    226 H104       67.7285   32.8501  135.4274 H         1 SER         0.2097
    227 H105       66.4976   27.9223  136.5739 H         1 GLY         0.1881
    228 H106       65.9123   26.8780  133.9484 H         1 GLY         0.0763
    229 H107       64.4275   27.4659  134.7707 H         1 GLY         0.0763
    230 H108       64.5366   24.9111  133.8909 H         1 SER         0.1876
    231 H109       65.5273   22.9862  135.7249 H         1 SER         0.0749
    232 H110       62.5858   23.6806  136.1898 H         1 SER         0.0599
    233 H111       63.9341   24.1943  137.2598 H         1 SER         0.0599
    234 H112       62.8935   22.2719  137.9861 H         1 SER         0.2096
@<TRIPOS>BOND
     1    1    2 1  
     2    2    3 1  
     3    2    5 1  
     4    3    4 2  
     5    3   12 am 
     6    5    6 1  
     7    6    7 1  
     8    7    8 1  
     9    8    9 ar 
    10    9   10 ar 
    11    9   11 ar 
    12   12   13 1  
    13   13   14 1  
    14   13   16 1  
    15   14   15 2  
    16   14   19 am 
    17   16   17 1  
    18   16   18 1  
    19   19   20 1  
    20   20   21 1  
    21   20   23 1  
    22   21   22 2  
    23   21   33 am 
    24   23   24 1  
    25   24   25 2  
    26   24   26 1  
    27   25   27 1  
    28   26   28 ar 
    29   26   29 ar 
    30   27   28 1  
    31   28   30 ar 
    32   29   31 ar 
    33   30   32 ar 
    34   31   32 ar 
    35   33   34 1  
    36   34   35 1  
    37   34   37 1  
    38   35   36 2  
    39   35   45 am 
    40   37   38 1  
    41   38   39 ar 
    42   38   40 ar 
    43   39   41 ar 
    44   40   42 ar 
    45   41   43 ar 
    46   42   43 ar 
    47   43   44 1  
    48   45   46 1  
    49   45   51 1  
    50   46   47 1  
    51   46   49 1  
    52   47   48 2  
    53   47   52 am 
    54   49   50 1  
    55   50   51 1  
    56   52   53 1  
    57   53   54 1  
    58   53   56 1  
    59   54   55 2  
    60   54   64 am 
    61   56   57 1  
    62   57   58 ar 
    63   57   59 ar 
    64   58   60 ar 
    65   59   61 ar 
    66   60   62 ar 
    67   61   62 ar 
    68   62   63 1  
    69   64   65 1  
    70   65   66 1  
    71   66   67 2  
    72   66   68 am 
    73   68   69 1  
    74   69   70 1  
    75   69   72 1  
    76   70   71 2  
    77   70   74 am 
    78   72   73 1  
    79   74   75 1  
    80   75   76 1  
    81   75   78 1  
    82   76   77 2  
    83   76   86 am 
    84   78   79 1  
    85   79   80 ar 
    86   79   81 ar 
    87   80   82 ar 
    88   81   83 ar 
    89   82   84 ar 
    90   83   84 ar 
    91   84   85 1  
    92   86   87 1  
    93   87   88 1  
    94   87   90 1  
    95   88   89 2  
    96   88   94 am 
    97   90   91 1  
    98   91   92 1  
    99   91   93 1  
   100   94   95 1  
   101   95   96 1  
   102   95   98 1  
   103   96   97 2  
   104   96  101 am 
   105   98   99 1  
   106   98  100 1  
   107  101  102 1  
   108  102  103 1  
   109  102  105 1  
   110  103  104 2  
   111  103  106 am 
   112  106  107 1  
   113  107  108 1  
   114  107  110 1  
   115  108  109 2  
   116  108  112 am 
   117  110  111 1  
   118  112  113 1  
   119  113  114 1  
   120  114  115 2  
   121  114  116 am 
   122  116  117 1  
   123  117  118 1  
   124  117  120 1  
   125  118  119 ar 
   126  118  122 ar 
   127  120  121 1  
   128    1  123 1  
   129    1  124 1  
   130    1  125 1  
   131    2  126 1  
   132    5  127 1  
   133    5  128 1  
   134    6  129 1  
   135    6  130 1  
   136    7  131 1  
   137    7  132 1  
   138    8  133 1  
   139   10  134 1  
   140   10  135 1  
   141   11  136 1  
   142   11  137 1  
   143   12  138 1  
   144   13  139 1  
   145   16  140 1  
   146   17  141 1  
   147   17  142 1  
   148   17  143 1  
   149   18  144 1  
   150   18  145 1  
   151   18  146 1  
   152   19  147 1  
   153   20  148 1  
   154   23  149 1  
   155   23  150 1  
   156   25  151 1  
   157   27  152 1  
   158   29  153 1  
   159   30  154 1  
   160   31  155 1  
   161   32  156 1  
   162   33  157 1  
   163   34  158 1  
   164   37  159 1  
   165   37  160 1  
   166   39  161 1  
   167   40  162 1  
   168   41  163 1  
   169   42  164 1  
   170   44  165 1  
   171   46  166 1  
   172   49  167 1  
   173   49  168 1  
   174   50  169 1  
   175   50  170 1  
   176   51  171 1  
   177   51  172 1  
   178   52  173 1  
   179   53  174 1  
   180   56  175 1  
   181   56  176 1  
   182   58  177 1  
   183   59  178 1  
   184   60  179 1  
   185   61  180 1  
   186   63  181 1  
   187   64  182 1  
   188   65  183 1  
   189   65  184 1  
   190   68  185 1  
   191   69  186 1  
   192   72  187 1  
   193   72  188 1  
   194   73  189 1  
   195   74  190 1  
   196   75  191 1  
   197   78  192 1  
   198   78  193 1  
   199   80  194 1  
   200   81  195 1  
   201   82  196 1  
   202   83  197 1  
   203   85  198 1  
   204   86  199 1  
   205   87  200 1  
   206   90  201 1  
   207   90  202 1  
   208   91  203 1  
   209   92  204 1  
   210   92  205 1  
   211   92  206 1  
   212   93  207 1  
   213   93  208 1  
   214   93  209 1  
   215   94  210 1  
   216   95  211 1  
   217   98  212 1  
   218   99  213 1  
   219  100  214 1  
   220  100  215 1  
   221  100  216 1  
   222  101  217 1  
   223  102  218 1  
   224  105  219 1  
   225  105  220 1  
   226  105  221 1  
   227  106  222 1  
   228  107  223 1  
   229  110  224 1  
   230  110  225 1  
   231  111  226 1  
   232  112  227 1  
   233  113  228 1  
   234  113  229 1  
   235  116  230 1  
   236  117  231 1  
   237  120  232 1  
   238  120  233 1  
   239  121  234 1  
@<TRIPOS>SUBSTRUCTURE
     1 ARG         1

