5gmm_ligand
  -I-interpret- 

 41 43  0  0  0  0  0  0  0  0999 V2000
   -3.3290    1.1940  -29.4470 C   0  0  0  0  0
   -3.9420    1.9510  -28.4510 C   0  0  0  0  0
   -3.2300    3.1030  -30.9020 C   0  0  0  0  0
   -4.1650    3.3090  -28.6650 C   0  0  0  0  0
   -1.9290    4.5070  -34.1160 C   0  0  0  0  0
   -1.6210    5.6190  -33.1610 C   0  0  0  0  0
   -4.3010    1.7080  -34.1330 C   0  0  0  0  0
   -4.6150    0.5480  -34.8120 C   0  0  0  0  0
   -3.6490   -0.1720  -35.5120 C   0  0  0  0  0
   -2.3470    0.3010  -35.5200 C   0  0  0  0  0
   -2.0290    1.4700  -34.8400 C   0  0  0  0  0
   -3.0030    2.1700  -34.1470 C   0  0  0  0  0
   -2.9670    1.7630  -30.6690 C   0  0  0  0  0
   -2.7980    3.7990  -32.1640 C   0  0  0  0  0
   -2.6250    3.4280  -33.4350 C   0  0  0  0  0
   -3.8110    3.8740  -29.8890 C   0  0  0  0  0
   -0.1210    5.7430  -32.9070 C   0  0  0  0  0
   -2.2670    6.9100  -33.6330 C   0  0  0  0  0
   -5.8760    0.1220  -34.7780 F   0  0  0  0  0
   -1.6630    4.5370  -35.3040 O   0  0  0  0  0
   -2.2690    5.1360  -31.9900 O   0  0  0  0  0
   -4.3120    1.2940  -27.0320 S   0  0  0  0  0
   -3.0790    1.2640  -26.3390 O   0  0  0  0  0
   -4.8620   -0.2100  -27.1410 N   0  0  0  0  0
   -5.2550    2.1170  -26.3150 O   0  0  0  0  0
   -3.1283    0.1376  -29.2686 H   0  0  0  0  0
   -4.6117    3.9236  -27.8834 H   0  0  0  0  0
   -5.0730    2.2537  -33.5905 H   0  0  0  0  0
   -3.9121   -1.0875  -36.0418 H   0  0  0  0  0
   -1.5723   -0.2438  -36.0596 H   0  0  0  0  0
   -1.0037    1.8398  -34.8519 H   0  0  0  0  0
   -2.4811    1.1576  -31.4342 H   0  0  0  0  0
   -3.9899    4.9355  -30.0602 H   0  0  0  0  0
    0.3790    6.0396  -33.8290 H   0  0  0  0  0
    0.0551    6.4956  -32.1384 H   0  0  0  0  0
    0.2703    4.7821  -32.5728 H   0  0  0  0  0
   -2.1272    7.6824  -32.8767 H   0  0  0  0  0
   -1.8033    7.2264  -34.5673 H   0  0  0  0  0
   -3.3325    6.7445  -33.7925 H   0  0  0  0  0
   -4.3258   -0.9794  -26.7399 H   0  0  0  0  0
   -5.7477   -0.3963  -27.6114 H   0  0  0  0  0
  1  2  4  0  0  0
 13  1  4  0  0  0
  4  2  4  0  0  0
  2 22  1  0  0  0
  3 13  4  0  0  0
 14  3  1  0  0  0
  3 16  4  0  0  0
 16  4  4  0  0  0
  5  6  1  0  0  0
 15  5  1  0  0  0
  5 20  2  0  0  0
  6 17  1  0  0  0
  6 18  1  0  0  0
  6 21  1  0  0  0
  7  8  4  0  0  0
 12  7  4  0  0  0
  8  9  4  0  0  0
  8 19  1  0  0  0
 10  9  4  0  0  0
 11 10  4  0  0  0
 12 11  4  0  0  0
 15 12  1  0  0  0
 14 15  2  0  0  0
 14 21  1  0  0  0
 22 23  2  0  0  0
 22 24  1  0  0  0
 22 25  2  0  0  0
  1 26  1  0  0  0
  4 27  1  0  0  0
  7 28  1  0  0  0
  9 29  1  0  0  0
 10 30  1  0  0  0
 11 31  1  0  0  0
 13 32  1  0  0  0
 16 33  1  0  0  0
 17 34  1  0  0  0
 17 35  1  0  0  0
 17 36  1  0  0  0
 18 37  1  0  0  0
 18 38  1  0  0  0
 18 39  1  0  0  0
 24 40  1  0  0  0
 24 41  1  0  0  0
M  END
$$$$
