2jjb_ligand
  -I-interpret- 

 51 53  0  0  0  0  0  0  0  0999 V2000
   -6.2250  -33.8360   45.0860 O   0  0  0  0  0
   -5.7560  -34.4580   43.8760 C   0  0  0  0  0
   -6.8140  -34.2240   42.7990 C   0  0  0  0  0
   -6.9550  -35.3600   41.7760 C   0  0  0  0  0
   -8.0630  -36.2200   42.0480 O   0  0  0  0  0
   -7.1090  -34.6490   40.4240 C   0  0  0  0  0
   -6.8160  -35.5040   39.2950 O   0  0  0  0  0
   -6.0060  -33.5830   40.4870 C   0  0  0  0  0
   -6.1400  -32.4130   39.4900 C   0  0  0  0  0
   -7.3970  -31.8030   39.5920 O   0  0  0  0  0
   -6.0530  -33.3090   41.9380 N   0  3  0  0  0
   -5.0810  -32.5080   42.6640 C   0  0  0  0  0
   -4.4790  -33.7090   43.4300 C   0  0  0  0  0
   -2.7670  -34.4590   41.7860 C   0  0  0  0  0
   -2.1980  -35.6990   41.0850 C   0  0  0  0  0
   -1.3770  -36.5670   42.0620 C   0  0  0  0  0
   -0.2710  -35.6850   42.6720 C   0  0  0  0  0
   -0.8820  -34.4710   43.3710 C   0  0  0  0  0
    0.1820  -33.4920   43.9130 C   0  0  0  0  0
   -3.8180  -34.7830   42.6870 O   0  0  0  0  0
   -3.2600  -36.3910   40.4530 O   0  0  0  0  0
   -0.7910  -37.6460   41.3750 O   0  0  0  0  0
    0.5340  -36.4300   43.5730 O   0  0  0  0  0
   -1.7390  -33.7660   42.4800 O   0  0  0  0  0
   -0.4270  -32.3290   44.4920 O   0  0  0  0  0
   -7.0199  -34.2825   45.3867 H   0  0  0  0  0
   -5.5648  -35.5204   44.0275 H   0  0  0  0  0
   -7.7708  -33.9929   43.2673 H   0  0  0  0  0
   -6.0903  -36.0230   41.8023 H   0  0  0  0  0
   -7.9341  -36.6469   42.8981 H   0  0  0  0  0
   -8.1284  -34.2897   40.2833 H   0  0  0  0  0
   -7.4898  -36.1845   39.2270 H   0  0  0  0  0
   -5.0163  -33.8778   40.1383 H   0  0  0  0  0
   -6.0228  -32.8022   38.4786 H   0  0  0  0  0
   -5.3738  -31.6719   39.7177 H   0  0  0  0  0
   -7.4529  -31.0805   38.9623 H   0  0  0  0  0
   -6.6133  -32.5181   41.6203 H   0  0  0  0  0
   -5.4596  -31.6746   43.2557 H   0  0  0  0  0
   -4.3979  -31.8944   42.0767 H   0  0  0  0  0
   -3.7458  -33.2850   44.1161 H   0  0  0  0  0
   -3.1823  -33.8178   41.0085 H   0  0  0  0  0
   -1.4893  -35.4070   40.3100 H   0  0  0  0  0
   -2.0258  -36.9633   42.8431 H   0  0  0  0  0
    0.3689  -35.3328   41.8629 H   0  0  0  0  0
   -1.4457  -34.8591   44.2194 H   0  0  0  0  0
    0.8165  -33.1758   43.0851 H   0  0  0  0  0
    0.7612  -34.0006   44.6837 H   0  0  0  0  0
   -2.9145  -37.1698   40.0106 H   0  0  0  0  0
   -0.2833  -38.1786   41.9916 H   0  0  0  0  0
    1.2142  -35.8599   43.9390 H   0  0  0  0  0
    0.2571  -31.7404   44.8194 H   0  0  0  0  0
  2  1  1  0  0  0
  2  3  1  0  0  0
 13  2  1  0  0  0
  3  4  1  0  0  0
 11  3  1  0  0  0
  4  5  1  0  0  0
  4  6  1  0  0  0
  6  7  1  0  0  0
  8  6  1  0  0  0
  8  9  1  0  0  0
 11  8  1  0  0  0
  9 10  1  0  0  0
 12 11  1  0  0  0
 13 12  1  0  0  0
 20 13  1  0  0  0
 14 15  1  0  0  0
 14 20  1  0  0  0
 14 24  1  0  0  0
 15 16  1  0  0  0
 15 21  1  0  0  0
 16 17  1  0  0  0
 16 22  1  0  0  0
 17 18  1  0  0  0
 17 23  1  0  0  0
 18 19  1  0  0  0
 18 24  1  0  0  0
 19 25  1  0  0  0
  1 26  1  0  0  0
  2 27  1  0  0  0
  3 28  1  0  0  0
  4 29  1  0  0  0
  5 30  1  0  0  0
  6 31  1  0  0  0
  7 32  1  0  0  0
  8 33  1  0  0  0
  9 34  1  0  0  0
  9 35  1  0  0  0
 10 36  1  0  0  0
 11 37  1  0  0  0
 12 38  1  0  0  0
 12 39  1  0  0  0
 13 40  1  0  0  0
 14 41  1  0  0  0
 15 42  1  0  0  0
 16 43  1  0  0  0
 17 44  1  0  0  0
 18 45  1  0  0  0
 19 46  1  0  0  0
 19 47  1  0  0  0
 21 48  1  0  0  0
 22 49  1  0  0  0
 23 50  1  0  0  0
 25 51  1  0  0  0
M  END
$$$$
