3bm9_ligand
  -I-interpret- 

 27 29  0  0  0  0  0  0  0  0999 V2000
   -0.8720   37.4730   26.8170 C   0  0  0  0  0
   -0.2700   36.4180   26.1150 C   0  0  0  0  0
    0.8750   35.8090   26.6640 C   0  0  0  0  0
    1.3600   36.2740   27.8710 C   0  0  0  0  0
    0.7990   37.3110   28.5980 C   0  0  0  0  0
   -0.3370   37.8990   28.0340 C   0  0  0  0  0
   -0.9210   38.9260   28.7280 O   0  0  0  0  0
    2.4600   35.5520   28.2130 O   0  0  0  0  0
    2.7160   34.5960   27.2420 N   0  0  0  0  0
    1.7630   34.7520   26.3140 C   0  0  0  0  0
    1.6880   33.9470   25.1060 C   0  0  0  0  0
    0.4470   33.4380   24.7130 C   0  0  0  0  0
    0.3660   32.6710   23.5520 C   0  0  0  0  0
    1.4830   32.4040   22.7820 C   0  0  0  0  0
    2.7200   32.9080   23.1580 C   0  0  0  0  0
    2.8140   33.6780   24.3190 C   0  0  0  0  0
    4.0380   34.1470   24.7000 O   0  0  0  0  0
    1.3900   31.6780   21.6280 O   0  0  0  0  0
   -1.2840   31.9270   23.0210 Br  0  0  0  0  0
   -1.7586   37.9607   26.4117 H   0  0  0  0  0
   -0.6800   36.0768   25.1644 H   0  0  0  0  0
    1.2159   37.6466   29.5476 H   0  0  0  0  0
   -0.4274   39.0864   29.5356 H   0  0  0  0  0
   -0.4452   33.6381   25.3063 H   0  0  0  0  0
    3.6056   32.7057   22.5556 H   0  0  0  0  0
    4.6973   33.8770   24.0566 H   0  0  0  0  0
    2.2607   31.5954   21.2322 H   0  0  0  0  0
  1  2  4  0  0  0
  1  6  4  0  0  0
  2  3  4  0  0  0
  3  4  4  0  0  0
  3 10  4  0  0  0
  4  5  4  0  0  0
  4  8  4  0  0  0
  5  6  4  0  0  0
  6  7  1  0  0  0
  8  9  4  0  0  0
  9 10  4  0  0  0
 10 11  1  0  0  0
 11 12  4  0  0  0
 11 16  4  0  0  0
 12 13  4  0  0  0
 13 14  4  0  0  0
 13 19  1  0  0  0
 14 15  4  0  0  0
 14 18  1  0  0  0
 15 16  4  0  0  0
 16 17  1  0  0  0
  1 20  1  0  0  0
  2 21  1  0  0  0
  5 22  1  0  0  0
  7 23  1  0  0  0
 12 24  1  0  0  0
 15 25  1  0  0  0
 17 26  1  0  0  0
 18 27  1  0  0  0
M  END
$$$$
