5hcx_ligand
  -I-interpret- 

 53 57  0  0  0  0  0  0  0  0999 V2000
  -53.3340    1.0580  -19.5370 C   0  0  0  0  0
  -54.3070    2.0600  -19.6960 C   0  0  0  0  0
  -51.4750   -1.6240  -21.1820 C   0  0  0  0  0
  -54.6520    1.4550  -21.9500 C   0  0  0  0  0
  -53.6680    0.4790  -21.8780 C   0  0  0  0  0
  -53.0150    0.2490  -20.6610 C   0  0  0  0  0
  -49.9810   -1.4350  -21.4550 C   0  0  0  0  0
  -51.9120   -3.0530  -20.8770 C   0  0  0  0  0
  -52.5440    0.6250  -18.5120 N   0  0  0  0  0
  -50.8180   -1.0520  -17.9800 C   0  0  0  0  0
  -51.8010   -0.3760  -18.9090 C   0  0  0  0  0
  -54.9210    2.2060  -20.8680 N   0  0  0  0  0
  -52.0460   -0.6410  -20.2460 N   0  0  0  0  0
  -55.3420    1.7340  -23.1430 N   0  0  0  0  0
  -55.4550    0.9650  -24.2940 C   0  0  0  0  0
  -56.6500    1.0610  -25.0270 C   0  0  0  0  0
  -56.7820    0.2950  -26.1820 C   0  0  0  0  0
  -55.7790   -0.4930  -26.5650 N   0  0  0  0  0
  -54.6320   -0.5480  -25.8790 C   0  0  0  0  0
  -54.4740    0.1640  -24.7510 N   0  0  0  0  0
  -53.5790   -1.4900  -26.3440 C   0  0  0  0  0
  -53.3940   -1.9880  -27.6510 C   0  0  0  0  0
  -52.4220   -2.8550  -27.6350 N   0  0  0  0  0
  -51.9550   -2.9700  -26.3200 N   0  0  0  0  0
  -52.6850   -2.1390  -25.5470 C   0  0  0  0  0
  -50.7280   -3.9740  -25.7780 S   0  0  0  0  0
  -50.0300   -4.3390  -26.9680 O   0  0  0  0  0
  -50.1040   -3.2150  -24.7420 O   0  0  0  0  0
  -51.5470   -5.4380  -25.0640 C   0  0  0  0  0
  -50.6920   -6.6970  -24.8930 C   0  0  0  0  0
  -51.1270   -5.8960  -23.6670 C   0  0  0  0  0
  -54.5580    2.7155  -18.8621 H   0  0  0  0  0
  -51.9210   -1.4084  -22.1529 H   0  0  0  0  0
  -53.4058   -0.1035  -22.7612 H   0  0  0  0  0
  -49.4105   -1.7516  -20.5818 H   0  0  0  0  0
  -49.6916   -2.0360  -22.3171 H   0  0  0  0  0
  -49.7806   -0.3833  -21.6598 H   0  0  0  0  0
  -51.5897   -3.3233  -19.8714 H   0  0  0  0  0
  -52.9979   -3.1213  -20.9426 H   0  0  0  0  0
  -51.4596   -3.7320  -21.5998 H   0  0  0  0  0
  -50.0859   -0.3222  -17.6343 H   0  0  0  0  0
  -51.3532   -1.4648  -17.1249 H   0  0  0  0  0
  -50.3088   -1.8546  -18.5135 H   0  0  0  0  0
  -55.8295    2.6297  -23.1665 H   0  0  0  0  0
  -57.4544    1.7195  -24.6991 H   0  0  0  0  0
  -57.6996    0.3399  -26.7686 H   0  0  0  0  0
  -53.9695   -1.6955  -28.5293 H   0  0  0  0  0
  -52.5777   -2.0094  -24.4701 H   0  0  0  0  0
  -52.5008   -5.2010  -25.5354 H   0  0  0  0  0
  -49.7806   -7.1289  -25.3064 H   0  0  0  0  0
  -50.6845   -7.7327  -25.2326 H   0  0  0  0  0
  -51.5855   -6.0762  -22.6947 H   0  0  0  0  0
  -50.6794   -5.4708  -22.7687 H   0  0  0  0  0
  1  2  4  0  0  0
  6  1  4  0  0  0
  1  9  4  0  0  0
  2 12  4  0  0  0
  3  7  1  0  0  0
  3  8  1  0  0  0
 13  3  1  0  0  0
  5  4  4  0  0  0
  4 12  4  0  0  0
  4 14  1  0  0  0
  6  5  4  0  0  0
  6 13  4  0  0  0
  9 11  4  0  0  0
 11 10  1  0  0  0
 11 13  4  0  0  0
 14 15  1  0  0  0
 15 16  4  0  0  0
 15 20  4  0  0  0
 16 17  4  0  0  0
 17 18  4  0  0  0
 18 19  4  0  0  0
 19 20  4  0  0  0
 19 21  1  0  0  0
 21 22  4  0  0  0
 21 25  4  0  0  0
 22 23  4  0  0  0
 23 24  4  0  0  0
 24 25  4  0  0  0
 24 26  1  0  0  0
 26 27  2  0  0  0
 26 28  2  0  0  0
 26 29  1  0  0  0
 29 30  1  0  0  0
 29 31  1  0  0  0
 30 31  1  0  0  0
  2 32  1  0  0  0
  3 33  1  0  0  0
  5 34  1  0  0  0
  7 35  1  0  0  0
  7 36  1  0  0  0
  7 37  1  0  0  0
  8 38  1  0  0  0
  8 39  1  0  0  0
  8 40  1  0  0  0
 10 41  1  0  0  0
 10 42  1  0  0  0
 10 43  1  0  0  0
 14 44  1  0  0  0
 16 45  1  0  0  0
 17 46  1  0  0  0
 22 47  1  0  0  0
 25 48  1  0  0  0
 29 49  1  0  0  0
 30 50  1  0  0  0
 30 51  1  0  0  0
 31 52  1  0  0  0
 31 53  1  0  0  0
M  END
$$$$
