1hvl_ligand
  -I-interpret- 

116119  0  0  0  0  0  0  0  0999 V2000
    3.3750    3.2130   10.8020 C   0  0  0  0  0
    3.0890    3.9150   11.7510 O   0  0  0  0  0
    3.9220    3.7490    9.7000 N   0  0  0  0  0
    4.2730    2.9460    8.5250 C   0  0  0  0  0
    4.2610    5.1730    9.7270 C   0  0  0  0  0
    5.7350    5.4640    9.9150 C   0  0  0  0  0
    6.5140    5.7190    8.7930 C   0  0  0  0  0
    6.2050    5.5480   11.1550 N   0  0  0  0  0
    7.8330    6.1030    9.0050 C   0  0  0  0  0
    7.4610    5.9250   11.3580 C   0  0  0  0  0
    8.3160    6.2230   10.3100 C   0  0  0  0  0
    3.1630    1.8950   10.8040 N   0  0  0  0  0
    2.7340    1.1600   12.0220 C   0  0  0  0  0
    3.8430    0.1720   12.4740 C   0  0  0  0  0
    3.9350   -0.9490   12.0140 O   0  0  0  0  0
    1.3530    0.4590   11.8050 C   0  0  0  0  0
    0.2590    1.4370   11.3390 C   0  0  0  0  0
    0.8540   -0.3020   13.0350 C   0  0  0  0  0
    4.6950    0.6400   13.4020 N   0  0  0  0  0
    5.8630   -0.0780   13.9970 C   0  0  0  0  0
    7.1800    0.6630   13.7410 C   0  0  0  0  0
    7.4770    0.8150   12.3010 C   0  0  0  0  0
    7.9520   -0.2810   11.5950 C   0  0  0  0  0
    8.2170   -0.1470   10.2500 C   0  0  0  0  0
    8.0000    1.0750    9.6070 C   0  0  0  0  0
    7.5430    2.1680   10.3260 C   0  0  0  0  0
    7.2770    2.0430   11.6780 C   0  0  0  0  0
    5.7690   -0.1850   15.5040 C   0  0  0  0  0
    5.7570    1.1590   15.9770 O   0  0  0  0  0
    4.6810   -0.7540   17.5020 O   0  0  0  0  0
    4.5410   -0.8350   16.0810 C   0  0  0  0  0
    5.4660   -3.1000   16.1950 N   0  0  0  0  0
    4.3690   -2.2860   15.6750 C   0  0  0  0  0
    3.0490   -2.8250   16.2110 C   0  0  0  0  0
    2.8640   -4.3070   15.9610 C   0  0  0  0  0
    2.4080   -4.7500   14.7120 C   0  0  0  0  0
    2.2440   -6.1210   14.4760 C   0  0  0  0  0
    2.5400   -7.0460   15.4810 C   0  0  0  0  0
    2.9920   -6.6080   16.7270 C   0  0  0  0  0
    3.1570   -5.2460   16.9730 C   0  0  0  0  0
    6.9480   -5.9900   16.6460 N   0  0  0  0  0
    7.3610   -4.6320   16.2660 C   0  0  0  0  0
    6.2680   -3.8780   15.4650 C   0  0  0  0  0
    6.1760   -3.9420   14.2590 O   0  0  0  0  0
    8.7110   -4.6080   15.5100 C   0  0  0  0  0
    9.7690   -5.4340   16.2350 C   0  0  0  0  0
    9.2260   -3.1700   15.3470 C   0  0  0  0  0
    6.7970   -6.4050   17.9020 C   0  0  0  0  0
    7.0870   -5.7120   18.8680 O   0  0  0  0  0
    6.3110   -7.6600   18.0560 N   0  0  0  0  0
    5.8910   -8.5060   16.9340 C   0  0  0  0  0
    6.0950   -8.1580   19.4230 C   0  0  0  0  0
    4.7000   -7.8490   19.9180 C   0  0  0  0  0
    3.6630   -8.7550   19.6540 C   0  0  0  0  0
    4.5240   -6.6940   20.5770 N   0  0  0  0  0
    2.3780   -8.4410   20.0920 C   0  0  0  0  0
    3.2800   -6.3950   20.9820 C   0  0  0  0  0
    2.1790   -7.2340   20.7650 C   0  0  0  0  0
    3.7789    3.3572    7.6447 H   0  0  0  0  0
    5.3532    2.9685    8.3807 H   0  0  0  0  0
    3.9470    1.9173    8.6789 H   0  0  0  0  0
    3.7386    5.6092   10.5784 H   0  0  0  0  0
    3.9747    5.5875    8.7604 H   0  0  0  0  0
    6.1069    5.6218    7.7865 H   0  0  0  0  0
    8.4867    6.3093    8.1575 H   0  0  0  0  0
    7.8309    6.0025   12.3804 H   0  0  0  0  0
    9.3406    6.5433   10.4990 H   0  0  0  0  0
    3.3005    1.3737    9.9381 H   0  0  0  0  0
    2.5885    1.8755   12.8313 H   0  0  0  0  0
    1.5430   -0.2659   11.0135 H   0  0  0  0  0
    0.1254    2.2154   12.0902 H   0  0  0  0  0
    0.5572    1.8900   10.3935 H   0  0  0  0  0
   -0.6774    0.8955   11.2046 H   0  0  0  0  0
    1.5750   -1.0755   13.2993 H   0  0  0  0  0
    0.7410    0.3913   13.8685 H   0  0  0  0  0
   -0.1083   -0.7620   12.8104 H   0  0  0  0  0
    4.5261    1.5886   13.7367 H   0  0  0  0  0
    5.8458   -1.0598   13.5239 H   0  0  0  0  0
    7.9849    0.0807   14.1895 H   0  0  0  0  0
    7.0928    1.6602   14.1723 H   0  0  0  0  0
    8.1132   -1.2346   12.0977 H   0  0  0  0  0
    8.5976   -0.9976    9.6846 H   0  0  0  0  0
    8.1906    1.1684    8.5379 H   0  0  0  0  0
    7.3932    3.1253    9.8268 H   0  0  0  0  0
    6.9145    2.8977   12.2492 H   0  0  0  0  0
    6.6008   -0.8197   15.8095 H   0  0  0  0  0
    5.6981    1.1593   16.9352 H   0  0  0  0  0
    3.9176   -1.1578   17.9212 H   0  0  0  0  0
    3.6582   -0.3189   15.7036 H   0  0  0  0  0
    5.6327   -3.0710   17.2009 H   0  0  0  0  0
    4.3719   -2.3374   14.5862 H   0  0  0  0  0
    2.2445   -2.3002   15.6958 H   0  0  0  0  0
    3.0421   -2.6687   17.2897 H   0  0  0  0  0
    2.1815   -4.0294   13.9261 H   0  0  0  0  0
    1.8849   -6.4670   13.5068 H   0  0  0  0  0
    2.4176   -8.1124   15.2914 H   0  0  0  0  0
    3.2165   -7.3329   17.5095 H   0  0  0  0  0
    3.5120   -4.9065   17.9460 H   0  0  0  0  0
    6.7649   -6.6590   15.8981 H   0  0  0  0  0
    7.5040   -4.0998   17.2064 H   0  0  0  0  0
    8.5317   -5.0427   14.5267 H   0  0  0  0  0
    9.9239   -5.0272   17.2343 H   0  0  0  0  0
    9.4322   -6.4679   16.3104 H   0  0  0  0  0
   10.7042   -5.3950   15.6765 H   0  0  0  0  0
    8.4985   -2.5867   14.7826 H   0  0  0  0  0
    9.3679   -2.7225   16.3307 H   0  0  0  0  0
   10.1758   -3.1840   14.8124 H   0  0  0  0  0
    5.0855   -8.0125   16.3901 H   0  0  0  0  0
    6.7369   -8.6672   16.2657 H   0  0  0  0  0
    5.5396   -9.4648   17.3152 H   0  0  0  0  0
    6.8099   -7.6677   20.0837 H   0  0  0  0  0
    6.2256   -9.2401   19.4185 H   0  0  0  0  0
    3.8576   -9.6841   19.1182 H   0  0  0  0  0
    1.5465   -9.1227   19.9132 H   0  0  0  0  0
    3.1181   -5.4528   21.5057 H   0  0  0  0  0
    1.1865   -6.9499   21.1148 H   0  0  0  0  0
  1  2  2  0  0  0
  1  3  1  0  0  0
 12  1  1  0  0  0
  3  4  1  0  0  0
  3  5  1  0  0  0
  5  6  1  0  0  0
  6  7  4  0  0  0
  6  8  4  0  0  0
  7  9  4  0  0  0
  8 10  4  0  0  0
  9 11  4  0  0  0
 10 11  4  0  0  0
 13 12  1  0  0  0
 14 13  1  0  0  0
 13 16  1  0  0  0
 14 15  2  0  0  0
 19 14  1  0  0  0
 16 17  1  0  0  0
 16 18  1  0  0  0
 20 19  1  0  0  0
 20 21  1  0  0  0
 28 20  1  0  0  0
 21 22  1  0  0  0
 22 23  4  0  0  0
 22 27  4  0  0  0
 23 24  4  0  0  0
 24 25  4  0  0  0
 26 25  4  0  0  0
 27 26  4  0  0  0
 28 29  1  0  0  0
 31 28  1  0  0  0
 33 31  1  0  0  0
 33 34  1  0  0  0
 34 35  1  0  0  0
 35 36  4  0  0  0
 35 40  4  0  0  0
 36 37  4  0  0  0
 37 38  4  0  0  0
 39 38  4  0  0  0
 40 39  4  0  0  0
 42 41  1  0  0  0
 41 48  1  0  0  0
 43 42  1  0  0  0
 42 45  1  0  0  0
 43 44  2  0  0  0
 45 46  1  0  0  0
 45 47  1  0  0  0
 48 49  2  0  0  0
 48 50  1  0  0  0
 50 51  1  0  0  0
 50 52  1  0  0  0
 52 53  1  0  0  0
 53 54  4  0  0  0
 53 55  4  0  0  0
 54 56  4  0  0  0
 55 57  4  0  0  0
 56 58  4  0  0  0
 57 58  4  0  0  0
 32 43  1  0  0  0
 33 32  1  0  0  0
 31 30  1  0  0  0
  4 59  1  0  0  0
  4 60  1  0  0  0
  4 61  1  0  0  0
  5 62  1  0  0  0
  5 63  1  0  0  0
  7 64  1  0  0  0
  9 65  1  0  0  0
 10 66  1  0  0  0
 11 67  1  0  0  0
 12 68  1  0  0  0
 13 69  1  0  0  0
 16 70  1  0  0  0
 17 71  1  0  0  0
 17 72  1  0  0  0
 17 73  1  0  0  0
 18 74  1  0  0  0
 18 75  1  0  0  0
 18 76  1  0  0  0
 19 77  1  0  0  0
 20 78  1  0  0  0
 21 79  1  0  0  0
 21 80  1  0  0  0
 23 81  1  0  0  0
 24 82  1  0  0  0
 25 83  1  0  0  0
 26 84  1  0  0  0
 27 85  1  0  0  0
 28 86  1  0  0  0
 29 87  1  0  0  0
 30 88  1  0  0  0
 31 89  1  0  0  0
 32 90  1  0  0  0
 33 91  1  0  0  0
 34 92  1  0  0  0
 34 93  1  0  0  0
 36 94  1  0  0  0
 37 95  1  0  0  0
 38 96  1  0  0  0
 39 97  1  0  0  0
 40 98  1  0  0  0
 41 99  1  0  0  0
 42100  1  0  0  0
 45101  1  0  0  0
 46102  1  0  0  0
 46103  1  0  0  0
 46104  1  0  0  0
 47105  1  0  0  0
 47106  1  0  0  0
 47107  1  0  0  0
 51108  1  0  0  0
 51109  1  0  0  0
 51110  1  0  0  0
 52111  1  0  0  0
 52112  1  0  0  0
 54113  1  0  0  0
 56114  1  0  0  0
 57115  1  0  0  0
 58116  1  0  0  0
M  END
$$$$
