2f4b_ligand
  -I-interpret- 

 70 74  0  0  0  0  0  0  0  0999 V2000
    6.1460   -5.5160   45.6100 C   0  0  0  0  0
    6.6020   -6.0440   46.8170 C   0  0  0  0  0
    6.5930   -7.4170   47.0180 C   0  0  0  0  0
    6.1360   -8.2560   46.0120 C   0  0  0  0  0
    5.6790   -7.7360   44.8000 C   0  0  0  0  0
    5.6900   -6.3550   44.5850 C   0  0  0  0  0
    5.1730   -5.7420   43.2430 C   0  0  0  0  0
    3.9520   -5.6540   43.0390 O   0  0  0  0  0
    6.1570   -5.1650   42.1950 C   0  0  0  0  0
    7.4820   -4.8710   42.5360 C   0  0  0  0  0
    5.6960   -4.8860   40.9000 C   0  0  0  0  0
    6.5570   -4.3400   39.9520 C   0  0  0  0  0
    7.8900   -4.0480   40.2840 C   0  0  0  0  0
    8.7540   -3.4970   39.3090 C   0  0  0  0  0
    8.2620   -3.1950   37.8640 C   0  0  0  0  0
    8.5260   -4.3550   36.8850 C   0  0  0  0  0
    8.2480   -3.9750   35.4160 C   0  0  0  0  0
    8.3470   -4.3220   41.5880 C   0  0  0  0  0
    9.6710   -4.0430   41.9460 C   0  0  0  0  0
   10.5390   -3.4930   40.9990 C   0  0  0  0  0
   10.0840   -3.2160   39.7000 C   0  0  0  0  0
   10.9270   -2.6880   38.7620 O   0  0  0  0  0
   12.2730   -2.2210   39.1350 C   0  0  0  0  0
   13.3760   -2.8120   38.2280 C   0  0  0  0  0
   12.7990   -3.1720   36.8670 C   0  0  0  0  0
   13.4340   -4.2450   36.1510 O   0  0  0  0  0
   12.6650   -5.3400   35.8150 C   0  0  0  0  0
   12.9900   -6.5680   36.3910 C   0  0  0  0  0
   11.5940   -5.2790   34.9160 C   0  0  0  0  0
   10.8500   -6.4230   34.6030 C   0  0  0  0  0
   11.1780   -7.6470   35.2000 C   0  0  0  0  0
   12.2500   -7.7140   36.0990 C   0  0  0  0  0
   12.3670   -8.9730   36.5120 C   0  0  0  0  0
   11.4130   -9.6970   35.9170 C   0  0  0  0  0
   10.6980   -8.8940   35.1220 N   0  0  0  0  0
    9.5460   -9.3370   34.3080 C   0  0  0  0  0
    9.8250  -10.6020   33.4770 C   0  0  0  0  0
    9.5090  -11.7010   34.0060 O   0  0  0  0  0
   10.3190  -10.4450   32.3270 O   0  0  0  0  0
    6.1443   -4.4361   45.4619 H   0  0  0  0  0
    6.9649   -5.3797   47.6013 H   0  0  0  0  0
    6.9434   -7.8344   47.9620 H   0  0  0  0  0
    6.1338   -9.3345   46.1701 H   0  0  0  0  0
    5.3139   -8.4063   44.0219 H   0  0  0  0  0
    7.8400   -5.0715   43.5458 H   0  0  0  0  0
    4.6601   -5.0974   40.6350 H   0  0  0  0  0
    6.1938   -4.1376   38.9444 H   0  0  0  0  0
    8.8078   -2.3237   37.5021 H   0  0  0  0  0
    7.1848   -3.0341   37.9063 H   0  0  0  0  0
    7.8565   -5.1733   37.1498 H   0  0  0  0  0
    9.5787   -4.6258   36.9655 H   0  0  0  0  0
    7.2039   -3.6807   35.3095 H   0  0  0  0  0
    8.8922   -3.1439   35.1289 H   0  0  0  0  0
    8.4521   -4.8328   34.7753 H   0  0  0  0  0
   10.0225   -4.2532   42.9561 H   0  0  0  0  0
   11.5728   -3.2783   41.2697 H   0  0  0  0  0
   12.4697   -2.5431   40.1576 H   0  0  0  0  0
   12.2946   -1.1365   39.0282 H   0  0  0  0  0
   13.7782   -3.7113   38.6946 H   0  0  0  0  0
   14.1651   -2.0716   38.0968 H   0  0  0  0  0
   12.9253   -2.2848   36.2465 H   0  0  0  0  0
   11.7779   -3.5036   37.0553 H   0  0  0  0  0
   13.8334   -6.6331   37.0784 H   0  0  0  0  0
   11.3353   -4.3269   34.4527 H   0  0  0  0  0
   10.0203   -6.3615   33.8988 H   0  0  0  0  0
   13.1114   -9.3493   37.2137 H   0  0  0  0  0
   11.2459  -10.7650   36.0569 H   0  0  0  0  0
    9.3124   -8.5334   33.6096 H   0  0  0  0  0
    8.7327   -9.5713   34.9948 H   0  0  0  0  0
   10.4662   -9.5097   32.1681 H   0  0  0  0  0
  1  2  4  0  0  0
  1  6  4  0  0  0
  2  3  4  0  0  0
  3  4  4  0  0  0
  4  5  4  0  0  0
  5  6  4  0  0  0
  6  7  1  0  0  0
  7  8  2  0  0  0
  7  9  1  0  0  0
  9 10  4  0  0  0
  9 11  4  0  0  0
 10 18  4  0  0  0
 11 12  4  0  0  0
 12 13  4  0  0  0
 13 14  4  0  0  0
 13 18  4  0  0  0
 14 15  1  0  0  0
 14 21  4  0  0  0
 15 16  1  0  0  0
 16 17  1  0  0  0
 18 19  4  0  0  0
 19 20  4  0  0  0
 20 21  4  0  0  0
 21 22  1  0  0  0
 22 23  1  0  0  0
 23 24  1  0  0  0
 24 25  1  0  0  0
 25 26  1  0  0  0
 26 27  1  0  0  0
 27 28  4  0  0  0
 27 29  4  0  0  0
 28 32  4  0  0  0
 29 30  4  0  0  0
 30 31  4  0  0  0
 31 32  4  0  0  0
 31 35  4  0  0  0
 32 33  4  0  0  0
 33 34  4  0  0  0
 34 35  4  0  0  0
 35 36  1  0  0  0
 36 37  1  0  0  0
 37 38  2  0  0  0
 37 39  1  0  0  0
  1 40  1  0  0  0
  2 41  1  0  0  0
  3 42  1  0  0  0
  4 43  1  0  0  0
  5 44  1  0  0  0
 10 45  1  0  0  0
 11 46  1  0  0  0
 12 47  1  0  0  0
 15 48  1  0  0  0
 15 49  1  0  0  0
 16 50  1  0  0  0
 16 51  1  0  0  0
 17 52  1  0  0  0
 17 53  1  0  0  0
 17 54  1  0  0  0
 19 55  1  0  0  0
 20 56  1  0  0  0
 23 57  1  0  0  0
 23 58  1  0  0  0
 24 59  1  0  0  0
 24 60  1  0  0  0
 25 61  1  0  0  0
 25 62  1  0  0  0
 28 63  1  0  0  0
 29 64  1  0  0  0
 30 65  1  0  0  0
 33 66  1  0  0  0
 34 67  1  0  0  0
 36 68  1  0  0  0
 36 69  1  0  0  0
 39 70  1  0  0  0
M  END
$$$$
