3ro4_ligand
  -I-interpret- 

 50 54  0  0  0  0  0  0  0  0999 V2000
   -3.0550   -1.1770   14.9330 C   0  0  0  0  0
   -2.5950   -0.2820   16.0660 C   0  0  0  0  0
   -3.2710   -0.6370   17.3350 C   0  0  0  0  0
   -3.2020   -1.8140   17.9670 N   0  0  0  0  0
   -4.0530   -1.7250   19.0450 N   0  0  0  0  0
   -4.7530   -0.5080   19.0580 C   0  0  0  0  0
   -5.7230    0.0290   19.9160 C   0  0  0  0  0
   -6.1670    1.3200   19.6600 C   0  0  0  0  0
   -5.6530    2.0670   18.5530 C   0  0  0  0  0
   -4.6990    1.5270   17.7220 C   0  0  0  0  0
   -4.2370    0.2460   17.9650 C   0  0  0  0  0
   -7.2030    1.8440   20.5260 N   0  0  0  0  0
   -8.0690    3.0280   20.2160 C   0  0  0  0  0
   -9.2820    2.8920   21.1650 C   0  0  0  0  0
   -9.1870    3.7230   22.4590 C   0  0  0  0  0
   -9.0090    2.7510   23.5660 N   0  3  0  0  0
   -9.6220    1.4770   23.1320 C   0  0  0  0  0
   -9.3480    1.4180   21.6220 C   0  0  0  0  0
   -7.9730    0.8120   21.2950 C   0  0  0  0  0
   -4.3130   -2.8350   19.9380 C   0  0  0  0  0
   -4.5320   -4.0940   19.3900 C   0  0  0  0  0
   -4.8650   -5.1560   20.2310 C   0  0  0  0  0
   -4.9810   -4.9660   21.6000 C   0  0  0  0  0
   -4.7710   -3.7030   22.1340 C   0  0  0  0  0
   -4.4420   -2.6290   21.3100 C   0  0  0  0  0
   -2.8226   -2.2143   15.1739 H   0  0  0  0  0
   -4.1309   -1.0662   14.7981 H   0  0  0  0  0
   -2.5412   -0.8919   14.0150 H   0  0  0  0  0
   -2.8413    0.7502   15.8168 H   0  0  0  0  0
   -1.5203   -0.4091   16.1962 H   0  0  0  0  0
   -6.1150   -0.5464   20.7546 H   0  0  0  0  0
   -6.0217    3.0756   18.3661 H   0  0  0  0  0
   -4.3113    2.1022   16.8812 H   0  0  0  0  0
   -8.3733    3.0443   19.1695 H   0  0  0  0  0
   -7.5391    3.9683   20.3681 H   0  0  0  0  0
  -10.1471    3.2441   20.6031 H   0  0  0  0  0
  -10.0843    4.3242   22.6056 H   0  0  0  0  0
   -8.3532    4.4237   22.4146 H   0  0  0  0  0
   -9.4539    3.0917   24.4183 H   0  0  0  0  0
   -8.0190    2.6208   23.7740 H   0  0  0  0  0
  -10.6877    1.4371   23.3572 H   0  0  0  0  0
   -9.2025    0.6198   23.6586 H   0  0  0  0  0
  -10.1159    0.8119   21.1414 H   0  0  0  0  0
   -7.4453    0.5433   22.2101 H   0  0  0  0  0
   -8.0857   -0.0989   20.7070 H   0  0  0  0  0
   -4.4444   -4.2495   18.3147 H   0  0  0  0  0
   -5.0359   -6.1458   19.8077 H   0  0  0  0  0
   -5.2351   -5.8024   22.2511 H   0  0  0  0  0
   -4.8644   -3.5494   23.2091 H   0  0  0  0  0
   -4.2870   -1.6371   21.7345 H   0  0  0  0  0
  1  2  1  0  0  0
  2  3  1  0  0  0
  3  4  4  0  0  0
  3 11  4  0  0  0
  4  5  4  0  0  0
  5  6  4  0  0  0
  5 20  1  0  0  0
  6  7  4  0  0  0
  6 11  4  0  0  0
  7  8  4  0  0  0
  8  9  4  0  0  0
  8 12  1  0  0  0
  9 10  4  0  0  0
 10 11  4  0  0  0
 12 13  1  0  0  0
 12 19  1  0  0  0
 13 14  1  0  0  0
 14 15  1  0  0  0
 14 18  1  0  0  0
 15 16  1  0  0  0
 16 17  1  0  0  0
 17 18  1  0  0  0
 18 19  1  0  0  0
 20 21  4  0  0  0
 20 25  4  0  0  0
 21 22  4  0  0  0
 22 23  4  0  0  0
 23 24  4  0  0  0
 24 25  4  0  0  0
  1 26  1  0  0  0
  1 27  1  0  0  0
  1 28  1  0  0  0
  2 29  1  0  0  0
  2 30  1  0  0  0
  7 31  1  0  0  0
  9 32  1  0  0  0
 10 33  1  0  0  0
 13 34  1  0  0  0
 13 35  1  0  0  0
 14 36  1  0  0  0
 15 37  1  0  0  0
 15 38  1  0  0  0
 16 39  1  0  0  0
 16 40  1  0  0  0
 17 41  1  0  0  0
 17 42  1  0  0  0
 18 43  1  0  0  0
 19 44  1  0  0  0
 19 45  1  0  0  0
 21 46  1  0  0  0
 22 47  1  0  0  0
 23 48  1  0  0  0
 24 49  1  0  0  0
 25 50  1  0  0  0
M  END
$$$$
