6qw9_ligand
  -I-interpret- 

 47 48  0  0  0  0  0  0  0  0999 V2000
   17.0100    8.0600   22.2330 C   0  0  0  0  0
   12.4790    3.7050   24.9160 C   0  0  0  0  0
   10.5600    4.9690   24.2590 C   0  0  0  0  0
   15.9010   10.3160   22.5750 C   0  0  0  0  0
   14.3480   10.7180   20.7290 C   0  0  0  0  0
   14.5870    8.4620   21.5050 C   0  0  0  0  0
   15.9030    7.6700   21.2620 C   0  0  0  0  0
   13.4440    4.5280   24.0650 C   0  0  0  0  0
   11.4230    5.7460   23.2770 C   0  0  0  0  0
   12.8490    5.9180   23.7890 C   0  0  0  0  0
   13.7740    8.0110   22.7170 C   0  0  0  0  0
   17.2670    9.5690   22.3330 C   0  0  0  0  0
   11.1180    3.6560   24.3950 N   0  3  0  0  0
   13.6040    6.5960   22.7500 N   0  0  0  0  0
   18.1010   10.0980   21.2210 N   0  3  0  0  0
   14.8860    9.8930   21.5890 N   0  0  0  0  0
   17.0200   11.7680   18.1180 O   0  0  0  0  0
   13.7250   10.4180   19.6950 O   0  0  0  0  0
   13.3340    8.7670   23.5400 O   0  0  0  0  0
   19.1710   10.7820   18.6890 O   0  0  0  0  0
   17.3020    9.3740   18.4440 O   0  0  0  0  0
   17.2280   10.8450   20.3600 O   0  0  0  0  0
   17.7180   10.7330   18.8100 S   0  0  0  0  0
   17.9299    7.6035   21.8676 H   0  0  0  0  0
   16.6996    7.7233   23.2221 H   0  0  0  0  0
   12.4316    4.1772   25.8973 H   0  0  0  0  0
   12.8551    2.6821   24.9315 H   0  0  0  0  0
    9.5352    4.9069   23.8930 H   0  0  0  0  0
   10.5419    5.4728   25.2254 H   0  0  0  0  0
   16.0651   11.3885   22.4705 H   0  0  0  0  0
   15.5410   10.0725   23.5746 H   0  0  0  0  0
   14.4570   11.7817   20.9406 H   0  0  0  0  0
   13.9477    8.2490   20.6482 H   0  0  0  0  0
   15.6884    6.6111   21.4061 H   0  0  0  0  0
   16.2479    7.8947   20.2527 H   0  0  0  0  0
   13.6122    4.0159   23.1176 H   0  0  0  0  0
   14.3864    4.6417   24.6008 H   0  0  0  0  0
   10.9850    6.7353   23.1444 H   0  0  0  0  0
   11.4602    5.1907   22.3398 H   0  0  0  0  0
   12.8788    6.4997   24.7103 H   0  0  0  0  0
   17.8919    9.7720   23.2027 H   0  0  0  0  0
   10.5410    3.1258   25.0480 H   0  0  0  0  0
   11.1401    3.2174   23.4744 H   0  0  0  0  0
   14.0309    6.0357   22.0123 H   0  0  0  0  0
   18.5464    9.3359   20.7099 H   0  0  0  0  0
   18.8477   10.6922   21.5811 H   0  0  0  0  0
   17.8136    8.7372   18.9483 H   0  0  0  0  0
  1  7  1  0  0  0
 12  1  1  0  0  0
  8  2  1  0  0  0
  2 13  1  0  0  0
  9  3  1  0  0  0
  3 13  1  0  0  0
 12  4  1  0  0  0
  4 16  1  0  0  0
 16  5  1  0  0  0
  5 18  2  0  0  0
  7  6  1  0  0  0
  6 11  1  0  0  0
 16  6  1  0  0  0
 10  8  1  0  0  0
 10  9  1  0  0  0
 14 10  1  0  0  0
 11 14  1  0  0  0
 11 19  2  0  0  0
 15 12  1  0  0  0
 22 15  1  0  0  0
 23 17  2  0  0  0
 23 20  2  0  0  0
 23 21  1  0  0  0
 22 23  1  0  0  0
  1 24  1  0  0  0
  1 25  1  0  0  0
  2 26  1  0  0  0
  2 27  1  0  0  0
  3 28  1  0  0  0
  3 29  1  0  0  0
  4 30  1  0  0  0
  4 31  1  0  0  0
  5 32  1  0  0  0
  6 33  1  0  0  0
  7 34  1  0  0  0
  7 35  1  0  0  0
  8 36  1  0  0  0
  8 37  1  0  0  0
  9 38  1  0  0  0
  9 39  1  0  0  0
 10 40  1  0  0  0
 12 41  1  0  0  0
 13 42  1  0  0  0
 13 43  1  0  0  0
 14 44  1  0  0  0
 15 45  1  0  0  0
 15 46  1  0  0  0
 21 47  1  0  0  0
M  END
$$$$
