4d2d_ligand
  -I-interpret- 

 34 33  0  0  0  0  0  0  0  0999 V2000
  -22.7220  -18.7470   -6.1930 N   0  3  0  0  0
  -23.2590  -19.1760   -4.9080 C   0  0  0  0  0
  -22.4650  -18.5710   -3.7570 C   0  0  0  0  0
  -21.4250  -17.9470   -3.9700 O   0  0  0  0  0
  -23.2590  -20.6930   -4.8110 C   0  0  0  0  0
  -22.9640  -18.7600   -2.5400 N   0  0  0  0  0
  -22.2980  -18.2420   -1.3500 C   0  0  0  0  0
  -22.7870  -18.9350   -0.0810 C   0  0  0  0  0
  -22.3080  -20.0100    0.2690 O   0  0  0  0  0
  -22.5020  -16.7350   -1.2390 C   0  0  0  0  0
  -23.7510  -18.3190    0.5940 N   0  0  0  0  0
  -24.1710  -18.7520    1.9250 C   0  0  0  0  0
  -22.9650  -18.8450    2.8520 C   0  0  0  0  0
  -22.3530  -17.8280    3.1770 O   0  0  0  0  0
  -24.9070  -20.0860    1.8630 C   0  0  0  0  0
  -22.5700  -19.9280    3.2840 O   0  0  0  0  0
  -22.7296  -17.7281   -6.2403 H   0  0  0  0  0
  -21.7649  -19.0859   -6.2904 H   0  0  0  0  0
  -23.2969  -19.1277   -6.9446 H   0  0  0  0  0
  -24.2873  -18.8218   -4.8357 H   0  0  0  0  0
  -22.2331  -21.0586   -4.8554 H   0  0  0  0  0
  -23.7133  -20.9955   -3.8675 H   0  0  0  0  0
  -23.8305  -21.1089   -5.6408 H   0  0  0  0  0
  -23.8349  -19.2805   -2.4353 H   0  0  0  0  0
  -21.2333  -18.4515   -1.4534 H   0  0  0  0  0
  -23.5622  -16.5223   -1.1015 H   0  0  0  0  0
  -21.9403  -16.3555   -0.3854 H   0  0  0  0  0
  -22.1489  -16.2537   -2.1510 H   0  0  0  0  0
  -24.2141  -17.5159    0.1686 H   0  0  0  0  0
  -24.8628  -18.0098    2.3233 H   0  0  0  0  0
  -25.7916  -19.9826    1.2346 H   0  0  0  0  0
  -24.2471  -20.8443    1.4416 H   0  0  0  0  0
  -25.2066  -20.3813    2.8686 H   0  0  0  0  0
  -23.1361  -20.6291    2.9528 H   0  0  0  0  0
  1  2  1  0  0  0
  2  3  1  0  0  0
  2  5  1  0  0  0
  3  4  2  0  0  0
  3  6  1  0  0  0
  6  7  1  0  0  0
  7  8  1  0  0  0
  7 10  1  0  0  0
  8  9  2  0  0  0
  8 11  1  0  0  0
 11 12  1  0  0  0
 12 13  1  0  0  0
 12 15  1  0  0  0
 13 14  2  0  0  0
 13 16  1  0  0  0
  1 17  1  0  0  0
  1 18  1  0  0  0
  1 19  1  0  0  0
  2 20  1  0  0  0
  5 21  1  0  0  0
  5 22  1  0  0  0
  5 23  1  0  0  0
  6 24  1  0  0  0
  7 25  1  0  0  0
 10 26  1  0  0  0
 10 27  1  0  0  0
 10 28  1  0  0  0
 11 29  1  0  0  0
 12 30  1  0  0  0
 15 31  1  0  0  0
 15 32  1  0  0  0
 15 33  1  0  0  0
 16 34  1  0  0  0
M  END
$$$$
