2bkt_ligand
  -I-interpret- 

 77 81  0  0  0  0  0  0  0  0999 V2000
   79.7520   18.5230   76.1530 C   0  0  0  0  0
   78.8870   17.6030   75.5200 O   0  0  0  0  0
   79.3620   16.2980   75.6200 C   0  0  0  0  0
   78.8790   15.4190   76.6370 C   0  0  0  0  0
   77.8470   15.8930   77.6370 C   0  0  0  0  0
   76.8120   14.9580   77.8330 O   0  0  0  0  0
   80.3330   15.8480   74.6910 C   0  0  0  0  0
   80.8280   14.5220   74.7680 C   0  0  0  0  0
   80.3580   13.6470   75.7630 C   0  0  0  0  0
   79.3900   14.0960   76.6920 C   0  0  0  0  0
   77.8750   22.7300   73.6350 C   0  0  0  0  0
   78.7100   23.0140   72.5560 C   0  0  0  0  0
   79.1600   22.0180   71.6910 C   0  0  0  0  0
   78.7740   20.6600   71.9000 C   0  0  0  0  0
   77.9290   20.3440   72.9910 C   0  0  0  0  0
   77.4750   21.3700   73.8580 C   0  0  0  0  0
   75.1900   23.9990   74.9170 C   0  0  0  0  0
   75.0590   25.5080   74.6140 C   0  0  0  0  0
   73.9080   26.1790   75.1970 N   0  3  0  0  0
   72.8640   25.5540   75.9970 C   0  0  0  0  0
   73.0260   24.0520   76.2810 C   0  0  0  0  0
   74.1250   23.3800   75.7600 N   0  0  0  0  0
   72.1640   23.5220   76.9670 O   0  0  0  0  0
   76.6340   23.7730   75.4880 C   0  0  0  0  0
   77.5100   23.8660   74.3820 O   0  0  0  0  0
   73.9880   21.0510   75.0340 C   0  0  0  0  0
   74.2410   22.0190   76.0500 C   0  0  0  0  0
   74.6260   21.5730   77.3570 C   0  0  0  0  0
   74.7520   20.1990   77.6360 C   0  0  0  0  0
   74.5000   19.2320   76.6250 C   0  0  0  0  0
   74.1180   19.6650   75.3270 C   0  0  0  0  0
   74.6090   17.8630   76.8370 O   0  0  0  0  0
   74.4710   17.3410   78.1510 C   0  0  0  0  0
   74.5100   15.7990   78.0690 C   0  0  0  0  0
   75.6040   15.2170   77.1390 C   0  0  0  0  0
   80.5930   19.9760   70.2680 C   0  0  0  0  0
   80.5080   21.3950   69.6570 C   0  0  0  0  0
   79.9780   22.3660   70.6380 N   0  0  0  0  0
   79.2640   19.5810   70.9630 C   0  0  0  0  0
   79.8403   18.2691   77.2093 H   0  0  0  0  0
   80.7348   18.4777   75.6837 H   0  0  0  0  0
   79.3461   19.5296   76.0527 H   0  0  0  0  0
   77.4017   16.8096   77.2500 H   0  0  0  0  0
   78.3499   16.0415   78.5926 H   0  0  0  0  0
   80.6994   16.5220   73.9167 H   0  0  0  0  0
   81.5760   14.1794   74.0530 H   0  0  0  0  0
   80.7378   12.6268   75.8185 H   0  0  0  0  0
   79.0306   13.4144   77.4630 H   0  0  0  0  0
   79.0201   24.0446   72.3836 H   0  0  0  0  0
   77.6272   19.3111   73.1647 H   0  0  0  0  0
   76.8212   21.1254   74.6951 H   0  0  0  0  0
   75.0340   23.4642   73.9801 H   0  0  0  0  0
   74.9479   25.5942   73.5331 H   0  0  0  0  0
   75.9404   25.9837   75.0441 H   0  0  0  0  0
   73.3909   26.4673   74.3664 H   0  0  0  0  0
   74.3491   26.7992   75.8762 H   0  0  0  0  0
   71.9424   25.6556   75.4240 H   0  0  0  0  0
   72.8893   26.0496   76.9675 H   0  0  0  0  0
   76.7175   22.8024   75.9770 H   0  0  0  0  0
   76.8783   24.5149   76.2483 H   0  0  0  0  0
   73.6955   21.3725   74.0344 H   0  0  0  0  0
   74.8228   22.3040   78.1413 H   0  0  0  0  0
   75.0449   19.8742   78.6344 H   0  0  0  0  0
   73.9226   18.9281   74.5480 H   0  0  0  0  0
   73.5261   17.6678   78.5851 H   0  0  0  0  0
   75.2825   17.7017   78.7830 H   0  0  0  0  0
   73.5503   15.4824   77.6606 H   0  0  0  0  0
   74.7276   15.4370   79.0738 H   0  0  0  0  0
   75.2375   14.2748   76.7316 H   0  0  0  0  0
   75.8109   15.9490   76.3583 H   0  0  0  0  0
   81.3898   19.9657   71.0117 H   0  0  0  0  0
   80.7901   19.2643   69.4663 H   0  0  0  0  0
   79.8374   21.3654   68.7982 H   0  0  0  0  0
   81.5095   21.7084   69.3621 H   0  0  0  0  0
   80.2319   23.3479   70.5293 H   0  0  0  0  0
   78.5081   19.4291   70.1925 H   0  0  0  0  0
   79.4394   18.6768   71.5459 H   0  0  0  0  0
  2  1  1  0  0  0
  3  2  1  0  0  0
  4  3  4  0  0  0
  3  7  4  0  0  0
  5  4  1  0  0  0
  4 10  4  0  0  0
  6  5  1  0  0  0
 35  6  1  0  0  0
  7  8  4  0  0  0
  9  8  4  0  0  0
 10  9  4  0  0  0
 12 11  4  0  0  0
 16 11  4  0  0  0
 11 25  1  0  0  0
 13 12  4  0  0  0
 14 13  4  0  0  0
 13 38  1  0  0  0
 14 15  4  0  0  0
 39 14  1  0  0  0
 15 16  4  0  0  0
 17 18  1  0  0  0
 17 22  1  0  0  0
 24 17  1  0  0  0
 18 19  1  0  0  0
 19 20  1  0  0  0
 21 20  1  0  0  0
 22 21  1  0  0  0
 21 23  2  0  0  0
 22 27  1  0  0  0
 25 24  1  0  0  0
 27 26  4  0  0  0
 26 31  4  0  0  0
 27 28  4  0  0  0
 28 29  4  0  0  0
 29 30  4  0  0  0
 31 30  4  0  0  0
 30 32  1  0  0  0
 32 33  1  0  0  0
 33 34  1  0  0  0
 34 35  1  0  0  0
 36 37  1  0  0  0
 36 39  1  0  0  0
 37 38  1  0  0  0
  1 40  1  0  0  0
  1 41  1  0  0  0
  1 42  1  0  0  0
  5 43  1  0  0  0
  5 44  1  0  0  0
  7 45  1  0  0  0
  8 46  1  0  0  0
  9 47  1  0  0  0
 10 48  1  0  0  0
 12 49  1  0  0  0
 15 50  1  0  0  0
 16 51  1  0  0  0
 17 52  1  0  0  0
 18 53  1  0  0  0
 18 54  1  0  0  0
 19 55  1  0  0  0
 19 56  1  0  0  0
 20 57  1  0  0  0
 20 58  1  0  0  0
 24 59  1  0  0  0
 24 60  1  0  0  0
 26 61  1  0  0  0
 28 62  1  0  0  0
 29 63  1  0  0  0
 31 64  1  0  0  0
 33 65  1  0  0  0
 33 66  1  0  0  0
 34 67  1  0  0  0
 34 68  1  0  0  0
 35 69  1  0  0  0
 35 70  1  0  0  0
 36 71  1  0  0  0
 36 72  1  0  0  0
 37 73  1  0  0  0
 37 74  1  0  0  0
 38 75  1  0  0  0
 39 76  1  0  0  0
 39 77  1  0  0  0
M  END
$$$$
