3fc2_ligand
  -I-interpret- 

 97102  0  0  0  0  0  0  0  0999 V2000
   51.3340   -0.9140    9.5630 C   0  0  0  0  0
   52.2400    0.2950    9.2360 C   0  0  0  0  0
   53.1760   -2.0350   10.6170 C   0  0  0  0  0
   54.1060   -0.8360   10.3100 C   0  0  0  0  0
   49.3040   -4.8030    8.6510 C   0  0  0  0  0
   50.0260   -3.4450    8.8300 C   0  0  0  0  0
   51.3230   -6.0230    9.2350 C   0  0  0  0  0
   52.1330   -4.7060    9.4000 C   0  0  0  0  0
   47.2310   -9.3550    7.9190 C   0  0  0  0  0
   47.6870  -11.4320    6.1530 C   0  0  0  0  0
   48.2740   -9.2290    6.9840 C   0  0  0  0  0
   48.4800  -10.2810    6.0990 C   0  0  0  0  0
   42.4420  -12.9700   12.1850 C   0  0  0  0  0
   42.1240  -14.8970   10.6010 N   0  0  0  0  0
   43.1220  -14.3450    9.7300 C   0  0  0  0  0
   43.3060  -13.4930   13.3750 C   0  0  0  0  0
   44.5820  -14.2730   12.9590 C   0  0  0  0  0
   43.9630  -11.1270   11.7920 C   0  0  0  0  0
   45.3720  -10.8250   11.2990 C   0  0  0  0  0
   43.0430   -9.8930   11.6820 C   0  0  0  0  0
   41.4420  -16.1750   10.2940 C   0  0  0  0  0
   49.0960  -12.8170    4.6800 C   0  0  0  0  0
   49.1590   -7.9890    6.9350 C   0  0  0  0  0
   49.6650   -7.7030    5.8870 O   0  0  0  0  0
   47.8620  -12.4980    5.3050 O   0  0  0  0  0
   46.6520  -11.5440    7.0780 C   0  0  0  0  0
   45.9580  -12.7920    7.0550 N   0  0  0  0  0
   45.0190  -13.3310    7.9740 C   0  0  0  0  0
   44.6880  -12.6510    9.1330 N   0  0  0  0  0
   43.7440  -13.1260   10.0220 C   0  0  0  0  0
   43.3950  -12.3960   11.2130 N   0  0  0  0  0
   44.4080  -14.5280    7.6920 N   0  0  0  0  0
   43.4680  -15.0220    8.5700 C   0  0  0  0  0
   41.7550  -14.2360   11.7700 C   0  0  0  0  0
   40.9280  -14.6910   12.5390 O   0  0  0  0  0
   46.4270  -10.4980    7.9660 C   0  0  0  0  0
   49.4110   -7.1880    8.0600 N   0  0  0  0  0
   50.2190   -5.9320    8.1790 C   0  0  0  0  0
   51.2850   -3.4520    9.7480 C   0  0  0  0  0
   52.1030   -2.1950    9.5910 N   0  3  0  0  0
   53.3610    0.4360   10.1910 N   0  3  0  0  0
   54.2470    1.5720    9.8800 C   0  0  0  0  0
   53.8040    2.9140   10.4990 C   0  0  0  0  0
   54.0860    4.2970    9.9520 C   0  0  0  0  0
   52.7320    3.7130    9.7130 C   0  0  0  0  0
   50.5719   -0.9897    8.7874 H   0  0  0  0  0
   50.8963   -0.7564   10.5488 H   0  0  0  0  0
   51.6316    1.1975    9.2952 H   0  0  0  0  0
   52.6613    0.1412    8.2425 H   0  0  0  0  0
   52.6992   -1.8559   11.5807 H   0  0  0  0  0
   53.7813   -2.9415   10.6184 H   0  0  0  0  0
   54.6020   -1.0277    9.3585 H   0  0  0  0  0
   54.8138   -0.7376   11.1330 H   0  0  0  0  0
   48.5382   -4.6653    7.8876 H   0  0  0  0  0
   48.9088   -5.0913    9.6251 H   0  0  0  0  0
   49.3066   -2.7777    9.3046 H   0  0  0  0  0
   50.3729   -3.1515    7.8393 H   0  0  0  0  0
   50.8451   -6.2358   10.1913 H   0  0  0  0  0
   52.0194   -6.7982    8.9152 H   0  0  0  0  0
   52.6088   -4.5072    8.4397 H   0  0  0  0  0
   52.8201   -4.8616   10.2318 H   0  0  0  0  0
   47.0453   -8.5436    8.6227 H   0  0  0  0  0
   49.2707  -10.2079    5.3523 H   0  0  0  0  0
   41.7065  -12.1840   12.3563 H   0  0  0  0  0
   42.6815  -14.1855   13.9393 H   0  0  0  0  0
   43.6379  -12.6180   13.9338 H   0  0  0  0  0
   44.2975  -15.1445   12.3694 H   0  0  0  0  0
   45.2250  -13.6244   12.3641 H   0  0  0  0  0
   45.1164  -14.5959   13.8525 H   0  0  0  0  0
   44.0290  -11.3397   12.8590 H   0  0  0  0  0
   45.3319  -10.5183   10.2538 H   0  0  0  0  0
   45.8010  -10.0220   11.8984 H   0  0  0  0  0
   45.9880  -11.7193   11.3932 H   0  0  0  0  0
   43.4515   -9.0819   12.2848 H   0  0  0  0  0
   42.9825   -9.5782   10.6402 H   0  0  0  0  0
   42.0474  -10.1503   12.0436 H   0  0  0  0  0
   40.9170  -16.0859    9.3429 H   0  0  0  0  0
   42.1812  -16.9734   10.2290 H   0  0  0  0  0
   40.7275  -16.4032   11.0849 H   0  0  0  0  0
   49.4140  -11.9801    4.0583 H   0  0  0  0  0
   49.8492  -13.0107    5.4437 H   0  0  0  0  0
   48.9690  -13.7043    4.0598 H   0  0  0  0  0
   46.1694  -13.3883    6.2549 H   0  0  0  0  0
   42.9824  -15.9720    8.3466 H   0  0  0  0  0
   45.6235  -10.5691    8.6991 H   0  0  0  0  0
   48.9792   -7.5093    8.9264 H   0  0  0  0  0
   50.6635   -5.7625    7.1983 H   0  0  0  0  0
   50.9665   -3.4870   10.7899 H   0  0  0  0  0
   52.5075   -2.3513    8.6678 H   0  0  0  0  0
   52.9540    0.6525   11.1009 H   0  0  0  0  0
   54.2353    1.6997    8.7976 H   0  0  0  0  0
   55.2269    1.3363   10.2951 H   0  0  0  0  0
   53.9731    2.4800   11.4845 H   0  0  0  0  0
   54.8644    4.7807    9.3618 H   0  0  0  0  0
   54.4987    5.2353   10.3227 H   0  0  0  0  0
   51.6851    3.9997    9.8126 H   0  0  0  0  0
   52.0375    3.5617    8.8866 H   0  0  0  0  0
  1  2  1  0  0  0
 40  1  1  0  0  0
  2 41  1  0  0  0
  3  4  1  0  0  0
 40  3  1  0  0  0
  4 41  1  0  0  0
  6  5  1  0  0  0
  5 38  1  0  0  0
 39  6  1  0  0  0
  8  7  1  0  0  0
  7 38  1  0  0  0
 39  8  1  0  0  0
 11  9  4  0  0  0
  9 36  4  0  0  0
 12 10  4  0  0  0
 10 25  1  0  0  0
 10 26  4  0  0  0
 11 12  4  0  0  0
 23 11  1  0  0  0
 13 16  1  0  0  0
 31 13  1  0  0  0
 13 34  1  0  0  0
 15 14  1  0  0  0
 14 21  1  0  0  0
 14 34  1  0  0  0
 30 15  4  0  0  0
 33 15  4  0  0  0
 16 17  1  0  0  0
 18 19  1  0  0  0
 18 20  1  0  0  0
 31 18  1  0  0  0
 25 22  1  0  0  0
 23 24  2  0  0  0
 37 23  1  0  0  0
 26 27  1  0  0  0
 36 26  4  0  0  0
 27 28  1  0  0  0
 28 29  4  0  0  0
 28 32  4  0  0  0
 29 30  4  0  0  0
 30 31  1  0  0  0
 32 33  4  0  0  0
 34 35  2  0  0  0
 38 37  1  0  0  0
 39 40  1  0  0  0
 41 42  1  0  0  0
 42 43  1  0  0  0
 43 44  1  0  0  0
 43 45  1  0  0  0
 44 45  1  0  0  0
  1 46  1  0  0  0
  1 47  1  0  0  0
  2 48  1  0  0  0
  2 49  1  0  0  0
  3 50  1  0  0  0
  3 51  1  0  0  0
  4 52  1  0  0  0
  4 53  1  0  0  0
  5 54  1  0  0  0
  5 55  1  0  0  0
  6 56  1  0  0  0
  6 57  1  0  0  0
  7 58  1  0  0  0
  7 59  1  0  0  0
  8 60  1  0  0  0
  8 61  1  0  0  0
  9 62  1  0  0  0
 12 63  1  0  0  0
 13 64  1  0  0  0
 16 65  1  0  0  0
 16 66  1  0  0  0
 17 67  1  0  0  0
 17 68  1  0  0  0
 17 69  1  0  0  0
 18 70  1  0  0  0
 19 71  1  0  0  0
 19 72  1  0  0  0
 19 73  1  0  0  0
 20 74  1  0  0  0
 20 75  1  0  0  0
 20 76  1  0  0  0
 21 77  1  0  0  0
 21 78  1  0  0  0
 21 79  1  0  0  0
 22 80  1  0  0  0
 22 81  1  0  0  0
 22 82  1  0  0  0
 27 83  1  0  0  0
 33 84  1  0  0  0
 36 85  1  0  0  0
 37 86  1  0  0  0
 38 87  1  0  0  0
 39 88  1  0  0  0
 40 89  1  0  0  0
 41 90  1  0  0  0
 42 91  1  0  0  0
 42 92  1  0  0  0
 43 93  1  0  0  0
 44 94  1  0  0  0
 44 95  1  0  0  0
 45 96  1  0  0  0
 45 97  1  0  0  0
M  END
$$$$
