3oe9_ligand
  -I-interpret- 

 62 65  0  0  0  0  0  0  0  0999 V2000
   15.4470    3.7400   25.0570 C   0  0  0  0  0
   17.8200    3.5740   25.5060 N   0  0  0  0  0
   19.8440    2.5750   27.2060 S   0  0  0  0  0
   16.6390    4.4110   25.7180 C   0  0  0  0  0
   17.6740    3.8620   27.6490 N   0  3  0  0  0
   18.0640    5.8780   30.1620 S   0  0  0  0  0
   16.8760    5.8240   25.2110 C   0  0  0  0  0
   19.8390    5.1220   31.6620 N   0  0  0  0  0
   18.3950    3.3540   26.6930 C   0  0  0  0  0
   20.6590    6.5190   29.9210 N   0  0  0  0  0
   19.4500    2.9640   28.8520 C   0  0  0  0  0
   16.4470    4.5190   27.2270 C   0  0  0  0  0
   18.2190    3.6700   28.8670 C   0  0  0  0  0
   17.5260    4.1960   30.0940 C   0  0  0  0  0
   19.6620    5.8710   30.5760 C   0  0  0  0  0
   21.0200    4.7950   32.3930 C   0  0  0  0  0
   21.6780    6.0250   33.0100 C   0  0  0  0  0
   22.8820    5.6050   33.8660 C   0  0  0  0  0
   23.8390    4.6660   33.1050 C   0  0  0  0  0
   23.1340    3.4560   32.4840 C   0  0  0  0  0
   21.9820    3.9110   31.5880 C   0  0  0  0  0
   20.7760    7.1080   28.5660 C   0  0  0  0  0
   19.9820    6.4790   27.4020 C   0  0  0  0  0
   20.0200    7.2670   26.0770 C   0  0  0  0  0
   20.0080    8.7960   26.2050 C   0  0  0  0  0
   21.0450    9.2870   27.2120 C   0  0  0  0  0
   20.8000    8.6470   28.5810 C   0  0  0  0  0
   14.5471    4.3215   25.2574 H   0  0  0  0  0
   15.6133    3.6847   23.9812 H   0  0  0  0  0
   15.3284    2.7341   25.4598 H   0  0  0  0  0
   18.1482    3.2194   24.6077 H   0  0  0  0  0
   16.0125    6.4444   25.4510 H   0  0  0  0  0
   17.7649    6.2358   25.6889 H   0  0  0  0  0
   17.0200    5.8017   24.1308 H   0  0  0  0  0
   21.5064    6.6223   30.4792 H   0  0  0  0  0
   20.0479    2.7087   29.7269 H   0  0  0  0  0
   15.5280    4.0758   27.6105 H   0  0  0  0  0
   16.3092    5.5317   27.6057 H   0  0  0  0  0
   16.4415    4.1007   30.0408 H   0  0  0  0  0
   17.7765    3.6351   30.9944 H   0  0  0  0  0
   20.7116    4.1804   33.2387 H   0  0  0  0  0
   20.9532    6.5406   33.6401 H   0  0  0  0  0
   22.0185    6.6864   32.2133 H   0  0  0  0  0
   22.5072    5.0716   34.7395 H   0  0  0  0  0
   23.4347    6.5043   34.1380 H   0  0  0  0  0
   24.5699    4.2899   33.8208 H   0  0  0  0  0
   24.2864    5.2392   32.2930 H   0  0  0  0  0
   22.7363    2.8292   33.2821 H   0  0  0  0  0
   23.8515    2.8975   31.8829 H   0  0  0  0  0
   22.3801    4.4809   30.7485 H   0  0  0  0  0
   21.4458    3.0376   31.2169 H   0  0  0  0  0
   21.7711    6.7726   28.2739 H   0  0  0  0  0
   18.9389    6.4475   27.7167 H   0  0  0  0  0
   20.4374    5.5092   27.2016 H   0  0  0  0  0
   19.1141    6.9976   25.5339 H   0  0  0  0  0
   20.9613    7.0072   25.5926 H   0  0  0  0  0
   19.0212    9.1037   26.5508 H   0  0  0  0  0
   20.2459    9.2238   25.2311 H   0  0  0  0  0
   20.9652   10.3700   27.3059 H   0  0  0  0  0
   22.0396    9.0102   26.8624 H   0  0  0  0  0
   21.6238    8.9485   29.2279 H   0  0  0  0  0
   19.8187    8.9797   28.9194 H   0  0  0  0  0
  4  1  1  0  0  0
  4  2  1  0  0  0
  9  2  1  0  0  0
  3  9  4  0  0  0
 11  3  4  0  0  0
  4  7  1  0  0  0
 12  4  1  0  0  0
  5  9  4  0  0  0
  5 12  1  0  0  0
 13  5  4  0  0  0
 14  6  1  0  0  0
  6 15  1  0  0  0
 15  8  2  0  0  0
  8 16  1  0  0  0
 15 10  1  0  0  0
 10 22  1  0  0  0
 13 11  4  0  0  0
 13 14  1  0  0  0
 16 17  1  0  0  0
 16 21  1  0  0  0
 17 18  1  0  0  0
 18 19  1  0  0  0
 19 20  1  0  0  0
 20 21  1  0  0  0
 22 23  1  0  0  0
 22 27  1  0  0  0
 23 24  1  0  0  0
 24 25  1  0  0  0
 25 26  1  0  0  0
 26 27  1  0  0  0
  1 28  1  0  0  0
  1 29  1  0  0  0
  1 30  1  0  0  0
  2 31  1  0  0  0
  7 32  1  0  0  0
  7 33  1  0  0  0
  7 34  1  0  0  0
 10 35  1  0  0  0
 11 36  1  0  0  0
 12 37  1  0  0  0
 12 38  1  0  0  0
 14 39  1  0  0  0
 14 40  1  0  0  0
 16 41  1  0  0  0
 17 42  1  0  0  0
 17 43  1  0  0  0
 18 44  1  0  0  0
 18 45  1  0  0  0
 19 46  1  0  0  0
 19 47  1  0  0  0
 20 48  1  0  0  0
 20 49  1  0  0  0
 21 50  1  0  0  0
 21 51  1  0  0  0
 22 52  1  0  0  0
 23 53  1  0  0  0
 23 54  1  0  0  0
 24 55  1  0  0  0
 24 56  1  0  0  0
 25 57  1  0  0  0
 25 58  1  0  0  0
 26 59  1  0  0  0
 26 60  1  0  0  0
 27 61  1  0  0  0
 27 62  1  0  0  0
M  END
$$$$
