6pnm_ligand
  -I-interpret- 

 35 36  0  0  0  0  0  0  0  0999 V2000
   15.8460   12.3350   36.8630 C   0  0  0  0  0
   14.5130   12.4390   37.6520 C   0  0  0  0  0
   13.9820   13.5220   37.8530 O   0  0  0  0  0
   14.0970   11.3150   38.2400 N   0  0  0  0  0
   13.0180   11.4110   39.0730 C   0  0  0  0  0
   12.7640   12.5940   39.7850 C   0  0  0  0  0
   12.2580   10.3070   39.3290 C   0  0  0  0  0
   11.2000   10.3960   40.2140 C   0  0  0  0  0
   10.9480   11.5400   40.9090 C   0  0  0  0  0
    9.7560   11.5200   41.8190 Cl  0  0  0  0  0
   11.7120   12.6670   40.6820 C   0  0  0  0  0
   11.3850   14.2520   41.5130 S   0  0  0  0  0
   12.4020   15.2140   41.2090 O   0  0  0  0  0
   11.1970   13.6800   42.8520 O   0  0  0  0  0
   10.1670   14.8790   41.0490 N   0  0  0  0  0
    9.7530   16.1790   41.6760 C   0  0  0  0  0
    8.2190   16.3560   41.5620 C   0  0  0  0  0
    7.8380   16.1320   40.1850 O   0  0  0  0  0
    9.0110   16.1960   39.2860 C   0  0  0  0  0
   10.0320   15.0410   39.5960 C   0  0  0  0  0
   15.7057   12.7387   35.8603 H   0  0  0  0  0
   16.6183   12.9041   37.3804 H   0  0  0  0  0
   16.1466   11.2894   36.7963 H   0  0  0  0  0
   14.5642   10.4235   38.0747 H   0  0  0  0  0
   13.4018   13.4642   39.6299 H   0  0  0  0  0
   12.4840    9.3603   38.8384 H   0  0  0  0  0
   10.5527    9.5311   40.3590 H   0  0  0  0  0
   10.2485   17.0007   41.1590 H   0  0  0  0  0
   10.0368   16.1764   42.7284 H   0  0  0  0  0
    7.9345   17.3621   41.8701 H   0  0  0  0  0
    7.7108   15.6433   42.2115 H   0  0  0  0  0
    9.5122   17.1521   39.4371 H   0  0  0  0  0
    8.6663   16.0877   38.2576 H   0  0  0  0  0
    9.6689   14.1102   39.1602 H   0  0  0  0  0
   11.0027   15.2914   39.1680 H   0  0  0  0  0
  1  2  1  0  0  0
  2  3  2  0  0  0
  2  4  1  0  0  0
  4  5  1  0  0  0
  5  6  4  0  0  0
  5  7  4  0  0  0
  6 11  4  0  0  0
  7  8  4  0  0  0
  8  9  4  0  0  0
  9 10  1  0  0  0
  9 11  4  0  0  0
 11 12  1  0  0  0
 12 13  2  0  0  0
 12 14  2  0  0  0
 12 15  1  0  0  0
 15 16  1  0  0  0
 15 20  1  0  0  0
 16 17  1  0  0  0
 17 18  1  0  0  0
 18 19  1  0  0  0
 19 20  1  0  0  0
  1 21  1  0  0  0
  1 22  1  0  0  0
  1 23  1  0  0  0
  4 24  1  0  0  0
  6 25  1  0  0  0
  7 26  1  0  0  0
  8 27  1  0  0  0
 16 28  1  0  0  0
 16 29  1  0  0  0
 17 30  1  0  0  0
 17 31  1  0  0  0
 19 32  1  0  0  0
 19 33  1  0  0  0
 20 34  1  0  0  0
 20 35  1  0  0  0
M  END
$$$$
