6b1o_ligand
  -I-interpret- 

 52 56  0  0  0  0  0  0  0  0999 V2000
    5.3630    2.1520   33.0050 C   0  0  0  0  0
    6.8100    2.6080   33.3160 C   0  0  0  0  0
    5.1760    0.6900   33.4860 C   0  0  0  0  0
    7.8110    1.7100   32.5570 C   0  0  0  0  0
    6.2450   -0.2020   32.7740 C   0  0  0  0  0
    7.6820    0.2790   33.0620 C   0  0  0  0  0
    5.5160    0.6480   35.0100 C   0  0  0  0  0
    3.3560   -0.0360   31.8320 N   0  3  0  0  0
    6.9340    1.1860   35.3330 C   0  0  0  0  0
    7.0650    2.6490   34.8590 C   0  0  0  0  0
    7.9200    0.2690   34.5860 C   0  0  0  0  0
    3.7240    0.0960   33.2730 C   0  0  0  0  0
    7.0310    3.8890   32.7690 O   0  0  0  0  0
    2.6590    0.9560   33.9640 C   0  0  0  0  0
    1.0680    1.2430   35.8110 C   0  0  0  0  0
    2.1900    0.5780   35.1920 N   0  0  0  0  0
    0.3450    0.2750   36.6960 C   0  0  0  0  0
    2.5460   -0.6140   35.9440 C   0  0  0  0  0
    1.4180   -0.7400   36.9900 C   0  0  0  0  0
    2.8520   -0.5560   37.4240 C   0  0  0  0  0
    2.2500    1.9700   33.4210 O   0  0  0  0  0
    7.1860    1.1020   36.7590 O   0  0  0  0  0
    1.3950    2.4930   36.7570 C   0  0  0  0  0
    2.6110    3.0660   36.5650 N   0  0  0  0  0
    5.1835    2.2101   31.9315 H   0  0  0  0  0
    4.6556    2.8008   33.5215 H   0  0  0  0  0
    8.8262    2.0682   32.7276 H   0  0  0  0  0
    7.5947    1.7421   31.4892 H   0  0  0  0  0
    6.0753   -0.1453   31.6988 H   0  0  0  0  0
    6.1444   -1.2204   33.1494 H   0  0  0  0  0
    8.4063   -0.3707   32.5708 H   0  0  0  0  0
    5.4766   -0.3935   35.3292 H   0  0  0  0  0
    4.7958    1.2820   35.5272 H   0  0  0  0  0
    4.0544   -0.6061   31.3548 H   0  0  0  0  0
    2.4416   -0.4814   31.7553 H   0  0  0  0  0
    3.3215    0.8897   31.4050 H   0  0  0  0  0
    6.3528    3.3001   35.3660 H   0  0  0  0  0
    8.0473    3.0597   35.0923 H   0  0  0  0  0
    8.9305    0.6316   34.7744 H   0  0  0  0  0
    7.7756   -0.7498   34.9457 H   0  0  0  0  0
    3.7520   -0.8983   33.7187 H   0  0  0  0  0
    6.8743    3.8628   31.8222 H   0  0  0  0  0
    0.5020    1.6135   34.9563 H   0  0  0  0  0
   -0.5419   -0.1559   36.2315 H   0  0  0  0  0
   -0.0709    0.7360   37.5919 H   0  0  0  0  0
    3.0793   -1.1496   35.1586 H   0  0  0  0  0
    0.6809   -1.4080   37.4356 H   0  0  0  0  0
    3.4114    0.0838   38.1066 H   0  0  0  0  0
    3.5486   -1.0211   38.1215 H   0  0  0  0  0
    8.0656    1.4372   36.9477 H   0  0  0  0  0
    0.6900    2.8587   37.5036 H   0  0  0  0  0
    3.2434    2.6949   35.8560 H   0  0  0  0  0
  1  2  1  0  0  0
  1  3  1  0  0  0
  2  4  1  0  0  0
  2 10  1  0  0  0
  2 13  1  0  0  0
  3  5  1  0  0  0
  3  7  1  0  0  0
  3 12  1  0  0  0
  4  6  1  0  0  0
  5  6  1  0  0  0
  6 11  1  0  0  0
  7  9  1  0  0  0
 12  8  1  0  0  0
  9 10  1  0  0  0
  9 11  1  0  0  0
  9 22  1  0  0  0
 12 14  1  0  0  0
 14 16  1  0  0  0
 14 21  2  0  0  0
 16 15  1  0  0  0
 15 17  1  0  0  0
 15 23  1  0  0  0
 16 18  1  0  0  0
 17 19  1  0  0  0
 18 19  1  0  0  0
 18 20  1  0  0  0
 19 20  1  0  0  0
 23 24  2  0  0  0
  1 25  1  0  0  0
  1 26  1  0  0  0
  4 27  1  0  0  0
  4 28  1  0  0  0
  5 29  1  0  0  0
  5 30  1  0  0  0
  6 31  1  0  0  0
  7 32  1  0  0  0
  7 33  1  0  0  0
  8 34  1  0  0  0
  8 35  1  0  0  0
  8 36  1  0  0  0
 10 37  1  0  0  0
 10 38  1  0  0  0
 11 39  1  0  0  0
 11 40  1  0  0  0
 12 41  1  0  0  0
 13 42  1  0  0  0
 15 43  1  0  0  0
 17 44  1  0  0  0
 17 45  1  0  0  0
 18 46  1  0  0  0
 19 47  1  0  0  0
 20 48  1  0  0  0
 20 49  1  0  0  0
 22 50  1  0  0  0
 23 51  1  0  0  0
 24 52  1  0  0  0
M  END
$$$$
