### 
### Created by X-TOOL on Wed Jan  1 15:39:34 2020
### 

@<TRIPOS>MOLECULE
6b1o_ligand
   52    56     1     0     0
SMALL
GAST_HUCK


@<TRIPOS>ATOM
      1 C2          5.3630    2.1520   33.0050 C.3       1 C8S        -0.0108
      2 C3          6.8100    2.6080   33.3160 C.3       1 C8S         0.0698
      3 C4          5.1760    0.6900   33.4860 C.3       1 C8S         0.0364
      4 C5          7.8110    1.7100   32.5570 C.3       1 C8S        -0.0209
      5 C6          6.2450   -0.2020   32.7740 C.3       1 C8S        -0.0368
      6 C7          7.6820    0.2790   33.0620 C.3       1 C8S        -0.0350
      7 C8          5.5160    0.6480   35.0100 C.3       1 C8S        -0.0108
      8 N1          3.3560   -0.0360   31.8320 N.4       1 C8S         0.2383
      9 C9          6.9340    1.1860   35.3330 C.3       1 C8S         0.0698
     10 C10         7.0650    2.6490   34.8590 C.3       1 C8S         0.0050
     11 C11         7.9200    0.2690   34.5860 C.3       1 C8S        -0.0209
     12 C12         3.7240    0.0960   33.2730 C.3       1 C8S         0.0712
     13 O13         7.0310    3.8890   32.7690 O.3       1 C8S        -0.3884
     14 C14         2.6590    0.9560   33.9640 C.2       1 C8S         0.2309
     15 C15         1.0680    1.2430   35.8110 C.3       1 C8S         0.1043
     16 N16         2.1900    0.5780   35.1920 N.am      1 C8S        -0.2425
     17 C17         0.3450    0.2750   36.6960 C.3       1 C8S        -0.0065
     18 C18         2.5460   -0.6140   35.9440 C.3       1 C8S         0.0525
     19 C19         1.4180   -0.7400   36.9900 C.3       1 C8S        -0.0103
     20 C20         2.8520   -0.5560   37.4240 C.3       1 C8S        -0.0239
     21 O21         2.2500    1.9700   33.4210 O.2       1 C8S        -0.3904
     22 O22         7.1860    1.1020   36.7590 O.3       1 C8S        -0.3884
     23 C23         1.3950    2.4930   36.7570 C.2       1 C8S         0.0209
     24 N24         2.6110    3.0660   36.5650 N.2       1 C8S        -0.3619
     25 H1          5.1841    2.2086   31.9211 H         1 C8S         0.0302
     26 H2          4.6503    2.8059   33.5290 H         1 C8S         0.0302
     27 H3          8.8352    2.0710   32.7320 H         1 C8S         0.0296
     28 H4          7.5901    1.7414   31.4799 H         1 C8S         0.0296
     29 H5          6.0699   -0.1683   31.6886 H         1 C8S         0.0277
     30 H6          6.1386   -1.2371   33.1307 H         1 C8S         0.0277
     31 H7          8.4116   -0.3727   32.5590 H         1 C8S         0.0303
     32 H8          5.4505   -0.3946   35.3545 H         1 C8S         0.0302
     33 H9          4.7783    1.2597   35.5501 H         1 C8S         0.0302
     34 H10         2.4260   -0.4173   31.7563 H         1 C8S         0.2015
     35 H11         4.0096   -0.6511   31.3732 H         1 C8S         0.2015
     36 H12         3.3839    0.8712   31.3936 H         1 C8S         0.2015
     37 H13         6.3167    3.2835   35.3564 H         1 C8S         0.0321
     38 H14         8.0729    3.0343   35.0728 H         1 C8S         0.0321
     39 H15         8.9454    0.6126   34.7870 H         1 C8S         0.0296
     40 H16         7.7984   -0.7593   34.9571 H         1 C8S         0.0296
     41 H17         3.7072   -0.9071   33.7240 H         1 C8S         0.1104
     42 H18         7.9330    4.1456   32.9208 H         1 C8S         0.2102
     43 H19         0.4012    1.5842   35.0054 H         1 C8S         0.0842
     44 H20        -0.5075   -0.1841   36.1741 H         1 C8S         0.0327
     45 H21        -0.0079    0.7619   37.6170 H         1 C8S         0.0327
     46 H22         2.9542   -1.4218   35.3189 H         1 C8S         0.0564
     47 H23         0.9433   -1.6961   37.2554 H         1 C8S         0.0327
     48 H24         3.1669    0.3944   37.8796 H         1 C8S         0.0291
     49 H25         3.3883   -1.3880   37.9037 H         1 C8S         0.0291
     50 H26         7.1032    0.1987   37.0414 H         1 C8S         0.2102
     51 H27         0.6907    2.8584   37.5029 H         1 C8S         0.1225
     52 H28         2.8887    3.8581   37.1231 H         1 C8S         0.1054
@<TRIPOS>BOND
     1    1    2 1  
     2    1    3 1  
     3    2    4 1  
     4    2   10 1  
     5    2   13 1  
     6    3    5 1  
     7    3    7 1  
     8    3   12 1  
     9    4    6 1  
    10    5    6 1  
    11    6   11 1  
    12    7    9 1  
    13   12    8 1  
    14    9   10 1  
    15    9   11 1  
    16    9   22 1  
    17   12   14 1  
    18   14   16 am 
    19   14   21 2  
    20   16   15 1  
    21   15   17 1  
    22   15   23 1  
    23   16   18 1  
    24   17   19 1  
    25   18   19 1  
    26   18   20 1  
    27   19   20 1  
    28   23   24 2  
    29    1   25 1  
    30    1   26 1  
    31    4   27 1  
    32    4   28 1  
    33    5   29 1  
    34    5   30 1  
    35    6   31 1  
    36    7   32 1  
    37    7   33 1  
    38    8   34 1  
    39    8   35 1  
    40    8   36 1  
    41   10   37 1  
    42   10   38 1  
    43   11   39 1  
    44   11   40 1  
    45   12   41 1  
    46   13   42 1  
    47   15   43 1  
    48   17   44 1  
    49   17   45 1  
    50   18   46 1  
    51   19   47 1  
    52   20   48 1  
    53   20   49 1  
    54   22   50 1  
    55   23   51 1  
    56   24   52 1  
@<TRIPOS>SUBSTRUCTURE
     1 C8S         1

