3dbd_ligand
  -I-interpret- 

 59 63  0  0  0  0  0  0  0  0999 V2000
   60.0740   14.7270   48.1870 C   0  0  0  0  0
   58.8380   15.0890   48.7180 C   0  0  0  0  0
   59.0490   17.2880   47.7210 C   0  0  0  0  0
   57.1640   23.3860   42.1510 C   0  0  0  0  0
   53.7330   15.1370   42.8240 C   0  0  0  0  0
   58.1150   19.0960   46.2260 C   0  0  0  0  0
   58.4740   18.6480   47.5030 C   0  0  0  0  0
   57.1230   22.2720   43.1610 C   0  0  0  0  0
   57.7570   20.7440   48.4090 C   0  0  0  0  0
   56.3810   21.0380   42.7810 C   0  0  0  0  0
   55.6840   20.6850   41.6280 C   0  0  0  0  0
   56.4860   20.1720   43.8610 C   0  0  0  0  0
   55.8690   18.9280   43.7710 C   0  0  0  0  0
   55.1740   18.5920   42.6000 C   0  0  0  0  0
   54.5130   16.3070   43.4200 C   0  0  0  0  0
   55.9990   15.2720   45.1260 C   0  0  0  0  0
   55.8600   15.8380   43.8570 C   0  0  0  0  0
   56.9870   15.9540   43.0360 C   0  0  0  0  0
   57.2440   14.8240   45.5650 C   0  0  0  0  0
   58.3630   14.9440   44.7430 C   0  0  0  0  0
   58.2340   15.5120   43.4770 C   0  0  0  0  0
   61.6730   18.8090   46.9240 O   0  0  0  0  0
   61.1000   17.8840   46.3720 C   0  0  0  0  0
   61.1700   17.6980   45.0550 N   0  0  0  0  0
   60.2890   16.9240   47.1950 C   0  0  0  0  0
   60.7970   15.6450   47.4270 C   0  0  0  0  0
   58.3300   16.3660   48.4870 C   0  0  0  0  0
   58.2920   19.4790   48.6030 C   0  0  0  0  0
   57.5070   21.8430   49.8060 Cl  0  0  0  0  0
   57.4110   21.1600   47.1260 C   0  0  0  0  0
   57.5640   20.3660   45.9850 C   0  0  0  0  0
   57.2190   20.8380   44.7730 N   0  0  0  0  0
   57.6340   22.1270   44.3980 N   0  0  0  0  0
   55.1020   19.4760   41.5690 N   0  0  0  0  0
   54.5580   17.3900   42.4410 N   0  0  0  0  0
   60.4745   13.7290   48.3653 H   0  0  0  0  0
   58.2692   14.3746   49.3132 H   0  0  0  0  0
   57.6389   23.0289   41.2372 H   0  0  0  0  0
   56.1476   23.7122   41.9303 H   0  0  0  0  0
   57.7351   24.2213   42.5563 H   0  0  0  0  0
   54.2754   14.7399   41.9660 H   0  0  0  0  0
   53.6195   14.3567   43.5766 H   0  0  0  0  0
   52.7494   15.4823   42.5056 H   0  0  0  0  0
   58.2703   18.4281   45.3787 H   0  0  0  0  0
   55.6122   21.3771   40.7890 H   0  0  0  0  0
   55.9251   18.2232   44.6006 H   0  0  0  0  0
   54.0223   16.7002   44.3103 H   0  0  0  0  0
   55.1294   15.1800   45.7767 H   0  0  0  0  0
   56.8895   16.3935   42.0433 H   0  0  0  0  0
   57.3426   14.3782   46.5548 H   0  0  0  0  0
   59.3358   14.5948   45.0891 H   0  0  0  0  0
   59.1071   15.6107   42.8320 H   0  0  0  0  0
   61.7144   18.3389   44.4777 H   0  0  0  0  0
   60.6792   16.9147   44.6238 H   0  0  0  0  0
   61.7643   15.3624   47.0117 H   0  0  0  0  0
   57.3645   16.6480   48.9069 H   0  0  0  0  0
   58.5656   19.1414   49.6026 H   0  0  0  0  0
   56.9975   22.1611   47.0041 H   0  0  0  0  0
   54.0820   17.2295   41.5533 H   0  0  0  0  0
  2  1  4  0  0  0
 26  1  4  0  0  0
 27  2  4  0  0  0
  7  3  1  0  0  0
  3 25  4  0  0  0
  3 27  4  0  0  0
  8  4  1  0  0  0
 15  5  1  0  0  0
  6  7  4  0  0  0
 31  6  4  0  0  0
  7 28  4  0  0  0
 10  8  4  0  0  0
  8 33  4  0  0  0
  9 28  4  0  0  0
  9 29  1  0  0  0
 30  9  4  0  0  0
 10 11  4  0  0  0
 12 10  4  0  0  0
 11 34  4  0  0  0
 12 13  4  0  0  0
 32 12  4  0  0  0
 13 14  4  0  0  0
 14 34  4  0  0  0
 14 35  1  0  0  0
 15 17  1  0  0  0
 35 15  1  0  0  0
 17 16  4  0  0  0
 16 19  4  0  0  0
 17 18  4  0  0  0
 18 21  4  0  0  0
 19 20  4  0  0  0
 21 20  4  0  0  0
 23 22  2  0  0  0
 23 24  1  0  0  0
 25 23  1  0  0  0
 25 26  4  0  0  0
 31 30  4  0  0  0
 31 32  1  0  0  0
 32 33  4  0  0  0
  1 36  1  0  0  0
  2 37  1  0  0  0
  4 38  1  0  0  0
  4 39  1  0  0  0
  4 40  1  0  0  0
  5 41  1  0  0  0
  5 42  1  0  0  0
  5 43  1  0  0  0
  6 44  1  0  0  0
 11 45  1  0  0  0
 13 46  1  0  0  0
 15 47  1  0  0  0
 16 48  1  0  0  0
 18 49  1  0  0  0
 19 50  1  0  0  0
 20 51  1  0  0  0
 21 52  1  0  0  0
 24 53  1  0  0  0
 24 54  1  0  0  0
 26 55  1  0  0  0
 27 56  1  0  0  0
 28 57  1  0  0  0
 30 58  1  0  0  0
 35 59  1  0  0  0
M  END
$$$$
