4hdc_ligand
  -I-interpret- 

 70 73  0  0  0  0  0  0  0  0999 V2000
   18.6210   -0.5640    2.4550 C   0  0  0  0  0
   16.8940   -1.8970    3.4450 C   0  0  0  0  0
   16.7960   -0.9630    4.4750 C   0  0  0  0  0
   17.6020    0.1850    4.4920 C   0  0  0  0  0
   19.6990   -0.2680    1.1600 Cl  0  0  0  0  0
   17.8290   -1.7120    2.4440 C   0  0  0  0  0
   18.5180    0.3980    3.4600 C   0  0  0  0  0
   17.5220    1.1250    5.5080 O   0  0  0  0  0
   16.3780    1.3980    6.1830 C   0  0  0  0  0
   16.2260    1.0600    7.5540 C   0  0  0  0  0
   15.0730    1.4670    8.2460 C   0  0  0  0  0
   14.0790    2.1610    7.5770 C   0  0  0  0  0
   14.2160    2.4820    6.2220 C   0  0  0  0  0
   15.3720    2.1060    5.5410 C   0  0  0  0  0
   13.1050    3.2740    5.5430 C   0  0  0  0  0
   13.4970    4.4440    4.6110 C   0  0  0  0  0
   14.5670    5.3970    5.1620 C   0  0  0  0  0
   13.9860    6.3030    6.2570 C   0  0  0  0  0
   15.1320    6.2240    3.9930 C   0  0  0  0  0
   12.0210    2.4720    4.9330 N   0  3  0  0  0
   11.2720    1.6530    5.9370 C   0  0  0  0  0
   10.0150    1.0550    5.3230 C   0  0  0  0  0
   10.4220    0.1580    4.1430 C   0  0  0  0  0
   11.2310    0.9840    3.1180 C   0  0  0  0  0
   12.4520    1.5940    3.8110 C   0  0  0  0  0
   11.6560    0.2370    1.9100 N   0  0  0  0  0
   12.1810   -1.0400    2.0600 C   0  0  0  0  0
   12.6480   -1.7610    1.0180 C   0  0  0  0  0
   12.5800   -1.1770   -0.2990 C   0  0  0  0  0
   12.9330   -1.7420   -1.3510 O   0  0  0  0  0
   12.0320    0.0910   -0.3460 N   0  0  0  0  0
   11.5820    0.8330    0.6800 C   0  0  0  0  0
   11.1430    1.9600    0.5090 O   0  0  0  0  0
   13.2110   -3.1470    1.1740 C   0  0  0  0  0
   17.2580    0.2840    8.2620 C   0  0  0  0  0
   17.7370    0.6880    9.3270 O   0  0  0  0  0
   17.6370   -0.8650    7.7320 O   0  0  0  0  0
   16.2378   -2.7672    3.4290 H   0  0  0  0  0
   16.0809   -1.1274    5.2810 H   0  0  0  0  0
   17.9461   -2.4548    1.6550 H   0  0  0  0  0
   19.1378    1.2944    3.4401 H   0  0  0  0  0
   14.9614    1.2373    9.3057 H   0  0  0  0  0
   13.1784    2.4611    8.1127 H   0  0  0  0  0
   15.4876    2.3715    4.4902 H   0  0  0  0  0
   12.7115    3.7539    6.4390 H   0  0  0  0  0
   12.5961    5.0398    4.4647 H   0  0  0  0  0
   13.9145    3.9963    3.7092 H   0  0  0  0  0
   15.3709    4.8222    5.6218 H   0  0  0  0  0
   13.1702    6.8949    5.8420 H   0  0  0  0  0
   13.6107    5.6877    7.0747 H   0  0  0  0  0
   14.7660    6.9673    6.6289 H   0  0  0  0  0
   15.5737    5.5538    3.2556 H   0  0  0  0  0
   14.3266    6.7948    3.5308 H   0  0  0  0  0
   15.8944    6.9069    4.3678 H   0  0  0  0  0
   11.4004    3.1803    4.5412 H   0  0  0  0  0
   10.9835    2.2963    6.7682 H   0  0  0  0  0
   11.9156    0.8416    6.2769 H   0  0  0  0  0
    9.3585    1.8518    4.9733 H   0  0  0  0  0
    9.4823    0.4659    6.0695 H   0  0  0  0  0
    9.5266   -0.2374    3.6633 H   0  0  0  0  0
   11.0353   -0.6654    4.5090 H   0  0  0  0  0
   10.5539    1.7568    2.7542 H   0  0  0  0  0
   13.0763    0.7921    4.2050 H   0  0  0  0  0
   13.0128    2.1873    3.0888 H   0  0  0  0  0
   12.2175   -1.4774    3.0577 H   0  0  0  0  0
   11.9605    0.5147   -1.2711 H   0  0  0  0  0
   14.0706   -3.1154    1.8435 H   0  0  0  0  0
   12.4474   -3.8031    1.5918 H   0  0  0  0  0
   13.5216   -3.5234    0.1994 H   0  0  0  0  0
   17.1601   -1.0105    6.9116 H   0  0  0  0  0
  1  5  1  0  0  0
  6  1  4  0  0  0
  1  7  4  0  0  0
  2  3  4  0  0  0
  2  6  4  0  0  0
  3  4  4  0  0  0
  4  7  4  0  0  0
  4  8  1  0  0  0
  8  9  1  0  0  0
  9 10  4  0  0  0
  9 14  4  0  0  0
 10 11  4  0  0  0
 10 35  1  0  0  0
 11 12  4  0  0  0
 12 13  4  0  0  0
 13 14  4  0  0  0
 13 15  1  0  0  0
 15 16  1  0  0  0
 15 20  1  0  0  0
 16 17  1  0  0  0
 17 18  1  0  0  0
 17 19  1  0  0  0
 20 21  1  0  0  0
 20 25  1  0  0  0
 21 22  1  0  0  0
 22 23  1  0  0  0
 23 24  1  0  0  0
 24 25  1  0  0  0
 24 26  1  0  0  0
 26 27  1  0  0  0
 26 32  1  0  0  0
 27 28  2  0  0  0
 28 29  1  0  0  0
 28 34  1  0  0  0
 29 30  2  0  0  0
 29 31  1  0  0  0
 31 32  1  0  0  0
 32 33  2  0  0  0
 35 36  2  0  0  0
 35 37  1  0  0  0
  2 38  1  0  0  0
  3 39  1  0  0  0
  6 40  1  0  0  0
  7 41  1  0  0  0
 11 42  1  0  0  0
 12 43  1  0  0  0
 14 44  1  0  0  0
 15 45  1  0  0  0
 16 46  1  0  0  0
 16 47  1  0  0  0
 17 48  1  0  0  0
 18 49  1  0  0  0
 18 50  1  0  0  0
 18 51  1  0  0  0
 19 52  1  0  0  0
 19 53  1  0  0  0
 19 54  1  0  0  0
 20 55  1  0  0  0
 21 56  1  0  0  0
 21 57  1  0  0  0
 22 58  1  0  0  0
 22 59  1  0  0  0
 23 60  1  0  0  0
 23 61  1  0  0  0
 24 62  1  0  0  0
 25 63  1  0  0  0
 25 64  1  0  0  0
 27 65  1  0  0  0
 31 66  1  0  0  0
 34 67  1  0  0  0
 34 68  1  0  0  0
 34 69  1  0  0  0
 37 70  1  0  0  0
M  END
$$$$
