1cil_ligand
  -I-interpret- 

 36 37  0  0  0  0  0  0  0  0999 V2000
   -6.1860    3.6410   15.7000 S   0  0  0  0  0
   -5.2590    2.2490   15.9490 C   0  0  0  0  0
   -3.9920    2.3040   15.3640 C   0  0  0  0  0
   -3.8200    3.5480   14.6840 C   0  0  0  0  0
   -2.6000    3.9180   13.9220 C   0  0  0  0  0
   -2.5630    5.4380   13.6650 C   0  0  0  0  0
   -3.8020    6.0150   13.0230 C   0  0  0  0  0
   -5.0600    6.0120   14.2810 S   0  0  0  0  0
   -4.9690    4.3680   14.7880 C   0  0  0  0  0
   -5.8850    0.9410   16.8910 S   0  0  0  0  0
   -7.3100    0.9870   16.7290 O   0  0  0  0  0
   -5.3490    1.0410   18.2200 O   0  0  0  0  0
   -5.3270   -0.5200   16.1920 N   0  0  0  0  0
   -2.6210    3.1750   12.6490 N   0  3  0  0  0
   -3.5160    7.4560   12.5630 C   0  0  0  0  0
   -6.3310    6.2230   13.6410 O   0  0  0  0  0
   -4.6970    6.8100   15.4220 O   0  0  0  0  0
   -1.3550    3.2200   11.9060 C   0  0  0  0  0
   -1.4350    2.1450   10.8200 C   0  0  0  0  0
   -3.2439    1.5131   15.4185 H   0  0  0  0  0
   -1.7065    3.6620   14.4913 H   0  0  0  0  0
   -1.7406    5.6172   12.9724 H   0  0  0  0  0
   -2.4649    5.9167   14.6393 H   0  0  0  0  0
   -4.1145    5.4382   12.1525 H   0  0  0  0  0
   -5.9899   -1.1663   15.7638 H   0  0  0  0  0
   -4.3319   -0.7436   16.2039 H   0  0  0  0  0
   -3.3320    3.6076   12.0593 H   0  0  0  0  0
   -2.8038    2.1970   12.8739 H   0  0  0  0  0
   -4.4281    7.8946   12.1583 H   0  0  0  0  0
   -3.1737    8.0462   13.4130 H   0  0  0  0  0
   -2.7445    7.4439   11.7931 H   0  0  0  0  0
   -0.5111    3.0347   12.5705 H   0  0  0  0  0
   -1.2023    4.2044   11.4636 H   0  0  0  0  0
   -1.5744    1.1694   11.2858 H   0  0  0  0  0
   -2.2767    2.3580   10.1610 H   0  0  0  0  0
   -0.5107    2.1445   10.2423 H   0  0  0  0  0
  1  2  4  0  0  0
  9  1  4  0  0  0
  3  2  4  0  0  0
  2 10  1  0  0  0
  4  3  4  0  0  0
  5  4  1  0  0  0
  4  9  4  0  0  0
  5  6  1  0  0  0
 14  5  1  0  0  0
  6  7  1  0  0  0
  7  8  1  0  0  0
  7 15  1  0  0  0
  9  8  1  0  0  0
  8 16  2  0  0  0
  8 17  2  0  0  0
 10 11  2  0  0  0
 10 12  2  0  0  0
 10 13  1  0  0  0
 18 14  1  0  0  0
 18 19  1  0  0  0
  3 20  1  0  0  0
  5 21  1  0  0  0
  6 22  1  0  0  0
  6 23  1  0  0  0
  7 24  1  0  0  0
 13 25  1  0  0  0
 13 26  1  0  0  0
 14 27  1  0  0  0
 14 28  1  0  0  0
 15 29  1  0  0  0
 15 30  1  0  0  0
 15 31  1  0  0  0
 18 32  1  0  0  0
 18 33  1  0  0  0
 19 34  1  0  0  0
 19 35  1  0  0  0
 19 36  1  0  0  0
M  END
$$$$
