3tfp_ligand
  -I-interpret- 

 43 45  0  0  0  0  0  0  0  0999 V2000
   -5.2310  -26.0210    8.8900 O   0  0  0  0  0
   -5.2480  -27.5170    6.1490 O   0  0  0  0  0
   -7.4500  -26.0510    8.9210 O   0  0  0  0  0
    4.7820  -30.2210    9.5920 Cl  0  0  0  0  0
   -3.9390  -30.3380    4.6340 Cl  0  0  0  0  0
   -7.0440  -30.2280   10.0630 C   0  0  0  0  0
   -0.2940  -28.8920    8.4000 Cl  0  0  0  0  0
   -6.3060  -30.9820    9.1620 C   0  0  0  0  0
   -0.1530  -31.0830    3.9080 C   0  0  0  0  0
   -1.5260  -31.1890    3.9600 C   0  0  0  0  0
    0.4800  -29.9910    4.4810 C   0  0  0  0  0
   -7.0490  -28.8410    9.9850 C   0  0  0  0  0
   -5.5640  -30.3420    8.1800 C   0  0  0  0  0
    4.0640  -28.9030    7.3620 C   0  0  0  0  0
    2.3000  -29.5060    8.8810 C   0  0  0  0  0
    3.1430  -28.3180    6.5150 C   0  0  0  0  0
    1.3860  -28.9190    8.0330 C   0  0  0  0  0
   -2.4680  -28.0510    5.8390 C   0  0  0  0  0
   -3.3250  -28.6050    6.8880 N   0  0  0  0  0
    0.5780  -27.6110    5.8330 S   0  0  0  0  0
   -6.3240  -26.6750    8.9340 C   0  0  0  0  0
   -4.7160  -28.2920    6.9720 C   0  0  0  0  0
    3.6400  -29.4960    8.5420 C   0  0  0  0  0
   -2.2690  -30.2030    4.5830 C   0  0  0  0  0
    1.8080  -28.3250    6.8630 C   0  0  0  0  0
   -0.2650  -29.0010    5.1030 C   0  0  0  0  0
   -6.3080  -28.2000    9.0050 C   0  0  0  0  0
   -5.5650  -28.9560    8.1020 C   0  0  0  0  0
   -1.6430  -29.1020    5.1530 C   0  0  0  0  0
   -8.1677  -26.6874    8.9592 H   0  0  0  0  0
   -7.6246  -30.7279   10.8383 H   0  0  0  0  0
   -6.3092  -32.0702    9.2253 H   0  0  0  0  0
    0.4352  -31.8578    3.4163 H   0  0  0  0  0
   -2.0251  -32.0478    3.5112 H   0  0  0  0  0
    1.5663  -29.9105    4.4424 H   0  0  0  0  0
   -7.6355  -28.2571   10.6944 H   0  0  0  0  0
   -4.9802  -30.9274    7.4697 H   0  0  0  0  0
    5.1229  -28.8986    7.1034 H   0  0  0  0  0
    1.9699  -29.9731    9.8089 H   0  0  0  0  0
    3.4672  -27.8562    5.5824 H   0  0  0  0  0
   -1.7858  -27.3393    6.3040 H   0  0  0  0  0
   -3.1107  -27.5873    5.0906 H   0  0  0  0  0
   -2.9167  -29.2335    7.5799 H   0  0  0  0  0
 21  1  2  0  0  0
 22  2  2  0  0  0
 21  3  1  0  0  0
 23  4  1  0  0  0
 24  5  1  0  0  0
  8  6  4  0  0  0
  6 12  4  0  0  0
 17  7  1  0  0  0
 13  8  4  0  0  0
 10  9  4  0  0  0
  9 11  4  0  0  0
 24 10  4  0  0  0
 11 26  4  0  0  0
 12 27  4  0  0  0
 28 13  4  0  0  0
 16 14  4  0  0  0
 14 23  4  0  0  0
 17 15  4  0  0  0
 15 23  4  0  0  0
 25 16  4  0  0  0
 25 17  4  0  0  0
 18 19  1  0  0  0
 29 18  1  0  0  0
 19 22  1  0  0  0
 20 25  1  0  0  0
 26 20  1  0  0  0
 27 21  1  0  0  0
 22 28  1  0  0  0
 24 29  4  0  0  0
 26 29  4  0  0  0
 27 28  4  0  0  0
  3 30  1  0  0  0
  6 31  1  0  0  0
  8 32  1  0  0  0
  9 33  1  0  0  0
 10 34  1  0  0  0
 11 35  1  0  0  0
 12 36  1  0  0  0
 13 37  1  0  0  0
 14 38  1  0  0  0
 15 39  1  0  0  0
 16 40  1  0  0  0
 18 41  1  0  0  0
 18 42  1  0  0  0
 19 43  1  0  0  0
M  END
$$$$
