4huo_ligand
  -I-interpret- 

 46 48  0  0  0  0  0  0  0  0999 V2000
   10.2230  -25.1850   -6.2510 C   0  0  0  0  0
    9.9030  -25.8170   -5.1240 N   0  0  0  0  0
   11.9750  -25.7440   -9.1310 O   0  0  0  0  0
   11.2920  -25.1490   -8.2610 C   0  0  0  0  0
   10.9810  -25.8140   -7.1800 N   0  0  0  0  0
   10.9540  -23.7750   -8.4620 C   0  0  0  0  0
    9.9580  -23.9010   -6.2960 N   0  0  0  0  0
    8.5520  -19.4870   -8.0740 O   0  0  0  0  0
   10.0990  -23.1920   -7.4240 C   0  0  0  0  0
    9.7310  -21.9070   -7.5150 N   0  0  0  0  0
    9.9730  -21.2670   -8.6480 C   0  0  0  0  0
   11.2320  -23.1060   -9.5860 N   0  0  0  0  0
   10.7990  -21.8550   -9.6690 C   0  0  0  0  0
    9.4330  -19.8800   -8.8460 C   0  0  0  0  0
    9.7240  -19.2280   -9.9620 N   0  0  0  0  0
    9.3090  -17.8400  -10.1430 C   0  0  0  0  0
    8.5890  -17.6540  -11.4750 C   0  0  0  0  0
    8.3810  -16.4950  -11.7810 O   0  0  0  0  0
    8.2710  -18.7730  -12.1610 N   0  0  0  0  0
    7.5130  -18.8120  -13.4200 C   0  0  0  0  0
    6.0840  -19.1790  -13.0790 C   0  0  0  0  0
    5.1650  -19.1800  -13.8930 O   0  0  0  0  0
    8.3770  -19.6520  -14.4210 C   0  0  0  0  0
    8.3770  -21.1350  -13.9190 C   0  0  0  0  0
    7.3480  -22.0300  -14.2370 C   0  0  0  0  0
    9.3870  -21.6130  -13.1130 C   0  0  0  0  0
    7.3080  -23.3730  -13.8440 C   0  0  0  0  0
    9.3370  -22.9400  -12.6630 C   0  0  0  0  0
    8.3360  -23.8540  -13.0090 C   0  0  0  0  0
    5.7740  -19.4920  -11.8240 O   0  0  0  0  0
   10.2286  -26.7703   -4.9638 H   0  0  0  0  0
    9.6363  -23.4302   -5.4503 H   0  0  0  0  0
   11.0769  -21.2551  -10.5356 H   0  0  0  0  0
   10.2431  -19.7004  -10.7021 H   0  0  0  0  0
   10.1955  -17.2058  -10.1331 H   0  0  0  0  0
    8.6272  -17.5708   -9.3363 H   0  0  0  0  0
    8.5822  -19.6639  -11.7739 H   0  0  0  0  0
    7.3603  -17.8819  -13.9674 H   0  0  0  0  0
    9.3951  -19.2647  -14.4617 H   0  0  0  0  0
    7.9601  -19.5913  -15.4263 H   0  0  0  0  0
    6.5175  -21.6534  -14.8342 H   0  0  0  0  0
   10.2166  -20.9660  -12.8280 H   0  0  0  0  0
    6.5030  -24.0291  -14.1751 H   0  0  0  0  0
   10.1310  -23.2823  -11.9993 H   0  0  0  0  0
    8.3505  -24.8836  -12.6516 H   0  0  0  0  0
    6.5657  -19.4586  -11.2821 H   0  0  0  0  0
  1  2  2  0  0  0
  1  5  4  0  0  0
  7  1  1  0  0  0
  4  3  2  0  0  0
  4  5  1  0  0  0
  6  4  1  0  0  0
  9  6  4  0  0  0
  6 12  4  0  0  0
  9  7  1  0  0  0
 14  8  2  0  0  0
 10  9  4  0  0  0
 11 10  4  0  0  0
 11 13  4  0  0  0
 11 14  1  0  0  0
 12 13  4  0  0  0
 14 15  1  0  0  0
 15 16  1  0  0  0
 16 17  1  0  0  0
 17 18  2  0  0  0
 17 19  1  0  0  0
 19 20  1  0  0  0
 20 21  1  0  0  0
 20 23  1  0  0  0
 21 22  2  0  0  0
 21 30  1  0  0  0
 23 24  1  0  0  0
 24 25  4  0  0  0
 24 26  4  0  0  0
 25 27  4  0  0  0
 26 28  4  0  0  0
 27 29  4  0  0  0
 28 29  4  0  0  0
  2 31  1  0  0  0
  7 32  1  0  0  0
 13 33  1  0  0  0
 15 34  1  0  0  0
 16 35  1  0  0  0
 16 36  1  0  0  0
 19 37  1  0  0  0
 20 38  1  0  0  0
 23 39  1  0  0  0
 23 40  1  0  0  0
 25 41  1  0  0  0
 26 42  1  0  0  0
 27 43  1  0  0  0
 28 44  1  0  0  0
 29 45  1  0  0  0
 30 46  1  0  0  0
M  END
$$$$
