2h21_ligand
  -I-interpret- 

 51 53  0  0  0  0  0  0  0  0999 V2000
   71.0000  131.5610   50.0280 N   0  3  0  0  0
   69.6630  131.1270   50.4510 C   0  0  0  0  0
   68.7050  131.0350   49.2120 C   0  0  0  0  0
   67.4900  131.3030   49.3420 O   0  0  0  0  0
   69.1600  130.6940   48.0980 O   0  0  0  0  0
   69.1150  132.0950   51.5350 C   0  0  0  0  0
   69.6760  131.9000   52.9120 C   0  0  0  0  0
   68.8410  131.0100   53.8940 S   0  0  0  0  0
   68.5900  132.0440   55.3260 C   0  0  0  0  0
   70.1530  129.9610   54.5510 C   0  0  0  0  0
   70.6800  128.8680   53.6270 C   0  0  0  0  0
   71.4840  129.4410   52.5590 O   0  0  0  0  0
   71.6030  127.8680   54.2940 C   0  0  0  0  0
   70.9070  126.8090   54.9350 O   0  0  0  0  0
   72.4740  127.4060   53.1660 C   0  0  0  0  0
   71.9420  126.3750   52.3590 O   0  0  0  0  0
   72.7080  128.7410   52.4600 C   0  0  0  0  0
   73.8190  129.5430   53.0540 N   0  0  0  0  0
   73.7850  130.7130   53.8080 C   0  0  0  0  0
   74.9620  131.1550   54.1850 N   0  0  0  0  0
   75.8450  130.2200   53.6450 C   0  0  0  0  0
   77.2680  130.0880   53.6820 C   0  0  0  0  0
   78.0670  130.9540   54.3050 N   0  0  0  0  0
   77.8400  129.0220   53.0360 N   0  0  0  0  0
   77.0420  128.1340   52.3920 C   0  0  0  0  0
   75.6930  128.1480   52.2880 N   0  0  0  0  0
   75.1530  129.2200   52.9440 C   0  0  0  0  0
   71.3544  130.9218   49.3165 H   0  0  0  0  0
   70.9440  132.5036   49.6424 H   0  0  0  0  0
   71.6274  131.5581   50.8322 H   0  0  0  0  0
   69.7239  130.1315   50.8907 H   0  0  0  0  0
   67.3124  131.5439   50.2542 H   0  0  0  0  0
   68.0433  131.9094   51.6057 H   0  0  0  0  0
   69.3944  133.1017   51.2241 H   0  0  0  0  0
   69.7129  132.8913   53.3637 H   0  0  0  0  0
   70.6279  131.3863   52.7778 H   0  0  0  0  0
   69.5567  132.3197   55.7474 H   0  0  0  0  0
   68.0501  132.9442   55.0324 H   0  0  0  0  0
   68.0104  131.4976   56.0700 H   0  0  0  0  0
   69.7251  129.4472   55.4118 H   0  0  0  0  0
   70.9971  130.6220   54.7476 H   0  0  0  0  0
   69.7750  128.3683   53.2815 H   0  0  0  0  0
   72.1750  128.3035   55.1133 H   0  0  0  0  0
   71.5394  126.2096   55.3379 H   0  0  0  0  0
   73.3832  126.8948   53.4825 H   0  0  0  0  0
   72.5721  126.1522   51.6699 H   0  0  0  0  0
   73.0132  128.5650   51.4285 H   0  0  0  0  0
   72.8555  131.2212   54.0646 H   0  0  0  0  0
   77.6685  131.7597   54.7871 H   0  0  0  0  0
   79.0769  130.8110   54.2997 H   0  0  0  0  0
   77.5505  127.3067   51.8970 H   0  0  0  0  0
  1  2  1  0  0  0
  2  3  1  0  0  0
  2  6  1  0  0  0
  3  4  1  0  0  0
  3  5  2  0  0  0
  6  7  1  0  0  0
  7  8  1  0  0  0
  8  9  1  0  0  0
  8 10  1  0  0  0
 10 11  1  0  0  0
 11 12  1  0  0  0
 11 13  1  0  0  0
 12 17  1  0  0  0
 13 14  1  0  0  0
 13 15  1  0  0  0
 15 16  1  0  0  0
 15 17  1  0  0  0
 17 18  1  0  0  0
 18 19  4  0  0  0
 18 27  4  0  0  0
 19 20  4  0  0  0
 20 21  4  0  0  0
 21 22  4  0  0  0
 21 27  4  0  0  0
 22 23  1  0  0  0
 22 24  4  0  0  0
 24 25  4  0  0  0
 25 26  4  0  0  0
 26 27  4  0  0  0
  1 28  1  0  0  0
  1 29  1  0  0  0
  1 30  1  0  0  0
  2 31  1  0  0  0
  4 32  1  0  0  0
  6 33  1  0  0  0
  6 34  1  0  0  0
  7 35  1  0  0  0
  7 36  1  0  0  0
  9 37  1  0  0  0
  9 38  1  0  0  0
  9 39  1  0  0  0
 10 40  1  0  0  0
 10 41  1  0  0  0
 11 42  1  0  0  0
 13 43  1  0  0  0
 14 44  1  0  0  0
 15 45  1  0  0  0
 16 46  1  0  0  0
 17 47  1  0  0  0
 19 48  1  0  0  0
 23 49  1  0  0  0
 23 50  1  0  0  0
 25 51  1  0  0  0
M  END
$$$$
