5ajw_ligand
  -I-interpret- 

 53 56  0  0  0  0  0  0  0  0999 V2000
  -39.9410  -36.6850  -19.8030 O   0  0  0  0  0
  -40.3620  -35.5320  -19.7600 C   0  0  0  0  0
  -40.4570  -34.7460  -21.0670 C   0  0  0  0  0
  -39.2000  -34.8690  -21.8430 N   0  3  0  0  0
  -40.7490  -34.8950  -18.6300 N   0  0  0  0  0
  -40.9570  -35.4250  -17.3310 C   0  0  0  0  0
  -41.3780  -34.5620  -16.3230 C   0  0  0  0  0
  -41.6970  -35.0530  -15.0670 C   0  0  0  0  0
  -40.8350  -36.7870  -17.0580 C   0  0  0  0  0
  -41.1710  -37.2840  -15.8110 C   0  0  0  0  0
  -41.6130  -36.4170  -14.8180 C   0  0  0  0  0
  -42.0470  -36.9040  -13.5800 O   0  0  0  0  0
  -41.6420  -38.1530  -13.0980 C   0  0  0  0  0
  -40.3110  -38.3540  -12.7520 C   0  0  0  0  0
  -39.9090  -39.5640  -12.2120 C   0  0  0  0  0
  -42.5890  -39.1590  -12.9290 C   0  0  0  0  0
  -42.1960  -40.3800  -12.3770 C   0  0  0  0  0
  -40.8540  -40.5670  -12.0120 C   0  0  0  0  0
  -42.8680  -41.6080  -12.0560 C   0  0  0  0  0
  -44.2690  -41.8660  -12.2040 C   0  0  0  0  0
  -45.3960  -41.9890  -12.3480 N   0  0  0  0  0
  -41.9390  -42.4790  -11.4730 C   0  0  0  0  0
  -42.1340  -43.7290  -11.0210 N   0  0  0  0  0
  -40.7240  -41.8370  -11.4300 N   0  0  0  0  0
  -39.4810  -42.3740  -10.8270 C   0  0  0  0  0
  -38.4060  -42.7550  -11.8180 C   0  0  0  0  0
  -37.0610  -42.5980  -11.4960 C   0  0  0  0  0
  -36.0660  -42.9890  -12.3850 C   0  0  0  0  0
  -38.7300  -43.3200  -13.0480 C   0  0  0  0  0
  -37.7350  -43.7290  -13.9270 C   0  0  0  0  0
  -36.4030  -43.5610  -13.5980 C   0  0  0  0  0
  -40.6272  -33.6946  -20.8350 H   0  0  0  0  0
  -41.2789  -35.1462  -21.6606 H   0  0  0  0  0
  -39.2838  -34.3383  -22.7100 H   0  0  0  0  0
  -38.4243  -34.5018  -21.2918 H   0  0  0  0  0
  -39.0301  -35.8512  -22.0593 H   0  0  0  0  0
  -40.9142  -33.8931  -18.7263 H   0  0  0  0  0
  -41.4572  -33.4934  -16.5229 H   0  0  0  0  0
  -42.0127  -34.3713  -14.2773 H   0  0  0  0  0
  -40.4728  -37.4642  -17.8315 H   0  0  0  0  0
  -41.0894  -38.3518  -15.6079 H   0  0  0  0  0
  -39.5825  -37.5579  -12.9060 H   0  0  0  0  0
  -38.8649  -39.7295  -11.9465 H   0  0  0  0  0
  -43.6255  -38.9956  -13.2241 H   0  0  0  0  0
  -43.0586  -44.1553  -11.0829 H   0  0  0  0  0
  -41.3575  -44.2518  -10.6160 H   0  0  0  0  0
  -39.7564  -43.2845  -10.2947 H   0  0  0  0  0
  -39.0671  -41.5836  -10.2009 H   0  0  0  0  0
  -36.7844  -42.1633  -10.5354 H   0  0  0  0  0
  -35.0174  -42.8442  -12.1250 H   0  0  0  0  0
  -39.7770  -43.4431  -13.3249 H   0  0  0  0  0
  -38.0057  -44.1841  -14.8797 H   0  0  0  0  0
  -35.6230  -43.8775  -14.2905 H   0  0  0  0  0
  1  2  2  0  0  0
  2  3  1  0  0  0
  2  5  1  0  0  0
  3  4  1  0  0  0
  5  6  1  0  0  0
  6  7  4  0  0  0
  6  9  4  0  0  0
  7  8  4  0  0  0
  8 11  4  0  0  0
  9 10  4  0  0  0
 10 11  4  0  0  0
 11 12  1  0  0  0
 12 13  1  0  0  0
 13 14  4  0  0  0
 13 16  4  0  0  0
 14 15  4  0  0  0
 15 18  4  0  0  0
 16 17  4  0  0  0
 17 18  4  0  0  0
 17 19  4  0  0  0
 18 24  4  0  0  0
 19 20  1  0  0  0
 19 22  4  0  0  0
 20 21  3  0  0  0
 22 23  1  0  0  0
 22 24  4  0  0  0
 24 25  1  0  0  0
 25 26  1  0  0  0
 26 27  4  0  0  0
 26 29  4  0  0  0
 27 28  4  0  0  0
 28 31  4  0  0  0
 29 30  4  0  0  0
 30 31  4  0  0  0
  3 32  1  0  0  0
  3 33  1  0  0  0
  4 34  1  0  0  0
  4 35  1  0  0  0
  4 36  1  0  0  0
  5 37  1  0  0  0
  7 38  1  0  0  0
  8 39  1  0  0  0
  9 40  1  0  0  0
 10 41  1  0  0  0
 14 42  1  0  0  0
 15 43  1  0  0  0
 16 44  1  0  0  0
 23 45  1  0  0  0
 23 46  1  0  0  0
 25 47  1  0  0  0
 25 48  1  0  0  0
 27 49  1  0  0  0
 28 50  1  0  0  0
 29 51  1  0  0  0
 30 52  1  0  0  0
 31 53  1  0  0  0
M  END
$$$$
