4ibd_ligand
  -I-interpret- 

 47 50  0  0  0  0  0  0  0  0999 V2000
   -3.1400   19.0970    0.5070 O   0  0  0  0  0
   -3.1600   19.8840   -0.4730 C   0  0  0  0  0
   -4.2690   20.0980   -1.0150 O   0  0  0  0  0
   -1.8690   20.5040   -0.9260 C   0  0  0  0  0
   -0.7400   20.1550   -0.1970 C   0  0  0  0  0
   -1.7290   21.3940   -2.0010 C   0  0  0  0  0
   -2.8670   21.8560   -2.8610 C   0  0  0  0  0
   -0.4750   21.8950   -2.3120 C   0  0  0  0  0
    0.6460   21.5330   -1.5830 C   0  0  0  0  0
    0.5160   20.6580   -0.5150 C   0  0  0  0  0
    1.6700   20.2830    0.2540 N   0  0  0  0  0
    2.5870   21.1380    0.7130 C   0  0  0  0  0
    2.0610   22.1960    1.5930 C   0  0  0  0  0
    1.3970   21.8320    3.0920 S   0  0  0  0  0
    0.9940   23.3860    3.5870 C   0  0  0  0  0
    1.3930   24.2100    2.5310 C   0  0  0  0  0
    1.1520   26.1120    2.6060 Br  0  0  0  0  0
    1.9970   23.5770    1.4060 C   0  0  0  0  0
    2.0160   19.0300    0.5550 C   0  0  0  0  0
    1.2730   17.9300    0.2500 O   0  0  0  0  0
    3.2470   19.0630    1.2080 C   0  0  0  0  0
    3.9520   17.9770    1.6630 O   0  0  0  0  0
    3.6230   20.4040    1.2840 C   0  0  0  0  0
    4.8600   21.0550    1.8110 C   0  0  0  0  0
    5.1510   22.1480    1.3330 O   0  0  0  0  0
    5.7370   20.4680    2.8690 C   0  0  0  0  0
    7.0860   20.7880    2.8610 C   0  0  0  0  0
    7.9350   20.2690    3.8330 C   0  0  0  0  0
    7.4330   19.4250    4.8160 C   0  0  0  0  0
    6.0790   19.1070    4.8340 C   0  0  0  0  0
    5.2290   19.6280    3.8610 C   0  0  0  0  0
   -2.2405   19.0157    0.8323 H   0  0  0  0  0
   -0.8412   19.4701    0.6449 H   0  0  0  0  0
   -3.3297   20.9946   -3.3427 H   0  0  0  0  0
   -3.6042   22.3673   -2.2420 H   0  0  0  0  0
   -2.4914   22.5408   -3.6213 H   0  0  0  0  0
   -0.3685   22.5877   -3.1468 H   0  0  0  0  0
    1.6246   21.9336   -1.8473 H   0  0  0  0  0
    2.9687   21.7105   -0.1324 H   0  0  0  0  0
    0.5251   23.6854    4.5243 H   0  0  0  0  0
    2.3592   24.1001    0.5210 H   0  0  0  0  0
    3.4567   17.1755    1.4791 H   0  0  0  0  0
    7.4828   21.4487    2.0902 H   0  0  0  0  0
    8.9946   20.5245    3.8235 H   0  0  0  0  0
    8.1000   19.0122    5.5728 H   0  0  0  0  0
    5.6833   18.4505    5.6090 H   0  0  0  0  0
    4.1677   19.3797    3.8745 H   0  0  0  0  0
  1  2  1  0  0  0
  2  3  2  0  0  0
  2  4  1  0  0  0
  4  5  4  0  0  0
  4  6  4  0  0  0
  5 10  4  0  0  0
  6  7  1  0  0  0
  6  8  4  0  0  0
  8  9  4  0  0  0
  9 10  4  0  0  0
 10 11  1  0  0  0
 11 12  1  0  0  0
 11 19  1  0  0  0
 12 13  1  0  0  0
 12 23  1  0  0  0
 13 14  4  0  0  0
 13 18  4  0  0  0
 14 15  4  0  0  0
 15 16  4  0  0  0
 16 17  1  0  0  0
 16 18  4  0  0  0
 19 20  2  0  0  0
 19 21  1  0  0  0
 21 22  1  0  0  0
 21 23  2  0  0  0
 23 24  1  0  0  0
 24 25  2  0  0  0
 24 26  1  0  0  0
 26 27  4  0  0  0
 26 31  4  0  0  0
 27 28  4  0  0  0
 28 29  4  0  0  0
 29 30  4  0  0  0
 30 31  4  0  0  0
  1 32  1  0  0  0
  5 33  1  0  0  0
  7 34  1  0  0  0
  7 35  1  0  0  0
  7 36  1  0  0  0
  8 37  1  0  0  0
  9 38  1  0  0  0
 12 39  1  0  0  0
 15 40  1  0  0  0
 18 41  1  0  0  0
 22 42  1  0  0  0
 27 43  1  0  0  0
 28 44  1  0  0  0
 29 45  1  0  0  0
 30 46  1  0  0  0
 31 47  1  0  0  0
M  END
$$$$
