6g9b_ligand
  -I-interpret- 

 46 48  0  0  0  0  0  0  0  0999 V2000
  -48.7760   11.5450   -2.8590 C   0  0  0  0  0
  -49.1120   12.4740   -1.8700 C   0  0  0  0  0
  -50.4270   12.5650   -1.4030 C   0  0  0  0  0
  -51.4050   11.7340   -1.9100 C   0  0  0  0  0
  -51.0830   10.8010   -2.8930 C   0  0  0  0  0
  -46.8760   13.5070   -6.6200 C   0  0  0  0  0
  -49.4420    9.6550   -4.4720 C   0  0  0  0  0
  -48.0160    9.6640   -5.0370 C   0  0  0  0  0
  -47.4100   11.3400   -3.4420 N   0  0  0  0  0
  -47.2350   12.5320   -7.5630 C   0  0  0  0  0
  -44.3310    9.8550    0.0590 N   0  3  0  0  0
  -47.6170   11.2640   -7.1330 C   0  0  0  0  0
  -46.9000   13.2050   -5.2450 C   0  0  0  0  0
  -49.7650   10.7090   -3.3550 C   0  0  0  0  0
  -47.6490   10.9620   -5.7400 C   0  0  0  0  0
  -47.2910   11.9190   -4.8170 C   0  0  0  0  0
  -46.4000   11.8640   -2.5460 C   0  0  0  0  0
  -45.9900   10.6890   -1.5730 C   0  0  0  0  0
  -44.6770   11.0290   -0.8350 C   0  0  0  0  0
  -43.3870    8.9890   -0.6290 C   0  0  0  0  0
  -43.7640   10.3360    1.3190 C   0  0  0  0  0
  -48.3448   13.1311   -1.4606 H   0  0  0  0  0
  -50.6806   13.2957   -0.6350 H   0  0  0  0  0
  -52.4283   11.8075   -1.5418 H   0  0  0  0  0
  -51.8533   10.1461   -3.3002 H   0  0  0  0  0
  -46.5777   14.5011   -6.9529 H   0  0  0  0  0
  -49.5752    8.6771   -4.0093 H   0  0  0  0  0
  -50.0978    9.8944   -5.3090 H   0  0  0  0  0
  -47.9508    8.8632   -5.7735 H   0  0  0  0  0
  -47.3309    9.5411   -4.1982 H   0  0  0  0  0
  -47.2149   12.7662   -8.6274 H   0  0  0  0  0
  -45.1761    9.3242    0.2699 H   0  0  0  0  0
  -47.8918   10.5016   -7.8619 H   0  0  0  0  0
  -46.6174   13.9623   -4.5138 H   0  0  0  0  0
  -46.7874   12.7131   -1.9830 H   0  0  0  0  0
  -45.5353   12.2200   -3.1061 H   0  0  0  0  0
  -45.8420    9.7811   -2.1578 H   0  0  0  0  0
  -46.7820   10.5461   -0.8378 H   0  0  0  0  0
  -43.8755   11.2082   -1.5516 H   0  0  0  0  0
  -44.8005   11.9341   -0.2403 H   0  0  0  0  0
  -43.8366    8.6249   -1.5528 H   0  0  0  0  0
  -42.4823    9.5512   -0.8606 H   0  0  0  0  0
  -43.1370    8.1440    0.0125 H   0  0  0  0  0
  -42.8603   10.9099    1.1137 H   0  0  0  0  0
  -44.4918   10.9705    1.8247 H   0  0  0  0  0
  -43.5189    9.4847    1.9541 H   0  0  0  0  0
  1  2  4  0  0  0
  9  1  1  0  0  0
  1 14  4  0  0  0
  2  3  4  0  0  0
  3  4  4  0  0  0
  5  4  4  0  0  0
 14  5  4  0  0  0
  6 10  4  0  0  0
 13  6  4  0  0  0
  8  7  1  0  0  0
 14  7  1  0  0  0
 15  8  1  0  0  0
  9 16  1  0  0  0
 17  9  1  0  0  0
 12 10  4  0  0  0
 19 11  1  0  0  0
 11 20  1  0  0  0
 11 21  1  0  0  0
 15 12  4  0  0  0
 16 13  4  0  0  0
 16 15  4  0  0  0
 18 17  1  0  0  0
 18 19  1  0  0  0
  2 22  1  0  0  0
  3 23  1  0  0  0
  4 24  1  0  0  0
  5 25  1  0  0  0
  6 26  1  0  0  0
  7 27  1  0  0  0
  7 28  1  0  0  0
  8 29  1  0  0  0
  8 30  1  0  0  0
 10 31  1  0  0  0
 11 32  1  0  0  0
 12 33  1  0  0  0
 13 34  1  0  0  0
 17 35  1  0  0  0
 17 36  1  0  0  0
 18 37  1  0  0  0
 18 38  1  0  0  0
 19 39  1  0  0  0
 19 40  1  0  0  0
 20 41  1  0  0  0
 20 42  1  0  0  0
 20 43  1  0  0  0
 21 44  1  0  0  0
 21 45  1  0  0  0
 21 46  1  0  0  0
M  END
$$$$
