3tne_ligand
  -I-interpret- 

 98101  0  0  0  0  0  0  0  0999 V2000
    2.8150  -26.1570  -28.0330 C   0  0  0  0  0
    3.9470  -26.5360  -27.3180 C   0  0  0  0  0
    3.7290  -28.1040  -26.6090 S   0  0  0  0  0
    2.1510  -28.2710  -27.2870 C   0  0  0  0  0
    1.8480  -27.1420  -27.9920 N   0  0  0  0  0
    5.2470  -25.8690  -27.0090 C   0  0  0  0  0
    4.9610  -24.5250  -26.6730 O   0  0  0  0  0
    5.6960  -23.4980  -27.3990 C   0  0  0  0  0
    6.6360  -23.8230  -28.1240 O   0  0  0  0  0
    5.3590  -22.2280  -27.2570 N   0  0  0  0  0
    6.1910  -21.2110  -27.8800 C   0  0  0  0  0
    6.2250  -20.0070  -26.9340 C   0  0  0  0  0
    6.6640  -20.3200  -25.4850 C   0  0  0  0  0
    8.1730  -20.3470  -25.2060 C   0  0  0  0  0
    5.7150  -20.9260  -29.3210 C   0  0  0  0  0
    5.8430  -22.1550  -30.2150 C   0  0  0  0  0
    6.9970  -22.3510  -30.9960 C   0  0  0  0  0
    7.1340  -23.4790  -31.8300 C   0  0  0  0  0
    6.1260  -24.4420  -31.8900 C   0  0  0  0  0
    4.9740  -24.2600  -31.1200 C   0  0  0  0  0
    4.8280  -23.1210  -30.2890 C   0  0  0  0  0
    4.9160  -19.4520  -26.8900 O   0  0  0  0  0
    8.4980  -19.5050  -23.9590 C   0  0  0  0  0
    9.8610  -19.7440  -23.3170 C   0  0  0  0  0
   10.1350  -18.9940  -22.1740 C   0  0  0  0  0
   11.3340  -19.1330  -21.4580 C   0  0  0  0  0
   12.2850  -20.0550  -21.8890 C   0  0  0  0  0
   12.0250  -20.8220  -23.0350 C   0  0  0  0  0
   10.8220  -20.6790  -23.7460 C   0  0  0  0  0
    8.9460  -19.7340  -26.2510 N   0  0  0  0  0
   11.7110  -18.9270  -27.3250 N   0  0  0  0  0
   10.4480  -19.2890  -27.9360 C   0  0  0  0  0
    9.7760  -20.3210  -27.0970 C   0  0  0  0  0
   10.0290  -21.5200  -27.2180 O   0  0  0  0  0
   10.7130  -19.8110  -29.3620 C   0  0  0  0  0
    9.4270  -19.9800  -30.1530 C   0  0  0  0  0
   11.7070  -18.9330  -30.1190 C   0  0  0  0  0
   12.1610  -17.7030  -27.4110 C   0  0  0  0  0
   13.4640  -17.4990  -27.5110 N   0  0  0  0  0
   14.0710  -16.2830  -26.9960 C   0  0  0  0  0
   11.4060  -16.7770  -27.5530 O   0  0  0  0  0
   14.0030  -16.3670  -25.5060 C   0  0  0  0  0
   12.8330  -16.6210  -24.7810 C   0  0  0  0  0
   13.1900  -16.6510  -23.0900 S   0  0  0  0  0
   14.8830  -16.3350  -23.3860 C   0  0  0  0  0
   15.1200  -16.2200  -24.7250 N   0  0  0  0  0
   15.7900  -16.2480  -22.2110 C   0  0  0  0  0
   15.0210  -15.8990  -20.9300 C   0  0  0  0  0
   16.9160  -15.2470  -22.5190 C   0  0  0  0  0
   14.3970  -18.4060  -28.1880 C   0  0  0  0  0
    2.7059  -25.2073  -28.5567 H   0  0  0  0  0
    1.5009  -29.1382  -27.1710 H   0  0  0  0  0
    5.9148  -25.9148  -27.8692 H   0  0  0  0  0
    5.7484  -26.3720  -26.1821 H   0  0  0  0  0
    4.5316  -21.9663  -26.7210 H   0  0  0  0  0
    7.2222  -21.5370  -28.0156 H   0  0  0  0  0
    6.9755  -19.3249  -27.3335 H   0  0  0  0  0
    6.3041  -21.3273  -25.2755 H   0  0  0  0  0
    6.2617  -19.5142  -24.8710 H   0  0  0  0  0
    8.4225  -21.4028  -25.1007 H   0  0  0  0  0
    6.3382  -20.1342  -29.7368 H   0  0  0  0  0
    4.6643  -20.6382  -29.2835 H   0  0  0  0  0
    7.8009  -21.6160  -30.9552 H   0  0  0  0  0
    8.0342  -23.6000  -32.4326 H   0  0  0  0  0
    6.2351  -25.3205  -32.5260 H   0  0  0  0  0
    4.1777  -25.0033  -31.1590 H   0  0  0  0  0
    3.9185  -22.9943  -29.7018 H   0  0  0  0  0
    4.9109  -18.6933  -26.3018 H   0  0  0  0  0
    7.7570  -19.7777  -23.2076 H   0  0  0  0  0
    8.4952  -18.4653  -24.2862 H   0  0  0  0  0
    9.3932  -18.2757  -21.8249 H   0  0  0  0  0
   11.5194  -18.5249  -20.5726 H   0  0  0  0  0
   13.2200  -20.1792  -21.3426 H   0  0  0  0  0
   12.7688  -21.5406  -23.3791 H   0  0  0  0  0
   10.6330  -21.2908  -24.6281 H   0  0  0  0  0
    8.8420  -18.7244  -26.3525 H   0  0  0  0  0
   12.2523  -19.6319  -26.8246 H   0  0  0  0  0
    9.7905  -18.4221  -28.0022 H   0  0  0  0  0
   11.1645  -20.7967  -29.2498 H   0  0  0  0  0
    8.7794  -20.6933  -29.6431 H   0  0  0  0  0
    8.9203  -19.0180  -30.2302 H   0  0  0  0  0
    9.6618  -20.3495  -31.1512 H   0  0  0  0  0
   11.3107  -17.9205  -30.1954 H   0  0  0  0  0
   12.6553  -18.9138  -29.5819 H   0  0  0  0  0
   11.8620  -19.3402  -31.1181 H   0  0  0  0  0
   13.5433  -15.4013  -27.3598 H   0  0  0  0  0
   15.1035  -16.1914  -27.3331 H   0  0  0  0  0
   11.8461  -16.7764  -25.2168 H   0  0  0  0  0
   16.2407  -17.2231  -22.0259 H   0  0  0  0  0
   14.5259  -14.9361  -21.0559 H   0  0  0  0  0
   14.2753  -16.6695  -20.7341 H   0  0  0  0  0
   15.7173  -15.8443  -20.0932 H   0  0  0  0  0
   17.4750  -15.5877  -23.3905 H   0  0  0  0  0
   16.4838  -14.2674  -22.7232 H   0  0  0  0  0
   17.5846  -15.1788  -21.6608 H   0  0  0  0  0
   14.3649  -19.3836  -27.7070 H   0  0  0  0  0
   14.1101  -18.5052  -29.2349 H   0  0  0  0  0
   15.4069  -18.0009  -28.1235 H   0  0  0  0  0
  2  1  4  0  0  0
  1  5  4  0  0  0
  2  3  4  0  0  0
  6  2  1  0  0  0
  3  4  4  0  0  0
  4  5  4  0  0  0
  7  6  1  0  0  0
  8  7  1  0  0  0
  8  9  2  0  0  0
 10  8  1  0  0  0
 11 10  1  0  0  0
 12 11  1  0  0  0
 11 15  1  0  0  0
 13 12  1  0  0  0
 12 22  1  0  0  0
 14 13  1  0  0  0
 14 23  1  0  0  0
 30 14  1  0  0  0
 15 16  1  0  0  0
 16 17  4  0  0  0
 16 21  4  0  0  0
 17 18  4  0  0  0
 18 19  4  0  0  0
 20 19  4  0  0  0
 21 20  4  0  0  0
 23 24  1  0  0  0
 24 25  4  0  0  0
 24 29  4  0  0  0
 25 26  4  0  0  0
 26 27  4  0  0  0
 28 27  4  0  0  0
 29 28  4  0  0  0
 33 30  1  0  0  0
 32 31  1  0  0  0
 31 38  1  0  0  0
 32 33  1  0  0  0
 32 35  1  0  0  0
 33 34  2  0  0  0
 35 36  1  0  0  0
 35 37  1  0  0  0
 38 39  1  0  0  0
 38 41  2  0  0  0
 39 40  1  0  0  0
 39 50  1  0  0  0
 40 42  1  0  0  0
 42 43  4  0  0  0
 42 46  4  0  0  0
 43 44  4  0  0  0
 44 45  4  0  0  0
 45 46  4  0  0  0
 45 47  1  0  0  0
 47 48  1  0  0  0
 47 49  1  0  0  0
  1 51  1  0  0  0
  4 52  1  0  0  0
  6 53  1  0  0  0
  6 54  1  0  0  0
 10 55  1  0  0  0
 11 56  1  0  0  0
 12 57  1  0  0  0
 13 58  1  0  0  0
 13 59  1  0  0  0
 14 60  1  0  0  0
 15 61  1  0  0  0
 15 62  1  0  0  0
 17 63  1  0  0  0
 18 64  1  0  0  0
 19 65  1  0  0  0
 20 66  1  0  0  0
 21 67  1  0  0  0
 22 68  1  0  0  0
 23 69  1  0  0  0
 23 70  1  0  0  0
 25 71  1  0  0  0
 26 72  1  0  0  0
 27 73  1  0  0  0
 28 74  1  0  0  0
 29 75  1  0  0  0
 30 76  1  0  0  0
 31 77  1  0  0  0
 32 78  1  0  0  0
 35 79  1  0  0  0
 36 80  1  0  0  0
 36 81  1  0  0  0
 36 82  1  0  0  0
 37 83  1  0  0  0
 37 84  1  0  0  0
 37 85  1  0  0  0
 40 86  1  0  0  0
 40 87  1  0  0  0
 43 88  1  0  0  0
 47 89  1  0  0  0
 48 90  1  0  0  0
 48 91  1  0  0  0
 48 92  1  0  0  0
 49 93  1  0  0  0
 49 94  1  0  0  0
 49 95  1  0  0  0
 50 96  1  0  0  0
 50 97  1  0  0  0
 50 98  1  0  0  0
M  END
$$$$
