4bhi_ligand
  -I-interpret- 

 29 28  0  0  0  0  0  0  0  0999 V2000
   20.8580   26.8470   88.3870 O   0  0  0  0  0
   21.7620   27.4390   87.7690 C   0  0  0  0  0
   22.9620   27.0540   87.8180 O   0  0  0  0  0
   21.4390   28.6160   86.8530 C   0  0  0  0  0
   20.9320   29.8880   87.4820 C   0  0  0  0  0
   21.9950   30.6770   88.1100 N   0  3  0  0  0
   22.4810   30.0590   89.3340 C   0  0  0  0  0
   22.4760   31.8990   87.6630 N   0  3  0  0  0
   23.8620   31.7800   87.1510 C   0  0  0  0  0
   21.6430   32.5010   86.5980 C   0  0  0  0  0
   22.5010   32.8770   88.7590 C   0  0  0  0  0
   23.5053   27.6344   87.2798 H   0  0  0  0  0
   20.6283   28.2684   86.2126 H   0  0  0  0  0
   22.3857   28.8842   86.3841 H   0  0  0  0  0
   20.2181   29.6136   88.2586 H   0  0  0  0  0
   20.4884   30.4955   86.6932 H   0  0  0  0  0
   22.3446   31.3220   87.4014 H   0  0  0  0  0
   23.5535   29.8835   89.2499 H   0  0  0  0  0
   22.2850   30.7219   90.1768 H   0  0  0  0  0
   21.9674   29.1102   89.4892 H   0  0  0  0  0
   23.8674   31.1452   86.2650 H   0  0  0  0  0
   24.2388   32.7697   86.8928 H   0  0  0  0  0
   24.4954   31.3380   87.9201 H   0  0  0  0  0
   22.0361   33.4854   86.3438 H   0  0  0  0  0
   21.6647   31.8609   85.7160 H   0  0  0  0  0
   20.6169   32.5986   86.9526 H   0  0  0  0  0
   23.1714   32.5250   89.5431 H   0  0  0  0  0
   22.8545   33.8361   88.3804 H   0  0  0  0  0
   21.4956   32.9929   89.1638 H   0  0  0  0  0
  1  2  2  0  0  0
  2  3  1  0  0  0
  2  4  1  0  0  0
  4  5  1  0  0  0
  5  6  1  0  0  0
  6  7  1  0  0  0
  6  8  1  0  0  0
  8  9  1  0  0  0
  8 10  1  0  0  0
  8 11  1  0  0  0
  3 12  1  0  0  0
  4 13  1  0  0  0
  4 14  1  0  0  0
  5 15  1  0  0  0
  5 16  1  0  0  0
  6 17  1  0  0  0
  7 18  1  0  0  0
  7 19  1  0  0  0
  7 20  1  0  0  0
  9 21  1  0  0  0
  9 22  1  0  0  0
  9 23  1  0  0  0
 10 24  1  0  0  0
 10 25  1  0  0  0
 10 26  1  0  0  0
 11 27  1  0  0  0
 11 28  1  0  0  0
 11 29  1  0  0  0
M  END
$$$$
