3vf3_ligand
  -I-interpret- 

 56 58  0  0  0  0  0  0  0  0999 V2000
   29.3810   78.9180   19.8940 Br  0  0  0  0  0
   30.1390   77.3370   20.5050 C   0  0  0  0  0
   31.3930   77.2540   21.1810 C   0  0  0  0  0
   31.8640   75.9770   21.5940 C   0  0  0  0  0
   31.1140   74.8060   21.3480 C   0  0  0  0  0
   29.8700   74.8920   20.6740 C   0  0  0  0  0
   29.3930   76.1630   20.2630 C   0  0  0  0  0
   29.0400   73.6260   20.3770 C   0  0  0  0  0
   29.7230   72.7210   19.2810 C   0  0  0  0  0
   28.8460   71.5130   18.8070 C   0  0  0  0  0
   29.5950   70.5510   17.8270 C   0  0  0  0  0
   30.1430   71.2460   16.5490 C   0  0  0  0  0
   31.2730   72.5680   17.0070 S   0  0  0  0  0
   30.1910   73.5540   18.0410 C   0  0  0  0  0
   31.6000   73.3340   15.8180 O   0  0  0  0  0
   32.3760   72.0310   17.7830 O   0  0  0  0  0
   28.7710   69.3580   17.4880 N   0  3  0  0  0
   29.3980   68.1270   16.9310 C   0  0  0  0  0
   30.4660   67.5790   17.8990 C   0  0  0  0  0
   30.0700   67.0210   19.1380 C   0  0  0  0  0
   31.0200   66.5080   20.0570 C   0  0  0  0  0
   32.4020   66.5860   19.7220 C   0  0  0  0  0
   32.8140   67.1400   18.4840 C   0  0  0  0  0
   31.8480   67.6460   17.5790 C   0  0  0  0  0
   30.5370   65.9020   21.3960 C   0  0  0  0  0
   29.1780   65.8110   21.4370 F   0  0  0  0  0
   30.9250   66.6790   22.4470 F   0  0  0  0  0
   31.0870   64.4690   21.5920 C   0  0  0  0  0
   28.4640   70.6540   19.8960 O   0  0  0  0  0
   33.0330   75.8630   22.2240 F   0  0  0  0  0
   32.1630   78.3410   21.4460 N   0  0  0  0  0
   31.4912   73.8374   21.6760 H   0  0  0  0  0
   28.4333   76.2346   19.7512 H   0  0  0  0  0
   28.0635   73.9362   20.0050 H   0  0  0  0  0
   28.9579   73.0468   21.2967 H   0  0  0  0  0
   30.5945   72.3007   19.7829 H   0  0  0  0  0
   27.9945   71.9984   18.3301 H   0  0  0  0  0
   30.4747   70.2134   18.3748 H   0  0  0  0  0
   29.3109   71.6646   15.9828 H   0  0  0  0  0
   30.6744   70.5135   15.9415 H   0  0  0  0  0
   30.7322   74.4350   18.3862 H   0  0  0  0  0
   29.3177   73.8527   17.4612 H   0  0  0  0  0
   28.1588   69.6842   16.7402 H   0  0  0  0  0
   28.3894   69.0575   18.3850 H   0  0  0  0  0
   29.8732   68.3707   15.9808 H   0  0  0  0  0
   28.6267   67.3699   16.7894 H   0  0  0  0  0
   29.0105   66.9848   19.3914 H   0  0  0  0  0
   33.1496   66.2164   20.4238 H   0  0  0  0  0
   33.8730   67.1768   18.2283 H   0  0  0  0  0
   32.1665   68.0878   16.6348 H   0  0  0  0  0
   30.7406   63.8336   20.7769 H   0  0  0  0  0
   32.1766   64.4967   21.5950 H   0  0  0  0  0
   30.7298   64.0708   22.5417 H   0  0  0  0  0
   27.9300   69.9307   19.5594 H   0  0  0  0  0
   31.8517   79.2688   21.1585 H   0  0  0  0  0
   33.0526   78.2295   21.9325 H   0  0  0  0  0
  1  2  1  0  0  0
  2  3  4  0  0  0
  2  7  4  0  0  0
  3  4  4  0  0  0
  3 31  1  0  0  0
  4  5  4  0  0  0
  4 30  1  0  0  0
  5  6  4  0  0  0
  6  7  4  0  0  0
  6  8  1  0  0  0
  8  9  1  0  0  0
  9 10  1  0  0  0
  9 14  1  0  0  0
 10 11  1  0  0  0
 10 29  1  0  0  0
 11 12  1  0  0  0
 11 17  1  0  0  0
 12 13  1  0  0  0
 13 14  1  0  0  0
 13 15  2  0  0  0
 13 16  2  0  0  0
 17 18  1  0  0  0
 18 19  1  0  0  0
 19 20  4  0  0  0
 19 24  4  0  0  0
 20 21  4  0  0  0
 21 22  4  0  0  0
 21 25  1  0  0  0
 22 23  4  0  0  0
 23 24  4  0  0  0
 25 26  1  0  0  0
 25 27  1  0  0  0
 25 28  1  0  0  0
  5 32  1  0  0  0
  7 33  1  0  0  0
  8 34  1  0  0  0
  8 35  1  0  0  0
  9 36  1  0  0  0
 10 37  1  0  0  0
 11 38  1  0  0  0
 12 39  1  0  0  0
 12 40  1  0  0  0
 14 41  1  0  0  0
 14 42  1  0  0  0
 17 43  1  0  0  0
 17 44  1  0  0  0
 18 45  1  0  0  0
 18 46  1  0  0  0
 20 47  1  0  0  0
 22 48  1  0  0  0
 23 49  1  0  0  0
 24 50  1  0  0  0
 28 51  1  0  0  0
 28 52  1  0  0  0
 28 53  1  0  0  0
 29 54  1  0  0  0
 31 55  1  0  0  0
 31 56  1  0  0  0
M  END
$$$$
