3d4y_ligand
  -I-interpret- 

 26 27  0  0  0  0  0  0  0  0999 V2000
   30.9340   65.6600   10.2270 C   0  0  0  0  0
   29.8310   65.9680    9.4220 N   0  0  0  0  0
   32.5490   66.0090    8.2860 C   0  0  0  0  0
   31.2980   65.8130    7.4150 C   0  0  0  0  0
   29.9510   66.2590    7.9880 C   0  0  0  0  0
   28.8310   65.6510    7.1850 C   0  0  0  0  0
   29.1610   65.7970   11.5000 C   0  0  0  0  0
   28.7570   66.0700   10.2400 C   0  0  0  0  0
   30.4730   65.5630   11.4940 N   0  0  0  0  0
   33.6670   65.4600    7.6320 O   0  0  0  0  0
   33.1470   64.3740    9.9060 O   0  0  0  0  0
   31.4580   66.6910    6.2940 O   0  0  0  0  0
   32.3960   65.5560    9.6900 C   0  0  0  0  0
   27.5810   66.1010    7.6760 O   0  0  0  0  0
   32.7085   67.0816    8.3968 H   0  0  0  0  0
   31.2506   64.7367    7.2493 H   0  0  0  0  0
   29.8843   67.3437    7.9040 H   0  0  0  0  0
   28.8787   64.5653    7.2690 H   0  0  0  0  0
   28.9348   65.9504    6.1421 H   0  0  0  0  0
   28.5177   65.7721   12.3796 H   0  0  0  0  0
   27.7427   66.3276    9.9350 H   0  0  0  0  0
   33.7057   65.7933    6.7325 H   0  0  0  0  0
   33.0405   64.0905   10.8170 H   0  0  0  0  0
   32.2873   66.4956    5.8517 H   0  0  0  0  0
   32.8599   66.2625   10.3782 H   0  0  0  0  0
   26.8747   65.7081    7.1579 H   0  0  0  0  0
  1  2  4  0  0  0
  1  9  4  0  0  0
 13  1  1  0  0  0
  2  5  1  0  0  0
  2  8  4  0  0  0
  3  4  1  0  0  0
  3 10  1  0  0  0
  3 13  1  0  0  0
  4  5  1  0  0  0
  4 12  1  0  0  0
  5  6  1  0  0  0
  6 14  1  0  0  0
  8  7  4  0  0  0
  7  9  4  0  0  0
 13 11  1  0  0  0
  3 15  1  0  0  0
  4 16  1  0  0  0
  5 17  1  0  0  0
  6 18  1  0  0  0
  6 19  1  0  0  0
  7 20  1  0  0  0
  8 21  1  0  0  0
 10 22  1  0  0  0
 11 23  1  0  0  0
 12 24  1  0  0  0
 13 25  1  0  0  0
 14 26  1  0  0  0
M  END
$$$$
