5v13_ligand
  -I-interpret- 

 45 45  0  0  0  0  0  0  0  0999 V2000
  243.1900  -23.7020  355.0400 C   0  0  0  0  0
  243.1650  -22.5690  354.5830 O   0  0  0  0  0
  243.9030  -23.9030  356.2780 O   0  0  0  0  0
  244.2910  -22.7370  357.0100 C   0  0  0  0  0
  242.5120  -24.8660  354.4290 C   0  0  0  0  0
  241.8200  -24.9150  353.2800 C   0  0  0  0  0
  241.6220  -23.7450  352.3560 C   0  0  0  0  0
  241.2100  -26.2440  352.9180 C   0  0  0  0  0
  239.7860  -26.0780  352.4040 C   0  0  0  0  0
  239.0050  -27.3770  352.4930 C   0  0  0  0  0
  238.8580  -28.2410  351.4750 C   0  0  0  0  0
  239.5290  -27.9980  350.1510 C   0  0  0  0  0
  238.0450  -29.5150  351.6830 C   0  0  0  0  0
  236.8550  -29.5680  350.7210 C   0  0  0  0  0
  236.0020  -28.3130  350.8990 C   0  0  0  0  0
  234.7410  -28.3780  350.2200 O   0  0  0  0  0
  234.6750  -28.4480  351.6490 C   0  0  0  0  0
  234.1760  -27.1590  352.3110 C   0  0  0  0  0
  234.0640  -29.7820  352.0680 C   0  0  0  0  0
  244.9481  -22.1241  356.3930 H   0  0  0  0  0
  243.4025  -22.1645  357.2765 H   0  0  0  0  0
  244.8170  -23.0369  357.9164 H   0  0  0  0  0
  242.5834  -25.8026  354.9819 H   0  0  0  0  0
  241.1061  -22.9462  352.8888 H   0  0  0  0  0
  242.5924  -23.3867  352.0124 H   0  0  0  0  0
  241.0245  -24.0571  351.4995 H   0  0  0  0  0
  241.1859  -26.8692  353.8105 H   0  0  0  0  0
  241.8118  -26.6992  352.1314 H   0  0  0  0  0
  239.8305  -25.7738  351.3583 H   0  0  0  0  0
  239.2830  -25.3309  353.0180 H   0  0  0  0  0
  238.5333  -27.6244  353.4440 H   0  0  0  0  0
  239.1787  -27.0531  349.7356 H   0  0  0  0  0
  240.6086  -27.9552  350.2947 H   0  0  0  0  0
  239.2842  -28.8102  349.4666 H   0  0  0  0  0
  237.6691  -29.5274  352.7061 H   0  0  0  0  0
  238.6872  -30.3751  351.4934 H   0  0  0  0  0
  236.2527  -30.4508  350.9355 H   0  0  0  0  0
  237.2187  -29.6183  349.6947 H   0  0  0  0  0
  236.8499  -27.6317  350.9703 H   0  0  0  0  0
  234.9136  -26.8154  353.0362 H   0  0  0  0  0
  234.0301  -26.3936  351.5488 H   0  0  0  0  0
  233.2306  -27.3544  352.8171 H   0  0  0  0  0
  233.8838  -30.3917  351.1826 H   0  0  0  0  0
  234.7519  -30.3018  352.7348 H   0  0  0  0  0
  233.1213  -29.6021  352.5848 H   0  0  0  0  0
  1  2  2  0  0  0
  1  3  1  0  0  0
  1  5  1  0  0  0
  3  4  1  0  0  0
  5  6  2  0  0  0
  6  7  1  0  0  0
  6  8  1  0  0  0
  8  9  1  0  0  0
  9 10  1  0  0  0
 10 11  2  0  0  0
 11 12  1  0  0  0
 11 13  1  0  0  0
 13 14  1  0  0  0
 14 15  1  0  0  0
 15 16  1  0  0  0
 15 17  1  0  0  0
 16 17  1  0  0  0
 17 18  1  0  0  0
 17 19  1  0  0  0
  4 20  1  0  0  0
  4 21  1  0  0  0
  4 22  1  0  0  0
  5 23  1  0  0  0
  7 24  1  0  0  0
  7 25  1  0  0  0
  7 26  1  0  0  0
  8 27  1  0  0  0
  8 28  1  0  0  0
  9 29  1  0  0  0
  9 30  1  0  0  0
 10 31  1  0  0  0
 12 32  1  0  0  0
 12 33  1  0  0  0
 12 34  1  0  0  0
 13 35  1  0  0  0
 13 36  1  0  0  0
 14 37  1  0  0  0
 14 38  1  0  0  0
 15 39  1  0  0  0
 18 40  1  0  0  0
 18 41  1  0  0  0
 18 42  1  0  0  0
 19 43  1  0  0  0
 19 44  1  0  0  0
 19 45  1  0  0  0
M  END
$$$$
