6k05_ligand
  -I-interpret- 

 54 58  0  0  0  0  0  0  0  0999 V2000
   16.2050    9.7770  -10.3120 C   0  0  0  0  0
   16.5000   10.7950  -11.4520 C   0  0  0  0  0
   17.9630   11.1610  -11.8030 C   0  0  0  0  0
   19.1380   10.5130  -11.0130 C   0  0  0  0  0
   18.8400    9.5460   -9.9240 C   0  0  0  0  0
   17.3750    9.1440   -9.5430 C   0  0  0  0  0
   20.5860   10.9290  -11.4130 C   0  0  0  0  0
   21.4780    9.7810  -11.8940 C   0  0  0  0  0
   21.0830    8.4150  -11.3700 C   0  0  0  0  0
   21.0480    8.4260   -9.8290 C   0  0  0  0  0
   20.2300    8.8310   -7.8640 C   0  0  0  0  0
   19.2930    9.2960   -6.7580 C   0  0  0  0  0
   15.3730   11.4520  -12.2600 C   0  0  0  0  0
   14.0140   11.3060  -12.1030 C   0  0  0  0  0
   15.5770   12.3150  -13.3070 C   0  0  0  0  0
   11.9820   12.2290  -13.2260 C   0  0  0  0  0
   20.1770   13.2890  -12.2010 C   0  0  0  0  0
   20.1510   14.3140  -13.3300 C   0  0  0  0  0
   19.7370   15.7460  -13.0220 C   0  0  0  0  0
   19.3550   16.1220  -11.5960 C   0  0  0  0  0
   19.3730   15.1070  -10.4680 C   0  0  0  0  0
   19.7880   13.6750  -10.7770 C   0  0  0  0  0
   20.0120    8.9560   -9.1960 N   0  0  0  0  0
   21.9290    7.9570   -8.9250 N   0  0  0  0  0
   21.4020    8.2320   -7.7110 N   0  0  0  0  0
   13.4110   12.0590  -13.0280 N   0  0  0  0  0
   14.3910   12.6920  -13.7800 N   0  0  0  0  0
   20.5640   11.9210  -12.4810 N   0  0  0  0  0
   18.8700   17.7840  -11.2400 Cl  0  0  0  0  0
   15.7144    8.9397  -10.8083 H   0  0  0  0  0
   15.6591   10.3505   -9.5629 H   0  0  0  0  0
   15.7739   10.4287  -10.7262 H   0  0  0  0  0
   18.0388   12.2253  -11.5803 H   0  0  0  0  0
   18.0946   10.8079  -12.8258 H   0  0  0  0  0
   17.3105    8.0780   -9.7613 H   0  0  0  0  0
   17.2499    9.4812   -8.5140 H   0  0  0  0  0
   21.0090   11.3222  -10.4886 H   0  0  0  0  0
   22.4842    9.9842  -11.5274 H   0  0  0  0  0
   21.3908    9.7432  -12.9799 H   0  0  0  0  0
   21.8140    7.6791  -11.7051 H   0  0  0  0  0
   20.0927    8.1606  -11.7477 H   0  0  0  0  0
   19.1425   10.3725   -6.8398 H   0  0  0  0  0
   18.3351    8.7854   -6.8565 H   0  0  0  0  0
   19.7329    9.0619   -5.7886 H   0  0  0  0  0
   13.5172   10.6862  -11.3566 H   0  0  0  0  0
   16.5463   12.6374  -13.6872 H   0  0  0  0  0
   11.5288   11.2615  -13.4423 H   0  0  0  0  0
   11.5382   12.6455  -12.3218 H   0  0  0  0  0
   11.8105   12.9070  -14.0620 H   0  0  0  0  0
   20.4254   14.0248  -14.3445 H   0  0  0  0  0
   19.7141   16.4948  -13.8137 H   0  0  0  0  0
   19.0940   15.3977   -9.4552 H   0  0  0  0  0
   19.8071   12.9280   -9.9835 H   0  0  0  0  0
   20.8223   11.6508  -13.4300 H   0  0  0  0  0
  2  1  1  0  0  0
  6  1  1  0  0  0
  3  2  1  0  0  0
  2 13  1  0  0  0
  4  3  1  0  0  0
  4  5  2  0  0  0
  7  4  1  0  0  0
  5  6  1  0  0  0
  5 23  1  0  0  0
  7  8  1  0  0  0
 28  7  1  0  0  0
  8  9  1  0  0  0
  9 10  1  0  0  0
 10 23  4  0  0  0
 10 24  4  0  0  0
 11 12  1  0  0  0
 23 11  4  0  0  0
 11 25  4  0  0  0
 13 14  4  0  0  0
 13 15  4  0  0  0
 14 26  4  0  0  0
 15 27  4  0  0  0
 26 16  1  0  0  0
 17 18  4  0  0  0
 17 22  4  0  0  0
 17 28  1  0  0  0
 18 19  4  0  0  0
 19 20  4  0  0  0
 20 21  4  0  0  0
 20 29  1  0  0  0
 21 22  4  0  0  0
 24 25  4  0  0  0
 26 27  4  0  0  0
  1 30  1  0  0  0
  1 31  1  0  0  0
  2 32  1  0  0  0
  3 33  1  0  0  0
  3 34  1  0  0  0
  6 35  1  0  0  0
  6 36  1  0  0  0
  7 37  1  0  0  0
  8 38  1  0  0  0
  8 39  1  0  0  0
  9 40  1  0  0  0
  9 41  1  0  0  0
 12 42  1  0  0  0
 12 43  1  0  0  0
 12 44  1  0  0  0
 14 45  1  0  0  0
 15 46  1  0  0  0
 16 47  1  0  0  0
 16 48  1  0  0  0
 16 49  1  0  0  0
 18 50  1  0  0  0
 19 51  1  0  0  0
 21 52  1  0  0  0
 22 53  1  0  0  0
 28 54  1  0  0  0
M  END
$$$$
