4kod_ligand
  -I-interpret- 

 42 44  0  0  0  0  0  0  0  0999 V2000
   76.0690   25.0540   58.9120 P   0  0  0  0  0
   75.5350   26.1210   57.9810 O   0  0  0  0  0
   76.4360   23.7340   58.2650 O   0  0  0  0  0
   75.1910   24.9280   60.1290 O   0  0  0  0  0
   77.7110   27.1550   59.7710 P   0  0  0  0  0
   78.6960   27.7290   58.7980 O   0  0  0  0  0
   76.3890   27.8520   60.0550 O   0  0  0  0  0
   77.4890   25.5870   59.4700 O   0  0  0  0  0
   78.5090   27.1230   61.1500 O   0  0  0  0  0
   79.5420   26.1730   61.3340 C   0  0  0  0  0
   80.5170   26.7200   62.3680 C   0  0  0  0  0
   81.4640   25.7310   62.7410 O   0  0  0  0  0
   81.2760   27.8880   61.7690 C   0  0  0  0  0
   81.4140   28.9450   62.7100 O   0  0  0  0  0
   82.6220   27.3250   61.4010 C   0  0  0  0  0
   83.6560   28.1670   61.8950 O   0  0  0  0  0
   82.6710   25.9480   62.0300 C   0  0  0  0  0
   82.7700   24.8820   61.0220 N   0  0  0  0  0
   81.8130   23.9960   60.7110 C   0  0  0  0  0
   82.2330   23.1350   59.7590 N   0  0  0  0  0
   83.4860   23.4660   59.4670 C   0  0  0  0  0
   84.5140   22.9660   58.5500 C   0  0  0  0  0
   84.2690   21.9120   57.7520 N   0  0  0  0  0
   85.7070   23.5860   58.5380 N   0  0  0  0  0
   85.9640   24.6410   59.3310 C   0  0  0  0  0
   85.0600   25.1510   60.1820 N   0  0  0  0  0
   83.8330   24.6150   60.2950 C   0  0  0  0  0
   76.1057   26.1879   57.2119 H   0  0  0  0  0
   76.9934   23.8976   57.5007 H   0  0  0  0  0
   75.8918   27.3425   60.6991 H   0  0  0  0  0
   80.0585   25.9953   60.3907 H   0  0  0  0  0
   79.1231   25.2276   61.6788 H   0  0  0  0  0
   79.9471   27.0287   63.2443 H   0  0  0  0  0
   80.7566   28.3123   60.9098 H   0  0  0  0  0
   81.8969   29.6701   62.3066 H   0  0  0  0  0
   82.7666   27.2638   60.3224 H   0  0  0  0  0
   84.5093   27.7986   61.6547 H   0  0  0  0  0
   83.5493   25.9146   62.6746 H   0  0  0  0  0
   80.8235   23.9735   61.1676 H   0  0  0  0  0
   83.3595   21.4511   57.7807 H   0  0  0  0  0
   84.9926   21.5733   57.1180 H   0  0  0  0  0
   86.9502   25.1025   59.2805 H   0  0  0  0  0
  1  2  1  0  0  0
  1  3  1  0  0  0
  1  4  2  0  0  0
  8  1  1  0  0  0
  5  6  2  0  0  0
  5  7  1  0  0  0
  5  8  1  0  0  0
  5  9  1  0  0  0
  9 10  1  0  0  0
 10 11  1  0  0  0
 11 12  1  0  0  0
 11 13  1  0  0  0
 12 17  1  0  0  0
 13 14  1  0  0  0
 13 15  1  0  0  0
 15 16  1  0  0  0
 15 17  1  0  0  0
 17 18  1  0  0  0
 18 19  4  0  0  0
 18 27  4  0  0  0
 19 20  4  0  0  0
 20 21  4  0  0  0
 21 22  4  0  0  0
 21 27  4  0  0  0
 22 23  1  0  0  0
 22 24  4  0  0  0
 24 25  4  0  0  0
 25 26  4  0  0  0
 26 27  4  0  0  0
  2 28  1  0  0  0
  3 29  1  0  0  0
  7 30  1  0  0  0
 10 31  1  0  0  0
 10 32  1  0  0  0
 11 33  1  0  0  0
 13 34  1  0  0  0
 14 35  1  0  0  0
 15 36  1  0  0  0
 16 37  1  0  0  0
 17 38  1  0  0  0
 19 39  1  0  0  0
 23 40  1  0  0  0
 23 41  1  0  0  0
 25 42  1  0  0  0
M  END
$$$$
