### 
### Created by X-TOOL on Mon Sep 10 21:13:16 2018
### 

@<TRIPOS>MOLECULE
4kod_ligand
   39    41     1     0     0
SMALL
GAST_HUCK


@<TRIPOS>ATOM
      1 PB         76.0690   25.0540   58.9120 P.3       1 ADP         0.2069
      2 O1B        75.5350   26.1210   57.9810 O.co2     1 ADP        -0.5891
      3 O2B        76.4360   23.7340   58.2650 O.co2     1 ADP        -0.5891
      4 O3B        75.1910   24.9280   60.1290 O.co2     1 ADP        -0.5891
      5 PA         77.7110   27.1550   59.7710 P.3       1 ADP         0.3276
      6 O1A        78.6960   27.7290   58.7980 O.co2     1 ADP        -0.5556
      7 O2A        76.3890   27.8520   60.0550 O.co2     1 ADP        -0.5556
      8 O3A        77.4890   25.5870   59.4700 O.3       1 ADP        -0.1548
      9 O5'        78.5090   27.1230   61.1500 O.3       1 ADP        -0.2436
     10 C5'        79.5420   26.1730   61.3340 C.3       1 ADP         0.1132
     11 C4'        80.5170   26.7200   62.3680 C.3       1 ADP         0.1189
     12 O4'        81.4640   25.7310   62.7410 O.3       1 ADP        -0.3364
     13 C3'        81.2760   27.8880   61.7690 C.3       1 ADP         0.1149
     14 O3'        81.4140   28.9450   62.7100 O.3       1 ADP        -0.3864
     15 C2'        82.6220   27.3250   61.4010 C.3       1 ADP         0.1385
     16 O2'        83.6560   28.1670   61.8950 O.3       1 ADP        -0.3836
     17 C1'        82.6710   25.9480   62.0300 C.3       1 ADP         0.2010
     18 N9         82.7700   24.8820   61.0220 N.pl3     1 ADP        -0.1919
     19 C8         81.8130   23.9960   60.7110 C.2       1 ADP         0.1123
     20 N7         82.2330   23.1350   59.7590 N.2       1 ADP        -0.2958
     21 C5         83.4860   23.4660   59.4670 C.ar      1 ADP         0.1045
     22 C6         84.5140   22.9660   58.5500 C.ar      1 ADP         0.1298
     23 N6         84.2690   21.9120   57.7520 N.pl3     1 ADP        -0.3152
     24 N1         85.7070   23.5860   58.5380 N.ar      1 ADP        -0.2698
     25 C2         85.9640   24.6410   59.3310 C.ar      1 ADP         0.0533
     26 N3         85.0600   25.1510   60.1820 N.ar      1 ADP        -0.2714
     27 C4         83.8330   24.6150   60.2950 C.ar      1 ADP         0.1613
     28 H1         80.0660   26.0043   60.3817 H         1 ADP         0.0648
     29 H2         79.1152   25.2241   61.6909 H         1 ADP         0.0648
     30 H3         79.9589   27.0509   63.2563 H         1 ADP         0.0651
     31 H4         80.7581   28.2639   60.8743 H         1 ADP         0.0648
     32 H5         81.8918   29.6625   62.3108 H         1 ADP         0.2100
     33 H6         82.7162   27.2429   60.3081 H         1 ADP         0.0676
     34 H7         83.5902   28.2258   62.8410 H         1 ADP         0.2101
     35 H8         83.5317   25.8915   62.7126 H         1 ADP         0.0996
     36 H9         80.8244   23.9735   61.1672 H         1 ADP         0.1349
     37 H10        84.9997   21.5699   57.1117 H         1 ADP         0.1820
     38 H11        83.3506   21.4466   57.7809 H         1 ADP         0.1820
     39 H12        86.9448   25.1000   59.2808 H         1 ADP         0.0996
@<TRIPOS>BOND
     1    1    2 ar 
     2    1    3 ar 
     3    1    4 ar 
     4    8    1 1  
     5    5    6 ar 
     6    5    7 ar 
     7    5    8 1  
     8    5    9 1  
     9    9   10 1  
    10   10   11 1  
    11   11   12 1  
    12   11   13 1  
    13   12   17 1  
    14   13   14 1  
    15   13   15 1  
    16   15   16 1  
    17   15   17 1  
    18   17   18 1  
    19   18   19 1  
    20   18   27 1  
    21   19   20 2  
    22   20   21 1  
    23   21   22 ar 
    24   21   27 ar 
    25   22   23 1  
    26   22   24 ar 
    27   24   25 ar 
    28   25   26 ar 
    29   26   27 ar 
    30   10   28 1  
    31   10   29 1  
    32   11   30 1  
    33   13   31 1  
    34   14   32 1  
    35   15   33 1  
    36   16   34 1  
    37   17   35 1  
    38   19   36 1  
    39   23   37 1  
    40   23   38 1  
    41   25   39 1  
@<TRIPOS>SUBSTRUCTURE
     1 ADP         1

