4acf_ligand
  -I-interpret- 

 46 48  0  0  0  0  0  0  0  0999 V2000
  -25.6740   88.6820    0.2860 O   0  0  0  0  0
  -26.2870   87.7260    0.7980 C   0  0  0  0  0
  -27.5160   87.5580    0.6600 O   0  0  0  0  0
  -25.4890   86.7500    1.6240 C   0  0  0  0  0
  -25.5200   87.1620    3.0040 O   0  0  0  0  0
  -26.1450   86.3890    3.9480 C   0  0  0  0  0
  -27.3070   85.6820    3.6450 C   0  0  0  0  0
  -27.9240   84.8970    4.6090 C   0  0  0  0  0
  -25.6080   86.3060    5.2290 C   0  0  0  0  0
  -26.2390   85.5200    6.1940 C   0  0  0  0  0
  -27.3880   84.7890    5.8840 C   0  0  0  0  0
  -28.0480   83.9730    6.9560 C   0  0  0  0  0
  -27.4350   83.5110    8.0510 N   0  0  0  0  0
  -28.3500   82.8640    8.7930 C   0  0  0  0  0
  -28.2450   82.2240    9.9640 C   0  0  0  0  0
  -29.3640   81.6210   10.5340 C   0  0  0  0  0
  -29.3390   83.6050    7.0210 C   0  0  0  0  0
  -29.5220   82.9280    8.1530 N   0  0  0  0  0
  -30.6360   82.3740    8.6560 C   0  0  0  0  0
  -30.5860   81.6940    9.8730 C   0  0  0  0  0
  -32.1620   80.9150   10.5830 Br  0  0  0  0  0
  -30.3180   83.8740    6.1270 N   0  0  0  0  0
  -31.0590   82.8350    5.4190 C   0  0  0  0  0
  -30.7070   82.7360    3.9260 C   0  0  0  0  0
  -31.5920   81.7260    3.1860 C   0  0  0  0  0
  -31.2170   81.5780    1.7220 C   0  0  0  0  0
  -27.7847   86.7666    1.1324 H   0  0  0  0  0
  -24.4579   86.7293    1.2713 H   0  0  0  0  0
  -25.9196   85.7531    1.5299 H   0  0  0  0  0
  -27.7342   85.7459    2.6442 H   0  0  0  0  0
  -28.8395   84.3596    4.3617 H   0  0  0  0  0
  -24.6983   86.8526    5.4776 H   0  0  0  0  0
  -25.8297   85.4759    7.2033 H   0  0  0  0  0
  -27.2821   82.1746   10.4725 H   0  0  0  0  0
  -29.2831   81.0980   11.4869 H   0  0  0  0  0
  -31.5785   82.4552    8.1145 H   0  0  0  0  0
  -30.5493   84.8494    5.9388 H   0  0  0  0  0
  -32.1179   83.0837    5.4891 H   0  0  0  0  0
  -30.8031   81.8804    5.8788 H   0  0  0  0  0
  -29.6722   82.4035    3.8436 H   0  0  0  0  0
  -30.8630   83.7163    3.4758 H   0  0  0  0  0
  -32.6200   82.0852    3.2329 H   0  0  0  0  0
  -31.4623   80.7550    3.6639 H   0  0  0  0  0
  -31.3203   82.5413    1.2226 H   0  0  0  0  0
  -30.1847   81.2365    1.6454 H   0  0  0  0  0
  -31.8777   80.8503    1.2508 H   0  0  0  0  0
  1  2  2  0  0  0
  2  3  1  0  0  0
  2  4  1  0  0  0
  4  5  1  0  0  0
  5  6  1  0  0  0
  6  7  4  0  0  0
  6  9  4  0  0  0
  7  8  4  0  0  0
  8 11  4  0  0  0
  9 10  4  0  0  0
 10 11  4  0  0  0
 11 12  1  0  0  0
 12 13  4  0  0  0
 12 17  4  0  0  0
 13 14  4  0  0  0
 14 15  4  0  0  0
 14 18  4  0  0  0
 15 16  4  0  0  0
 16 20  4  0  0  0
 17 18  4  0  0  0
 17 22  1  0  0  0
 18 19  4  0  0  0
 19 20  4  0  0  0
 20 21  1  0  0  0
 22 23  1  0  0  0
 23 24  1  0  0  0
 24 25  1  0  0  0
 25 26  1  0  0  0
  3 27  1  0  0  0
  4 28  1  0  0  0
  4 29  1  0  0  0
  7 30  1  0  0  0
  8 31  1  0  0  0
  9 32  1  0  0  0
 10 33  1  0  0  0
 15 34  1  0  0  0
 16 35  1  0  0  0
 19 36  1  0  0  0
 22 37  1  0  0  0
 23 38  1  0  0  0
 23 39  1  0  0  0
 24 40  1  0  0  0
 24 41  1  0  0  0
 25 42  1  0  0  0
 25 43  1  0  0  0
 26 44  1  0  0  0
 26 45  1  0  0  0
 26 46  1  0  0  0
M  END
$$$$
