5wre_ligand
  -I-interpret- 

 53 56  0  0  0  0  0  0  0  0999 V2000
  -42.9450   12.0000   24.5770 C   0  0  0  0  0
  -43.1410   10.8720   25.4380 O   0  0  0  0  0
  -43.2850   11.0360   26.7930 C   0  0  0  0  0
  -43.1100   12.2260   27.1270 O   0  0  0  0  0
  -43.5880    9.9950   27.7640 C   0  0  0  0  0
  -44.0220   10.2460   29.0470 C   0  0  0  0  0
  -44.2440    9.1880   29.9730 N   0  0  0  0  0
  -44.1730    7.8660   29.5310 C   0  0  0  0  0
  -43.9270    7.5620   28.2960 N   0  0  0  0  0
  -43.7170    8.5580   27.1980 C   0  0  0  0  0
  -45.0220    8.3710   26.2790 C   0  0  0  0  0
  -46.3130    8.4910   26.8100 C   0  0  0  0  0
  -47.5060    8.3550   26.0700 C   0  0  0  0  0
  -47.4000    8.0710   24.7180 C   0  0  0  0  0
  -46.1660    7.9200   24.1080 C   0  0  0  0  0
  -45.0290    8.0780   24.9330 C   0  0  0  0  0
  -43.4260    7.8780   24.1870 Cl  0  0  0  0  0
  -48.5510    7.9430   24.0510 F   0  0  0  0  0
  -44.4590    6.7310   30.5670 C   0  0  0  0  0
  -44.5350    6.7470   31.8880 N   0  0  0  0  0
  -44.8860    5.4840   32.4970 C   0  0  0  0  0
  -45.1150    4.4740   31.5740 C   0  0  0  0  0
  -44.8860    5.1170   29.9670 S   0  0  0  0  0
  -44.2340   11.6000   29.7680 C   0  0  0  0  0
  -44.9750   11.5180   31.0640 N   0  3  0  0  0
  -46.3930   11.2020   30.8120 C   0  0  0  0  0
  -46.9540   11.3500   32.2040 C   0  0  0  0  0
  -46.0290   12.3240   32.9560 C   0  0  0  0  0
  -44.9160   12.6590   31.9640 C   0  0  0  0  0
  -43.5500   13.0200   32.6410 C   0  0  0  0  0
  -43.3270   14.1500   33.1630 O   0  0  0  0  0
  -42.6990   12.0890   32.5940 O   0  0  0  0  0
  -47.0500   10.1470   32.8540 F   0  0  0  0  0
  -48.2550   11.7120   32.1570 F   0  0  0  0  0
  -43.7975   12.6737   24.6632 H   0  0  0  0  0
  -42.0350   12.5243   24.8686 H   0  0  0  0  0
  -42.8540   11.6573   23.5463 H   0  0  0  0  0
  -44.4529    9.3939   30.9499 H   0  0  0  0  0
  -42.7942    8.4034   26.6388 H   0  0  0  0  0
  -46.4021    8.7056   27.8750 H   0  0  0  0  0
  -48.4797    8.4696   26.5463 H   0  0  0  0  0
  -46.0760    7.6910   23.0461 H   0  0  0  0  0
  -44.9631    5.3395   33.5746 H   0  0  0  0  0
  -45.3924    3.4473   31.8129 H   0  0  0  0  0
  -44.8338   12.2202   29.1018 H   0  0  0  0  0
  -43.2433   11.9926   29.9968 H   0  0  0  0  0
  -44.4729   10.7805   31.5583 H   0  0  0  0  0
  -46.5604   10.2226   30.3639 H   0  0  0  0  0
  -46.8684   11.8409   30.0677 H   0  0  0  0  0
  -45.6348   11.8814   33.8708 H   0  0  0  0  0
  -46.5622   13.2173   33.2813 H   0  0  0  0  0
  -45.0397   13.5884   31.4081 H   0  0  0  0  0
  -44.1117   14.6975   33.0854 H   0  0  0  0  0
  1  2  1  0  0  0
  2  3  1  0  0  0
  3  4  2  0  0  0
  3  5  1  0  0  0
  5  6  2  0  0  0
  5 10  1  0  0  0
  6  7  1  0  0  0
  6 24  1  0  0  0
  7  8  1  0  0  0
  8  9  2  0  0  0
  8 19  1  0  0  0
  9 10  1  0  0  0
 10 11  1  0  0  0
 11 12  4  0  0  0
 11 16  4  0  0  0
 12 13  4  0  0  0
 13 14  4  0  0  0
 14 15  4  0  0  0
 14 18  1  0  0  0
 15 16  4  0  0  0
 16 17  1  0  0  0
 19 20  4  0  0  0
 19 23  4  0  0  0
 20 21  4  0  0  0
 21 22  4  0  0  0
 22 23  4  0  0  0
 24 25  1  0  0  0
 25 26  1  0  0  0
 25 29  1  0  0  0
 26 27  1  0  0  0
 27 28  1  0  0  0
 27 33  1  0  0  0
 27 34  1  0  0  0
 28 29  1  0  0  0
 29 30  1  0  0  0
 30 31  1  0  0  0
 30 32  2  0  0  0
  1 35  1  0  0  0
  1 36  1  0  0  0
  1 37  1  0  0  0
  7 38  1  0  0  0
 10 39  1  0  0  0
 12 40  1  0  0  0
 13 41  1  0  0  0
 15 42  1  0  0  0
 21 43  1  0  0  0
 22 44  1  0  0  0
 24 45  1  0  0  0
 24 46  1  0  0  0
 25 47  1  0  0  0
 26 48  1  0  0  0
 26 49  1  0  0  0
 28 50  1  0  0  0
 28 51  1  0  0  0
 29 52  1  0  0  0
 31 53  1  0  0  0
M  END
$$$$
