4ngn_ligand
  -I-interpret- 

 45 44  0  0  0  0  0  0  0  0999 V2000
  -25.3400  -16.8820  -40.9830 O   0  0  0  0  0
  -25.3720  -16.4730  -42.1370 C   0  0  0  0  0
  -24.5750  -16.9320  -43.1010 N   0  0  0  0  0
  -23.2330  -17.4600  -42.7830 C   0  0  0  0  0
  -23.1460  -18.9350  -42.3480 C   0  0  0  0  0
  -22.3500  -19.8630  -43.3050 C   0  0  0  0  0
  -20.8820  -19.5320  -43.1800 C   0  0  0  0  0
  -19.8960  -20.1320  -44.2020 C   0  0  0  0  0
  -18.5820  -19.7750  -43.7250 N   0  0  0  0  0
  -17.8630  -20.5210  -42.8720 C   0  0  0  0  0
  -18.3100  -21.5880  -42.3970 O   0  0  0  0  0
  -16.5900  -20.1540  -42.6210 N   0  0  0  0  0
  -16.0100  -20.6590  -41.3710 C   0  0  0  0  0
  -16.9970  -20.4520  -40.2400 C   0  0  0  0  0
  -17.9050  -19.5810  -40.1950 O   0  0  0  0  0
  -16.8880  -21.3100  -39.2220 O   0  0  0  0  0
  -14.6800  -19.9680  -40.9720 C   0  0  0  0  0
  -14.9460  -18.4370  -40.9140 C   0  0  0  0  0
  -13.8530  -17.6530  -40.2660 C   0  0  0  0  0
  -13.7130  -16.4240  -40.4570 O   0  0  0  0  0
  -13.0150  -18.2090  -39.4460 O   0  0  0  0  0
  -20.0910  -19.4650  -45.5480 C   0  0  0  0  0
  -19.5640  -18.3700  -45.7830 O   0  0  0  0  0
  -20.7270  -20.0950  -46.4670 O   0  0  0  0  0
  -26.0902  -15.6926  -42.3886 H   0  0  0  0  0
  -24.8953  -16.9186  -44.0693 H   0  0  0  0  0
  -22.8783  -16.8778  -41.9325 H   0  0  0  0  0
  -22.6587  -17.3881  -43.7066 H   0  0  0  0  0
  -24.1677  -19.3141  -42.3238 H   0  0  0  0  0
  -22.6216  -18.9482  -41.3925 H   0  0  0  0  0
  -22.6802  -19.7101  -44.3324 H   0  0  0  0  0
  -22.5206  -20.9063  -43.0396 H   0  0  0  0  0
  -20.5797  -19.9470  -42.2185 H   0  0  0  0  0
  -20.8218  -18.4539  -43.3287 H   0  0  0  0  0
  -20.0383  -21.2076  -44.3068 H   0  0  0  0  0
  -18.1740  -18.9010  -44.0568 H   0  0  0  0  0
  -16.0619  -19.5611  -43.2613 H   0  0  0  0  0
  -15.7948  -21.7135  -41.5440 H   0  0  0  0  0
  -16.1594  -21.9123  -39.3893 H   0  0  0  0  0
  -13.9012  -20.1917  -41.7010 H   0  0  0  0  0
  -14.3377  -20.3319  -40.0032 H   0  0  0  0  0
  -15.8466  -18.2883  -40.3183 H   0  0  0  0  0
  -15.0298  -18.0849  -41.9421 H   0  0  0  0  0
  -13.2127  -19.1457  -39.3745 H   0  0  0  0  0
  -21.0673  -20.9193  -46.1116 H   0  0  0  0  0
  1  2  2  0  0  0
  2  3  1  0  0  0
  3  4  1  0  0  0
  4  5  1  0  0  0
  5  6  1  0  0  0
  6  7  1  0  0  0
  7  8  1  0  0  0
  8  9  1  0  0  0
  8 22  1  0  0  0
  9 10  1  0  0  0
 10 11  2  0  0  0
 10 12  1  0  0  0
 12 13  1  0  0  0
 13 14  1  0  0  0
 13 17  1  0  0  0
 14 15  2  0  0  0
 14 16  1  0  0  0
 17 18  1  0  0  0
 18 19  1  0  0  0
 19 20  2  0  0  0
 19 21  1  0  0  0
 22 23  2  0  0  0
 22 24  1  0  0  0
  2 25  1  0  0  0
  3 26  1  0  0  0
  4 27  1  0  0  0
  4 28  1  0  0  0
  5 29  1  0  0  0
  5 30  1  0  0  0
  6 31  1  0  0  0
  6 32  1  0  0  0
  7 33  1  0  0  0
  7 34  1  0  0  0
  8 35  1  0  0  0
  9 36  1  0  0  0
 12 37  1  0  0  0
 13 38  1  0  0  0
 16 39  1  0  0  0
 17 40  1  0  0  0
 17 41  1  0  0  0
 18 42  1  0  0  0
 18 43  1  0  0  0
 21 44  1  0  0  0
 24 45  1  0  0  0
M  END
$$$$
