2gh6_ligand
  -I-interpret- 

 39 39  0  0  0  0  0  0  0  0999 V2000
  -12.5170   13.4370   45.7870 C   0  0  0  0  0
  -13.7240   13.7190   46.4410 C   0  0  0  0  0
  -14.2230   15.0270   46.4180 C   0  0  0  0  0
  -13.5100   16.0310   45.7400 C   0  0  0  0  0
  -12.3040   15.7400   45.0860 C   0  0  0  0  0
  -11.7830   14.4340   45.1020 C   0  0  0  0  0
  -10.6030   14.1650   44.4560 N   0  0  0  0  0
   -9.6230   13.3520   44.9270 C   0  0  0  0  0
   -9.6860   12.7510   45.9990 O   0  0  0  0  0
   -8.3460   13.1550   44.0610 C   0  0  0  0  0
   -8.3740   11.7850   43.3510 C   0  0  0  0  0
   -7.0860   10.9750   43.4520 C   0  0  0  0  0
   -6.8920   10.2530   42.1110 C   0  0  0  0  0
   -6.2070    8.8860   42.2440 C   0  0  0  0  0
   -6.0660    8.3650   40.8190 C   0  0  0  0  0
   -4.9840    7.2870   40.5680 C   0  0  0  0  0
   -4.0070    7.1300   41.2920 O   0  0  0  0  0
   -5.1270    6.4860   39.2780 C   0  0  0  0  0
   -6.3670    6.1790   38.9160 F   0  0  0  0  0
   -4.6170    7.3310   38.3960 F   0  0  0  0  0
   -4.3660    5.4280   39.1950 F   0  0  0  0  0
  -12.1316   12.4176   45.8067 H   0  0  0  0  0
  -14.2674   12.9301   46.9610 H   0  0  0  0  0
  -15.1591   15.2654   46.9230 H   0  0  0  0  0
  -13.8995   17.0489   45.7224 H   0  0  0  0  0
  -11.7673   16.5310   44.5621 H   0  0  0  0  0
  -10.4500   14.6105   43.5513 H   0  0  0  0  0
   -7.4707   13.1980   44.7092 H   0  0  0  0  0
   -8.3066   13.9416   43.3074 H   0  0  0  0  0
   -8.5359   11.9847   42.2917 H   0  0  0  0  0
   -9.1526   11.1967   43.8366 H   0  0  0  0  0
   -7.1502   10.2551   44.2679 H   0  0  0  0  0
   -6.2389   11.6285   43.6603 H   0  0  0  0  0
   -6.2521   10.8808   41.4909 H   0  0  0  0  0
   -7.8807   10.0835   41.6846 H   0  0  0  0  0
   -6.7895    8.2045   42.8640 H   0  0  0  0  0
   -5.2388    8.9693   42.7378 H   0  0  0  0  0
   -5.7748    9.2247   40.2156 H   0  0  0  0  0
   -7.0183    7.8917   40.5799 H   0  0  0  0  0
  1  2  4  0  0  0
  1  6  4  0  0  0
  2  3  4  0  0  0
  3  4  4  0  0  0
  4  5  4  0  0  0
  5  6  4  0  0  0
  6  7  1  0  0  0
  7  8  1  0  0  0
  8  9  2  0  0  0
  8 10  1  0  0  0
 10 11  1  0  0  0
 11 12  1  0  0  0
 12 13  1  0  0  0
 13 14  1  0  0  0
 14 15  1  0  0  0
 15 16  1  0  0  0
 16 17  2  0  0  0
 16 18  1  0  0  0
 18 19  1  0  0  0
 18 20  1  0  0  0
 18 21  1  0  0  0
  1 22  1  0  0  0
  2 23  1  0  0  0
  3 24  1  0  0  0
  4 25  1  0  0  0
  5 26  1  0  0  0
  7 27  1  0  0  0
 10 28  1  0  0  0
 10 29  1  0  0  0
 11 30  1  0  0  0
 11 31  1  0  0  0
 12 32  1  0  0  0
 12 33  1  0  0  0
 13 34  1  0  0  0
 13 35  1  0  0  0
 14 36  1  0  0  0
 14 37  1  0  0  0
 15 38  1  0  0  0
 15 39  1  0  0  0
M  END
$$$$
