2g5t_ligand
  -I-interpret- 

 49 51  0  0  0  0  0  0  0  0999 V2000
   15.0380   -3.1780   34.3720 C   0  0  0  0  0
   16.2640   -2.8610   35.2980 C   0  0  0  0  0
   16.3980   -3.7420   36.5540 C   0  0  0  0  0
   17.2210   -2.8850   37.4980 C   0  0  0  0  0
   16.8410   -1.4420   37.1390 C   0  0  0  0  0
   15.8640   -0.7930   38.1190 C   0  0  0  0  0
   14.2040   -2.3080   34.1930 O   0  0  0  0  0
   16.2430   -1.4860   35.8070 N   0  3  0  0  0
   14.9510   -4.4520   33.7660 N   0  0  0  0  0
   13.6200   -1.1670   38.9610 C   0  0  0  0  0
   14.6790   -1.5580   38.1280 O   0  0  0  0  0
   12.4460   -1.9690   38.9300 C   0  0  0  0  0
   11.3200   -1.6600   39.7300 C   0  0  0  0  0
   11.3560   -0.5310   40.5800 C   0  0  0  0  0
   12.5130    0.2940   40.6390 C   0  0  0  0  0
   13.6320   -0.0330   39.8280 C   0  0  0  0  0
   13.8400   -4.8460   32.8500 C   0  0  0  0  0
   14.2430   -6.2830   32.4370 C   0  0  0  0  0
   15.7380   -6.3140   32.6090 C   0  0  0  0  0
   15.9070   -5.5440   33.9020 C   0  0  0  0  0
   12.4380   -5.0090   33.4500 C   0  0  0  0  0
   12.2840   -5.2630   34.7490 N   0  0  0  0  0
   12.5620    1.4820   41.5290 C   0  0  0  0  0
   12.3680   -3.3680   37.8940 Cl  0  0  0  0  0
   13.5830    2.1660   41.5540 O   0  0  0  0  0
   11.5870    1.7530   42.2190 O   0  0  0  0  0
   17.0987   -3.0536   34.6239 H   0  0  0  0  0
   16.8677   -4.7028   36.3435 H   0  0  0  0  0
   15.4321   -4.0203   36.9754 H   0  0  0  0  0
   18.2901   -3.0654   37.3858 H   0  0  0  0  0
   17.0129   -3.1138   38.5432 H   0  0  0  0  0
   17.7412   -0.8287   37.1803 H   0  0  0  0  0
   15.6481    0.2303   37.8119 H   0  0  0  0  0
   16.2989   -0.7623   39.1180 H   0  0  0  0  0
   15.2777   -1.1608   35.8599 H   0  0  0  0  0
   16.7761   -0.8855   35.1781 H   0  0  0  0  0
   10.4305   -2.2888   39.6909 H   0  0  0  0  0
   10.4893   -0.2906   41.1957 H   0  0  0  0  0
   14.5208    0.5966   39.8685 H   0  0  0  0  0
   13.7481   -4.0618   32.0986 H   0  0  0  0  0
   13.9426   -6.5158   31.4154 H   0  0  0  0  0
   13.7444   -7.0392   33.0433 H   0  0  0  0  0
   16.2836   -5.8835   31.7693 H   0  0  0  0  0
   16.1534   -7.3212   32.6426 H   0  0  0  0  0
   15.7225   -6.1572   34.7840 H   0  0  0  0  0
   16.9280   -5.1931   34.0523 H   0  0  0  0  0
   11.5612   -4.9164   32.8092 H   0  0  0  0  0
   13.1020   -5.3504   35.3521 H   0  0  0  0  0
   14.2298    1.7956   40.9490 H   0  0  0  0  0
  1  2  1  0  0  0
  1  7  2  0  0  0
  1  9  1  0  0  0
  2  3  1  0  0  0
  2  8  1  0  0  0
  3  4  1  0  0  0
  4  5  1  0  0  0
  5  6  1  0  0  0
  5  8  1  0  0  0
  6 11  1  0  0  0
  9 17  1  0  0  0
  9 20  1  0  0  0
 11 10  1  0  0  0
 10 12  4  0  0  0
 10 16  4  0  0  0
 12 13  4  0  0  0
 12 24  1  0  0  0
 13 14  4  0  0  0
 14 15  4  0  0  0
 15 16  4  0  0  0
 15 23  1  0  0  0
 17 18  1  0  0  0
 17 21  1  0  0  0
 18 19  1  0  0  0
 19 20  1  0  0  0
 21 22  2  0  0  0
 23 25  1  0  0  0
 23 26  2  0  0  0
  2 27  1  0  0  0
  3 28  1  0  0  0
  3 29  1  0  0  0
  4 30  1  0  0  0
  4 31  1  0  0  0
  5 32  1  0  0  0
  6 33  1  0  0  0
  6 34  1  0  0  0
  8 35  1  0  0  0
  8 36  1  0  0  0
 13 37  1  0  0  0
 14 38  1  0  0  0
 16 39  1  0  0  0
 17 40  1  0  0  0
 18 41  1  0  0  0
 18 42  1  0  0  0
 19 43  1  0  0  0
 19 44  1  0  0  0
 20 45  1  0  0  0
 20 46  1  0  0  0
 21 47  1  0  0  0
 22 48  1  0  0  0
 25 49  1  0  0  0
M  END
$$$$
