### 
### Created by X-TOOL on Mon Sep 10 21:12:54 2018
### 

@<TRIPOS>MOLECULE
2g5t_ligand
   48    50     1     0     0
SMALL
GAST_HUCK


@<TRIPOS>ATOM
      1 C1         15.0380   -3.1780   34.3720 C.2       1 ACF         0.2301
      2 C2         16.2640   -2.8610   35.2980 C.3       1 ACF         0.0676
      3 C4         16.3980   -3.7420   36.5540 C.3       1 ACF         0.0131
      4 C5         17.2210   -2.8850   37.4980 C.3       1 ACF         0.0001
      5 C6         16.8410   -1.4420   37.1390 C.3       1 ACF         0.0081
      6 C9         15.8640   -0.7930   38.1190 C.3       1 ACF         0.1131
      7 O3         14.2040   -2.3080   34.1930 O.2       1 ACF        -0.3904
      8 N7         16.2430   -1.4860   35.8070 N.4       1 ACF         0.2502
      9 N8         14.9510   -4.4520   33.7660 N.am      1 ACF        -0.2459
     10 C10        13.6200   -1.1670   38.9610 C.ar      1 ACF         0.1091
     11 O11        14.6790   -1.5580   38.1280 O.3       1 ACF        -0.3110
     12 C12        12.4460   -1.9690   38.9300 C.ar      1 ACF         0.0706
     13 C13        11.3200   -1.6600   39.7300 C.ar      1 ACF        -0.0530
     14 C14        11.3560   -0.5310   40.5800 C.ar      1 ACF        -0.0582
     15 C15        12.5130    0.2940   40.6390 C.ar      1 ACF         0.0016
     16 C16        13.6320   -0.0330   39.8280 C.ar      1 ACF        -0.0184
     17 C17        13.8400   -4.8460   32.8500 C.3       1 ACF         0.1037
     18 C18        14.2430   -6.2830   32.4370 C.3       1 ACF        -0.0096
     19 C19        15.7380   -6.3140   32.6090 C.3       1 ACF        -0.0272
     20 C20        15.9070   -5.5440   33.9020 C.3       1 ACF         0.0382
     21 C21        12.4380   -5.0090   33.4500 C.2       1 ACF         0.0209
     22 N22        12.2840   -5.2630   34.7490 N.2       1 ACF        -0.3619
     23 C24        12.5620    1.4820   41.5290 C.2       1 ACF         0.0605
     24 CL23       12.3680   -3.3680   37.8940 Cl        1 ACF        -0.0764
     25 O25        13.5830    2.1660   41.5540 O.co2     1 ACF        -0.5607
     26 O26        11.5870    1.7530   42.2190 O.co2     1 ACF        -0.5607
     27 H1         17.1667   -2.9986   34.6847 H         1 ACF         0.1099
     28 H2         16.9186   -4.6827   36.3214 H         1 ACF         0.0347
     29 H3         15.4110   -3.9659   36.9850 H         1 ACF         0.0347
     30 H4         18.2962   -3.0546   37.3393 H         1 ACF         0.0324
     31 H5         16.9657   -3.1050   38.5451 H         1 ACF         0.0324
     32 H6         17.7560   -0.8320   37.1131 H         1 ACF         0.0878
     33 H7         15.6415    0.2352   37.7977 H         1 ACF         0.0671
     34 H8         16.3038   -0.7751   39.1271 H         1 ACF         0.0671
     35 H9         15.2897   -1.1624   35.8574 H         1 ACF         0.2039
     36 H10        16.7674   -0.8909   35.1850 H         1 ACF         0.2039
     37 H11        10.4354   -2.2853   39.6911 H         1 ACF         0.0601
     38 H12        10.4940   -0.2919   41.1923 H         1 ACF         0.0557
     39 H13        14.5159    0.5932   39.8683 H         1 ACF         0.0574
     40 H14        13.7965   -4.1539   31.9961 H         1 ACF         0.0842
     41 H15        13.9671   -6.4795   31.3905 H         1 ACF         0.0324
     42 H16        13.7603   -7.0257   33.0892 H         1 ACF         0.0324
     43 H17        16.2494   -5.8139   31.7734 H         1 ACF         0.0288
     44 H18        16.1107   -7.3446   32.7031 H         1 ACF         0.0288
     45 H19        15.6655   -6.1740   34.7708 H         1 ACF         0.0525
     46 H20        16.9330   -5.1601   34.0013 H         1 ACF         0.0525
     47 H21        11.5620   -4.9165   32.8098 H         1 ACF         0.1225
     48 H22        11.3591   -5.3688   35.1357 H         1 ACF         0.1054
@<TRIPOS>BOND
     1    1    2 1  
     2    1    7 2  
     3    1    9 am 
     4    2    3 1  
     5    2    8 1  
     6    3    4 1  
     7    4    5 1  
     8    5    6 1  
     9    5    8 1  
    10    6   11 1  
    11    9   17 1  
    12    9   20 1  
    13   11   10 1  
    14   10   12 ar 
    15   10   16 ar 
    16   12   13 ar 
    17   12   24 1  
    18   13   14 ar 
    19   14   15 ar 
    20   15   16 ar 
    21   15   23 1  
    22   17   18 1  
    23   17   21 1  
    24   18   19 1  
    25   19   20 1  
    26   21   22 2  
    27   23   25 ar 
    28   23   26 ar 
    29    2   27 1  
    30    3   28 1  
    31    3   29 1  
    32    4   30 1  
    33    4   31 1  
    34    5   32 1  
    35    6   33 1  
    36    6   34 1  
    37    8   35 1  
    38    8   36 1  
    39   13   37 1  
    40   14   38 1  
    41   16   39 1  
    42   17   40 1  
    43   18   41 1  
    44   18   42 1  
    45   19   43 1  
    46   19   44 1  
    47   20   45 1  
    48   20   46 1  
    49   21   47 1  
    50   22   48 1  
@<TRIPOS>SUBSTRUCTURE
     1 ACF         1

