2oyk_ligand
  -I-interpret- 

 45 46  0  0  0  0  0  0  0  0999 V2000
   28.9510   61.1250  -25.7520 O   0  0  0  0  0
   29.3330   59.7590  -25.7350 C   0  0  0  0  0
   30.8000   59.6320  -26.1520 C   0  0  0  0  0
   31.6140   60.3200  -25.1940 O   0  0  0  0  0
   31.1900   58.1570  -26.2250 C   0  0  0  0  0
   32.5130   58.0530  -26.7810 O   0  0  0  0  0
   30.1900   57.3800  -27.0910 C   0  0  0  0  0
   30.4760   55.8890  -27.0170 C   0  0  0  0  0
   30.3750   55.4190  -25.6570 O   0  0  0  0  0
   28.8470   57.5630  -26.5880 O   0  0  0  0  0
   28.4360   58.9340  -26.6520 C   0  0  0  0  0
   27.1110   58.9690  -26.1310 O   0  0  0  0  0
   26.1360   58.3940  -27.0070 C   0  0  0  0  0
   25.1900   57.4680  -26.2380 C   0  0  0  0  0
   25.9310   56.4620  -25.5550 O   0  0  0  0  0
   24.2150   56.8000  -27.1970 C   0  0  0  0  0
   23.4410   57.8170  -27.9400 N   0  3  0  0  0
   24.3090   58.7950  -28.6330 C   0  0  0  0  0
   25.2480   59.4630  -27.6320 C   0  0  0  0  0
   26.0640   60.5880  -28.2940 C   0  0  0  0  0
   26.7860   60.1180  -29.4410 O   0  0  0  0  0
   29.5275   61.6246  -25.1693 H   0  0  0  0  0
   29.2174   59.3715  -24.7228 H   0  0  0  0  0
   30.9490   60.0757  -27.1364 H   0  0  0  0  0
   31.3558   61.2440  -25.1612 H   0  0  0  0  0
   31.1763   57.7278  -25.2232 H   0  0  0  0  0
   33.1293   58.5425  -26.2313 H   0  0  0  0  0
   30.2845   57.7496  -28.1121 H   0  0  0  0  0
   31.4873   55.7051  -27.3798 H   0  0  0  0  0
   29.7461   55.3588  -27.6288 H   0  0  0  0  0
   30.5586   54.4771  -25.6307 H   0  0  0  0  0
   28.4915   59.3268  -27.6673 H   0  0  0  0  0
   26.6983   57.8545  -27.7692 H   0  0  0  0  0
   24.6380   58.0675  -25.5141 H   0  0  0  0  0
   25.3262   55.8893  -25.0777 H   0  0  0  0  0
   23.5259   56.1783  -26.6254 H   0  0  0  0  0
   24.7766   56.1935  -27.9075 H   0  0  0  0  0
   22.8657   58.3266  -27.2694 H   0  0  0  0  0
   22.8840   57.3351  -28.6456 H   0  0  0  0  0
   23.6865   59.5563  -29.1031 H   0  0  0  0  0
   24.9003   58.2770  -29.3881 H   0  0  0  0  0
   24.6667   59.9399  -26.8429 H   0  0  0  0  0
   26.7835   60.9633  -27.5663 H   0  0  0  0  0
   25.3737   61.3664  -28.6189 H   0  0  0  0  0
   27.2812   60.8448  -29.8259 H   0  0  0  0  0
  1  2  1  0  0  0
  2  3  1  0  0  0
  2 11  1  0  0  0
  3  4  1  0  0  0
  3  5  1  0  0  0
  5  6  1  0  0  0
  5  7  1  0  0  0
  7  8  1  0  0  0
  7 10  1  0  0  0
  8  9  1  0  0  0
 10 11  1  0  0  0
 11 12  1  0  0  0
 12 13  1  0  0  0
 13 14  1  0  0  0
 13 19  1  0  0  0
 14 15  1  0  0  0
 14 16  1  0  0  0
 16 17  1  0  0  0
 17 18  1  0  0  0
 18 19  1  0  0  0
 19 20  1  0  0  0
 20 21  1  0  0  0
  1 22  1  0  0  0
  2 23  1  0  0  0
  3 24  1  0  0  0
  4 25  1  0  0  0
  5 26  1  0  0  0
  6 27  1  0  0  0
  7 28  1  0  0  0
  8 29  1  0  0  0
  8 30  1  0  0  0
  9 31  1  0  0  0
 11 32  1  0  0  0
 13 33  1  0  0  0
 14 34  1  0  0  0
 15 35  1  0  0  0
 16 36  1  0  0  0
 16 37  1  0  0  0
 17 38  1  0  0  0
 17 39  1  0  0  0
 18 40  1  0  0  0
 18 41  1  0  0  0
 19 42  1  0  0  0
 20 43  1  0  0  0
 20 44  1  0  0  0
 21 45  1  0  0  0
M  END
$$$$
