### 
### Created by X-TOOL on Mon Sep 10 21:13:03 2018
### 

@<TRIPOS>MOLECULE
3hnb_ligand
   60    63     1     0     0
SMALL
GAST_HUCK


@<TRIPOS>ATOM
      1 O1         -5.2350    5.3340   28.5120 O.3       1 768        -0.3878
      2 C16        -3.9490    5.1060   29.0890 C.3       1 768         0.0978
      3 C17        -3.8450    3.6510   29.5730 C.3       1 768         0.0979
      4 O2         -2.5180    3.1310   29.4730 O.3       1 768        -0.3142
      5 C18        -1.8110    2.5440   30.4990 C.ar      1 768         0.1060
      6 C19        -2.1260    1.2640   30.9490 C.ar      1 768        -0.0317
      7 C20        -1.3660    0.6830   31.9690 C.ar      1 768        -0.0565
      8 C21        -0.2750    1.3720   32.5290 C.ar      1 768         0.0291
      9 CL1         0.5470    0.7770   33.6380 Cl        1 768        -0.0810
     10 C22         0.0910    2.6510   32.1000 C.ar      1 768        -0.0426
     11 C23        -0.6210    3.2430   31.0870 C.ar      1 768         0.0685
     12 CL2        -0.2090    4.6100   30.6660 Cl        1 768        -0.0787
     13 C15        -2.9740    5.4610   27.9600 C.3       1 768         0.0566
     14 N3         -2.8770    6.9220   28.0110 N.2       1 768        -0.2512
     15 C14        -3.4780    7.8020   27.2950 C.2       1 768         0.3060
     16 N4         -4.3080    7.3540   26.3140 N.pl3     1 768        -0.2431
     17 C13        -2.1850    7.6060   28.9070 C.ar      1 768         0.1169
     18 C12        -1.3350    7.2150   29.9240 C.ar      1 768        -0.0025
     19 C11        -0.6910    8.1750   30.6950 C.ar      1 768        -0.0263
     20 C10        -0.8900    9.5400   30.4460 C.ar      1 768        -0.0261
     21 C9         -1.7360    9.9850   29.4260 C.ar      1 768         0.0100
     22 C8         -2.3930    9.0520   28.6320 C.ar      1 768         0.1479
     23 N2         -3.2550    9.1050   27.6220 N.pl3     1 768        -0.1651
     24 C7         -3.7540   10.3220   27.0010 C.3       1 768         0.0503
     25 C6         -4.7130   10.0880   25.8440 C.3       1 768        -0.0851
     26 N1         -6.0500   10.1050   26.3990 N.4       1 768         0.4046
     27 C5         -6.3960    9.3020   27.5640 C.3       1 768        -0.1129
     28 C4         -6.3980   10.3750   28.6510 C.3       1 768        -0.0718
     29 C3         -7.2940   11.5670   28.2960 C.3       1 768        -0.0567
     30 C2         -7.1750   12.0720   26.8410 C.3       1 768        -0.0718
     31 C1         -7.1190   10.9310   25.8270 C.3       1 768        -0.1129
     32 H          -5.2931    6.2441   28.2120 H         1 768         0.2100
     33 H          -3.7371    5.7030   29.9761 H         1 768         0.0634
     34 H          -4.4921    3.0412   28.9426 H         1 768         0.0641
     35 H          -4.1365    3.6256   30.6230 H         1 768         0.0641
     36 H          -2.9603    0.7182   30.5085 H         1 768         0.0543
     37 H          -1.6212   -0.3122   32.3332 H         1 768         0.0597
     38 H           0.9297    3.1706   32.5633 H         1 768         0.0601
     39 H          -3.3230    5.1067   26.9901 H         1 768         0.0477
     40 H          -2.0041    4.9807   28.0894 H         1 768         0.0477
     41 H          -4.8318    8.0196   25.7457 H         1 768         0.2240
     42 H          -4.4063    6.3526   26.1470 H         1 768         0.2240
     43 H          -1.1701    6.1557   30.1210 H         1 768         0.0893
     44 H          -0.0254    7.8640   31.5002 H         1 768         0.0661
     45 H          -0.3717   10.2734   31.0637 H         1 768         0.0958
     46 H          -1.8790   11.0520   29.2551 H         1 768         0.0720
     47 H          -2.8913   10.8536   26.5994 H         1 768         0.0587
     48 H          -4.3033   10.8701   27.7664 H         1 768         0.0587
     49 H          -4.5076    9.1347   25.3571 H         1 768         0.0043
     50 H          -4.5991   10.8608   25.0838 H         1 768         0.0043
     51 H          -5.7115    8.4755   27.7549 H         1 768         0.0017
     52 H          -7.3380    8.7619   27.4692 H         1 768         0.0017
     53 H          -5.3779   10.7423   28.7634 H         1 768         0.0246
     54 H          -6.7824    9.9258   29.5668 H         1 768         0.0246
     55 H          -6.9857   12.3916   28.9388 H         1 768         0.0264
     56 H          -8.3234   11.2337   28.4275 H         1 768         0.0264
     57 H          -6.2490   12.6410   26.7577 H         1 768         0.0246
     58 H          -8.0570   12.6736   26.6212 H         1 768         0.0246
     59 H          -8.0651   10.4047   25.7007 H         1 768         0.0017
     60 H          -6.9272   11.2568   24.8047 H         1 768         0.0017
@<TRIPOS>BOND
     1    1    2 1  
     2    2    3 1  
     3    2   13 1  
     4    3    4 1  
     5    4    5 1  
     6    5    6 ar 
     7    5   11 ar 
     8    6    7 ar 
     9    7    8 ar 
    10    8    9 1  
    11    8   10 ar 
    12   10   11 ar 
    13   11   12 1  
    14   13   14 1  
    15   14   15 2  
    16   14   17 1  
    17   15   16 1  
    18   15   23 1  
    19   17   18 ar 
    20   17   22 ar 
    21   18   19 ar 
    22   19   20 ar 
    23   20   21 ar 
    24   21   22 ar 
    25   22   23 1  
    26   23   24 1  
    27   24   25 1  
    28   25   26 1  
    29   26   27 1  
    30   26   31 1  
    31   27   28 1  
    32   28   29 1  
    33   29   30 1  
    34   30   31 1  
    35    1   32 1  
    36    2   33 1  
    37    3   34 1  
    38    3   35 1  
    39    6   36 1  
    40    7   37 1  
    41   10   38 1  
    42   13   39 1  
    43   13   40 1  
    44   16   41 1  
    45   16   42 1  
    46   18   43 1  
    47   19   44 1  
    48   20   45 1  
    49   21   46 1  
    50   24   47 1  
    51   24   48 1  
    52   25   49 1  
    53   25   50 1  
    54   27   51 1  
    55   27   52 1  
    56   28   53 1  
    57   28   54 1  
    58   29   55 1  
    59   29   56 1  
    60   30   57 1  
    61   30   58 1  
    62   31   59 1  
    63   31   60 1  
@<TRIPOS>SUBSTRUCTURE
     1 768         1

