3hnb_ligand
  -I-interpret- 

 61 64  0  0  0  0  0  0  0  0999 V2000
   -5.2350    5.3340   28.5120 O   0  0  0  0  0
   -3.9490    5.1060   29.0890 C   0  0  0  0  0
   -3.8450    3.6510   29.5730 C   0  0  0  0  0
   -2.5180    3.1310   29.4730 O   0  0  0  0  0
   -1.8110    2.5440   30.4990 C   0  0  0  0  0
   -2.1260    1.2640   30.9490 C   0  0  0  0  0
   -1.3660    0.6830   31.9690 C   0  0  0  0  0
   -0.2750    1.3720   32.5290 C   0  0  0  0  0
    0.5470    0.7770   33.6380 Cl  0  0  0  0  0
    0.0910    2.6510   32.1000 C   0  0  0  0  0
   -0.6210    3.2430   31.0870 C   0  0  0  0  0
   -0.2090    4.6100   30.6660 Cl  0  0  0  0  0
   -2.9740    5.4610   27.9600 C   0  0  0  0  0
   -2.8770    6.9220   28.0110 N   0  3  0  0  0
   -3.4780    7.8020   27.2950 C   0  0  0  0  0
   -4.3080    7.3540   26.3140 N   0  0  0  0  0
   -2.1850    7.6060   28.9070 C   0  0  0  0  0
   -1.3350    7.2150   29.9240 C   0  0  0  0  0
   -0.6910    8.1750   30.6950 C   0  0  0  0  0
   -0.8900    9.5400   30.4460 C   0  0  0  0  0
   -1.7360    9.9850   29.4260 C   0  0  0  0  0
   -2.3930    9.0520   28.6320 C   0  0  0  0  0
   -3.2550    9.1050   27.6220 N   0  0  0  0  0
   -3.7540   10.3220   27.0010 C   0  0  0  0  0
   -4.7130   10.0880   25.8440 C   0  0  0  0  0
   -6.0500   10.1050   26.3990 N   0  3  0  0  0
   -6.3960    9.3020   27.5640 C   0  0  0  0  0
   -6.3980   10.3750   28.6510 C   0  0  0  0  0
   -7.2940   11.5670   28.2960 C   0  0  0  0  0
   -7.1750   12.0720   26.8410 C   0  0  0  0  0
   -7.1190   10.9310   25.8270 C   0  0  0  0  0
   -5.9150    5.1336   29.1593 H   0  0  0  0  0
   -3.7371    5.7030   29.9761 H   0  0  0  0  0
   -4.4921    3.0412   28.9426 H   0  0  0  0  0
   -4.1365    3.6256   30.6230 H   0  0  0  0  0
   -2.9603    0.7182   30.5085 H   0  0  0  0  0
   -1.6212   -0.3122   32.3332 H   0  0  0  0  0
    0.9297    3.1706   32.5633 H   0  0  0  0  0
   -3.3230    5.1067   26.9901 H   0  0  0  0  0
   -2.0041    4.9807   28.0894 H   0  0  0  0  0
   -4.4334    6.3520   26.1702 H   0  0  0  0  0
   -4.8047    8.0202   25.7225 H   0  0  0  0  0
   -1.1701    6.1557   30.1210 H   0  0  0  0  0
   -0.0254    7.8640   31.5002 H   0  0  0  0  0
   -0.3717   10.2734   31.0637 H   0  0  0  0  0
   -1.8790   11.0520   29.2551 H   0  0  0  0  0
   -2.8913   10.8536   26.5994 H   0  0  0  0  0
   -4.3033   10.8701   27.7664 H   0  0  0  0  0
   -4.5076    9.1347   25.3571 H   0  0  0  0  0
   -4.5991   10.8608   25.0838 H   0  0  0  0  0
   -5.1837   10.1046   25.8605 H   0  0  0  0  0
   -5.7115    8.4755   27.7549 H   0  0  0  0  0
   -7.3380    8.7619   27.4692 H   0  0  0  0  0
   -5.3779   10.7423   28.7634 H   0  0  0  0  0
   -6.7824    9.9258   29.5668 H   0  0  0  0  0
   -6.9857   12.3916   28.9388 H   0  0  0  0  0
   -8.3234   11.2337   28.4275 H   0  0  0  0  0
   -6.2490   12.6410   26.7577 H   0  0  0  0  0
   -8.0570   12.6736   26.6212 H   0  0  0  0  0
   -8.0651   10.4047   25.7007 H   0  0  0  0  0
   -6.9272   11.2568   24.8047 H   0  0  0  0  0
  1  2  1  0  0  0
  2  3  1  0  0  0
  2 13  1  0  0  0
  3  4  1  0  0  0
  4  5  1  0  0  0
  5  6  4  0  0  0
  5 11  4  0  0  0
  6  7  4  0  0  0
  7  8  4  0  0  0
  8  9  1  0  0  0
  8 10  4  0  0  0
 10 11  4  0  0  0
 11 12  1  0  0  0
 13 14  1  0  0  0
 14 15  4  0  0  0
 14 17  4  0  0  0
 15 16  1  0  0  0
 15 23  4  0  0  0
 17 18  4  0  0  0
 17 22  4  0  0  0
 18 19  4  0  0  0
 19 20  4  0  0  0
 20 21  4  0  0  0
 21 22  4  0  0  0
 22 23  4  0  0  0
 23 24  1  0  0  0
 24 25  1  0  0  0
 25 26  1  0  0  0
 26 27  1  0  0  0
 26 31  1  0  0  0
 27 28  1  0  0  0
 28 29  1  0  0  0
 29 30  1  0  0  0
 30 31  1  0  0  0
  1 32  1  0  0  0
  2 33  1  0  0  0
  3 34  1  0  0  0
  3 35  1  0  0  0
  6 36  1  0  0  0
  7 37  1  0  0  0
 10 38  1  0  0  0
 13 39  1  0  0  0
 13 40  1  0  0  0
 16 41  1  0  0  0
 16 42  1  0  0  0
 18 43  1  0  0  0
 19 44  1  0  0  0
 20 45  1  0  0  0
 21 46  1  0  0  0
 24 47  1  0  0  0
 24 48  1  0  0  0
 25 49  1  0  0  0
 25 50  1  0  0  0
 26 51  1  0  0  0
 27 52  1  0  0  0
 27 53  1  0  0  0
 28 54  1  0  0  0
 28 55  1  0  0  0
 29 56  1  0  0  0
 29 57  1  0  0  0
 30 58  1  0  0  0
 30 59  1  0  0  0
 31 60  1  0  0  0
 31 61  1  0  0  0
M  END
$$$$
