3rpr_ligand
  -I-interpret- 

 39 41  0  0  0  0  0  0  0  0999 V2000
   94.6830   76.9970  -46.1040 C   0  0  0  0  0
   94.3210   80.5000  -44.9690 F   0  0  0  0  0
   91.7310   81.8290  -51.1100 N   0  0  0  0  0
   94.6530   78.6890  -50.9240 O   0  0  0  0  0
   91.9550   80.7390  -48.7840 S   0  0  0  0  0
   94.5210   78.4510  -46.0640 C   0  0  0  0  0
   95.8610   79.0400  -44.2760 F   0  0  0  0  0
   90.2250   82.6940  -49.5230 N   0  0  0  0  0
   94.2870   79.1340  -47.3360 C   0  0  0  0  0
   93.6900   78.6190  -43.9010 F   0  0  0  0  0
   93.3680   80.6960  -52.4050 N   0  0  0  0  0
   94.2100   78.4180  -48.6160 C   0  0  0  0  0
   94.3830   76.9580  -48.5820 C   0  0  0  0  0
   94.6150   76.2680  -47.3420 C   0  0  0  0  0
   94.5970   79.1460  -44.8120 C   0  0  0  0  0
   93.9820   79.0870  -49.8260 C   0  0  0  0  0
   92.9660   80.2040  -50.0400 C   0  0  0  0  0
   91.2210   81.8540  -49.8470 C   0  0  0  0  0
   92.7160   80.9050  -51.2260 C   0  0  0  0  0
   89.4160   82.7100  -48.3620 C   0  0  0  0  0
   89.0970   81.5380  -47.5090 C   0  0  0  0  0
   88.2600   81.6700  -46.3380 C   0  0  0  0  0
   87.7230   82.9580  -45.9880 C   0  0  0  0  0
   88.0120   84.1100  -46.7970 C   0  0  0  0  0
   88.8480   83.9870  -47.9670 C   0  0  0  0  0
   94.8591   76.4546  -45.1751 H   0  0  0  0  0
   94.3957   79.2352  -51.6704 H   0  0  0  0  0
   90.0235   83.4216  -50.2088 H   0  0  0  0  0
   94.1649   80.2171  -47.3339 H   0  0  0  0  0
   93.1184   81.2421  -53.2296 H   0  0  0  0  0
   94.1054   79.9936  -52.4625 H   0  0  0  0  0
   94.3346   76.3901  -49.5111 H   0  0  0  0  0
   94.7402   75.1852  -47.3402 H   0  0  0  0  0
   94.0398   79.5251  -48.8296 H   0  0  0  0  0
   89.5012   80.5601  -47.7704 H   0  0  0  0  0
   88.0368   80.7981  -45.7232 H   0  0  0  0  0
   87.0934   83.0606  -45.1042 H   0  0  0  0  0
   87.5979   85.0811  -46.5257 H   0  0  0  0  0
   89.0578   84.8721  -48.5675 H   0  0  0  0  0
  6  1  4  0  0  0
 14  1  4  0  0  0
 15  2  1  0  0  0
 18  3  4  0  0  0
  3 19  4  0  0  0
 16  4  1  0  0  0
 17  5  4  0  0  0
  5 18  4  0  0  0
  9  6  4  0  0  0
  6 15  1  0  0  0
 15  7  1  0  0  0
 18  8  1  0  0  0
  8 20  1  0  0  0
 12  9  4  0  0  0
 15 10  1  0  0  0
 19 11  1  0  0  0
 12 13  4  0  0  0
 16 12  1  0  0  0
 13 14  4  0  0  0
 16 17  1  0  0  0
 17 19  4  0  0  0
 20 21  4  0  0  0
 20 25  4  0  0  0
 21 22  4  0  0  0
 22 23  4  0  0  0
 23 24  4  0  0  0
 24 25  4  0  0  0
  1 26  1  0  0  0
  4 27  1  0  0  0
  8 28  1  0  0  0
  9 29  1  0  0  0
 11 30  1  0  0  0
 11 31  1  0  0  0
 13 32  1  0  0  0
 14 33  1  0  0  0
 16 34  1  0  0  0
 21 35  1  0  0  0
 22 36  1  0  0  0
 23 37  1  0  0  0
 24 38  1  0  0  0
 25 39  1  0  0  0
M  END
$$$$
