5icy_ligand
  -I-interpret- 

196196  0  0  0  0  0  0  0  0999 V2000
  -15.0650   32.7340  -27.7090 N   0  3  0  0  0
  -16.4660   33.0040  -27.3780 C   0  0  0  0  0
  -16.8860   34.3980  -27.8030 C   0  0  0  0  0
  -16.6470   35.3690  -27.0830 O   0  0  0  0  0
  -16.7210   32.8270  -25.8700 C   0  0  0  0  0
  -18.0510   33.1800  -25.4950 O   0  0  0  0  0
  -17.5250   34.4990  -28.9650 N   0  0  0  0  0
  -18.0360   35.7690  -29.4620 C   0  0  0  0  0
  -19.5490   35.7130  -29.6390 C   0  0  0  0  0
  -20.0710   34.9210  -30.4230 O   0  0  0  0  0
  -17.3660   36.1500  -30.7850 C   0  0  0  0  0
  -16.0000   36.7990  -30.6340 C   0  0  0  0  0
  -16.0740   38.1330  -29.9100 C   0  0  0  0  0
  -15.3160   38.3820  -28.9770 O   0  0  0  0  0
  -16.9940   38.9830  -30.3440 N   0  0  0  0  0
  -20.2490   36.5590  -28.8960 N   0  0  0  0  0
  -21.6990   36.6090  -28.9730 C   0  0  0  0  0
  -22.1920   37.3510  -30.2240 C   0  0  0  0  0
  -21.7260   38.4510  -30.5310 O   0  0  0  0  0
  -22.2740   37.2440  -27.7040 C   0  0  0  0  0
  -23.7650   37.3440  -27.7110 C   0  0  0  0  0
  -24.5510   36.2120  -27.5010 C   0  0  0  0  0
  -24.3910   38.5600  -27.9480 C   0  0  0  0  0
  -25.9350   36.2950  -27.5070 C   0  0  0  0  0
  -25.7870   38.6520  -27.9600 C   0  0  0  0  0
  -26.5560   37.5180  -27.7400 C   0  0  0  0  0
  -23.1470   36.7460  -30.9260 N   0  0  0  0  0
  -23.6650   37.2800  -32.1890 C   0  0  0  0  0
  -25.0290   37.9060  -31.9580 C   0  0  0  0  0
  -25.9710   37.2080  -31.5700 O   0  0  0  0  0
  -23.7890   36.1350  -33.2000 C   0  0  0  0  0
  -24.1720   36.5990  -34.6050 C   0  0  0  0  0
  -24.7880   37.6730  -34.7760 O   0  0  0  0  0
  -23.8540   35.8570  -35.5570 O   0  0  0  0  0
  -25.1410   39.2080  -32.2240 N   0  0  0  0  0
  -26.3750   39.9530  -31.9560 C   0  0  0  0  0
  -27.5560   39.5290  -32.8180 C   0  0  0  0  0
  -28.7120   39.6750  -32.4120 O   0  0  0  0  0
  -26.1400   41.4480  -32.1350 C   0  0  0  0  0
  -25.1680   42.0400  -31.1210 C   0  0  0  0  0
  -24.6480   43.3760  -31.6170 C   0  0  0  0  0
  -25.8490   42.1760  -29.7670 C   0  0  0  0  0
  -27.2640   39.0090  -34.0070 N   0  0  0  0  0
  -28.3110   38.6160  -34.9480 C   0  0  0  0  0
  -29.0810   37.3650  -34.5160 C   0  0  0  0  0
  -30.3160   37.3230  -34.6030 O   0  0  0  0  0
  -27.7050   38.3880  -36.3290 C   0  0  0  0  0
  -27.0840   39.5700  -36.7920 O   0  0  0  0  0
  -28.3400   36.3600  -34.0520 N   0  0  0  0  0
  -28.8950   35.0530  -33.7210 C   0  0  0  0  0
  -29.0470   34.8440  -32.2170 C   0  0  0  0  0
  -29.7210   33.9090  -31.7810 O   0  0  0  0  0
  -27.9860   33.9180  -34.2530 C   0  0  0  0  0
  -26.6540   34.0550  -33.7140 O   0  0  0  0  0
  -27.9370   33.9400  -35.7870 C   0  0  0  0  0
  -28.4130   35.7100  -31.4340 N   0  0  0  0  0
  -28.2900   35.5120  -29.9930 C   0  0  0  0  0
  -27.5820   34.1970  -29.6350 C   0  0  0  0  0
  -27.9220   33.5370  -28.6590 O   0  0  0  0  0
  -29.6500   35.6270  -29.2910 C   0  0  0  0  0
  -30.3650   36.9440  -29.5720 C   0  0  0  0  0
  -31.5300   37.1570  -28.6280 C   0  0  0  0  0
  -32.3040   38.3390  -28.9910 N   0  0  0  0  0
  -33.4020   38.7460  -28.3550 C   0  0  0  0  0
  -33.8580   38.0670  -27.3040 N   0  0  0  0  0
  -34.0410   39.8400  -28.7670 N   0  0  0  0  0
  -26.5870   33.8260  -30.4300 N   0  0  0  0  0
  -25.8430   32.6020  -30.1910 C   0  0  0  0  0
  -24.3450   32.8680  -30.2070 C   0  0  0  0  0
  -23.8830   33.8110  -30.8580 O   0  0  0  0  0
  -26.2050   31.5610  -31.2460 C   0  0  0  0  0
  -27.6680   31.1300  -31.1930 C   0  0  0  0  0
  -28.0210   30.4570  -29.8670 C   0  0  0  0  0
  -27.0450   29.4300  -29.5100 N   0  0  0  0  0
  -27.0240   28.2010  -30.0240 C   0  0  0  0  0
  -27.9360   27.8330  -30.9180 N   0  0  0  0  0
  -26.0890   27.3380  -29.6460 N   0  0  0  0  0
  -23.5880   32.0510  -29.4750 N   0  0  0  0  0
  -22.1330   32.1270  -29.5310 C   0  0  0  0  0
  -21.6760   31.6070  -30.8770 C   0  0  0  0  0
  -22.3060   30.7220  -31.4510 O   0  0  0  0  0
  -21.4880   31.3030  -28.4270 C   0  0  0  0  0
  -21.7160   31.7340  -26.9850 C   0  0  0  0  0
  -20.9760   30.7860  -26.0520 C   0  0  0  0  0
  -21.2740   33.1730  -26.7790 C   0  0  0  0  0
  -20.5780   32.1510  -31.3810 N   0  0  0  0  0
  -20.0880   31.7440  -32.6850 C   0  0  0  0  0
  -19.1920   30.5190  -32.6060 C   0  0  0  0  0
  -17.9690   30.6450  -32.6020 O   0  0  0  0  0
  -19.3520   32.9010  -33.3500 C   0  0  0  0  0
  -20.2790   33.8940  -34.0500 C   0  0  0  0  0
  -19.4940   35.1070  -34.5640 C   0  0  0  0  0
  -20.4170   36.2300  -35.0320 C   0  0  0  0  0
  -19.6620   37.4940  -35.2530 N   0  3  0  0  0
  -19.6840   29.3940  -32.5460 O   0  0  0  0  0
  -14.9237   32.8582  -28.7115 H   0  0  0  0  0
  -14.4652   33.3810  -27.1972 H   0  0  0  0  0
  -14.8339   31.7754  -27.4480 H   0  0  0  0  0
  -17.0658   32.2806  -27.9303 H   0  0  0  0  0
  -16.0354   33.4833  -25.3340 H   0  0  0  0  0
  -16.5707   31.7756  -25.6250 H   0  0  0  0  0
  -18.1601   33.0531  -24.5497 H   0  0  0  0  0
  -17.6618   33.6588  -29.5270 H   0  0  0  0  0
  -17.7996   36.5335  -28.7219 H   0  0  0  0  0
  -18.0136   36.8784  -31.2730 H   0  0  0  0  0
  -17.2211   35.2274  -31.3471 H   0  0  0  0  0
  -15.5973   36.9766  -31.6312 H   0  0  0  0  0
  -15.3700   36.1299  -30.0479 H   0  0  0  0  0
  -17.0971   39.8945  -29.8979 H   0  0  0  0  0
  -17.5987   38.7256  -31.1240 H   0  0  0  0  0
  -19.7601   37.1869  -28.2580 H   0  0  0  0  0
  -22.0573   35.5827  -29.0529 H   0  0  0  0  0
  -21.8779   38.2572  -27.6360 H   0  0  0  0  0
  -21.9920   36.6099  -26.8635 H   0  0  0  0  0
  -24.0710   35.2485  -27.3297 H   0  0  0  0  0
  -23.7895   39.4513  -28.1264 H   0  0  0  0  0
  -26.5358   35.4031  -27.3294 H   0  0  0  0  0
  -26.2695   39.6123  -28.1418 H   0  0  0  0  0
  -27.6439   37.5853  -27.7497 H   0  0  0  0  0
  -23.5354   35.8727  -30.5697 H   0  0  0  0  0
  -22.9849   38.0399  -32.5738 H   0  0  0  0  0
  -24.5791   35.4719  -32.8478 H   0  0  0  0  0
  -22.8139   35.6528  -33.2693 H   0  0  0  0  0
  -24.9372   38.0938  -33.9262 H   0  0  0  0  0
  -24.3436   39.7007  -32.6263 H   0  0  0  0  0
  -26.6372   39.7214  -30.9237 H   0  0  0  0  0
  -27.0990   41.9478  -31.9981 H   0  0  0  0  0
  -25.7080   41.5942  -33.1250 H   0  0  0  0  0
  -24.3150   41.3717  -31.0034 H   0  0  0  0  0
  -24.1328   43.2339  -32.5670 H   0  0  0  0  0
  -25.4842   44.0615  -31.7547 H   0  0  0  0  0
  -23.9547   43.7892  -30.8844 H   0  0  0  0  0
  -26.7143   42.8321  -29.8612 H   0  0  0  0  0
  -26.1723   41.1932  -29.4240 H   0  0  0  0  0
  -25.1465   42.5998  -29.0494 H   0  0  0  0  0
  -26.2863   38.8815  -34.2682 H   0  0  0  0  0
  -29.0289   39.4359  -34.9721 H   0  0  0  0  0
  -28.4965   38.1059  -37.0233 H   0  0  0  0  0
  -26.9594   37.5955  -36.2645 H   0  0  0  0  0
  -26.7072   39.4129  -37.6609 H   0  0  0  0  0
  -27.3397   36.5116  -33.9225 H   0  0  0  0  0
  -29.8781   35.0231  -34.1909 H   0  0  0  0  0
  -28.4028   32.9631  -33.9328 H   0  0  0  0  0
  -26.0996   33.3469  -34.0501 H   0  0  0  0  0
  -28.9431   33.8029  -36.1834 H   0  0  0  0  0
  -27.5402   34.8980  -36.1229 H   0  0  0  0  0
  -27.2930   33.1346  -36.1403 H   0  0  0  0  0
  -27.9980   36.5417  -31.8541 H   0  0  0  0  0
  -27.6549   36.3170  -29.6231 H   0  0  0  0  0
  -29.4719   35.5717  -28.2171 H   0  0  0  0  0
  -30.2828   34.8224  -29.6655 H   0  0  0  0  0
  -30.7482   36.9175  -30.5921 H   0  0  0  0  0
  -29.6545   37.7587  -29.4322 H   0  0  0  0  0
  -31.1369   37.2979  -27.6212 H   0  0  0  0  0
  -32.1832   36.2862  -28.6842 H   0  0  0  0  0
  -31.9828   38.8917  -29.7859 H   0  0  0  0  0
  -33.3665   37.2326  -26.9836 H   0  0  0  0  0
  -34.8782   40.1564  -28.2776 H   0  0  0  0  0
  -33.6931   40.3612  -29.5718 H   0  0  0  0  0
  -26.3391   34.4132  -31.2264 H   0  0  0  0  0
  -26.1102   32.2206  -29.2055 H   0  0  0  0  0
  -25.5946   30.6774  -31.0595 H   0  0  0  0  0
  -26.0290   32.0087  -32.2241 H   0  0  0  0  0
  -27.8404   30.4124  -31.9951 H   0  0  0  0  0
  -28.2887   32.0197  -31.2987 H   0  0  0  0  0
  -28.9976   29.9839  -29.9696 H   0  0  0  0  0
  -28.0243   31.2163  -29.0850 H   0  0  0  0  0
  -26.3320   29.6700  -28.8212 H   0  0  0  0  0
  -27.9151   26.8916  -31.3100 H   0  0  0  0  0
  -28.6568   28.4920  -31.2121 H   0  0  0  0  0
  -25.3857   27.6155  -28.9614 H   0  0  0  0  0
  -24.0327   31.3631  -28.8672 H   0  0  0  0  0
  -21.8318   33.1653  -29.3924 H   0  0  0  0  0
  -20.4140   31.3941  -28.5890 H   0  0  0  0  0
  -21.9366   30.3128  -28.5065 H   0  0  0  0  0
  -22.7808   31.6867  -26.7567 H   0  0  0  0  0
  -21.3512   29.7724  -26.1936 H   0  0  0  0  0
  -19.9100   30.8150  -26.2774 H   0  0  0  0  0
  -21.1388   31.0940  -25.0192 H   0  0  0  0  0
  -20.2127   33.2625  -27.0107 H   0  0  0  0  0
  -21.8472   33.8256  -27.4375 H   0  0  0  0  0
  -21.4461   33.4596  -25.7415 H   0  0  0  0  0
  -20.0739   32.8604  -30.8491 H   0  0  0  0  0
  -20.9523   31.4693  -33.2897 H   0  0  0  0  0
  -17.7443   31.5769  -32.6534 H   0  0  0  0  0
  -18.6943   32.4770  -34.1088 H   0  0  0  0  0
  -18.8221   33.4442  -32.5675 H   0  0  0  0  0
  -21.0275   34.2378  -33.3361 H   0  0  0  0  0
  -20.7497   33.3963  -34.8978 H   0  0  0  0  0
  -18.8896   34.7869  -35.4127 H   0  0  0  0  0
  -18.8817   35.4877  -33.7466 H   0  0  0  0  0
  -21.1687   36.4049  -34.2622 H   0  0  0  0  0
  -20.8769   35.9313  -35.9740 H   0  0  0  0  0
  -20.3046   38.2225  -35.5641 H   0  0  0  0  0
  -19.2180   37.7804  -34.3805 H   0  0  0  0  0
  -18.9479   37.3420  -35.9653 H   0  0  0  0  0
  1  2  1  0  0  0
  2  3  1  0  0  0
  2  5  1  0  0  0
  3  4  2  0  0  0
  3  7  1  0  0  0
  5  6  1  0  0  0
  7  8  1  0  0  0
  8  9  1  0  0  0
  8 11  1  0  0  0
  9 10  2  0  0  0
  9 16  1  0  0  0
 11 12  1  0  0  0
 12 13  1  0  0  0
 13 14  2  0  0  0
 13 15  1  0  0  0
 16 17  1  0  0  0
 17 18  1  0  0  0
 17 20  1  0  0  0
 18 19  2  0  0  0
 18 27  1  0  0  0
 20 21  1  0  0  0
 21 22  4  0  0  0
 21 23  4  0  0  0
 22 24  4  0  0  0
 23 25  4  0  0  0
 24 26  4  0  0  0
 25 26  4  0  0  0
 27 28  1  0  0  0
 28 29  1  0  0  0
 28 31  1  0  0  0
 29 30  2  0  0  0
 29 35  1  0  0  0
 31 32  1  0  0  0
 32 33  1  0  0  0
 32 34  2  0  0  0
 35 36  1  0  0  0
 36 37  1  0  0  0
 36 39  1  0  0  0
 37 38  2  0  0  0
 37 43  1  0  0  0
 39 40  1  0  0  0
 40 41  1  0  0  0
 40 42  1  0  0  0
 43 44  1  0  0  0
 44 45  1  0  0  0
 44 47  1  0  0  0
 45 46  2  0  0  0
 45 49  1  0  0  0
 47 48  1  0  0  0
 49 50  1  0  0  0
 50 51  1  0  0  0
 50 53  1  0  0  0
 51 52  2  0  0  0
 51 56  1  0  0  0
 53 54  1  0  0  0
 53 55  1  0  0  0
 56 57  1  0  0  0
 57 58  1  0  0  0
 57 60  1  0  0  0
 58 59  2  0  0  0
 58 67  1  0  0  0
 60 61  1  0  0  0
 61 62  1  0  0  0
 62 63  1  0  0  0
 63 64  1  0  0  0
 64 65  2  0  0  0
 64 66  1  0  0  0
 67 68  1  0  0  0
 68 69  1  0  0  0
 68 71  1  0  0  0
 69 70  2  0  0  0
 69 78  1  0  0  0
 71 72  1  0  0  0
 72 73  1  0  0  0
 73 74  1  0  0  0
 74 75  1  0  0  0
 75 76  1  0  0  0
 75 77  2  0  0  0
 78 79  1  0  0  0
 79 80  1  0  0  0
 79 82  1  0  0  0
 80 81  2  0  0  0
 80 86  1  0  0  0
 82 83  1  0  0  0
 83 84  1  0  0  0
 83 85  1  0  0  0
 86 87  1  0  0  0
 87 88  1  0  0  0
 87 90  1  0  0  0
 88 89  1  0  0  0
 88 95  2  0  0  0
 90 91  1  0  0  0
 91 92  1  0  0  0
 92 93  1  0  0  0
 93 94  1  0  0  0
  1 96  1  0  0  0
  1 97  1  0  0  0
  1 98  1  0  0  0
  2 99  1  0  0  0
  5100  1  0  0  0
  5101  1  0  0  0
  6102  1  0  0  0
  7103  1  0  0  0
  8104  1  0  0  0
 11105  1  0  0  0
 11106  1  0  0  0
 12107  1  0  0  0
 12108  1  0  0  0
 15109  1  0  0  0
 15110  1  0  0  0
 16111  1  0  0  0
 17112  1  0  0  0
 20113  1  0  0  0
 20114  1  0  0  0
 22115  1  0  0  0
 23116  1  0  0  0
 24117  1  0  0  0
 25118  1  0  0  0
 26119  1  0  0  0
 27120  1  0  0  0
 28121  1  0  0  0
 31122  1  0  0  0
 31123  1  0  0  0
 33124  1  0  0  0
 35125  1  0  0  0
 36126  1  0  0  0
 39127  1  0  0  0
 39128  1  0  0  0
 40129  1  0  0  0
 41130  1  0  0  0
 41131  1  0  0  0
 41132  1  0  0  0
 42133  1  0  0  0
 42134  1  0  0  0
 42135  1  0  0  0
 43136  1  0  0  0
 44137  1  0  0  0
 47138  1  0  0  0
 47139  1  0  0  0
 48140  1  0  0  0
 49141  1  0  0  0
 50142  1  0  0  0
 53143  1  0  0  0
 54144  1  0  0  0
 55145  1  0  0  0
 55146  1  0  0  0
 55147  1  0  0  0
 56148  1  0  0  0
 57149  1  0  0  0
 60150  1  0  0  0
 60151  1  0  0  0
 61152  1  0  0  0
 61153  1  0  0  0
 62154  1  0  0  0
 62155  1  0  0  0
 63156  1  0  0  0
 65157  1  0  0  0
 66158  1  0  0  0
 66159  1  0  0  0
 67160  1  0  0  0
 68161  1  0  0  0
 71162  1  0  0  0
 71163  1  0  0  0
 72164  1  0  0  0
 72165  1  0  0  0
 73166  1  0  0  0
 73167  1  0  0  0
 74168  1  0  0  0
 76169  1  0  0  0
 76170  1  0  0  0
 77171  1  0  0  0
 78172  1  0  0  0
 79173  1  0  0  0
 82174  1  0  0  0
 82175  1  0  0  0
 83176  1  0  0  0
 84177  1  0  0  0
 84178  1  0  0  0
 84179  1  0  0  0
 85180  1  0  0  0
 85181  1  0  0  0
 85182  1  0  0  0
 86183  1  0  0  0
 87184  1  0  0  0
 89185  1  0  0  0
 90186  1  0  0  0
 90187  1  0  0  0
 91188  1  0  0  0
 91189  1  0  0  0
 92190  1  0  0  0
 92191  1  0  0  0
 93192  1  0  0  0
 93193  1  0  0  0
 94194  1  0  0  0
 94195  1  0  0  0
 94196  1  0  0  0
M  END
$$$$
