### 
### Created by X-TOOL on Mon Sep 10 21:13:26 2018
### 

@<TRIPOS>MOLECULE
5icy_ligand
  196   196     1     0     0
SMALL
GAST_HUCK


@<TRIPOS>ATOM
      1 N         -15.0650   32.7340  -27.7090 N.4       1 SER         0.2396
      2 CA        -16.4660   33.0040  -27.3780 C.3       1 SER         0.0885
      3 C         -16.8860   34.3980  -27.8030 C.2       1 SER         0.2290
      4 O         -16.6470   35.3690  -27.0830 O.2       1 SER        -0.3906
      5 CB        -16.7210   32.8270  -25.8700 C.3       1 SER         0.1041
      6 OG        -18.0510   33.1800  -25.4950 O.3       1 SER        -0.3870
      7 N         -17.5250   34.4990  -28.9650 N.am      1 GLN        -0.2608
      8 CA        -18.0360   35.7690  -29.4620 C.3       1 GLN         0.1331
      9 C         -19.5490   35.7130  -29.6390 C.2       1 GLN         0.2042
     10 O         -20.0710   34.9210  -30.4230 O.2       1 GLN        -0.3944
     11 CB        -17.3660   36.1500  -30.7850 C.3       1 GLN         0.0045
     12 CG        -16.0000   36.7990  -30.6340 C.3       1 GLN         0.0412
     13 CD        -16.0740   38.1330  -29.9100 C.2       1 GLN         0.1737
     14 OE1       -15.3160   38.3820  -28.9770 O.2       1 GLN        -0.3973
     15 NE2       -16.9940   38.9830  -30.3440 N.am      1 GLN        -0.3009
     16 N         -20.2490   36.5590  -28.8960 N.am      1 PHE        -0.2619
     17 CA        -21.6990   36.6090  -28.9730 C.3       1 PHE         0.1404
     18 C         -22.1920   37.3510  -30.2240 C.2       1 PHE         0.2060
     19 O         -21.7260   38.4510  -30.5310 O.2       1 PHE        -0.3942
     20 CB        -22.2740   37.2440  -27.7040 C.3       1 PHE         0.0214
     21 CG        -23.7650   37.3440  -27.7110 C.ar      1 PHE        -0.0386
     22 CD1       -24.5510   36.2120  -27.5010 C.ar      1 PHE        -0.0601
     23 CD2       -24.3910   38.5600  -27.9480 C.ar      1 PHE        -0.0601
     24 CE1       -25.9350   36.2950  -27.5070 C.ar      1 PHE        -0.0686
     25 CE2       -25.7870   38.6520  -27.9600 C.ar      1 PHE        -0.0686
     26 CZ        -26.5560   37.5180  -27.7400 C.ar      1 PHE        -0.0687
     27 N         -23.1470   36.7460  -30.9260 N.am      1 ASP        -0.2620
     28 CA        -23.6650   37.2800  -32.1890 C.3       1 ASP         0.1423
     29 C         -25.0290   37.9060  -31.9580 C.2       1 ASP         0.2056
     30 O         -25.9710   37.2080  -31.5700 O.2       1 ASP        -0.3943
     31 CB        -23.7890   36.1350  -33.2000 C.3       1 ASP         0.0406
     32 CG        -24.1720   36.5990  -34.6050 C.2       1 ASP         0.0393
     33 OD1       -24.7880   37.6730  -34.7760 O.co2     1 ASP        -0.5688
     34 OD2       -23.8540   35.8570  -35.5570 O.co2     1 ASP        -0.5688
     35 N         -25.1410   39.2080  -32.2240 N.am      1 LEU        -0.2636
     36 CA        -26.3750   39.9530  -31.9560 C.3       1 LEU         0.1312
     37 C         -27.5560   39.5290  -32.8180 C.2       1 LEU         0.2040
     38 O         -28.7120   39.6750  -32.4120 O.2       1 LEU        -0.3944
     39 CB        -26.1400   41.4480  -32.1350 C.3       1 LEU        -0.0101
     40 CG        -25.1680   42.0400  -31.1210 C.3       1 LEU        -0.0425
     41 CD1       -24.6480   43.3760  -31.6170 C.3       1 LEU        -0.0625
     42 CD2       -25.8490   42.1760  -29.7670 C.3       1 LEU        -0.0625
     43 N         -27.2640   39.0090  -34.0070 N.am      1 SER        -0.2616
     44 CA        -28.3110   38.6160  -34.9480 C.3       1 SER         0.1539
     45 C         -29.0810   37.3650  -34.5160 C.2       1 SER         0.2063
     46 O         -30.3160   37.3230  -34.6030 O.2       1 SER        -0.3943
     47 CB        -27.7050   38.3880  -36.3290 C.3       1 SER         0.0843
     48 OG        -27.0840   39.5700  -36.7920 O.3       1 SER        -0.3903
     49 N         -28.3400   36.3600  -34.0520 N.am      1 THR        -0.2613
     50 CA        -28.8950   35.0530  -33.7210 C.3       1 THR         0.1565
     51 C         -29.0470   34.8440  -32.2170 C.2       1 THR         0.2065
     52 O         -29.7210   33.9090  -31.7810 O.2       1 THR        -0.3943
     53 CB        -27.9860   33.9180  -34.2530 C.3       1 THR         0.0924
     54 OG1       -26.6540   34.0550  -33.7140 O.3       1 THR        -0.3874
     55 CG2       -27.9370   33.9400  -35.7870 C.3       1 THR        -0.0346
     56 N         -28.4130   35.7100  -31.4340 N.am      1 ARG        -0.2636
     57 CA        -28.2900   35.5120  -29.9930 C.3       1 ARG         0.1311
     58 C         -27.5820   34.1970  -29.6350 C.2       1 ARG         0.2039
     59 O         -27.9220   33.5370  -28.6590 O.2       1 ARG        -0.3944
     60 CB        -29.6500   35.6270  -29.2910 C.3       1 ARG        -0.0092
     61 CG        -30.3650   36.9440  -29.5720 C.3       1 ARG        -0.0156
     62 CD        -31.5300   37.1570  -28.6280 C.3       1 ARG         0.0627
     63 NE        -32.3040   38.3390  -28.9910 N.pl3     1 ARG        -0.2723
     64 CZ        -33.4020   38.7460  -28.3550 C.cat     1 ARG         0.2882
     65 NH1       -33.8580   38.0670  -27.3040 N.pl3     1 ARG        -0.2849
     66 NH2       -34.0410   39.8400  -28.7670 N.pl3     1 ARG        -0.2849
     67 N         -26.5870   33.8260  -30.4300 N.am      1 ARG        -0.2637
     68 CA        -25.8430   32.6020  -30.1910 C.3       1 ARG         0.1311
     69 C         -24.3450   32.8680  -30.2070 C.2       1 ARG         0.2039
     70 O         -23.8830   33.8110  -30.8580 O.2       1 ARG        -0.3944
     71 CB        -26.2050   31.5610  -31.2460 C.3       1 ARG        -0.0092
     72 CG        -27.6680   31.1300  -31.1930 C.3       1 ARG        -0.0156
     73 CD        -28.0210   30.4570  -29.8670 C.3       1 ARG         0.0627
     74 NE        -27.0450   29.4300  -29.5100 N.pl3     1 ARG        -0.2723
     75 CZ        -27.0240   28.2010  -30.0240 C.cat     1 ARG         0.2882
     76 NH1       -27.9360   27.8330  -30.9180 N.pl3     1 ARG        -0.2849
     77 NH2       -26.0890   27.3380  -29.6460 N.pl3     1 ARG        -0.2849
     78 N         -23.5880   32.0510  -29.4750 N.am      1 LEU        -0.2637
     79 CA        -22.1330   32.1270  -29.5310 C.3       1 LEU         0.1312
     80 C         -21.6760   31.6070  -30.8770 C.2       1 LEU         0.2033
     81 O         -22.3060   30.7220  -31.4510 O.2       1 LEU        -0.3944
     82 CB        -21.4880   31.3030  -28.4270 C.3       1 LEU        -0.0101
     83 CG        -21.7160   31.7340  -26.9850 C.3       1 LEU        -0.0425
     84 CD1       -20.9760   30.7860  -26.0520 C.3       1 LEU        -0.0625
     85 CD2       -21.2740   33.1730  -26.7790 C.3       1 LEU        -0.0625
     86 N         -20.5780   32.1510  -31.3810 N.am      1 LYS        -0.2695
     87 CA        -20.0880   31.7440  -32.6850 C.3       1 LYS         0.0944
     88 C         -19.1920   30.5190  -32.6060 C.2       1 LYS         0.0601
     89 O         -17.9690   30.6450  -32.6020 O.co2     1 LYS        -0.5666
     90 CB        -19.3520   32.9010  -33.3500 C.3       1 LYS        -0.0177
     91 CG        -20.2790   33.8940  -34.0500 C.3       1 LYS        -0.0446
     92 CD        -19.4940   35.1070  -34.5640 C.3       1 LYS        -0.0125
     93 CE        -20.4170   36.2300  -35.0320 C.3       1 LYS        -0.0354
     94 NZ        -19.6620   37.4940  -35.2530 N.4       1 LYS         0.2185
     95 OXT       -19.6840   29.3940  -32.5460 O.co2     1 LYS        -0.5666
     96 H1        -14.8234   31.8014  -27.4123 H         1 SER         0.2016
     97 H2        -14.4738   33.4003  -27.2373 H         1 SER         0.2016
     98 H3        -14.9336   32.8143  -28.7052 H         1 SER         0.2016
     99 H4        -17.0878   32.2775  -27.9216 H         1 SER         0.1122
    100 H5        -16.0173   33.4656  -25.3160 H         1 SER         0.0640
    101 H6        -16.5476   31.7738  -25.6043 H         1 SER         0.0640
    102 H7        -18.1590   33.0545  -24.5595 H         1 SER         0.2099
    103 H8        -17.6591   33.6753  -29.5159 H         1 GLN         0.1885
    104 H9        -17.8027   36.5466  -28.7198 H         1 GLN         0.0801
    105 H10       -18.0248   36.8545  -31.3137 H         1 GLN         0.0337
    106 H11       -17.2480   35.2365  -31.3863 H         1 GLN         0.0337
    107 H12       -15.5731   36.9624  -31.6345 H         1 GLN         0.0504
    108 H13       -15.3475   36.1221  -30.0630 H         1 GLN         0.0504
    109 H14       -17.0929   39.8779  -29.9088 H         1 GLN         0.1814
    110 H15       -17.5891   38.7293  -31.1066 H         1 GLN         0.1814
    111 H16       -19.7697   37.1746  -28.2705 H         1 PHE         0.1885
    112 H17       -22.0671   35.5742  -29.0330 H         1 PHE         0.0823
    113 H18       -21.8575   38.2570  -27.6020 H         1 PHE         0.0474
    114 H19       -21.9700   36.6339  -26.8407 H         1 PHE         0.0474
    115 H20       -24.0736   35.2538  -27.3307 H         1 PHE         0.0557
    116 H21       -23.7928   39.4464  -28.1254 H         1 PHE         0.0557
    117 H22       -26.5325   35.4080  -27.3303 H         1 PHE         0.0599
    118 H23       -26.2669   39.6070  -28.1408 H         1 PHE         0.0599
    119 H24       -27.6379   37.5849  -27.7497 H         1 PHE         0.0559
    120 H25       -23.5278   35.8899  -30.5767 H         1 ASP         0.1884
    121 H26       -22.9736   38.0420  -32.5781 H         1 ASP         0.0819
    122 H27       -24.5599   35.4368  -32.8420 H         1 ASP         0.0478
    123 H28       -22.8214   35.6150  -33.2571 H         1 ASP         0.0478
    124 H29       -24.3593   39.6910  -32.6184 H         1 LEU         0.1883
    125 H30       -26.6472   39.7691  -30.9062 H         1 LEU         0.0800
    126 H31       -27.1052   41.9660  -32.0345 H         1 LEU         0.0315
    127 H32       -25.7359   41.6179  -33.1439 H         1 LEU         0.0315
    128 H33       -24.3140   41.3554  -31.0118 H         1 LEU         0.0298
    129 H34       -23.9481   43.7941  -30.8785 H         1 LEU         0.0232
    130 H35       -25.4910   44.0688  -31.7563 H         1 LEU         0.0232
    131 H36       -24.1278   43.2340  -32.5757 H         1 LEU         0.0232
    132 H37       -26.2127   41.1911  -29.4390 H         1 LEU         0.0232
    133 H38       -26.6977   42.8707  -29.8515 H         1 LEU         0.0232
    134 H39       -25.1289   42.5644  -29.0317 H         1 LEU         0.0232
    135 H40       -26.3055   38.8840  -34.2631 H         1 SER         0.1884
    136 H41       -29.0296   39.4461  -35.0148 H         1 SER         0.0823
    137 H42       -28.5003   38.0968  -37.0310 H         1 SER         0.0606
    138 H43       -26.9565   37.5842  -36.2689 H         1 SER         0.0606
    139 H44       -27.7293   40.2650  -36.8464 H         1 SER         0.2097
    140 H45       -27.3593   36.5086  -33.9250 H         1 THR         0.1884
    141 H46       -29.8858   34.9730  -34.1921 H         1 THR         0.0826
    142 H47       -28.4017   32.9529  -33.9279 H         1 THR         0.0639
    143 H48       -26.1054   33.3543  -34.0466 H         1 THR         0.2101
    144 H49       -27.2874   33.1276  -36.1448 H         1 THR         0.0257
    145 H50       -27.5367   34.9064  -36.1273 H         1 THR         0.0257
    146 H51       -28.9518   33.8017  -36.1883 H         1 THR         0.0257
    147 H52       -28.0061   36.5254  -31.8459 H         1 ARG         0.1883
    148 H53       -27.6592   36.3284  -29.6114 H         1 ARG         0.0800
    149 H54       -29.4911   35.5408  -28.2060 H         1 ARG         0.0313
    150 H55       -30.2910   34.8017  -29.6345 H         1 ARG         0.0313
    151 H56       -30.7404   36.9331  -30.6059 H         1 ARG         0.0301
    152 H57       -29.6506   37.7714  -29.4500 H         1 ARG         0.0301
    153 H58       -31.1433   37.2832  -27.6060 H         1 ARG         0.0689
    154 H59       -32.1862   36.2749  -28.6655 H         1 ARG         0.0689
    155 H60       -31.9797   38.8971  -29.7937 H         1 ARG         0.2642
    156 H61       -34.7070   38.3844  -26.8147 H         1 ARG         0.2615
    157 H62       -33.3617   37.2245  -26.9804 H         1 ARG         0.2615
    158 H63       -33.6897   40.3663  -29.5797 H         1 ARG         0.2615
    159 H64       -34.8864   40.1595  -28.2728 H         1 ARG         0.2615
    160 H65       -26.3440   34.4016  -31.2108 H         1 ARG         0.1883
    161 H66       -26.1184   32.2114  -29.2003 H         1 ARG         0.0800
    162 H67       -25.5739   30.6734  -31.0914 H         1 ARG         0.0313
    163 H68       -26.0024   31.9864  -32.2400 H         1 ARG         0.0313
    164 H69       -27.8590   30.4214  -32.0123 H         1 ARG         0.0301
    165 H70       -28.3043   32.0181  -31.3205 H         1 ARG         0.0301
    166 H71       -29.0135   29.9911  -29.9559 H         1 ARG         0.0689
    167 H72       -28.0435   31.2193  -29.0743 H         1 ARG         0.0689
    168 H73       -26.3250   29.6723  -28.8144 H         1 ARG         0.2642
    169 H74       -27.9158   26.8818  -31.3127 H         1 ARG         0.2615
    170 H75       -28.6630   28.4990  -31.2162 H         1 ARG         0.2615
    171 H76       -25.3797   27.6177  -28.9535 H         1 ARG         0.2615
    172 H77       -26.0728   26.3886  -30.0452 H         1 ARG         0.2615
    173 H78       -24.0240   31.3765  -28.8791 H         1 LEU         0.1883
    174 H79       -21.8237   33.1766  -29.4188 H         1 LEU         0.0800
    175 H80       -20.4023   31.3134  -28.6033 H         1 LEU         0.0315
    176 H81       -21.8654   30.2743  -28.5241 H         1 LEU         0.0315
    177 H82       -22.7919   31.6701  -26.7652 H         1 LEU         0.0298
    178 H83       -21.1396   31.0959  -25.0093 H         1 LEU         0.0232
    179 H84       -19.8999   30.8144  -26.2784 H         1 LEU         0.0232
    180 H85       -21.3537   29.7627  -26.1939 H         1 LEU         0.0232
    181 H86       -21.8274   33.8286  -27.4674 H         1 LEU         0.0232
    182 H87       -20.1957   33.2577  -26.9793 H         1 LEU         0.0232
    183 H88       -21.4789   33.4746  -25.7412 H         1 LEU         0.0232
    184 H89       -20.0837   32.8465  -30.8595 H         1 LYS         0.1875
    185 H90       -20.9573   31.4855  -33.3074 H         1 LYS         0.0726
    186 H91       -18.6573   32.4883  -34.0963 H         1 LYS         0.0305
    187 H92       -18.7832   33.4407  -32.5785 H         1 LYS         0.0305
    188 H93       -21.0443   34.2359  -33.3377 H         1 LYS         0.0269
    189 H94       -20.7664   33.3940  -34.9000 H         1 LYS         0.0269
    190 H95       -18.8639   34.7904  -35.4082 H         1 LYS         0.0317
    191 H96       -18.8560   35.4869  -33.7524 H         1 LYS         0.0317
    192 H97       -21.1881   36.4024  -34.2668 H         1 LYS         0.0813
    193 H98       -20.8970   35.9298  -35.9751 H         1 LYS         0.0813
    194 H99       -20.2961   38.2147  -35.5605 H         1 LYS         0.1994
    195 H100      -18.9560   37.3450  -35.9568 H         1 LYS         0.1994
    196 H101      -19.2228   37.7781  -34.3914 H         1 LYS         0.1994
@<TRIPOS>BOND
     1    1    2 1  
     2    2    3 1  
     3    2    5 1  
     4    3    4 2  
     5    3    7 am 
     6    5    6 1  
     7    7    8 1  
     8    8    9 1  
     9    8   11 1  
    10    9   10 2  
    11    9   16 am 
    12   11   12 1  
    13   12   13 1  
    14   13   14 2  
    15   13   15 am 
    16   16   17 1  
    17   17   18 1  
    18   17   20 1  
    19   18   19 2  
    20   18   27 am 
    21   20   21 1  
    22   21   22 ar 
    23   21   23 ar 
    24   22   24 ar 
    25   23   25 ar 
    26   24   26 ar 
    27   25   26 ar 
    28   27   28 1  
    29   28   29 1  
    30   28   31 1  
    31   29   30 2  
    32   29   35 am 
    33   31   32 1  
    34   32   33 ar 
    35   32   34 ar 
    36   35   36 1  
    37   36   37 1  
    38   36   39 1  
    39   37   38 2  
    40   37   43 am 
    41   39   40 1  
    42   40   41 1  
    43   40   42 1  
    44   43   44 1  
    45   44   45 1  
    46   44   47 1  
    47   45   46 2  
    48   45   49 am 
    49   47   48 1  
    50   49   50 1  
    51   50   51 1  
    52   50   53 1  
    53   51   52 2  
    54   51   56 am 
    55   53   54 1  
    56   53   55 1  
    57   56   57 1  
    58   57   58 1  
    59   57   60 1  
    60   58   59 2  
    61   58   67 am 
    62   60   61 1  
    63   61   62 1  
    64   62   63 1  
    65   63   64 ar 
    66   64   65 ar 
    67   64   66 ar 
    68   67   68 1  
    69   68   69 1  
    70   68   71 1  
    71   69   70 2  
    72   69   78 am 
    73   71   72 1  
    74   72   73 1  
    75   73   74 1  
    76   74   75 ar 
    77   75   76 ar 
    78   75   77 ar 
    79   78   79 1  
    80   79   80 1  
    81   79   82 1  
    82   80   81 2  
    83   80   86 am 
    84   82   83 1  
    85   83   84 1  
    86   83   85 1  
    87   86   87 1  
    88   87   88 1  
    89   87   90 1  
    90   88   89 ar 
    91   88   95 ar 
    92   90   91 1  
    93   91   92 1  
    94   92   93 1  
    95   93   94 1  
    96    1   96 1  
    97    1   97 1  
    98    1   98 1  
    99    2   99 1  
   100    5  100 1  
   101    5  101 1  
   102    6  102 1  
   103    7  103 1  
   104    8  104 1  
   105   11  105 1  
   106   11  106 1  
   107   12  107 1  
   108   12  108 1  
   109   15  109 1  
   110   15  110 1  
   111   16  111 1  
   112   17  112 1  
   113   20  113 1  
   114   20  114 1  
   115   22  115 1  
   116   23  116 1  
   117   24  117 1  
   118   25  118 1  
   119   26  119 1  
   120   27  120 1  
   121   28  121 1  
   122   31  122 1  
   123   31  123 1  
   124   35  124 1  
   125   36  125 1  
   126   39  126 1  
   127   39  127 1  
   128   40  128 1  
   129   41  129 1  
   130   41  130 1  
   131   41  131 1  
   132   42  132 1  
   133   42  133 1  
   134   42  134 1  
   135   43  135 1  
   136   44  136 1  
   137   47  137 1  
   138   47  138 1  
   139   48  139 1  
   140   49  140 1  
   141   50  141 1  
   142   53  142 1  
   143   54  143 1  
   144   55  144 1  
   145   55  145 1  
   146   55  146 1  
   147   56  147 1  
   148   57  148 1  
   149   60  149 1  
   150   60  150 1  
   151   61  151 1  
   152   61  152 1  
   153   62  153 1  
   154   62  154 1  
   155   63  155 1  
   156   65  156 1  
   157   65  157 1  
   158   66  158 1  
   159   66  159 1  
   160   67  160 1  
   161   68  161 1  
   162   71  162 1  
   163   71  163 1  
   164   72  164 1  
   165   72  165 1  
   166   73  166 1  
   167   73  167 1  
   168   74  168 1  
   169   76  169 1  
   170   76  170 1  
   171   77  171 1  
   172   77  172 1  
   173   78  173 1  
   174   79  174 1  
   175   82  175 1  
   176   82  176 1  
   177   83  177 1  
   178   84  178 1  
   179   84  179 1  
   180   84  180 1  
   181   85  181 1  
   182   85  182 1  
   183   85  183 1  
   184   86  184 1  
   185   87  185 1  
   186   90  186 1  
   187   90  187 1  
   188   91  188 1  
   189   91  189 1  
   190   92  190 1  
   191   92  191 1  
   192   93  192 1  
   193   93  193 1  
   194   94  194 1  
   195   94  195 1  
   196   94  196 1  
@<TRIPOS>SUBSTRUCTURE
     1 SER         1

