1tmb_ligand
  -I-interpret- 

101104  0  0  0  0  0  0  0  0999 V2000
   17.6230  -16.8540   25.1640 C   0  0  0  0  0
   17.5130  -18.0820   24.8110 O   0  0  0  0  0
   16.8580  -16.0560   24.4180 N   0  3  0  0  0
   16.8870  -16.1180   22.9800 C   0  0  0  0  0
   16.7710  -14.6650   22.4860 C   0  0  0  0  0
   15.7640  -14.0390   22.8570 O   0  0  0  0  0
   15.6720  -16.8720   22.4210 C   0  0  0  0  0
   17.7080  -14.2500   21.6820 N   0  0  0  0  0
   17.6460  -12.8650   21.1500 C   0  0  0  0  0
   16.3190  -12.7790   20.3840 C   0  0  0  0  0
   15.9310  -13.8210   19.8110 O   0  0  0  0  0
   18.9400  -12.6760   20.4260 C   0  0  0  0  0
   19.7290  -13.9540   20.5240 C   0  0  0  0  0
   18.9090  -14.9860   21.2670 C   0  0  0  0  0
   15.5930  -11.6780   20.3850 N   0  0  0  0  0
   14.2880  -11.5340   19.7130 C   0  0  0  0  0
   14.3240  -10.9680   18.2940 C   0  0  0  0  0
   13.3520  -10.3170   17.8800 O   0  0  0  0  0
   13.1840  -10.8260   20.5510 C   0  0  0  0  0
   12.6240  -11.8840   21.5190 C   0  0  0  0  0
   11.9680  -11.2210   22.6650 C   0  0  0  0  0
   11.3490  -12.1520   23.5870 N   0  0  0  0  0
   10.4560  -11.9510   24.5160 C   0  0  0  0  0
   10.0910  -10.6940   24.8430 N   0  0  0  0  0
    9.8280  -12.9810   25.1760 N   0  0  0  0  0
   15.4760  -11.4280   17.4140 C   0  0  0  0  0
   16.6630  -11.0420   17.4140 O   0  0  0  0  0
   15.1630  -12.4930   16.6670 N   0  0  0  0  0
   16.0170  -13.1780   15.6900 C   0  0  0  0  0
   15.3040  -14.5570   15.7350 C   0  0  0  0  0
   14.0800  -14.5730   15.5290 O   0  0  0  0  0
   16.0760  -12.6180   14.3030 C   0  0  0  0  0
   14.7570  -12.2270   13.6880 C   0  0  0  0  0
   14.0050  -13.1350   12.9430 C   0  0  0  0  0
   14.2960  -10.9030   13.8420 C   0  0  0  0  0
   12.8150  -12.7210   12.3400 C   0  0  0  0  0
   13.1340  -10.4660   13.2200 C   0  0  0  0  0
   12.3830  -11.3990   12.4560 C   0  0  0  0  0
   16.0980  -15.5220   16.1380 N   0  0  0  0  0
   15.5030  -16.8440   16.3960 C   0  0  0  0  0
   15.5590  -16.7740   17.9190 C   0  0  0  0  0
   16.3640  -17.9380   15.6910 C   0  0  0  0  0
   16.3090  -17.5380   14.2020 C   0  0  0  0  0
   15.0500  -17.6780   13.5790 C   0  0  0  0  0
   17.3680  -17.0040   13.4760 C   0  0  0  0  0
   14.8420  -17.3130   12.2530 C   0  0  0  0  0
   17.1660  -16.6110   12.1510 C   0  0  0  0  0
   15.9210  -16.7720   11.5540 C   0  0  0  0  0
   15.7160  -16.3950   10.2370 O   0  0  0  0  0
   15.5590  -17.8290   18.6800 C   0  0  0  0  0
   15.5810  -17.7340   20.1470 C   0  0  0  0  0
   15.5520  -18.8550   20.6420 O   0  0  0  0  0
   15.6090  -16.6800   20.9130 N   0  0  0  0  0
   18.6623  -16.5515   25.0358 H   0  0  0  0  0
   17.3024  -16.7650   26.2020 H   0  0  0  0  0
   18.0756  -18.6254   25.3676 H   0  0  0  0  0
   17.2034  -15.1197   24.6290 H   0  0  0  0  0
   15.9069  -16.3380   24.6553 H   0  0  0  0  0
   17.7960  -16.6264   22.6584 H   0  0  0  0  0
   14.7611  -16.4832   22.8761 H   0  0  0  0  0
   15.7655  -17.9337   22.6494 H   0  0  0  0  0
   17.5984  -12.0285   21.8472 H   0  0  0  0  0
   19.5014  -11.8554   20.8727 H   0  0  0  0  0
   18.7508  -12.4332   19.3804 H   0  0  0  0  0
   20.6601  -13.7701   21.0601 H   0  0  0  0  0
   19.9600  -14.3200   19.5236 H   0  0  0  0  0
   18.6713  -15.8506   20.6472 H   0  0  0  0  0
   19.4474  -15.4112   22.1140 H   0  0  0  0  0
   15.9600  -10.8688   20.8859 H   0  0  0  0  0
   14.0015  -12.5814   19.6188 H   0  0  0  0  0
   12.3981  -10.4314   19.9070 H   0  0  0  0  0
   13.5932   -9.9757   21.0965 H   0  0  0  0  0
   13.4416  -12.5059   21.8836 H   0  0  0  0  0
   11.8939  -12.5003   20.9944 H   0  0  0  0  0
   11.1823  -10.5779   22.2685 H   0  0  0  0  0
   12.7354  -10.6747   23.2134 H   0  0  0  0  0
   11.6615  -13.1185   23.4947 H   0  0  0  0  0
   10.5136   -9.8991   24.3634 H   0  0  0  0  0
    9.1184  -12.7781   25.8801 H   0  0  0  0  0
   10.0718  -13.9479   24.9615 H   0  0  0  0  0
   14.2240  -12.8718   16.7907 H   0  0  0  0  0
   17.0778  -13.1282   15.9354 H   0  0  0  0  0
   16.4841  -13.4079   13.6725 H   0  0  0  0  0
   16.6649  -11.7031   14.3684 H   0  0  0  0  0
   14.3449  -14.1647   12.8316 H   0  0  0  0  0
   14.8634  -10.2087   14.4618 H   0  0  0  0  0
   12.2187  -13.4366   11.7740 H   0  0  0  0  0
   12.8057   -9.4310   13.3157 H   0  0  0  0  0
   11.4665  -11.0814   11.9588 H   0  0  0  0  0
   17.0967  -15.3608   16.2684 H   0  0  0  0  0
   14.5078  -17.0873   16.0237 H   0  0  0  0  0
   15.6010  -15.7929   18.3921 H   0  0  0  0  0
   15.9848  -18.9447   15.8668 H   0  0  0  0  0
   17.3834  -17.9781   16.0748 H   0  0  0  0  0
   14.2172  -18.0837   14.1534 H   0  0  0  0  0
   18.3491  -16.8929   13.9378 H   0  0  0  0  0
   13.8703  -17.4451   11.7771 H   0  0  0  0  0
   17.9882  -16.1762   11.5826 H   0  0  0  0  0
   16.5321  -16.0413    9.8759 H   0  0  0  0  0
   15.5422  -18.8148   18.2153 H   0  0  0  0  0
   15.5890  -15.7436   20.5090 H   0  0  0  0  0
  1  2  1  0  0  0
  1  3  1  0  0  0
  3  4  1  0  0  0
  4  5  1  0  0  0
  4  7  1  0  0  0
  5  6  2  0  0  0
  5  8  1  0  0  0
  7 53  1  0  0  0
  8  9  1  0  0  0
  8 14  1  0  0  0
  9 10  1  0  0  0
  9 12  1  0  0  0
 10 11  2  0  0  0
 10 15  1  0  0  0
 12 13  1  0  0  0
 13 14  1  0  0  0
 15 16  1  0  0  0
 16 17  1  0  0  0
 16 19  1  0  0  0
 17 18  2  0  0  0
 17 26  1  0  0  0
 19 20  1  0  0  0
 20 21  1  0  0  0
 21 22  1  0  0  0
 22 23  1  0  0  0
 23 24  2  0  0  0
 23 25  1  0  0  0
 26 27  2  0  0  0
 26 28  1  0  0  0
 28 29  1  0  0  0
 29 30  1  0  0  0
 29 32  1  0  0  0
 30 31  2  0  0  0
 30 39  1  0  0  0
 32 33  1  0  0  0
 33 34  4  0  0  0
 33 35  4  0  0  0
 34 36  4  0  0  0
 35 37  4  0  0  0
 36 38  4  0  0  0
 37 38  4  0  0  0
 39 40  1  0  0  0
 40 41  1  0  0  0
 40 42  1  0  0  0
 41 50  2  0  0  0
 42 43  1  0  0  0
 43 44  4  0  0  0
 43 45  4  0  0  0
 44 46  4  0  0  0
 45 47  4  0  0  0
 46 48  4  0  0  0
 47 48  4  0  0  0
 48 49  1  0  0  0
 50 51  1  0  0  0
 51 52  2  0  0  0
 51 53  1  0  0  0
  1 54  1  0  0  0
  1 55  1  0  0  0
  2 56  1  0  0  0
  3 57  1  0  0  0
  3 58  1  0  0  0
  4 59  1  0  0  0
  7 60  1  0  0  0
  7 61  1  0  0  0
  9 62  1  0  0  0
 12 63  1  0  0  0
 12 64  1  0  0  0
 13 65  1  0  0  0
 13 66  1  0  0  0
 14 67  1  0  0  0
 14 68  1  0  0  0
 15 69  1  0  0  0
 16 70  1  0  0  0
 19 71  1  0  0  0
 19 72  1  0  0  0
 20 73  1  0  0  0
 20 74  1  0  0  0
 21 75  1  0  0  0
 21 76  1  0  0  0
 22 77  1  0  0  0
 24 78  1  0  0  0
 25 79  1  0  0  0
 25 80  1  0  0  0
 28 81  1  0  0  0
 29 82  1  0  0  0
 32 83  1  0  0  0
 32 84  1  0  0  0
 34 85  1  0  0  0
 35 86  1  0  0  0
 36 87  1  0  0  0
 37 88  1  0  0  0
 38 89  1  0  0  0
 39 90  1  0  0  0
 40 91  1  0  0  0
 41 92  1  0  0  0
 42 93  1  0  0  0
 42 94  1  0  0  0
 44 95  1  0  0  0
 45 96  1  0  0  0
 46 97  1  0  0  0
 47 98  1  0  0  0
 49 99  1  0  0  0
 50100  1  0  0  0
 53101  1  0  0  0
M  END
$$$$
