### 
### Created by X-TOOL on Mon Sep 10 21:13:27 2018
### 

@<TRIPOS>MOLECULE
5id1_ligand
  202   203     1     0     0
SMALL
GAST_HUCK


@<TRIPOS>ATOM
      1 CA         17.0010   32.0260   28.2370 C.3       1 MPT         0.0471
      2 C          17.4560   33.4010   27.7970 C.2       1 MPT         0.1790
      3 O          17.4620   33.7120   26.6090 O.2       1 MPT        -0.3969
      4 CB         15.7420   32.1470   29.0950 C.3       1 MPT         0.0208
      5 SG         15.0660   30.5590   29.6120 S.3       1 MPT        -0.0905
      6 N          17.8280   34.2220   28.7710 N.am      1 GLN        -0.2655
      7 CA         18.2490   35.5860   28.5040 C.3       1 GLN         0.1330
      8 C          19.7200   35.7970   28.8770 C.2       1 GLN         0.2042
      9 O          20.1860   35.3100   29.9120 O.2       1 GLN        -0.3944
     10 CB         17.3500   36.5530   29.2730 C.3       1 GLN         0.0045
     11 CG         17.3200   37.9440   28.7100 C.3       1 GLN         0.0412
     12 CD         16.6300   38.9310   29.6360 C.2       1 GLN         0.1737
     13 OE1        17.0640   39.1430   30.7720 O.2       1 GLN        -0.3973
     14 NE2        15.5510   39.5430   29.1540 N.am      1 GLN        -0.3009
     15 N          20.4350   36.5290   28.0280 N.am      1 PHE        -0.2619
     16 CA         21.8640   36.7770   28.2090 C.3       1 PHE         0.1404
     17 C          22.1590   37.5340   29.4980 C.2       1 PHE         0.2060
     18 O          21.5100   38.5410   29.7950 O.2       1 PHE        -0.3942
     19 CB         22.4140   37.5670   27.0230 C.3       1 PHE         0.0214
     20 CG         23.8860   37.8390   27.1060 C.ar      1 PHE        -0.0386
     21 CD1        24.8050   36.8240   26.8680 C.ar      1 PHE        -0.0601
     22 CD2        24.3580   39.1090   27.4080 C.ar      1 PHE        -0.0601
     23 CE1        26.1680   37.0670   26.9340 C.ar      1 PHE        -0.0686
     24 CE2        25.7280   39.3650   27.4770 C.ar      1 PHE        -0.0686
     25 CZ         26.6350   38.3400   27.2390 C.ar      1 PHE        -0.0687
     26 N          23.1530   37.0520   30.2470 N.am      1 ASP        -0.2620
     27 CA         23.5220   37.6520   31.5260 C.3       1 ASP         0.1423
     28 C          24.9070   38.2830   31.3960 C.2       1 ASP         0.2056
     29 O          25.8710   37.5880   31.1020 O.2       1 ASP        -0.3943
     30 CB         23.5020   36.5850   32.6260 C.3       1 ASP         0.0406
     31 CG         23.9190   37.1250   33.9930 C.2       1 ASP         0.0393
     32 OD1        23.9700   38.3560   34.1820 O.co2     1 ASP        -0.5688
     33 OD2        24.1870   36.3080   34.8930 O.co2     1 ASP        -0.5688
     34 N          25.0020   39.5960   31.6170 N.am      1 LEU        -0.2636
     35 CA         26.2610   40.3230   31.4340 C.3       1 LEU         0.1312
     36 C          27.3680   39.8950   32.3840 C.2       1 LEU         0.2040
     37 O          28.5500   40.0770   32.0870 O.2       1 LEU        -0.3944
     38 CB         26.0480   41.8160   31.6210 C.3       1 LEU        -0.0101
     39 CG         25.0930   42.5040   30.6680 C.3       1 LEU        -0.0425
     40 CD1        24.6900   43.8250   31.2870 C.3       1 LEU        -0.0625
     41 CD2        25.7850   42.7060   29.3430 C.3       1 LEU        -0.0625
     42 N          26.9910   39.3590   33.5380 N.am      1 SER        -0.2616
     43 CA         27.9790   39.0230   34.5500 C.3       1 SER         0.1539
     44 C          28.7600   37.7840   34.1580 C.2       1 SER         0.2063
     45 O          29.9500   37.6940   34.4320 O.2       1 SER        -0.3943
     46 CB         27.3150   38.8120   35.9130 C.3       1 SER         0.0843
     47 OG         26.6800   40.0040   36.3600 O.3       1 SER        -0.3903
     48 N          28.0880   36.8470   33.4960 N.am      1 THR        -0.2613
     49 CA         28.6760   35.5510   33.1710 C.3       1 THR         0.1565
     50 C          28.7980   35.2960   31.6660 C.2       1 THR         0.2065
     51 O          29.4170   34.3110   31.2430 O.2       1 THR        -0.3943
     52 CB         27.8560   34.4080   33.7990 C.3       1 THR         0.0924
     53 OG1        26.5130   34.4410   33.2870 O.3       1 THR        -0.3874
     54 CG2        27.8160   34.5640   35.3120 C.3       1 THR        -0.0346
     55 N          28.2110   36.1850   30.8730 N.am      1 ARG        -0.2636
     56 CA         28.1160   36.0240   29.4210 C.3       1 ARG         0.1311
     57 C          27.4540   34.7140   29.0470 C.2       1 ARG         0.2039
     58 O          27.7880   34.1140   28.0350 O.2       1 ARG        -0.3944
     59 CB         29.4840   36.1150   28.7450 C.3       1 ARG        -0.0092
     60 CG         30.2460   37.3530   29.1190 C.3       1 ARG        -0.0156
     61 CD         31.4280   37.5160   28.2240 C.3       1 ARG         0.0627
     62 NE         32.1820   38.7260   28.5220 N.pl3     1 ARG        -0.2723
     63 CZ         33.2660   39.1100   27.8520 C.cat     1 ARG         0.2882
     64 NH1        33.7230   38.3700   26.8440 N.pl3     1 ARG        -0.2849
     65 NH2        33.8920   40.2310   28.1880 N.pl3     1 ARG        -0.2849
     66 N          26.5270   34.2690   29.8790 N.am      1 ARG        -0.2637
     67 CA         25.8310   33.0260   29.6420 C.3       1 ARG         0.1311
     68 C          24.3320   33.2540   29.6700 C.2       1 ARG         0.2039
     69 O          23.8550   34.2190   30.2700 O.2       1 ARG        -0.3944
     70 CB         26.2240   32.0050   30.7100 C.3       1 ARG        -0.0092
     71 CG         27.6900   31.5860   30.6560 C.3       1 ARG        -0.0156
     72 CD         28.0660   30.8690   29.3470 C.3       1 ARG         0.0627
     73 NE         27.0900   29.8460   29.0070 N.pl3     1 ARG        -0.2723
     74 CZ         27.0030   28.6500   29.5840 C.cat     1 ARG         0.2882
     75 NH1        27.8510   28.2830   30.5390 N.pl3     1 ARG        -0.2849
     76 NH2        26.0540   27.8130   29.1900 N.pl3     1 ARG        -0.2849
     77 N          23.5800   32.3790   29.0150 N.am      1 LEU        -0.2637
     78 CA         22.1240   32.4810   29.0600 C.3       1 LEU         0.1312
     79 C          21.6630   32.0600   30.4370 C.2       1 LEU         0.2039
     80 O          22.2360   31.1490   31.0260 O.2       1 LEU        -0.3944
     81 CB         21.4790   31.6120   27.9850 C.3       1 LEU        -0.0101
     82 CG         21.8150   32.0780   26.5670 C.3       1 LEU        -0.0425
     83 CD1        21.2760   31.1190   25.5180 C.3       1 LEU        -0.0625
     84 CD2        21.2700   33.4800   26.3510 C.3       1 LEU        -0.0625
     85 N          20.6360   32.6900   30.9390 N.am      1 LYS        -0.2637
     86 CA         20.1240   32.3980   32.2490 C.3       1 LYS         0.1309
     87 C          18.6460   32.3940   32.2280 C.2       1 LYS         0.2034
     88 O          18.0300   33.3030   31.8140 O.2       1 LYS        -0.3944
     89 CB         20.6380   33.3890   33.2810 C.3       1 LYS        -0.0122
     90 CG         20.1640   33.0950   34.6770 C.3       1 LYS        -0.0440
     91 CD         20.8490   33.9730   35.7020 C.3       1 LYS        -0.0124
     92 CE         21.0480   33.2740   37.0160 C.3       1 LYS        -0.0354
     93 NZ         20.8400   34.2190   38.1270 N.4       1 LYS         0.2185
     94 N          18.0760   31.3160   32.6960 N.am      1 CYS        -0.2687
     95 CA         16.6130   31.1670   32.6670 C.3       1 CYS         0.1041
     96 C          15.9420   31.4900   33.9650 C.2       1 CYS         0.0609
     97 O          16.4200   32.2330   34.8060 O.co2     1 CYS        -0.5666
     98 CB         16.2260   29.7940   32.1970 C.3       1 CYS         0.0388
     99 SG         16.5800   29.6390   30.4800 S.3       1 CYS        -0.0889
    100 OXT        14.8510   31.0060   34.1870 O.co2     1 CYS        -0.5666
    101 H1         17.7987   31.5481   28.8246 H         1 MPT         0.0511
    102 H2         16.7811   31.4131   27.3505 H         1 MPT         0.0511
    103 H3         14.9746   32.6788   28.5134 H         1 MPT         0.0409
    104 H4         15.9891   32.7293   29.9949 H         1 MPT         0.0409
    105 H5         17.8181   33.8923   29.7150 H         1 GLN         0.1883
    106 H6         18.1355   35.7821   27.4276 H         1 GLN         0.0801
    107 H7         17.7107   36.6085   30.3107 H         1 GLN         0.0337
    108 H8         16.3249   36.1541   29.2619 H         1 GLN         0.0337
    109 H9         16.7821   37.9249   27.7507 H         1 GLN         0.0504
    110 H10        18.3542   38.2798   28.5439 H         1 GLN         0.0504
    111 H11        15.0562   40.2031   29.7192 H         1 GLN         0.1814
    112 H12        15.2350   39.3428   28.2266 H         1 GLN         0.1814
    113 H13        19.9763   36.9261   27.2331 H         1 PHE         0.1885
    114 H14        22.3771   35.8051   28.2542 H         1 PHE         0.0823
    115 H15        21.8858   38.5306   26.9735 H         1 PHE         0.0474
    116 H16        22.2187   36.9942   26.1045 H         1 PHE         0.0474
    117 H17        24.4508   35.8282   26.6273 H         1 PHE         0.0557
    118 H18        23.6535   39.9119   27.5925 H         1 PHE         0.0557
    119 H19        26.8707   36.2630   26.7475 H         1 PHE         0.0599
    120 H20        26.0835   40.3609   27.7156 H         1 PHE         0.0599
    121 H21        27.7006   38.5319   27.2909 H         1 PHE         0.0559
    122 H22        23.6612   36.2545   29.9219 H         1 ASP         0.1884
    123 H23        22.7945   38.4367   31.7809 H         1 ASP         0.0819
    124 H24        24.1933   35.7775   32.3430 H         1 ASP         0.0478
    125 H25        22.4812   36.1829   32.7051 H         1 ASP         0.0478
    126 H26        24.1905   40.0980   31.9161 H         1 LEU         0.1883
    127 H27        26.6033   40.1394   30.4049 H         1 LEU         0.0800
    128 H28        27.0277   42.3054   31.5182 H         1 LEU         0.0315
    129 H29        25.6661   41.9705   32.6409 H         1 LEU         0.0315
    130 H30        24.1985   41.8815   30.5186 H         1 LEU         0.0298
    131 H31        23.9943   44.3480   30.6144 H         1 LEU         0.0232
    132 H32        25.5851   44.4451   31.4430 H         1 LEU         0.0232
    133 H33        24.1977   43.6420   32.2535 H         1 LEU         0.0232
    134 H34        26.0635   41.7286   28.9221 H         1 LEU         0.0232
    135 H35        26.6904   43.3129   29.4909 H         1 LEU         0.0232
    136 H36        25.1058   43.2237   28.6497 H         1 LEU         0.0232
    137 H37        26.0218   39.1853   33.7124 H         1 SER         0.1884
    138 H38        28.6831   39.8639   34.6340 H         1 SER         0.0823
    139 H39        28.0813   38.5164   36.6447 H         1 SER         0.0606
    140 H40        26.5628   38.0140   35.8272 H         1 SER         0.0606
    141 H41        27.3266   40.6954   36.4391 H         1 SER         0.2097
    142 H42        27.1483   37.0364   33.2112 H         1 THR         0.1884
    143 H43        29.6884   35.5301   33.6006 H         1 THR         0.0826
    144 H44        28.3218   33.4447   33.5441 H         1 THR         0.0639
    145 H45        26.1126   35.2745   33.5050 H         1 THR         0.2101
    146 H46        27.2286   33.7435   35.7498 H         1 THR         0.0257
    147 H47        27.3497   35.5265   35.5692 H         1 THR         0.0257
    148 H48        28.8407   34.5347   35.7109 H         1 THR         0.0257
    149 H49        27.8147   37.0041   31.2878 H         1 ARG         0.1883
    150 H50        27.4916   36.8438   29.0361 H         1 ARG         0.0800
    151 H51        29.3365   36.1110   27.6549 H         1 ARG         0.0313
    152 H52        30.0781   35.2368   29.0379 H         1 ARG         0.0313
    153 H53        30.5875   37.2693   30.1613 H         1 ARG         0.0301
    154 H54        29.5890   38.2294   29.0176 H         1 ARG         0.0301
    155 H55        31.0792   37.5638   27.1819 H         1 ARG         0.0689
    156 H56        32.0899   36.6464   28.3496 H         1 ARG         0.0689
    157 H57        31.8568   39.3202   29.2979 H         1 ARG         0.2642
    158 H58        34.5619   38.6675   26.3257 H         1 ARG         0.2615
    159 H59        33.2376   37.5000   26.5824 H         1 ARG         0.2615
    160 H60        33.5391   40.8041   28.9677 H         1 ARG         0.2615
    161 H61        34.7307   40.5279   27.6691 H         1 ARG         0.2615
    162 H62        26.3026   34.8064   30.6919 H         1 ARG         0.1883
    163 H63        26.1154   32.6385   28.6526 H         1 ARG         0.0800
    164 H64        25.6023   31.1074   30.5763 H         1 ARG         0.0313
    165 H65        26.0258   32.4445   31.6987 H         1 ARG         0.0313
    166 H66        27.8910   30.9065   31.4973 H         1 ARG         0.0301
    167 H67        28.3150   32.4859   30.7540 H         1 ARG         0.0301
    168 H68        29.0525   30.3975   29.4671 H         1 ARG         0.0689
    169 H69        28.1093   31.6078   28.5332 H         1 ARG         0.0689
    170 H70        26.4134   30.0641   28.2616 H         1 ARG         0.2642
    171 H71        27.7667   27.3527   30.9730 H         1 ARG         0.2615
    172 H72        28.5926   28.9288   30.8452 H         1 ARG         0.2615
    173 H73        25.3946   28.0935   28.4501 H         1 ARG         0.2615
    174 H74        25.9758   26.8820   29.6237 H         1 ARG         0.2615
    175 H75        24.0119   31.6468   28.4884 H         1 LEU         0.1883
    176 H76        21.8317   33.5271   28.8863 H         1 LEU         0.0800
    177 H77        20.3873   31.6431   28.1159 H         1 LEU         0.0315
    178 H78        21.8339   30.5782   28.1087 H         1 LEU         0.0315
    179 H79        22.9098   32.1116   26.4657 H         1 LEU         0.0298
    180 H80        21.5374   31.4879   24.5152 H         1 LEU         0.0232
    181 H81        20.1820   31.0517   25.6103 H         1 LEU         0.0232
    182 H82        21.7187   30.1234   25.6693 H         1 LEU         0.0232
    183 H83        21.6742   34.1532   27.1213 H         1 LEU         0.0232
    184 H84        20.1723   33.4614   26.4198 H         1 LEU         0.0232
    185 H85        21.5690   33.8403   25.3556 H         1 LEU         0.0232
    186 H86        20.1906   33.3998   30.3933 H         1 LYS         0.1883
    187 H87        20.4697   31.3942   32.5369 H         1 LYS         0.0800
    188 H88        20.2936   34.3953   33.0003 H         1 LYS         0.0312
    189 H89        21.7376   33.3623   33.2730 H         1 LYS         0.0312
    190 H90        20.3782   32.0417   34.9109 H         1 LYS         0.0269
    191 H91        19.0790   33.2687   34.7282 H         1 LYS         0.0269
    192 H92        20.2320   34.8683   35.8685 H         1 LYS         0.0317
    193 H93        21.8319   34.2728   35.3094 H         1 LYS         0.0317
    194 H94        22.0718   32.8746   37.0646 H         1 LYS         0.0813
    195 H95        20.3274   32.4473   37.1015 H         1 LYS         0.0813
    196 H96        20.9756   33.7413   39.0042 H         1 LYS         0.1994
    197 H97        19.9018   34.5853   38.0854 H         1 LYS         0.1994
    198 H98        21.5003   34.9769   38.0516 H         1 LYS         0.1994
    199 H99        18.6403   30.5842   33.0781 H         1 CYS         0.1876
    200 H100       16.2353   31.8872   31.9263 H         1 CYS         0.0734
    201 H101       15.1500   29.6389   32.3648 H         1 CYS         0.0425
    202 H102       16.7971   29.0399   32.7584 H         1 CYS         0.0425
@<TRIPOS>BOND
     1    1    2 1  
     2    1    4 1  
     3    2    3 2  
     4    2    6 am 
     5    4    5 1  
     6    5   99 1  
     7    6    7 1  
     8    7    8 1  
     9    7   10 1  
    10    8    9 2  
    11    8   15 am 
    12   10   11 1  
    13   11   12 1  
    14   12   13 2  
    15   12   14 am 
    16   15   16 1  
    17   16   17 1  
    18   16   19 1  
    19   17   18 2  
    20   17   26 am 
    21   19   20 1  
    22   20   21 ar 
    23   20   22 ar 
    24   21   23 ar 
    25   22   24 ar 
    26   23   25 ar 
    27   24   25 ar 
    28   26   27 1  
    29   27   28 1  
    30   27   30 1  
    31   28   29 2  
    32   28   34 am 
    33   30   31 1  
    34   31   32 ar 
    35   31   33 ar 
    36   34   35 1  
    37   35   36 1  
    38   35   38 1  
    39   36   37 2  
    40   36   42 am 
    41   38   39 1  
    42   39   40 1  
    43   39   41 1  
    44   42   43 1  
    45   43   44 1  
    46   43   46 1  
    47   44   45 2  
    48   44   48 am 
    49   46   47 1  
    50   48   49 1  
    51   49   50 1  
    52   49   52 1  
    53   50   51 2  
    54   50   55 am 
    55   52   53 1  
    56   52   54 1  
    57   55   56 1  
    58   56   57 1  
    59   56   59 1  
    60   57   58 2  
    61   57   66 am 
    62   59   60 1  
    63   60   61 1  
    64   61   62 1  
    65   62   63 ar 
    66   63   64 ar 
    67   63   65 ar 
    68   66   67 1  
    69   67   68 1  
    70   67   70 1  
    71   68   69 2  
    72   68   77 am 
    73   70   71 1  
    74   71   72 1  
    75   72   73 1  
    76   73   74 ar 
    77   74   75 ar 
    78   74   76 ar 
    79   77   78 1  
    80   78   79 1  
    81   78   81 1  
    82   79   80 2  
    83   79   85 am 
    84   81   82 1  
    85   82   83 1  
    86   82   84 1  
    87   85   86 1  
    88   86   87 1  
    89   86   89 1  
    90   87   88 2  
    91   87   94 am 
    92   89   90 1  
    93   90   91 1  
    94   91   92 1  
    95   92   93 1  
    96   94   95 1  
    97   95   96 1  
    98   95   98 1  
    99   96   97 ar 
   100   96  100 ar 
   101   98   99 1  
   102    1  101 1  
   103    1  102 1  
   104    4  103 1  
   105    4  104 1  
   106    6  105 1  
   107    7  106 1  
   108   10  107 1  
   109   10  108 1  
   110   11  109 1  
   111   11  110 1  
   112   14  111 1  
   113   14  112 1  
   114   15  113 1  
   115   16  114 1  
   116   19  115 1  
   117   19  116 1  
   118   21  117 1  
   119   22  118 1  
   120   23  119 1  
   121   24  120 1  
   122   25  121 1  
   123   26  122 1  
   124   27  123 1  
   125   30  124 1  
   126   30  125 1  
   127   34  126 1  
   128   35  127 1  
   129   38  128 1  
   130   38  129 1  
   131   39  130 1  
   132   40  131 1  
   133   40  132 1  
   134   40  133 1  
   135   41  134 1  
   136   41  135 1  
   137   41  136 1  
   138   42  137 1  
   139   43  138 1  
   140   46  139 1  
   141   46  140 1  
   142   47  141 1  
   143   48  142 1  
   144   49  143 1  
   145   52  144 1  
   146   53  145 1  
   147   54  146 1  
   148   54  147 1  
   149   54  148 1  
   150   55  149 1  
   151   56  150 1  
   152   59  151 1  
   153   59  152 1  
   154   60  153 1  
   155   60  154 1  
   156   61  155 1  
   157   61  156 1  
   158   62  157 1  
   159   64  158 1  
   160   64  159 1  
   161   65  160 1  
   162   65  161 1  
   163   66  162 1  
   164   67  163 1  
   165   70  164 1  
   166   70  165 1  
   167   71  166 1  
   168   71  167 1  
   169   72  168 1  
   170   72  169 1  
   171   73  170 1  
   172   75  171 1  
   173   75  172 1  
   174   76  173 1  
   175   76  174 1  
   176   77  175 1  
   177   78  176 1  
   178   81  177 1  
   179   81  178 1  
   180   82  179 1  
   181   83  180 1  
   182   83  181 1  
   183   83  182 1  
   184   84  183 1  
   185   84  184 1  
   186   84  185 1  
   187   85  186 1  
   188   86  187 1  
   189   89  188 1  
   190   89  189 1  
   191   90  190 1  
   192   90  191 1  
   193   91  192 1  
   194   91  193 1  
   195   92  194 1  
   196   92  195 1  
   197   93  196 1  
   198   93  197 1  
   199   93  198 1  
   200   94  199 1  
   201   95  200 1  
   202   98  201 1  
   203   98  202 1  
@<TRIPOS>SUBSTRUCTURE
     1 MPT         1

