5id1_ligand
  -I-interpret- 

202203  0  0  0  0  0  0  0  0999 V2000
   17.0010   32.0260   28.2370 C   0  0  0  0  0
   17.4560   33.4010   27.7970 C   0  0  0  0  0
   17.4620   33.7120   26.6090 O   0  0  0  0  0
   15.7420   32.1470   29.0950 C   0  0  0  0  0
   15.0660   30.5590   29.6120 S   0  0  0  0  0
   17.8280   34.2220   28.7710 N   0  0  0  0  0
   18.2490   35.5860   28.5040 C   0  0  0  0  0
   19.7200   35.7970   28.8770 C   0  0  0  0  0
   20.1860   35.3100   29.9120 O   0  0  0  0  0
   17.3500   36.5530   29.2730 C   0  0  0  0  0
   17.3200   37.9440   28.7100 C   0  0  0  0  0
   16.6300   38.9310   29.6360 C   0  0  0  0  0
   17.0640   39.1430   30.7720 O   0  0  0  0  0
   15.5510   39.5430   29.1540 N   0  0  0  0  0
   20.4350   36.5290   28.0280 N   0  0  0  0  0
   21.8640   36.7770   28.2090 C   0  0  0  0  0
   22.1590   37.5340   29.4980 C   0  0  0  0  0
   21.5100   38.5410   29.7950 O   0  0  0  0  0
   22.4140   37.5670   27.0230 C   0  0  0  0  0
   23.8860   37.8390   27.1060 C   0  0  0  0  0
   24.8050   36.8240   26.8680 C   0  0  0  0  0
   24.3580   39.1090   27.4080 C   0  0  0  0  0
   26.1680   37.0670   26.9340 C   0  0  0  0  0
   25.7280   39.3650   27.4770 C   0  0  0  0  0
   26.6350   38.3400   27.2390 C   0  0  0  0  0
   23.1530   37.0520   30.2470 N   0  0  0  0  0
   23.5220   37.6520   31.5260 C   0  0  0  0  0
   24.9070   38.2830   31.3960 C   0  0  0  0  0
   25.8710   37.5880   31.1020 O   0  0  0  0  0
   23.5020   36.5850   32.6260 C   0  0  0  0  0
   23.9190   37.1250   33.9930 C   0  0  0  0  0
   23.9700   38.3560   34.1820 O   0  0  0  0  0
   24.1870   36.3080   34.8930 O   0  0  0  0  0
   25.0020   39.5960   31.6170 N   0  0  0  0  0
   26.2610   40.3230   31.4340 C   0  0  0  0  0
   27.3680   39.8950   32.3840 C   0  0  0  0  0
   28.5500   40.0770   32.0870 O   0  0  0  0  0
   26.0480   41.8160   31.6210 C   0  0  0  0  0
   25.0930   42.5040   30.6680 C   0  0  0  0  0
   24.6900   43.8250   31.2870 C   0  0  0  0  0
   25.7850   42.7060   29.3430 C   0  0  0  0  0
   26.9910   39.3590   33.5380 N   0  0  0  0  0
   27.9790   39.0230   34.5500 C   0  0  0  0  0
   28.7600   37.7840   34.1580 C   0  0  0  0  0
   29.9500   37.6940   34.4320 O   0  0  0  0  0
   27.3150   38.8120   35.9130 C   0  0  0  0  0
   26.6800   40.0040   36.3600 O   0  0  0  0  0
   28.0880   36.8470   33.4960 N   0  0  0  0  0
   28.6760   35.5510   33.1710 C   0  0  0  0  0
   28.7980   35.2960   31.6660 C   0  0  0  0  0
   29.4170   34.3110   31.2430 O   0  0  0  0  0
   27.8560   34.4080   33.7990 C   0  0  0  0  0
   26.5130   34.4410   33.2870 O   0  0  0  0  0
   27.8160   34.5640   35.3120 C   0  0  0  0  0
   28.2110   36.1850   30.8730 N   0  0  0  0  0
   28.1160   36.0240   29.4210 C   0  0  0  0  0
   27.4540   34.7140   29.0470 C   0  0  0  0  0
   27.7880   34.1140   28.0350 O   0  0  0  0  0
   29.4840   36.1150   28.7450 C   0  0  0  0  0
   30.2460   37.3530   29.1190 C   0  0  0  0  0
   31.4280   37.5160   28.2240 C   0  0  0  0  0
   32.1820   38.7260   28.5220 N   0  0  0  0  0
   33.2660   39.1100   27.8520 C   0  0  0  0  0
   33.7230   38.3700   26.8440 N   0  0  0  0  0
   33.8920   40.2310   28.1880 N   0  0  0  0  0
   26.5270   34.2690   29.8790 N   0  0  0  0  0
   25.8310   33.0260   29.6420 C   0  0  0  0  0
   24.3320   33.2540   29.6700 C   0  0  0  0  0
   23.8550   34.2190   30.2700 O   0  0  0  0  0
   26.2240   32.0050   30.7100 C   0  0  0  0  0
   27.6900   31.5860   30.6560 C   0  0  0  0  0
   28.0660   30.8690   29.3470 C   0  0  0  0  0
   27.0900   29.8460   29.0070 N   0  0  0  0  0
   27.0030   28.6500   29.5840 C   0  0  0  0  0
   27.8510   28.2830   30.5390 N   0  0  0  0  0
   26.0540   27.8130   29.1900 N   0  0  0  0  0
   23.5800   32.3790   29.0150 N   0  0  0  0  0
   22.1240   32.4810   29.0600 C   0  0  0  0  0
   21.6630   32.0600   30.4370 C   0  0  0  0  0
   22.2360   31.1490   31.0260 O   0  0  0  0  0
   21.4790   31.6120   27.9850 C   0  0  0  0  0
   21.8150   32.0780   26.5670 C   0  0  0  0  0
   21.2760   31.1190   25.5180 C   0  0  0  0  0
   21.2700   33.4800   26.3510 C   0  0  0  0  0
   20.6360   32.6900   30.9390 N   0  0  0  0  0
   20.1240   32.3980   32.2490 C   0  0  0  0  0
   18.6460   32.3940   32.2280 C   0  0  0  0  0
   18.0300   33.3030   31.8140 O   0  0  0  0  0
   20.6380   33.3890   33.2810 C   0  0  0  0  0
   20.1640   33.0950   34.6770 C   0  0  0  0  0
   20.8490   33.9730   35.7020 C   0  0  0  0  0
   21.0480   33.2740   37.0160 C   0  0  0  0  0
   20.8400   34.2190   38.1270 N   0  3  0  0  0
   18.0760   31.3160   32.6960 N   0  0  0  0  0
   16.6130   31.1670   32.6670 C   0  0  0  0  0
   15.9420   31.4900   33.9650 C   0  0  0  0  0
   16.4200   32.2330   34.8060 O   0  0  0  0  0
   16.2260   29.7940   32.1970 C   0  0  0  0  0
   16.5800   29.6390   30.4800 S   0  0  0  0  0
   14.8510   31.0060   34.1870 O   0  0  0  0  0
   17.7913   31.5548   28.8213 H   0  0  0  0  0
   16.7809   31.4208   27.3576 H   0  0  0  0  0
   14.9824   32.6449   28.4923 H   0  0  0  0  0
   16.0127   32.6961   29.9968 H   0  0  0  0  0
   17.8180   33.8857   29.7339 H   0  0  0  0  0
   18.1550   35.7796   27.4355 H   0  0  0  0  0
   17.7462   36.6243   30.2860 H   0  0  0  0  0
   16.3343   36.1614   29.2175 H   0  0  0  0  0
   16.7635   37.9159   27.7732 H   0  0  0  0  0
   18.3498   38.2741   28.5735 H   0  0  0  0  0
   15.0476   40.2179   29.7297 H   0  0  0  0  0
   15.2274   39.3372   28.2088 H   0  0  0  0  0
   19.9671   36.9341   27.2172 H   0  0  0  0  0
   22.3524   35.8045   28.2715 H   0  0  0  0  0
   21.9059   38.5312   27.0116 H   0  0  0  0  0
   22.2444   36.9687   26.1278 H   0  0  0  0  0
   24.4489   35.8226   26.6260 H   0  0  0  0  0
   23.6496   39.9164   27.5936 H   0  0  0  0  0
   26.8746   36.2586   26.7464 H   0  0  0  0  0
   26.0855   40.3664   27.7170 H   0  0  0  0  0
   27.7065   38.5330   27.2912 H   0  0  0  0  0
   23.6714   36.2386   29.9154 H   0  0  0  0  0
   22.8059   38.4275   31.7979 H   0  0  0  0  0
   24.2130   35.8077   32.3462 H   0  0  0  0  0
   22.4792   36.2182   32.7129 H   0  0  0  0  0
   23.7300   38.8131   33.3726 H   0  0  0  0  0
   24.1743   40.1080   31.9221 H   0  0  0  0  0
   26.5766   40.0847   30.4183 H   0  0  0  0  0
   27.0206   42.2773   31.4495 H   0  0  0  0  0
   25.6100   41.9304   32.6126 H   0  0  0  0  0
   24.1995   41.9043   30.4945 H   0  0  0  0  0
   24.2024   43.6423   32.2446 H   0  0  0  0  0
   25.5777   44.4384   31.4411 H   0  0  0  0  0
   24.0007   44.3423   30.6196 H   0  0  0  0  0
   26.6709   43.3243   29.4878 H   0  0  0  0  0
   26.0783   41.7381   28.9365 H   0  0  0  0  0
   25.1040   43.2010   28.6507 H   0  0  0  0  0
   26.0024   39.1818   33.7159 H   0  0  0  0  0
   28.6718   39.8612   34.6245 H   0  0  0  0  0
   28.0811   38.5314   36.6358 H   0  0  0  0  0
   26.5626   38.0290   35.8183 H   0  0  0  0  0
   26.2719   39.8467   37.2146 H   0  0  0  0  0
   27.1295   37.0402   33.2055 H   0  0  0  0  0
   29.6835   35.5754   33.5862 H   0  0  0  0  0
   28.3253   33.4572   33.5462 H   0  0  0  0  0
   26.0043   33.7279   33.6799 H   0  0  0  0  0
   28.8319   34.5349   35.7060 H   0  0  0  0  0
   27.3538   35.5181   35.5655 H   0  0  0  0  0
   27.2337   33.7504   35.7446 H   0  0  0  0  0
   27.8068   37.0204   31.2961 H   0  0  0  0  0
   27.4974   36.8469   29.0628 H   0  0  0  0  0
   29.3195   36.1407   27.6678 H   0  0  0  0  0
   30.0706   35.2552   29.0686 H   0  0  0  0  0
   30.5872   37.2656   30.1505 H   0  0  0  0  0
   29.5943   38.2203   29.0131 H   0  0  0  0  0
   31.0686   37.5849   27.1973 H   0  0  0  0  0
   32.0869   36.6607   28.3737 H   0  0  0  0  0
   31.8599   39.3145   29.2904 H   0  0  0  0  0
   34.5536   38.6647   26.3306 H   0  0  0  0  0
   33.2425   37.5083   26.5851 H   0  0  0  0  0
   33.5424   40.7986   28.9600 H   0  0  0  0  0
   26.2981   34.8171   30.7082 H   0  0  0  0  0
   26.1091   32.6434   28.6599 H   0  0  0  0  0
   25.6250   31.1106   30.5390 H   0  0  0  0  0
   26.0558   32.4709   31.6810 H   0  0  0  0  0
   27.8658   30.8905   31.4766 H   0  0  0  0  0
   28.2953   32.4900   30.7238 H   0  0  0  0  0
   29.0374   30.3923   29.4787 H   0  0  0  0  0
   28.0925   31.6047   28.5432 H   0  0  0  0  0
   26.4200   30.0620   28.2689 H   0  0  0  0  0
   27.7701   27.3602   30.9659 H   0  0  0  0  0
   28.5828   28.9241   30.8452 H   0  0  0  0  0
   25.4036   28.0892   28.4544 H   0  0  0  0  0
   24.0206   31.6321   28.4779 H   0  0  0  0  0
   21.8222   33.5098   28.8636 H   0  0  0  0  0
   20.3979   31.6736   28.1097 H   0  0  0  0  0
   21.8598   30.5975   28.1024 H   0  0  0  0  0
   22.8993   32.0930   26.4571 H   0  0  0  0  0
   21.7153   30.1330   25.6691 H   0  0  0  0  0
   20.1919   31.0532   25.6105 H   0  0  0  0  0
   21.5356   31.4856   24.5249 H   0  0  0  0  0
   20.1882   33.4725   26.4845 H   0  0  0  0  0
   21.7219   34.1594   27.0737 H   0  0  0  0  0
   21.5103   33.8102   25.3404 H   0  0  0  0  0
   20.1817   33.4140   30.3824 H   0  0  0  0  0
   20.4786   31.4081   32.5362 H   0  0  0  0  0
   20.2620   34.3746   33.0066 H   0  0  0  0  0
   21.7262   33.3271   33.2831 H   0  0  0  0  0
   20.3986   32.0554   34.9059 H   0  0  0  0  0
   19.0924   33.2891   34.7221 H   0  0  0  0  0
   20.2163   34.8433   35.8762 H   0  0  0  0  0
   21.8306   34.2424   35.3121 H   0  0  0  0  0
   22.0644   32.8832   37.0636 H   0  0  0  0  0
   20.3299   32.4583   37.1003 H   0  0  0  0  0
   20.9774   33.7346   39.0141 H   0  0  0  0  0
   21.5086   34.9854   38.0496 H   0  0  0  0  0
   19.8905   34.5890   38.0838 H   0  0  0  0  0
   18.6516   30.5695   33.0857 H   0  0  0  0  0
   16.2544   31.9089   31.9535 H   0  0  0  0  0
   17.2779   32.5431   34.5069 H   0  0  0  0  0
   15.1597   29.6406   32.3631 H   0  0  0  0  0
   16.7922   29.0469   32.7532 H   0  0  0  0  0
  1  2  1  0  0  0
  1  4  1  0  0  0
  2  3  2  0  0  0
  2  6  1  0  0  0
  4  5  1  0  0  0
  5 99  1  0  0  0
  6  7  1  0  0  0
  7  8  1  0  0  0
  7 10  1  0  0  0
  8  9  2  0  0  0
  8 15  1  0  0  0
 10 11  1  0  0  0
 11 12  1  0  0  0
 12 13  2  0  0  0
 12 14  1  0  0  0
 15 16  1  0  0  0
 16 17  1  0  0  0
 16 19  1  0  0  0
 17 18  2  0  0  0
 17 26  1  0  0  0
 19 20  1  0  0  0
 20 21  4  0  0  0
 20 22  4  0  0  0
 21 23  4  0  0  0
 22 24  4  0  0  0
 23 25  4  0  0  0
 24 25  4  0  0  0
 26 27  1  0  0  0
 27 28  1  0  0  0
 27 30  1  0  0  0
 28 29  2  0  0  0
 28 34  1  0  0  0
 30 31  1  0  0  0
 31 32  1  0  0  0
 31 33  2  0  0  0
 34 35  1  0  0  0
 35 36  1  0  0  0
 35 38  1  0  0  0
 36 37  2  0  0  0
 36 42  1  0  0  0
 38 39  1  0  0  0
 39 40  1  0  0  0
 39 41  1  0  0  0
 42 43  1  0  0  0
 43 44  1  0  0  0
 43 46  1  0  0  0
 44 45  2  0  0  0
 44 48  1  0  0  0
 46 47  1  0  0  0
 48 49  1  0  0  0
 49 50  1  0  0  0
 49 52  1  0  0  0
 50 51  2  0  0  0
 50 55  1  0  0  0
 52 53  1  0  0  0
 52 54  1  0  0  0
 55 56  1  0  0  0
 56 57  1  0  0  0
 56 59  1  0  0  0
 57 58  2  0  0  0
 57 66  1  0  0  0
 59 60  1  0  0  0
 60 61  1  0  0  0
 61 62  1  0  0  0
 62 63  1  0  0  0
 63 64  1  0  0  0
 63 65  2  0  0  0
 66 67  1  0  0  0
 67 68  1  0  0  0
 67 70  1  0  0  0
 68 69  2  0  0  0
 68 77  1  0  0  0
 70 71  1  0  0  0
 71 72  1  0  0  0
 72 73  1  0  0  0
 73 74  1  0  0  0
 74 75  1  0  0  0
 74 76  2  0  0  0
 77 78  1  0  0  0
 78 79  1  0  0  0
 78 81  1  0  0  0
 79 80  2  0  0  0
 79 85  1  0  0  0
 81 82  1  0  0  0
 82 83  1  0  0  0
 82 84  1  0  0  0
 85 86  1  0  0  0
 86 87  1  0  0  0
 86 89  1  0  0  0
 87 88  2  0  0  0
 87 94  1  0  0  0
 89 90  1  0  0  0
 90 91  1  0  0  0
 91 92  1  0  0  0
 92 93  1  0  0  0
 94 95  1  0  0  0
 95 96  1  0  0  0
 95 98  1  0  0  0
 96 97  1  0  0  0
 96100  2  0  0  0
 98 99  1  0  0  0
  1101  1  0  0  0
  1102  1  0  0  0
  4103  1  0  0  0
  4104  1  0  0  0
  6105  1  0  0  0
  7106  1  0  0  0
 10107  1  0  0  0
 10108  1  0  0  0
 11109  1  0  0  0
 11110  1  0  0  0
 14111  1  0  0  0
 14112  1  0  0  0
 15113  1  0  0  0
 16114  1  0  0  0
 19115  1  0  0  0
 19116  1  0  0  0
 21117  1  0  0  0
 22118  1  0  0  0
 23119  1  0  0  0
 24120  1  0  0  0
 25121  1  0  0  0
 26122  1  0  0  0
 27123  1  0  0  0
 30124  1  0  0  0
 30125  1  0  0  0
 32126  1  0  0  0
 34127  1  0  0  0
 35128  1  0  0  0
 38129  1  0  0  0
 38130  1  0  0  0
 39131  1  0  0  0
 40132  1  0  0  0
 40133  1  0  0  0
 40134  1  0  0  0
 41135  1  0  0  0
 41136  1  0  0  0
 41137  1  0  0  0
 42138  1  0  0  0
 43139  1  0  0  0
 46140  1  0  0  0
 46141  1  0  0  0
 47142  1  0  0  0
 48143  1  0  0  0
 49144  1  0  0  0
 52145  1  0  0  0
 53146  1  0  0  0
 54147  1  0  0  0
 54148  1  0  0  0
 54149  1  0  0  0
 55150  1  0  0  0
 56151  1  0  0  0
 59152  1  0  0  0
 59153  1  0  0  0
 60154  1  0  0  0
 60155  1  0  0  0
 61156  1  0  0  0
 61157  1  0  0  0
 62158  1  0  0  0
 64159  1  0  0  0
 64160  1  0  0  0
 65161  1  0  0  0
 66162  1  0  0  0
 67163  1  0  0  0
 70164  1  0  0  0
 70165  1  0  0  0
 71166  1  0  0  0
 71167  1  0  0  0
 72168  1  0  0  0
 72169  1  0  0  0
 73170  1  0  0  0
 75171  1  0  0  0
 75172  1  0  0  0
 76173  1  0  0  0
 77174  1  0  0  0
 78175  1  0  0  0
 81176  1  0  0  0
 81177  1  0  0  0
 82178  1  0  0  0
 83179  1  0  0  0
 83180  1  0  0  0
 83181  1  0  0  0
 84182  1  0  0  0
 84183  1  0  0  0
 84184  1  0  0  0
 85185  1  0  0  0
 86186  1  0  0  0
 89187  1  0  0  0
 89188  1  0  0  0
 90189  1  0  0  0
 90190  1  0  0  0
 91191  1  0  0  0
 91192  1  0  0  0
 92193  1  0  0  0
 92194  1  0  0  0
 93195  1  0  0  0
 93196  1  0  0  0
 93197  1  0  0  0
 94198  1  0  0  0
 95199  1  0  0  0
 97200  1  0  0  0
 98201  1  0  0  0
 98202  1  0  0  0
M  END
$$$$
