1ll4_ligand
  -I-interpret- 

 87 90  0  0  0  0  0  0  0  0999 V2000
   68.3290   34.1290   51.6790 C   0  0  0  0  0
   69.5780   35.0150   51.5730 C   0  0  0  0  0
   70.1640   35.4510   52.8660 C   0  0  0  0  0
   69.0480   35.8470   53.8390 C   0  0  0  0  0
   67.9030   34.8450   53.8540 C   0  0  0  0  0
   66.6980   35.0210   54.8170 C   0  0  0  0  0
   71.1540   34.6340   49.8470 C   0  0  0  0  0
   70.7770   35.9710   49.2930 C   0  0  0  0  0
   70.6410   34.2470   50.9820 N   0  0  0  0  0
   71.0010   34.4650   53.4360 O   0  0  0  0  0
   69.6530   35.8200   55.1170 O   0  0  0  0  0
   67.3610   34.7370   52.5230 O   0  0  0  0  0
   65.7510   33.9490   54.6870 O   0  0  0  0  0
   71.9210   33.9170   49.2310 O   0  0  0  0  0
   65.4010   30.6850   49.0450 C   0  0  0  0  0
   65.3780   30.8670   50.5690 C   0  0  0  0  0
   65.9320   32.2450   51.0230 C   0  0  0  0  0
   67.3090   32.4680   50.2990 C   0  0  0  0  0
   67.2070   32.1700   48.8120 C   0  0  0  0  0
   68.4900   32.2060   47.9660 C   0  0  0  0  0
   63.5870   30.0540   52.0110 C   0  0  0  0  0
   64.7010   29.6200   52.9530 C   0  0  0  0  0
   63.9820   30.7530   50.9590 N   0  0  0  0  0
   65.0460   33.3590   50.8660 O   0  0  0  0  0
   67.7740   33.8500   50.4380 O   0  0  0  0  0
   66.6930   30.8710   48.5650 O   0  0  0  0  0
   68.2390   31.8300   46.5810 O   0  0  0  0  0
   62.4020   29.7340   52.1900 O   0  0  0  0  0
   63.9060   26.9740   46.3660 C   0  0  0  0  0
   64.9380   27.8070   45.6370 C   0  0  0  0  0
   65.6800   28.4380   46.7530 C   0  0  0  0  0
   64.5710   28.9510   47.5730 C   0  0  0  0  0
   63.6500   27.7420   47.6730 C   0  0  0  0  0
   62.1870   28.0400   47.9060 C   0  0  0  0  0
   65.7670   25.7650   45.8000 C   0  0  0  0  0
   67.8970   24.6950   45.4610 C   0  0  0  0  0
   65.9780   23.3620   46.1240 C   0  0  0  0  0
   65.9180   26.9160   45.0910 N   0  0  0  0  0
   66.5230   24.6380   45.8010 N   0  0  0  0  0
   66.5300   29.3300   46.0770 O   0  0  0  0  0
   65.0850   29.3750   48.8170 O   0  0  0  0  0
   62.0330   28.7320   49.1130 O   0  0  0  0  0
   64.6780   25.7850   46.6240 O   0  0  0  0  0
   68.6444   33.1809   52.1145 H   0  0  0  0  0
   69.2378   35.8845   51.0105 H   0  0  0  0  0
   70.7925   36.3192   52.6676 H   0  0  0  0  0
   68.6318   36.8125   53.5515 H   0  0  0  0  0
   68.4083   33.9640   54.2498 H   0  0  0  0  0
   66.1944   35.9553   54.5688 H   0  0  0  0  0
   67.0743   35.0238   55.8400 H   0  0  0  0  0
   71.6733   36.5800   49.1755 H   0  0  0  0  0
   70.2963   35.8388   48.3237 H   0  0  0  0  0
   70.0876   36.4652   49.9775 H   0  0  0  0  0
   70.9900   33.4083   51.4458 H   0  0  0  0  0
   71.6913   34.2324   52.8107 H   0  0  0  0  0
   70.3818   36.4445   55.1381 H   0  0  0  0  0
   65.0225   34.0915   55.2957 H   0  0  0  0  0
   64.7205   31.3888   48.5657 H   0  0  0  0  0
   66.0163   30.1182   51.0379 H   0  0  0  0  0
   66.0565   32.2042   52.1051 H   0  0  0  0  0
   68.0137   31.7861   50.7750 H   0  0  0  0  0
   66.5655   32.9979   48.5101 H   0  0  0  0  0
   69.1987   31.4946   48.3900 H   0  0  0  0  0
   68.8788   33.2242   47.9784 H   0  0  0  0  0
   64.4982   30.0016   53.9537 H   0  0  0  0  0
   64.7482   28.5314   52.9806 H   0  0  0  0  0
   65.6515   30.0173   52.5970 H   0  0  0  0  0
   63.2774   31.2320   50.3981 H   0  0  0  0  0
   65.4805   34.1578   51.1737 H   0  0  0  0  0
   69.0615   31.8646   46.0871 H   0  0  0  0  0
   62.9562   26.7709   45.8713 H   0  0  0  0  0
   64.4961   28.4627   44.8868 H   0  0  0  0  0
   66.3289   27.8814   47.4293 H   0  0  0  0  0
   64.0434   29.8165   47.1721 H   0  0  0  0  0
   63.8815   27.1645   48.5680 H   0  0  0  0  0
   61.6305   27.1039   47.9526 H   0  0  0  0  0
   61.8081   28.6522   47.0876 H   0  0  0  0  0
   66.6673   25.5536   45.2231 H   0  0  0  0  0
   68.0032   25.0781   44.4461 H   0  0  0  0  0
   68.4149   25.3557   46.1562 H   0  0  0  0  0
   68.3264   23.6949   45.5200 H   0  0  0  0  0
   65.5755   23.3860   47.1367 H   0  0  0  0  0
   65.1812   23.1200   45.4206 H   0  0  0  0  0
   66.7617   22.6071   46.0610 H   0  0  0  0  0
   66.8626   27.2924   45.1710 H   0  0  0  0  0
   67.0687   29.8030   46.7155 H   0  0  0  0  0
   61.1025   28.9191   49.2568 H   0  0  0  0  0
  1  2  1  0  0  0
  1 12  1  0  0  0
 25  1  1  0  0  0
  2  3  1  0  0  0
  2  9  1  0  0  0
  3  4  1  0  0  0
  3 10  1  0  0  0
  5  4  1  0  0  0
  4 11  1  0  0  0
  5  6  1  0  0  0
 12  5  1  0  0  0
  6 13  1  0  0  0
  7  8  1  0  0  0
  9  7  1  0  0  0
  7 14  2  0  0  0
 15 16  1  0  0  0
 15 26  1  0  0  0
 41 15  1  0  0  0
 16 17  1  0  0  0
 16 23  1  0  0  0
 17 18  1  0  0  0
 17 24  1  0  0  0
 19 18  1  0  0  0
 18 25  1  0  0  0
 19 20  1  0  0  0
 26 19  1  0  0  0
 20 27  1  0  0  0
 21 22  1  0  0  0
 23 21  1  0  0  0
 21 28  2  0  0  0
 29 30  1  0  0  0
 33 29  1  0  0  0
 29 43  1  0  0  0
 31 30  1  0  0  0
 30 38  1  0  0  0
 32 31  1  0  0  0
 31 40  1  0  0  0
 32 33  1  0  0  0
 32 41  1  0  0  0
 33 34  1  0  0  0
 34 42  1  0  0  0
 38 35  1  0  0  0
 35 39  1  0  0  0
 35 43  1  0  0  0
 39 36  1  0  0  0
 39 37  1  0  0  0
  1 44  1  0  0  0
  2 45  1  0  0  0
  3 46  1  0  0  0
  4 47  1  0  0  0
  5 48  1  0  0  0
  6 49  1  0  0  0
  6 50  1  0  0  0
  8 51  1  0  0  0
  8 52  1  0  0  0
  8 53  1  0  0  0
  9 54  1  0  0  0
 10 55  1  0  0  0
 11 56  1  0  0  0
 13 57  1  0  0  0
 15 58  1  0  0  0
 16 59  1  0  0  0
 17 60  1  0  0  0
 18 61  1  0  0  0
 19 62  1  0  0  0
 20 63  1  0  0  0
 20 64  1  0  0  0
 22 65  1  0  0  0
 22 66  1  0  0  0
 22 67  1  0  0  0
 23 68  1  0  0  0
 24 69  1  0  0  0
 27 70  1  0  0  0
 29 71  1  0  0  0
 30 72  1  0  0  0
 31 73  1  0  0  0
 32 74  1  0  0  0
 33 75  1  0  0  0
 34 76  1  0  0  0
 34 77  1  0  0  0
 35 78  1  0  0  0
 36 79  1  0  0  0
 36 80  1  0  0  0
 36 81  1  0  0  0
 37 82  1  0  0  0
 37 83  1  0  0  0
 37 84  1  0  0  0
 38 85  1  0  0  0
 40 86  1  0  0  0
 42 87  1  0  0  0
M  END
$$$$
