3elj_ligand
  -I-interpret- 

 54 57  0  0  0  0  0  0  0  0999 V2000
   20.7730    8.5190   32.3400 C   0  0  0  0  0
   21.3920    7.3760   31.9960 N   0  0  0  0  0
   19.5210    8.3970   32.9060 C   0  0  0  0  0
   19.0130    7.1340   33.0720 C   0  0  0  0  0
   17.7770    7.2490   33.6400 N   0  0  0  0  0
   17.4810    8.5660   33.8470 C   0  0  0  0  0
   18.5510    9.3090   33.3980 C   0  0  0  0  0
   19.6100    5.9950   32.7410 N   0  0  0  0  0
   20.8160    6.1850   32.2010 C   0  0  0  0  0
   21.4930    5.0070   31.8270 N   0  0  0  0  0
   22.7630    4.9740   31.2170 C   0  0  0  0  0
   23.6990    4.0630   31.6580 C   0  0  0  0  0
   23.2950    3.2430   32.7030 O   0  0  0  0  0
   24.1830    2.1400   32.8230 C   0  0  0  0  0
   23.0940    5.8190   30.1790 C   0  0  0  0  0
   24.3440    5.7590   29.6050 C   0  0  0  0  0
   25.2790    4.8450   30.0440 C   0  0  0  0  0
   24.9550    3.9930   31.0800 C   0  0  0  0  0
   26.6290    4.8080   29.4040 C   0  0  0  0  0
   26.5390    3.7910   27.9470 S   0  0  0  0  0
   25.6290    4.4050   26.9980 O   0  0  0  0  0
   26.3330    2.4240   28.3880 O   0  0  0  0  0
   28.1780    3.9200   27.2980 C   0  0  0  0  0
   20.8260   12.3130   32.6810 O   0  0  0  0  0
   21.7270   12.5310   31.8800 C   0  0  0  0  0
   21.8210   13.6440   31.0860 N   0  0  0  0  0
   22.8270   11.5640   31.7060 C   0  0  0  0  0
   24.0940   12.0080   31.3940 C   0  0  0  0  0
   24.3470   13.3170   31.2440 F   0  0  0  0  0
   25.1190   11.1050   31.2310 C   0  0  0  0  0
   24.8710    9.7600   31.3830 C   0  0  0  0  0
   23.6040    9.3200   31.6970 C   0  0  0  0  0
   22.5690   10.2150   31.8610 C   0  0  0  0  0
   21.2650    9.8190   32.1790 N   0  0  0  0  0
   16.5644    8.9583   34.2876 H   0  0  0  0  0
   18.6367   10.3955   33.4171 H   0  0  0  0  0
   21.0316    4.1160   32.0106 H   0  0  0  0  0
   24.1786    1.5690   31.8946 H   0  0  0  0  0
   25.1904    2.5061   33.0211 H   0  0  0  0  0
   23.8587    1.5019   33.6451 H   0  0  0  0  0
   22.3623    6.5382   29.8109 H   0  0  0  0  0
   24.5977    6.4418   28.7941 H   0  0  0  0  0
   25.6845    3.2683   31.4415 H   0  0  0  0  0
   27.3586    4.3948   30.1004 H   0  0  0  0  0
   26.9392    5.8173   29.1334 H   0  0  0  0  0
   28.2295    3.4038   26.3394 H   0  0  0  0  0
   28.4311    4.9712   27.1601 H   0  0  0  0  0
   28.8806    3.4643   27.9957 H   0  0  0  0  0
   21.1052   14.3689   31.1371 H   0  0  0  0  0
   22.6067   13.7475   30.4439 H   0  0  0  0  0
   26.1218   11.4529   30.9829 H   0  0  0  0  0
   25.6797    9.0405   31.2545 H   0  0  0  0  0
   23.4181    8.2527   31.8170 H   0  0  0  0  0
   20.5891   10.5716   32.3097 H   0  0  0  0  0
  1  2  4  0  0  0
  1  3  4  0  0  0
 34  1  1  0  0  0
  2  9  4  0  0  0
  3  4  4  0  0  0
  3  7  4  0  0  0
  4  5  4  0  0  0
  4  8  4  0  0  0
  6  5  4  0  0  0
  7  6  4  0  0  0
  9  8  4  0  0  0
  9 10  1  0  0  0
 10 11  1  0  0  0
 11 12  4  0  0  0
 11 15  4  0  0  0
 12 13  1  0  0  0
 12 18  4  0  0  0
 13 14  1  0  0  0
 15 16  4  0  0  0
 16 17  4  0  0  0
 18 17  4  0  0  0
 17 19  1  0  0  0
 19 20  1  0  0  0
 20 21  2  0  0  0
 20 22  2  0  0  0
 20 23  1  0  0  0
 25 24  2  0  0  0
 25 26  1  0  0  0
 27 25  1  0  0  0
 27 28  4  0  0  0
 33 27  4  0  0  0
 28 29  1  0  0  0
 28 30  4  0  0  0
 31 30  4  0  0  0
 32 31  4  0  0  0
 33 32  4  0  0  0
 33 34  1  0  0  0
  6 35  1  0  0  0
  7 36  1  0  0  0
 10 37  1  0  0  0
 14 38  1  0  0  0
 14 39  1  0  0  0
 14 40  1  0  0  0
 15 41  1  0  0  0
 16 42  1  0  0  0
 18 43  1  0  0  0
 19 44  1  0  0  0
 19 45  1  0  0  0
 23 46  1  0  0  0
 23 47  1  0  0  0
 23 48  1  0  0  0
 26 49  1  0  0  0
 26 50  1  0  0  0
 30 51  1  0  0  0
 31 52  1  0  0  0
 32 53  1  0  0  0
 34 54  1  0  0  0
M  END
$$$$
