4b3d_ligand
  -I-interpret- 

 18 19  0  0  0  0  0  0  0  0999 V2000
    5.3270    6.8150   -1.0770 C   0  0  0  0  0
    4.4140    6.1330   -1.8700 C   0  0  0  0  0
    4.6860    4.8320   -2.2770 C   0  0  0  0  0
    5.8740    4.2210   -1.8920 C   0  0  0  0  0
    6.3820    3.0170   -2.1310 N   0  0  0  0  0
    6.5140    6.2000   -0.6910 C   0  0  0  0  0
    6.7850    4.8980   -1.1020 C   0  0  0  0  0
    7.8140    4.0850   -0.8920 C   0  0  0  0  0
    7.5670    2.9420   -1.5240 C   0  0  0  0  0
    5.0190    8.2440   -0.6310 C   0  0  0  0  0
    3.4855    6.6169   -2.1729 H   0  0  0  0  0
    3.9697    4.2922   -2.8964 H   0  0  0  0  0
    7.2299    6.7365   -0.0683 H   0  0  0  0  0
    8.7035    4.3144   -0.3053 H   0  0  0  0  0
    8.2303    2.0773   -1.5431 H   0  0  0  0  0
    4.8986    8.8792   -1.5086 H   0  0  0  0  0
    4.0986    8.2506   -0.0470 H   0  0  0  0  0
    5.8409    8.6178   -0.0204 H   0  0  0  0  0
  1  2  4  0  0  0
  1  6  4  0  0  0
  1 10  1  0  0  0
  2  3  4  0  0  0
  3  4  4  0  0  0
  4  5  4  0  0  0
  4  7  4  0  0  0
  5  9  4  0  0  0
  6  7  4  0  0  0
  7  8  4  0  0  0
  8  9  4  0  0  0
  2 11  1  0  0  0
  3 12  1  0  0  0
  6 13  1  0  0  0
  8 14  1  0  0  0
  9 15  1  0  0  0
 10 16  1  0  0  0
 10 17  1  0  0  0
 10 18  1  0  0  0
M  END
$$$$
