3opp_ligand
  -I-interpret- 

 42 41  0  0  0  0  0  0  0  0999 V2000
   34.8670   59.6410    3.8500 O   0  0  0  0  0
   35.5410   60.5830    3.3800 C   0  0  0  0  0
   36.7680   60.7070    3.5580 O   0  0  0  0  0
   34.8180   61.6370    2.5660 C   0  0  0  0  0
   35.0860   61.4070    1.0820 C   0  0  0  0  0
   34.0350   62.0680    0.1970 C   0  0  0  0  0
   34.0720   63.5580    0.4390 C   0  0  0  0  0
   34.9950   64.2290   -0.0040 O   0  0  0  0  0
   33.0160   64.1740    1.2170 O   0  0  0  0  0
   33.0580   65.5680    1.5320 C   0  0  0  0  0
   31.8050   66.0000    2.2690 C   0  0  0  0  0
   31.9820   67.5950    2.7880 S   0  0  0  0  0
   33.0580   67.6480    3.7500 O   0  0  0  0  0
   32.4380   68.3830    1.6810 O   0  0  0  0  0
   30.6390   65.9090    1.2890 C   0  0  0  0  0
   31.6140   65.0320    3.4610 C   0  0  0  0  0
   30.4290   65.3380    4.3470 C   0  0  0  0  0
   30.5260   66.1630    5.2800 O   0  0  0  0  0
   29.3740   64.7160    4.1570 O   0  0  0  0  0
   32.8530   64.9270    4.2350 N   0  0  0  0  0
   33.2090   63.8400    4.9260 C   0  0  0  0  0
   32.4110   62.7870    5.1400 C   0  0  0  0  0
   32.9190   61.6620    5.9130 C   0  0  0  0  0
   33.9140   61.8160    6.6100 O   0  0  0  0  0
   33.9489   59.7446    3.5892 H   0  0  0  0  0
   35.1777   62.6257    2.8509 H   0  0  0  0  0
   33.7467   61.5708    2.7560 H   0  0  0  0  0
   35.0597   60.3334    0.8953 H   0  0  0  0  0
   36.0552   61.8437    0.8410 H   0  0  0  0  0
   33.0466   61.6767    0.4380 H   0  0  0  0  0
   34.2453   61.8563   -0.8514 H   0  0  0  0  0
   33.1281   66.1333    0.6027 H   0  0  0  0  0
   33.9205   65.7549    2.1717 H   0  0  0  0  0
   29.7238   66.2339    1.7840 H   0  0  0  0  0
   30.8367   66.5508    0.4304 H   0  0  0  0  0
   30.5265   64.8776    0.9550 H   0  0  0  0  0
   31.3771   64.0638    3.0200 H   0  0  0  0  0
   31.4062   66.5462    5.2766 H   0  0  0  0  0
   34.2157   63.8089    5.3428 H   0  0  0  0  0
   32.2117   62.3796    4.1488 H   0  0  0  0  0
   31.5803   63.1788    5.7269 H   0  0  0  0  0
   32.4193   60.6942    5.8716 H   0  0  0  0  0
  1  2  1  0  0  0
  2  3  2  0  0  0
  2  4  1  0  0  0
  4  5  1  0  0  0
  5  6  1  0  0  0
  6  7  1  0  0  0
  7  8  2  0  0  0
  7  9  1  0  0  0
  9 10  1  0  0  0
 10 11  1  0  0  0
 11 12  1  0  0  0
 11 15  1  0  0  0
 11 16  1  0  0  0
 12 13  4  0  0  0
 12 14  4  0  0  0
 16 17  1  0  0  0
 16 20  1  0  0  0
 17 18  1  0  0  0
 17 19  2  0  0  0
 20 21  2  0  0  0
 21 22  1  0  0  0
 22 23  1  0  0  0
 23 24  2  0  0  0
  1 25  1  0  0  0
  4 26  1  0  0  0
  4 27  1  0  0  0
  5 28  1  0  0  0
  5 29  1  0  0  0
  6 30  1  0  0  0
  6 31  1  0  0  0
 10 32  1  0  0  0
 10 33  1  0  0  0
 15 34  1  0  0  0
 15 35  1  0  0  0
 15 36  1  0  0  0
 16 37  1  0  0  0
 18 38  1  0  0  0
 21 39  1  0  0  0
 22 40  1  0  0  0
 22 41  1  0  0  0
 23 42  1  0  0  0
M  END
$$$$
