1e5a_ligand
  -I-interpret- 

 13 13  0  0  0  0  0  0  0  0999 V2000
   42.7820    0.0060   29.9180 O   0  0  0  0  0
   42.5740    0.0900   28.6050 C   0  0  0  0  0
   43.5750   -0.5490   27.7490 C   0  0  0  0  0
   43.2630   -0.5080   26.3370 C   0  0  0  0  0
   42.2080    0.2540   25.8220 C   0  0  0  0  0
   41.4730    0.9330   26.7150 C   0  0  0  0  0
   41.6080    0.9560   27.9860 C   0  0  0  0  0
   44.9170   -1.5730   28.5020 Br  0  0  0  0  0
   41.9870    0.2930   23.9810 Br  0  0  0  0  0
   40.4580    1.7580   29.2500 Br  0  0  0  0  0
   43.4733   -0.6372   30.0908 H   0  0  0  0  0
   43.8726   -1.0927   25.6481 H   0  0  0  0  0
   40.6629    1.5382   26.3080 H   0  0  0  0  0
  7 10  1  0  0  0
  3  8  1  0  0  0
  5  9  1  0  0  0
  2  1  1  0  0  0
  2  7  4  0  0  0
  3  2  4  0  0  0
  4  3  4  0  0  0
  5  4  4  0  0  0
  5  6  4  0  0  0
  6  7  4  0  0  0
  1 11  1  0  0  0
  4 12  1  0  0  0
  6 13  1  0  0  0
M  END
$$$$
