2vc9_ligand
  -I-interpret- 

 31 31  0  0  0  0  0  0  0  0999 V2000
   14.7340   -6.4840    8.8170 C   0  0  0  0  0
   15.9560   -5.9140    8.1160 C   0  0  0  0  0
   16.2130   -6.2660    6.9700 O   0  0  0  0  0
   16.6820   -5.0530    8.8330 N   0  0  0  0  0
   17.8820   -4.3870    8.3060 C   0  0  0  0  0
   17.6880   -2.8710    8.4320 C   0  0  0  0  0
   18.8510   -2.1770    7.8300 N   0  3  0  0  0
   20.1760   -2.5420    8.4040 C   0  0  0  0  0
   21.2920   -1.9070    7.5630 C   0  0  0  0  0
   21.3240   -2.4800    6.2570 O   0  0  0  0  0
   20.3850   -4.0670    8.4870 C   0  0  0  0  0
   21.5660   -4.3060    9.2740 O   0  0  0  0  0
   19.1490   -4.8010    9.0610 C   0  0  0  0  0
   19.3150   -6.2210    9.0160 O   0  0  0  0  0
   13.8391   -6.2285    8.2496 H   0  0  0  0  0
   14.8270   -7.5680    8.8826 H   0  0  0  0  0
   14.6625   -6.0628    9.8198 H   0  0  0  0  0
   16.3911   -4.8482    9.7890 H   0  0  0  0  0
   18.0110   -4.6829    7.2649 H   0  0  0  0  0
   17.6058   -2.5998    9.4845 H   0  0  0  0  0
   16.7770   -2.5751    7.9118 H   0  0  0  0  0
   18.7204   -1.1809    8.0063 H   0  0  0  0  0
   18.8746   -2.4455    6.8463 H   0  0  0  0  0
   20.2073   -2.1587    9.4239 H   0  0  0  0  0
   22.2493   -2.0881    8.0518 H   0  0  0  0  0
   21.1028   -0.8372    7.4749 H   0  0  0  0  0
   22.0268   -2.0712    5.7466 H   0  0  0  0  0
   20.5168   -4.4724    7.4838 H   0  0  0  0  0
   21.7186   -5.2514    9.3410 H   0  0  0  0  0
   19.0468   -4.5109   10.1067 H   0  0  0  0  0
   18.5335   -6.6450    9.3781 H   0  0  0  0  0
  1  2  1  0  0  0
  2  3  2  0  0  0
  2  4  1  0  0  0
  4  5  1  0  0  0
  5  6  1  0  0  0
  5 13  1  0  0  0
  6  7  1  0  0  0
  7  8  1  0  0  0
  8  9  1  0  0  0
  8 11  1  0  0  0
  9 10  1  0  0  0
 11 12  1  0  0  0
 11 13  1  0  0  0
 13 14  1  0  0  0
  1 15  1  0  0  0
  1 16  1  0  0  0
  1 17  1  0  0  0
  4 18  1  0  0  0
  5 19  1  0  0  0
  6 20  1  0  0  0
  6 21  1  0  0  0
  7 22  1  0  0  0
  7 23  1  0  0  0
  8 24  1  0  0  0
  9 25  1  0  0  0
  9 26  1  0  0  0
 10 27  1  0  0  0
 11 28  1  0  0  0
 12 29  1  0  0  0
 13 30  1  0  0  0
 14 31  1  0  0  0
M  END
$$$$
