1eou_ligand
  -I-interpret- 

 37 39  0  0  0  0  0  0  0  0999 V2000
   -5.7490    1.3350   16.8390 S   0  0  0  0  0
   -5.3260   -0.1620   16.6210 N   0  0  0  0  0
   -7.1400    1.4650   16.9140 O   0  0  0  0  0
   -5.0090    1.7710   17.9370 O   0  0  0  0  0
   -5.2570    1.9910   15.4980 O   0  0  0  0  0
   -5.5000    3.4020   15.2600 C   0  0  0  0  0
   -4.9520    3.6840   13.8510 C   0  0  0  0  0
   -3.4460    3.3820   13.5500 C   0  0  0  0  0
   -2.6050    4.6660   13.4420 C   0  0  0  0  0
   -3.2590    5.8030   12.5610 C   0  0  0  0  0
   -4.7560    5.6560   12.4450 C   0  0  0  0  0
   -5.2940    5.0590   13.6650 O   0  0  0  0  0
   -3.0060    7.0210   13.2680 O   0  0  0  0  0
   -2.3690    6.8260   14.6350 S   0  0  0  0  0
   -1.0630    7.2750   14.5700 O   0  0  0  0  0
   -3.1790    7.4270   15.6280 O   0  0  0  0  0
   -2.4520    5.2600   14.7260 O   0  0  0  0  0
   -3.4600    2.8030   12.2580 O   0  0  0  0  0
   -4.6780    2.0790   12.1180 C   0  0  0  0  0
   -4.5610    0.6390   12.6070 C   0  0  0  0  0
   -5.0850    2.1360   10.6670 C   0  0  0  0  0
   -5.6190    2.8570   12.9280 O   0  0  0  0  0
   -4.6372   -0.5924   17.2381 H   0  0  0  0  0
   -5.7401   -0.7037   15.8624 H   0  0  0  0  0
   -5.0097    4.0228   16.0099 H   0  0  0  0  0
   -6.5612    3.6410   15.3300 H   0  0  0  0  0
   -3.0205    2.7636   14.3403 H   0  0  0  0  0
   -1.6712    4.3348   12.9877 H   0  0  0  0  0
   -2.8441    5.7676   11.5537 H   0  0  0  0  0
   -4.9890    5.0120   11.5970 H   0  0  0  0  0
   -5.2032    6.6393   12.2989 H   0  0  0  0  0
   -3.7943    0.1219   12.0301 H   0  0  0  0  0
   -4.2875    0.6360   13.6621 H   0  0  0  0  0
   -5.5180    0.1336   12.4770 H   0  0  0  0  0
   -5.2265    3.1755   10.3712 H   0  0  0  0  0
   -4.3043    1.6855   10.0540 H   0  0  0  0  0
   -6.0173    1.5880   10.5307 H   0  0  0  0  0
  1  5  1  0  0  0
  1  4  2  0  0  0
  1  3  2  0  0  0
  1  2  1  0  0  0
  5  6  1  0  0  0
  6  7  1  0  0  0
  7 22  1  0  0  0
  7 12  1  0  0  0
  7  8  1  0  0  0
  8 18  1  0  0  0
  8  9  1  0  0  0
  9 17  1  0  0  0
  9 10  1  0  0  0
 10 13  1  0  0  0
 10 11  1  0  0  0
 11 12  1  0  0  0
 13 14  1  0  0  0
 14 17  1  0  0  0
 14 16  2  0  0  0
 14 15  2  0  0  0
 18 19  1  0  0  0
 19 22  1  0  0  0
 19 21  1  0  0  0
 19 20  1  0  0  0
  2 23  1  0  0  0
  2 24  1  0  0  0
  6 25  1  0  0  0
  6 26  1  0  0  0
  8 27  1  0  0  0
  9 28  1  0  0  0
 10 29  1  0  0  0
 11 30  1  0  0  0
 11 31  1  0  0  0
 20 32  1  0  0  0
 20 33  1  0  0  0
 20 34  1  0  0  0
 21 35  1  0  0  0
 21 36  1  0  0  0
 21 37  1  0  0  0
M  END
$$$$
