1f2p_ligand
  -I-interpret- 

 24 24  0  0  0  0  0  0  0  0999 V2000
   16.1820   15.9410   52.1520 N   0  3  0  0  0
   15.0890   16.9300   51.8910 C   0  0  0  0  0
   13.7800   16.2360   51.6750 C   0  0  0  0  0
   13.7260   14.9820   51.6430 O   0  0  0  0  0
   15.3790   17.7650   50.6390 C   0  0  0  0  0
   16.7610   18.2720   50.5890 C   0  0  0  0  0
   17.1930   19.2250   51.5010 C   0  0  0  0  0
   17.6780   17.7290   49.6830 C   0  0  0  0  0
   18.5420   19.6340   51.5150 C   0  0  0  0  0
   19.0110   18.1270   49.6930 C   0  0  0  0  0
   19.4480   19.0670   50.5950 C   0  0  0  0  0
   12.8170   17.0050   51.5210 O   0  0  0  0  0
   15.9592   15.4029   52.9894 H   0  0  0  0  0
   16.2666   15.3111   51.3542 H   0  0  0  0  0
   17.0623   16.4374   52.2897 H   0  0  0  0  0
   15.0387   17.5756   52.7678 H   0  0  0  0  0
   14.6035   14.6212   51.7894 H   0  0  0  0  0
   14.7109   18.6261   50.6535 H   0  0  0  0  0
   15.2306   17.1225   49.7711 H   0  0  0  0  0
   16.4867   19.6587   52.2089 H   0  0  0  0  0
   17.3440   16.9847   48.9601 H   0  0  0  0  0
   18.8820   20.3823   52.2310 H   0  0  0  0  0
   19.7124   17.6909   48.9817 H   0  0  0  0  0
   20.4938   19.3741   50.5994 H   0  0  0  0  0
  2  3  1  0  0  0
  2  5  1  0  0  0
  2  1  1  0  0  0
  5  6  1  0  0  0
  6  8  4  0  0  0
  6  7  4  0  0  0
  7  9  4  0  0  0
  9 11  4  0  0  0
 11 10  4  0  0  0
 10  8  4  0  0  0
  3 12  2  0  0  0
  3  4  1  0  0  0
  1 13  1  0  0  0
  1 14  1  0  0  0
  1 15  1  0  0  0
  2 16  1  0  0  0
  4 17  1  0  0  0
  5 18  1  0  0  0
  5 19  1  0  0  0
  7 20  1  0  0  0
  8 21  1  0  0  0
  9 22  1  0  0  0
 10 23  1  0  0  0
 11 24  1  0  0  0
M  END
$$$$
