3efj_ligand
  -I-interpret- 

 61 65  0  0  0  0  0  0  0  0999 V2000
   62.4910   15.2630  110.3790 N   0  0  0  0  0
   64.0070   12.8630  121.0900 N   0  0  0  0  0
   66.9580   15.6790  106.7630 C   0  0  0  0  0
   65.7570   16.0580  106.1680 C   0  0  0  0  0
   64.7190   16.5520  106.9520 C   0  0  0  0  0
   62.6710   15.1320  112.7970 C   0  0  0  0  0
   62.1690   14.6200  111.5940 C   0  0  0  0  0
   63.4730   16.2650  112.7420 C   0  0  0  0  0
   62.3990   13.1910  114.2650 C   0  0  0  0  0
   62.0720   15.4190  115.1280 C   0  0  0  0  0
   61.8860   12.4840  120.1070 C   0  0  0  0  0
   60.9340   11.6390  122.5970 C   0  0  0  0  0
   62.2640   12.0490  122.4550 C   0  0  0  0  0
   62.7330   12.4680  121.2150 C   0  0  0  0  0
   63.6970   13.3260  118.7800 C   0  0  0  0  0
   57.9050   11.2980  120.6350 C   0  0  0  0  0
   63.7170   17.2120  109.1500 C   0  0  0  0  0
   61.2930   10.5380  124.6840 C   0  0  0  0  0
   60.3960   11.2090  123.7760 O   0  0  0  0  0
   60.0890   11.6630  121.5050 C   0  0  0  0  0
   58.8170   11.2440  121.7320 O   0  0  0  0  0
   60.5570   12.0830  120.2570 C   0  0  0  0  0
   64.4910   13.2810  119.9240 C   0  0  0  0  0
   62.3700   12.9240  118.8680 C   0  0  0  0  0
   61.5230   12.9450  117.7910 O   0  0  0  0  0
   61.8180   13.5450  116.6020 C   0  0  0  0  0
   62.1110   12.7070  115.5400 C   0  0  0  0  0
   62.1220   11.3920  115.7930 F   0  0  0  0  0
   61.7840   14.9240  116.4040 C   0  0  0  0  0
   62.3880   14.5690  114.0540 C   0  0  0  0  0
   61.4500   13.6140  111.5800 O   0  0  0  0  0
   61.9550   14.7140  109.1000 C   0  0  0  0  0
   63.7680   16.8540  111.5940 N   0  0  0  0  0
   63.3260   16.4060  110.4070 C   0  0  0  0  0
   64.8730   16.6580  108.3310 C   0  0  0  0  0
   66.0750   16.2860  108.9280 C   0  0  0  0  0
   67.1180   15.7910  108.1440 C   0  0  0  0  0
   67.7728   15.2949  106.1493 H   0  0  0  0  0
   65.6304   15.9677  105.0892 H   0  0  0  0  0
   63.7826   16.8568  106.4847 H   0  0  0  0  0
   63.8698   16.6798  113.6686 H   0  0  0  0  0
   62.6283   12.5056  113.4490 H   0  0  0  0  0
   62.0508   16.4960  114.9614 H   0  0  0  0  0
   62.9323   12.0400  123.3161 H   0  0  0  0  0
   64.1099   13.6708  117.8320 H   0  0  0  0  0
   57.8149   12.3278  120.2894 H   0  0  0  0  0
   58.2771   10.6724  119.8237 H   0  0  0  0  0
   56.9291   10.9349  120.9573 H   0  0  0  0  0
   64.0363   18.1923  109.5037 H   0  0  0  0  0
   62.8455   17.1978  108.4955 H   0  0  0  0  0
   61.7010    9.6506  124.2001 H   0  0  0  0  0
   62.1057   11.2122  124.9543 H   0  0  0  0  0
   60.7479   10.2458  125.5815 H   0  0  0  0  0
   59.8839   12.0976  119.3998 H   0  0  0  0  0
   65.5328   13.5956  119.8619 H   0  0  0  0  0
   61.5390   15.6000  117.2232 H   0  0  0  0  0
   62.3088   13.6915  108.9684 H   0  0  0  0  0
   60.8655   14.7217  109.1311 H   0  0  0  0  0
   62.3004   15.3291  108.2690 H   0  0  0  0  0
   66.2010   16.3814  110.0065 H   0  0  0  0  0
   68.0567   15.4922  108.6104 H   0  0  0  0  0
  7  1  1  0  0  0
  1 32  1  0  0  0
  1 34  1  0  0  0
 14  2  4  0  0  0
 23  2  4  0  0  0
  4  3  4  0  0  0
  3 37  4  0  0  0
  5  4  4  0  0  0
 35  5  4  0  0  0
  6  7  1  0  0  0
  6  8  2  0  0  0
 30  6  1  0  0  0
  7 31  2  0  0  0
  8 33  1  0  0  0
 27  9  4  0  0  0
  9 30  4  0  0  0
 10 29  4  0  0  0
 30 10  4  0  0  0
 11 14  4  0  0  0
 11 22  4  0  0  0
 24 11  4  0  0  0
 13 12  4  0  0  0
 12 19  1  0  0  0
 20 12  4  0  0  0
 14 13  4  0  0  0
 15 23  4  0  0  0
 24 15  4  0  0  0
 21 16  1  0  0  0
 34 17  1  0  0  0
 17 35  1  0  0  0
 19 18  1  0  0  0
 20 21  1  0  0  0
 22 20  4  0  0  0
 25 24  1  0  0  0
 26 25  1  0  0  0
 26 27  4  0  0  0
 26 29  4  0  0  0
 27 28  1  0  0  0
 33 34  2  0  0  0
 35 36  4  0  0  0
 36 37  4  0  0  0
  3 38  1  0  0  0
  4 39  1  0  0  0
  5 40  1  0  0  0
  8 41  1  0  0  0
  9 42  1  0  0  0
 10 43  1  0  0  0
 13 44  1  0  0  0
 15 45  1  0  0  0
 16 46  1  0  0  0
 16 47  1  0  0  0
 16 48  1  0  0  0
 17 49  1  0  0  0
 17 50  1  0  0  0
 18 51  1  0  0  0
 18 52  1  0  0  0
 18 53  1  0  0  0
 22 54  1  0  0  0
 23 55  1  0  0  0
 29 56  1  0  0  0
 32 57  1  0  0  0
 32 58  1  0  0  0
 32 59  1  0  0  0
 36 60  1  0  0  0
 37 61  1  0  0  0
M  END
$$$$
