### 
### Created by X-TOOL on Mon Sep 10 21:12:55 2018
### 

@<TRIPOS>MOLECULE
2ajd_ligand
   33    34     1     0     0
SMALL
GAST_HUCK


@<TRIPOS>ATOM
      1 N          -5.9800   19.5500    6.4420 N.4       1 BPR         0.2461
      2 CA         -6.9750   19.3260    5.3640 C.3       1 BPR         0.0670
      3 C          -6.4720   18.3750    4.2770 C.2       1 BPR         0.2261
      4 O          -5.2780   18.1380    4.1510 O.2       1 BPR        -0.3907
      5 CB         -7.3030   20.6790    4.7650 C.3       1 BPR         0.0127
      6 CG         -6.1070   21.5300    5.2000 C.3       1 BPR        -0.0053
      7 CD         -5.6470   20.9810    6.5400 C.3       1 BPR        -0.0313
      8 O1         -7.9130   18.3590    0.5990 O.3       1 BPR        -0.4967
      9 N1         -7.3950   17.7950    3.4980 N.am      1 BPR        -0.2753
     10 C1         -8.8460   17.8090    3.7730 C.3       1 BPR         0.0330
     11 C2         -7.0500   16.8670    2.4190 C.3       1 BPR         0.0564
     12 C3         -8.3100   16.0260    2.3030 C.3       1 BPR        -0.0368
     13 C4         -9.4020   17.0160    2.6360 C.3       1 BPR        -0.0316
     14 O2         -5.5820   18.5300    1.2000 O.3       1 BPR        -0.4967
     15 B          -6.7200   17.5760    1.0530 B         1 BPR         0.7166
     16 H1         -5.1432   19.0271    6.2362 H         1 BPR         0.2035
     17 H2         -6.3644   19.2371    7.3197 H         1 BPR         0.2035
     18 H3         -7.8846   18.8931    5.8058 H         1 BPR         0.1099
     19 H4         -8.2439   21.0772    5.1727 H         1 BPR         0.0347
     20 H5         -7.3733   20.6224    3.6687 H         1 BPR         0.0347
     21 H6         -6.4084   22.5827    5.3046 H         1 BPR         0.0320
     22 H7         -5.2969   21.4523    4.4600 H         1 BPR         0.0320
     23 H8         -4.5654   21.1270    6.6770 H         1 BPR         0.0814
     24 H9         -6.1894   21.4575    7.3699 H         1 BPR         0.0814
     25 H10        -8.1192   19.0235    1.2459 H         1 BPR         0.1667
     26 H11        -9.2405   18.8358    3.7710 H         1 BPR         0.0522
     27 H12        -9.0717   17.3313    4.7378 H         1 BPR         0.0522
     28 H13        -6.1893   16.2467    2.7096 H         1 BPR         0.0434
     29 H14        -8.2980   15.1925    3.0207 H         1 BPR         0.0276
     30 H15        -8.4305   15.6306    1.2836 H         1 BPR         0.0276
     31 H16        -9.6147   17.6661    1.7745 H         1 BPR         0.0285
     32 H17       -10.3222   16.4944    2.9378 H         1 BPR         0.0285
     33 H18        -5.8070   19.1931    1.8421 H         1 BPR         0.1667
@<TRIPOS>BOND
     1    2    1 1  
     2    1    7 1  
     3    3    2 1  
     4    2    5 1  
     5    3    4 2  
     6    9    3 am 
     7    5    6 1  
     8    6    7 1  
     9   15    8 1  
    10    9   10 1  
    11   11    9 1  
    12   10   13 1  
    13   11   12 1  
    14   11   15 1  
    15   12   13 1  
    16   15   14 1  
    17    1   16 1  
    18    1   17 1  
    19    2   18 1  
    20    5   19 1  
    21    5   20 1  
    22    6   21 1  
    23    6   22 1  
    24    7   23 1  
    25    7   24 1  
    26    8   25 1  
    27   10   26 1  
    28   10   27 1  
    29   11   28 1  
    30   12   29 1  
    31   12   30 1  
    32   13   31 1  
    33   13   32 1  
    34   14   33 1  
@<TRIPOS>SUBSTRUCTURE
     1 BPR         1

