2ajd_ligand
  -I-interpret- 

 33 34  0  0  0  0  0  0  0  0999 V2000
   -5.9800   19.5500    6.4420 N   0  3  0  0  0
   -6.9750   19.3260    5.3640 C   0  0  0  0  0
   -6.4720   18.3750    4.2770 C   0  0  0  0  0
   -5.2780   18.1380    4.1510 O   0  0  0  0  0
   -7.3030   20.6790    4.7650 C   0  0  0  0  0
   -6.1070   21.5300    5.2000 C   0  0  0  0  0
   -5.6470   20.9810    6.5400 C   0  0  0  0  0
   -7.9130   18.3590    0.5990 O   0  0  0  0  0
   -7.3950   17.7950    3.4980 N   0  0  0  0  0
   -8.8460   17.8090    3.7730 C   0  0  0  0  0
   -7.0500   16.8670    2.4190 C   0  0  0  0  0
   -8.3100   16.0260    2.3030 C   0  0  0  0  0
   -9.4020   17.0160    2.6360 C   0  0  0  0  0
   -5.5820   18.5300    1.2000 O   0  0  0  0  0
   -6.7200   17.5760    1.0530 B   0  0  0  0  0
   -5.1324   19.0246    6.2276 H   0  0  0  0  0
   -6.3743   19.2381    7.3295 H   0  0  0  0  0
   -7.8576   18.8505    5.7919 H   0  0  0  0  0
   -8.2584   21.0777    5.1060 H   0  0  0  0  0
   -7.4350   20.6475    3.6835 H   0  0  0  0  0
   -6.3871   22.5799    5.2852 H   0  0  0  0  0
   -5.3053   21.4798    4.4632 H   0  0  0  0  0
   -4.5878   21.1568    6.7280 H   0  0  0  0  0
   -6.1297   21.4706    7.3858 H   0  0  0  0  0
   -7.7122   18.7916   -0.2341 H   0  0  0  0  0
   -9.2585   18.8162    3.8314 H   0  0  0  0  0
   -9.0986   17.3908    4.7474 H   0  0  0  0  0
   -6.1428   16.3042    2.6390 H   0  0  0  0  0
   -8.3053   15.1596    2.9644 H   0  0  0  0  0
   -8.4309   15.5749    1.3181 H   0  0  0  0  0
   -9.6598   17.6450    1.7840 H   0  0  0  0  0
  -10.3377   16.5224    2.8985 H   0  0  0  0  0
   -4.8015   18.0529    1.4911 H   0  0  0  0  0
  2  1  1  0  0  0
  1  7  1  0  0  0
  3  2  1  0  0  0
  2  5  1  0  0  0
  3  4  2  0  0  0
  9  3  1  0  0  0
  5  6  1  0  0  0
  6  7  1  0  0  0
 15  8  1  0  0  0
  9 10  1  0  0  0
 11  9  1  0  0  0
 10 13  1  0  0  0
 11 12  1  0  0  0
 11 15  1  0  0  0
 12 13  1  0  0  0
 15 14  1  0  0  0
  1 16  1  0  0  0
  1 17  1  0  0  0
  2 18  1  0  0  0
  5 19  1  0  0  0
  5 20  1  0  0  0
  6 21  1  0  0  0
  6 22  1  0  0  0
  7 23  1  0  0  0
  7 24  1  0  0  0
  8 25  1  0  0  0
 10 26  1  0  0  0
 10 27  1  0  0  0
 11 28  1  0  0  0
 12 29  1  0  0  0
 12 30  1  0  0  0
 13 31  1  0  0  0
 13 32  1  0  0  0
 14 33  1  0  0  0
M  END
$$$$
