6cco_ligand
  -I-interpret- 

 41 44  0  0  0  0  0  0  0  0999 V2000
  -32.5740  -39.7830   53.2780 C   0  0  0  0  0
  -31.4800  -40.3190   53.9560 C   0  0  0  0  0
  -31.5450  -40.5440   55.3260 C   0  0  0  0  0
  -31.4300  -39.6840   51.1830 O   0  0  0  0  0
  -32.8560  -33.3420   57.1540 O   0  0  0  0  0
  -35.0010  -38.3380   57.1780 C   0  0  0  0  0
  -34.9380  -36.9800   56.5530 C   0  0  0  0  0
  -35.4400  -35.2120   55.3720 C   0  0  0  0  0
  -35.9510  -34.2430   54.5050 C   0  0  0  0  0
  -35.3950  -32.9640   54.5330 C   0  0  0  0  0
  -34.3610  -32.6590   55.4200 C   0  0  0  0  0
  -33.8490  -33.6410   56.2730 C   0  0  0  0  0
  -34.3860  -34.9460   56.2510 C   0  0  0  0  0
  -32.4690  -39.4620   51.8160 C   0  0  0  0  0
  -33.5420  -38.9520   51.2600 O   0  0  0  0  0
  -33.7420  -39.5070   53.9870 C   0  0  0  0  0
  -33.8200  -39.7310   55.3650 C   0  0  0  0  0
  -32.7070  -40.2460   56.0260 C   0  0  0  0  0
  -35.1180  -39.4600   56.1040 C   0  0  0  0  0
  -36.2410  -38.5170   58.0830 C   0  0  0  0  0
  -36.6340  -39.9970   57.9420 C   0  0  0  0  0
  -35.6550  -40.6360   56.9440 C   0  0  0  0  0
  -34.0690  -36.0800   56.9860 N   0  0  0  0  0
  -35.7790  -36.5380   55.5890 N   0  0  0  0  0
  -30.5693  -40.5628   53.4090 H   0  0  0  0  0
  -30.6830  -40.9548   55.8517 H   0  0  0  0  0
  -32.6280  -34.1278   57.6562 H   0  0  0  0  0
  -34.0789  -38.4169   57.7539 H   0  0  0  0  0
  -36.7662  -34.4812   53.8217 H   0  0  0  0  0
  -35.7710  -32.1963   53.8567 H   0  0  0  0  0
  -33.9506  -31.6496   55.4476 H   0  0  0  0  0
  -34.2314  -38.8608   51.9218 H   0  0  0  0  0
  -34.6087  -39.1100   53.4585 H   0  0  0  0  0
  -32.7485  -40.4165   57.1018 H   0  0  0  0  0
  -35.7700  -39.2124   55.2663 H   0  0  0  0  0
  -37.0544  -37.8552   57.7855 H   0  0  0  0  0
  -36.0235  -38.2560   59.1187 H   0  0  0  0  0
  -37.6597  -40.0888   57.5848 H   0  0  0  0  0
  -36.5811  -40.5012   58.9069 H   0  0  0  0  0
  -34.8517  -41.1701   57.4515 H   0  0  0  0  0
  -36.1437  -41.3865   56.3227 H   0  0  0  0  0
  1  2  4  0  0  0
  1 14  1  0  0  0
 16  1  4  0  0  0
  3  2  4  0  0  0
 18  3  4  0  0  0
 14  4  2  0  0  0
 12  5  1  0  0  0
  6  7  1  0  0  0
 19  6  1  0  0  0
  6 20  1  0  0  0
  7 23  4  0  0  0
  7 24  4  0  0  0
  8  9  4  0  0  0
  8 13  4  0  0  0
 24  8  4  0  0  0
  9 10  4  0  0  0
 10 11  4  0  0  0
 12 11  4  0  0  0
 13 12  4  0  0  0
 23 13  4  0  0  0
 14 15  1  0  0  0
 17 16  4  0  0  0
 17 18  4  0  0  0
 17 19  1  0  0  0
 19 22  1  0  0  0
 20 21  1  0  0  0
 21 22  1  0  0  0
  2 25  1  0  0  0
  3 26  1  0  0  0
  5 27  1  0  0  0
  6 28  1  0  0  0
  9 29  1  0  0  0
 10 30  1  0  0  0
 11 31  1  0  0  0
 15 32  1  0  0  0
 16 33  1  0  0  0
 18 34  1  0  0  0
 19 35  1  0  0  0
 20 36  1  0  0  0
 20 37  1  0  0  0
 21 38  1  0  0  0
 21 39  1  0  0  0
 22 40  1  0  0  0
 22 41  1  0  0  0
M  END
$$$$
