2uw8_ligand
  -I-interpret- 

 31 32  0  0  0  0  0  0  0  0999 V2000
   10.9790   10.4960    1.8390 C   0  0  0  0  0
   11.8140   11.4510    1.2840 C   0  0  0  0  0
   12.7810   12.0510    2.0750 C   0  0  0  0  0
   12.9300   11.7090    3.4050 C   0  0  0  0  0
    6.6960   10.4470    3.2780 C   0  0  0  0  0
    6.4160   10.9900    4.5290 C   0  0  0  0  0
    7.3680   10.9210    5.5320 C   0  0  0  0  0
    8.5970   10.3160    5.2930 C   0  0  0  0  0
   10.2300    9.1220    3.8160 C   0  0  0  0  0
    7.9240    9.8390    3.0370 C   0  0  0  0  0
    8.8780    9.7700    4.0470 C   0  0  0  0  0
   11.1270   10.1490    3.1740 C   0  0  0  0  0
   12.0960   10.7570    3.9550 C   0  0  0  0  0
   10.1490    7.8480    2.9600 C   0  0  0  0  0
   11.5040    7.2980    2.7980 N   0  3  0  0  0
   13.8270   13.2460    1.3960 Cl  0  0  0  0  0
   10.2101   10.0198    1.2307 H   0  0  0  0  0
   11.7117   11.7283    0.2348 H   0  0  0  0  0
   13.6982   12.1860    4.0136 H   0  0  0  0  0
    5.9505   10.4984    2.4845 H   0  0  0  0  0
    5.4538   11.4662    4.7176 H   0  0  0  0  0
    7.1530   11.3430    6.5137 H   0  0  0  0  0
    9.3429   10.2700    6.0865 H   0  0  0  0  0
   10.6330    8.7988    4.7758 H   0  0  0  0  0
    8.1388    9.4162    2.0556 H   0  0  0  0  0
   12.1999   10.4833    5.0049 H   0  0  0  0  0
    9.7279    8.0857    1.9832 H   0  0  0  0  0
    9.5089    7.1142    3.4498 H   0  0  0  0  0
   11.4604    6.4514    2.2307 H   0  0  0  0  0
   12.0967    7.9879    2.3364 H   0  0  0  0  0
   11.8909    7.0747    3.7150 H   0  0  0  0  0
  1  2  4  0  0  0
 12  1  4  0  0  0
  2  3  4  0  0  0
  3  4  4  0  0  0
  3 16  1  0  0  0
  4 13  4  0  0  0
  6  5  4  0  0  0
  5 10  4  0  0  0
  7  6  4  0  0  0
  8  7  4  0  0  0
 11  8  4  0  0  0
  9 11  1  0  0  0
  9 12  1  0  0  0
  9 14  1  0  0  0
 10 11  4  0  0  0
 12 13  4  0  0  0
 14 15  1  0  0  0
  1 17  1  0  0  0
  2 18  1  0  0  0
  4 19  1  0  0  0
  5 20  1  0  0  0
  6 21  1  0  0  0
  7 22  1  0  0  0
  8 23  1  0  0  0
  9 24  1  0  0  0
 10 25  1  0  0  0
 13 26  1  0  0  0
 14 27  1  0  0  0
 14 28  1  0  0  0
 15 29  1  0  0  0
 15 30  1  0  0  0
 15 31  1  0  0  0
M  END
$$$$
