### 
### Created by X-TOOL on Mon Sep 10 21:13:07 2018
### 

@<TRIPOS>MOLECULE
3sow_ligand
  113   112     1     0     0
SMALL
GAST_HUCK


@<TRIPOS>ATOM
      1 N         -13.4560   13.0360    4.3480 N.4       1 ALA         0.2377
      2 CA        -12.7570   13.1040    5.6340 C.3       1 ALA         0.0621
      3 C         -13.7040   13.2600    6.8180 C.2       1 ALA         0.2264
      4 O         -14.8390   13.7190    6.6790 O.2       1 ALA        -0.3907
      5 CB        -11.7250   14.2230    5.6320 C.3       1 ALA        -0.0040
      6 N         -13.2120   12.8770    7.9880 N.am      1 ARG        -0.2610
      7 CA        -13.9950   12.9000    9.2180 C.3       1 ARG         0.1312
      8 C         -14.0360   14.3180    9.7920 C.2       1 ARG         0.2040
      9 O         -13.0030   14.9810    9.9250 O.2       1 ARG        -0.3944
     10 CB        -13.3640   11.9310   10.2180 C.3       1 ARG        -0.0092
     11 CG        -14.1920   11.5810   11.4440 C.3       1 ARG        -0.0156
     12 CD        -13.4330   10.5290   12.2420 C.3       1 ARG         0.0627
     13 NE        -11.9990   10.6660   11.9780 N.pl3     1 ARG        -0.2723
     14 CZ        -11.0730   10.8510   12.9140 C.cat     1 ARG         0.2882
     15 NH1       -11.4210   10.8990   14.1950 N.pl3     1 ARG        -0.2849
     16 NH2        -9.7950   10.9760   12.5650 N.pl3     1 ARG        -0.2849
     17 N         -15.2350   14.7880   10.1090 N.am      1 THR        -0.2613
     18 CA        -15.3870   16.0710   10.7790 C.3       1 THR         0.1565
     19 C         -15.7590   15.8910   12.2550 C.2       1 THR         0.2065
     20 O         -16.1050   14.7910   12.6960 O.2       1 THR        -0.3943
     21 CB        -16.4510   16.9290   10.1030 C.3       1 THR         0.0924
     22 OG1       -17.7270   16.3000   10.2540 O.3       1 THR        -0.3874
     23 CG2       -16.1370   17.1010    8.6060 C.3       1 THR        -0.0346
     24 N         -15.6650   16.9770   13.0150 N.am      1 M3L        -0.2637
     25 CA        -16.0630   16.9650   14.4110 C.3       1 M3L         0.1310
     26 CB        -15.7550   18.2700   15.1520 C.3       1 M3L        -0.0122
     27 CG        -16.0690   18.3090   16.6310 C.3       1 M3L        -0.0440
     28 CD        -15.3360   17.3240   17.5320 C.3       1 M3L        -0.0123
     29 CE        -15.3280   17.6590   19.0210 C.3       1 M3L        -0.0309
     30 NZ        -14.8990   16.6310   19.9790 N.4       1 M3L         0.2369
     31 C         -17.4880   16.5200   14.5970 C.2       1 M3L         0.2039
     32 O         -17.8010   15.7770   15.5190 O.2       1 M3L        -0.3944
     33 CM1       -13.5400   16.2240   19.6540 C.3       1 M3L        -0.0418
     34 CM2       -16.0200   15.7580   20.2120 C.3       1 M3L        -0.0418
     35 CM3       -14.7050   17.2020   21.3140 C.3       1 M3L        -0.0418
     36 N         -18.3570   16.9780   13.7020 N.am      1 GLN        -0.2636
     37 CA        -19.7710   16.6320   13.7620 C.3       1 GLN         0.1330
     38 C         -19.9900   15.1270   13.5610 C.2       1 GLN         0.2036
     39 O         -21.0210   14.5840   13.9600 O.2       1 GLN        -0.3944
     40 CB        -20.5570   17.4360   12.7280 C.3       1 GLN         0.0045
     41 CG        -22.0530   17.2970   12.8840 C.3       1 GLN         0.0412
     42 CD        -22.8070   18.4040   12.1920 C.2       1 GLN         0.1737
     43 OE1       -23.1740   18.2850   11.0210 O.2       1 GLN        -0.3973
     44 NE2       -23.0390   19.5010   12.9130 N.am      1 GLN        -0.3009
     45 N         -19.0200   14.4600   12.9380 N.am      1 THR        -0.2670
     46 CA        -19.0420   13.0010   12.8130 C.3       1 THR         0.1198
     47 C         -17.8360   12.3740   13.5070 C.2       1 THR         0.0626
     48 O         -17.8410   12.1650   14.7180 O.co2     1 THR        -0.5665
     49 CB        -19.0650   12.5470   11.3370 C.3       1 THR         0.0869
     50 OG1       -18.7410   11.1510   11.2630 O.3       1 THR        -0.3880
     51 CG2       -18.0470   13.3200   10.5320 C.3       1 THR        -0.0352
     52 H         -14.1407   12.2804    4.3741 H         1 ALA         0.2015
     53 H         -13.9315   13.9214    4.1736 H         1 ALA         0.2015
     54 H         -12.7807   12.8591    3.6043 H         1 ALA         0.2015
     55 H         -12.2487   12.1477    5.7575 H         1 ALA         0.1095
     56 H         -12.2334   15.1843    5.5576 H         1 ALA         0.0310
     57 H         -11.1489   14.1859    6.5566 H         1 ALA         0.0310
     58 H         -11.0563   14.0973    4.7804 H         1 ALA         0.0310
     59 H         -12.2458   12.5528    8.0295 H         1 ARG         0.1884
     60 H         -15.0201   12.5923    9.0117 H         1 ARG         0.0800
     61 H         -12.4680   12.4263   10.5920 H         1 ARG         0.0313
     62 H         -13.2165   10.9957    9.6780 H         1 ARG         0.0313
     63 H         -15.1654   11.1942   11.1424 H         1 ARG         0.0301
     64 H         -14.3555   12.4697   12.0535 H         1 ARG         0.0301
     65 H         -13.7661    9.5344   11.9456 H         1 ARG         0.0689
     66 H         -13.6240   10.6688   13.3060 H         1 ARG         0.0689
     67 H         -11.6888   10.6160   11.0076 H         1 ARG         0.2642
     68 H         -12.3998   10.7939   14.4619 H         1 ARG         0.2615
     69 H         -10.7094   11.0410   14.9118 H         1 ARG         0.2615
     70 H          -9.5280   10.9298   11.5817 H         1 ARG         0.2615
     71 H          -9.0824   11.1180   13.2808 H         1 ARG         0.2615
     72 H         -16.0647   14.2410    9.8793 H         1 THR         0.1884
     73 H         -14.4226   16.5743   10.7106 H         1 THR         0.0826
     74 H         -16.4619   17.9132   10.5713 H         1 THR         0.0639
     75 H         -18.3997   16.8375    9.8295 H         1 THR         0.2101
     76 H         -15.1672   17.5855    8.4928 H         1 THR         0.0257
     77 H         -16.1140   16.1226    8.1262 H         1 THR         0.0257
     78 H         -16.9083   17.7163    8.1426 H         1 THR         0.0257
     79 H         -15.3045   17.8398   12.6077 H         1 M3L         0.1883
     80 H         -15.4329   16.2117   14.8840 H         1 M3L         0.0800
     81 H         -16.3875   19.0298   14.6929 H         1 M3L         0.0312
     82 H         -14.6770   18.4106   15.0724 H         1 M3L         0.0312
     83 H         -17.1250   18.0520   16.7135 H         1 M3L         0.0269
     84 H         -15.7639   19.2991   16.9696 H         1 M3L         0.0269
     85 H         -14.2945   17.3314   17.2107 H         1 M3L         0.0317
     86 H         -15.8586   16.3724   17.4348 H         1 M3L         0.0317
     87 H         -16.3704   17.8579   19.2700 H         1 M3L         0.0815
     88 H         -14.5982   18.4620   19.1246 H         1 M3L         0.0815
     89 H         -13.5154   15.8197   18.6421 H         1 M3L         0.0778
     90 H         -12.8783   17.0879   19.7177 H         1 M3L         0.0778
     91 H         -13.2121   15.4608   20.3597 H         1 M3L         0.0778
     92 H         -16.8499   16.3353   20.6196 H         1 M3L         0.0778
     93 H         -16.3228   15.2986   19.2711 H         1 M3L         0.0778
     94 H         -15.7330   14.9816   20.9211 H         1 M3L         0.0778
     95 H         -13.9405   17.9776   21.2684 H         1 M3L         0.0778
     96 H         -15.6428   17.6345   21.6626 H         1 M3L         0.0778
     97 H         -14.3878   16.4173   22.0008 H         1 M3L         0.0778
     98 H         -18.0257   17.5872   12.9540 H         1 GLN         0.1883
     99 H         -20.1378   16.8864   14.7564 H         1 GLN         0.0801
    100 H         -20.2898   17.0582   11.7411 H         1 GLN         0.0337
    101 H         -20.3055   18.4878   12.8645 H         1 GLN         0.0337
    102 H         -22.2873   17.3423   13.9476 H         1 GLN         0.0504
    103 H         -22.3531   16.3510   12.4333 H         1 GLN         0.0504
    104 H         -23.5395   20.2873   12.4986 H         1 GLN         0.1814
    105 H         -22.7161   19.5541   13.8791 H         1 GLN         0.1814
    106 H         -18.2397   14.9801   12.5366 H         1 THR         0.1876
    107 H         -19.9591   12.6628   13.2953 H         1 THR         0.0752
    108 O         -16.8201   12.0660   12.8282 O.co2     1 THR        -0.5665
    109 H         -20.0608   12.7290   10.9328 H         1 THR         0.0632
    110 H         -17.8656   11.0069   11.6298 H         1 THR         0.2100
    111 H         -18.2793   14.3839   10.5803 H         1 THR         0.0256
    112 H         -17.0524   13.1450   10.9423 H         1 THR         0.0256
    113 H         -18.0772   12.9870    9.4946 H         1 THR         0.0256
@<TRIPOS>BOND
     1    1    2 1  
     2    2    3 1  
     3    2    5 1  
     4    3    4 2  
     5    3    6 am 
     6    6    7 1  
     7    7    8 1  
     8    7   10 1  
     9    8    9 2  
    10    8   17 am 
    11   10   11 1  
    12   11   12 1  
    13   12   13 1  
    14   13   14 ar 
    15   14   15 ar 
    16   14   16 ar 
    17   17   18 1  
    18   18   19 1  
    19   18   21 1  
    20   19   20 2  
    21   19   24 am 
    22   21   22 1  
    23   21   23 1  
    24   24   25 1  
    25   25   26 1  
    26   25   31 1  
    27   26   27 1  
    28   27   28 1  
    29   28   29 1  
    30   29   30 1  
    31   30   33 1  
    32   30   34 1  
    33   30   35 1  
    34   31   32 2  
    35   31   36 am 
    36   36   37 1  
    37   37   38 1  
    38   37   40 1  
    39   38   39 2  
    40   38   45 am 
    41   40   41 1  
    42   41   42 1  
    43   42   43 2  
    44   42   44 am 
    45   45   46 1  
    46   46   47 1  
    47   46   49 1  
    48   47   48 ar 
    49   49   50 1  
    50   49   51 1  
    51    1   52 1  
    52    1   53 1  
    53    1   54 1  
    54    2   55 1  
    55    5   56 1  
    56    5   57 1  
    57    5   58 1  
    58    6   59 1  
    59    7   60 1  
    60   10   61 1  
    61   10   62 1  
    62   11   63 1  
    63   11   64 1  
    64   12   65 1  
    65   12   66 1  
    66   13   67 1  
    67   15   68 1  
    68   15   69 1  
    69   16   70 1  
    70   16   71 1  
    71   17   72 1  
    72   18   73 1  
    73   21   74 1  
    74   22   75 1  
    75   23   76 1  
    76   23   77 1  
    77   23   78 1  
    78   24   79 1  
    79   25   80 1  
    80   26   81 1  
    81   26   82 1  
    82   27   83 1  
    83   27   84 1  
    84   28   85 1  
    85   28   86 1  
    86   29   87 1  
    87   29   88 1  
    88   33   89 1  
    89   33   90 1  
    90   33   91 1  
    91   34   92 1  
    92   34   93 1  
    93   34   94 1  
    94   35   95 1  
    95   35   96 1  
    96   35   97 1  
    97   36   98 1  
    98   37   99 1  
    99   40  100 1  
   100   40  101 1  
   101   41  102 1  
   102   41  103 1  
   103   44  104 1  
   104   44  105 1  
   105   45  106 1  
   106   46  107 1  
   107   47  108 ar 
   108   49  109 1  
   109   50  110 1  
   110   51  111 1  
   111   51  112 1  
   112   51  113 1  
@<TRIPOS>SUBSTRUCTURE
     1 ALA         1

