3sow_ligand
  -I-interpret- 

113112  0  0  0  0  0  0  0  0999 V2000
  -13.4560   13.0360    4.3480 N   0  3  0  0  0
  -12.7570   13.1040    5.6340 C   0  0  0  0  0
  -13.7040   13.2600    6.8180 C   0  0  0  0  0
  -14.8390   13.7190    6.6790 O   0  0  0  0  0
  -11.7250   14.2230    5.6320 C   0  0  0  0  0
  -13.2120   12.8770    7.9880 N   0  0  0  0  0
  -13.9950   12.9000    9.2180 C   0  0  0  0  0
  -14.0360   14.3180    9.7920 C   0  0  0  0  0
  -13.0030   14.9810    9.9250 O   0  0  0  0  0
  -13.3640   11.9310   10.2180 C   0  0  0  0  0
  -14.1920   11.5810   11.4440 C   0  0  0  0  0
  -13.4330   10.5290   12.2420 C   0  0  0  0  0
  -11.9990   10.6660   11.9780 N   0  0  0  0  0
  -11.0730   10.8510   12.9140 C   0  0  0  0  0
  -11.4210   10.8990   14.1950 N   0  0  0  0  0
   -9.7950   10.9760   12.5650 N   0  0  0  0  0
  -15.2350   14.7880   10.1090 N   0  0  0  0  0
  -15.3870   16.0710   10.7790 C   0  0  0  0  0
  -15.7590   15.8910   12.2550 C   0  0  0  0  0
  -16.1050   14.7910   12.6960 O   0  0  0  0  0
  -16.4510   16.9290   10.1030 C   0  0  0  0  0
  -17.7270   16.3000   10.2540 O   0  0  0  0  0
  -16.1370   17.1010    8.6060 C   0  0  0  0  0
  -15.6650   16.9770   13.0150 N   0  0  0  0  0
  -16.0630   16.9650   14.4110 C   0  0  0  0  0
  -15.7550   18.2700   15.1520 C   0  0  0  0  0
  -16.0690   18.3090   16.6310 C   0  0  0  0  0
  -15.3360   17.3240   17.5320 C   0  0  0  0  0
  -15.3280   17.6590   19.0210 C   0  0  0  0  0
  -14.8990   16.6310   19.9790 N   0  3  0  0  0
  -17.4880   16.5200   14.5970 C   0  0  0  0  0
  -17.8010   15.7770   15.5190 O   0  0  0  0  0
  -13.5400   16.2240   19.6540 C   0  0  0  0  0
  -16.0200   15.7580   20.2120 C   0  0  0  0  0
  -14.7050   17.2020   21.3140 C   0  0  0  0  0
  -18.3570   16.9780   13.7020 N   0  0  0  0  0
  -19.7710   16.6320   13.7620 C   0  0  0  0  0
  -19.9900   15.1270   13.5610 C   0  0  0  0  0
  -21.0210   14.5840   13.9600 O   0  0  0  0  0
  -20.5570   17.4360   12.7280 C   0  0  0  0  0
  -22.0530   17.2970   12.8840 C   0  0  0  0  0
  -22.8070   18.4040   12.1920 C   0  0  0  0  0
  -23.1740   18.2850   11.0210 O   0  0  0  0  0
  -23.0390   19.5010   12.9130 N   0  0  0  0  0
  -19.0200   14.4600   12.9380 N   0  0  0  0  0
  -19.0420   13.0010   12.8130 C   0  0  0  0  0
  -17.8360   12.3740   13.5070 C   0  0  0  0  0
  -17.8410   12.1650   14.7180 O   0  0  0  0  0
  -19.0650   12.5470   11.3370 C   0  0  0  0  0
  -18.7410   11.1510   11.2630 O   0  0  0  0  0
  -18.0470   13.3200   10.5320 C   0  0  0  0  0
  -16.8201   12.0660   12.8282 O   0  0  0  0  0
  -14.1407   12.2804    4.3741 H   0  0  0  0  0
  -13.9315   13.9214    4.1736 H   0  0  0  0  0
  -12.7807   12.8591    3.6043 H   0  0  0  0  0
  -12.2487   12.1477    5.7575 H   0  0  0  0  0
  -12.2334   15.1843    5.5576 H   0  0  0  0  0
  -11.1489   14.1859    6.5566 H   0  0  0  0  0
  -11.0563   14.0973    4.7804 H   0  0  0  0  0
  -12.2458   12.5528    8.0295 H   0  0  0  0  0
  -15.0201   12.5923    9.0117 H   0  0  0  0  0
  -12.4680   12.4263   10.5920 H   0  0  0  0  0
  -13.2165   10.9957    9.6780 H   0  0  0  0  0
  -15.1654   11.1942   11.1424 H   0  0  0  0  0
  -14.3555   12.4697   12.0535 H   0  0  0  0  0
  -13.7661    9.5344   11.9456 H   0  0  0  0  0
  -13.6240   10.6688   13.3060 H   0  0  0  0  0
  -11.6888   10.6160   11.0076 H   0  0  0  0  0
  -12.3998   10.7939   14.4619 H   0  0  0  0  0
   -9.0813   11.1089   13.2815 H   0  0  0  0  0
   -9.5291   10.9390   11.5810 H   0  0  0  0  0
  -16.0647   14.2410    9.8793 H   0  0  0  0  0
  -14.4226   16.5743   10.7106 H   0  0  0  0  0
  -16.4619   17.9132   10.5713 H   0  0  0  0  0
  -18.3997   16.8375    9.8295 H   0  0  0  0  0
  -15.1672   17.5855    8.4928 H   0  0  0  0  0
  -16.1140   16.1226    8.1262 H   0  0  0  0  0
  -16.9083   17.7163    8.1426 H   0  0  0  0  0
  -15.3045   17.8398   12.6077 H   0  0  0  0  0
  -15.4329   16.2117   14.8840 H   0  0  0  0  0
  -16.3875   19.0298   14.6929 H   0  0  0  0  0
  -14.6770   18.4106   15.0724 H   0  0  0  0  0
  -17.1250   18.0520   16.7135 H   0  0  0  0  0
  -15.7639   19.2991   16.9696 H   0  0  0  0  0
  -14.2945   17.3314   17.2107 H   0  0  0  0  0
  -15.8586   16.3724   17.4348 H   0  0  0  0  0
  -16.3704   17.8579   19.2700 H   0  0  0  0  0
  -14.5982   18.4620   19.1246 H   0  0  0  0  0
  -13.5154   15.8197   18.6421 H   0  0  0  0  0
  -12.8783   17.0879   19.7177 H   0  0  0  0  0
  -13.2121   15.4608   20.3597 H   0  0  0  0  0
  -16.8499   16.3353   20.6196 H   0  0  0  0  0
  -16.3228   15.2986   19.2711 H   0  0  0  0  0
  -15.7330   14.9816   20.9211 H   0  0  0  0  0
  -13.9405   17.9776   21.2684 H   0  0  0  0  0
  -15.6428   17.6345   21.6626 H   0  0  0  0  0
  -14.3878   16.4173   22.0008 H   0  0  0  0  0
  -18.0257   17.5872   12.9540 H   0  0  0  0  0
  -20.1378   16.8864   14.7564 H   0  0  0  0  0
  -20.2898   17.0582   11.7411 H   0  0  0  0  0
  -20.3055   18.4878   12.8645 H   0  0  0  0  0
  -22.2873   17.3423   13.9476 H   0  0  0  0  0
  -22.3531   16.3510   12.4333 H   0  0  0  0  0
  -23.5395   20.2873   12.4986 H   0  0  0  0  0
  -22.7161   19.5541   13.8791 H   0  0  0  0  0
  -18.2397   14.9801   12.5366 H   0  0  0  0  0
  -19.9591   12.6628   13.2953 H   0  0  0  0  0
  -20.0608   12.7290   10.9328 H   0  0  0  0  0
  -18.7552   10.8685   10.3456 H   0  0  0  0  0
  -18.2793   14.3839   10.5803 H   0  0  0  0  0
  -17.0524   13.1450   10.9423 H   0  0  0  0  0
  -18.0772   12.9870    9.4946 H   0  0  0  0  0
  -16.9720   12.2903   11.9072 H   0  0  0  0  0
  1  2  1  0  0  0
  2  3  1  0  0  0
  2  5  1  0  0  0
  3  4  2  0  0  0
  3  6  1  0  0  0
  6  7  1  0  0  0
  7  8  1  0  0  0
  7 10  1  0  0  0
  8  9  2  0  0  0
  8 17  1  0  0  0
 10 11  1  0  0  0
 11 12  1  0  0  0
 12 13  1  0  0  0
 13 14  1  0  0  0
 14 15  2  0  0  0
 14 16  1  0  0  0
 17 18  1  0  0  0
 18 19  1  0  0  0
 18 21  1  0  0  0
 19 20  2  0  0  0
 19 24  1  0  0  0
 21 22  1  0  0  0
 21 23  1  0  0  0
 24 25  1  0  0  0
 25 26  1  0  0  0
 25 31  1  0  0  0
 26 27  1  0  0  0
 27 28  1  0  0  0
 28 29  1  0  0  0
 29 30  1  0  0  0
 30 33  1  0  0  0
 30 34  1  0  0  0
 30 35  1  0  0  0
 31 32  2  0  0  0
 31 36  1  0  0  0
 36 37  1  0  0  0
 37 38  1  0  0  0
 37 40  1  0  0  0
 38 39  2  0  0  0
 38 45  1  0  0  0
 40 41  1  0  0  0
 41 42  1  0  0  0
 42 43  2  0  0  0
 42 44  1  0  0  0
 45 46  1  0  0  0
 46 47  1  0  0  0
 46 49  1  0  0  0
 47 48  2  0  0  0
 49 50  1  0  0  0
 49 51  1  0  0  0
 47 52  1  0  0  0
  1 53  1  0  0  0
  1 54  1  0  0  0
  1 55  1  0  0  0
  2 56  1  0  0  0
  5 57  1  0  0  0
  5 58  1  0  0  0
  5 59  1  0  0  0
  6 60  1  0  0  0
  7 61  1  0  0  0
 10 62  1  0  0  0
 10 63  1  0  0  0
 11 64  1  0  0  0
 11 65  1  0  0  0
 12 66  1  0  0  0
 12 67  1  0  0  0
 13 68  1  0  0  0
 15 69  1  0  0  0
 16 70  1  0  0  0
 16 71  1  0  0  0
 17 72  1  0  0  0
 18 73  1  0  0  0
 21 74  1  0  0  0
 22 75  1  0  0  0
 23 76  1  0  0  0
 23 77  1  0  0  0
 23 78  1  0  0  0
 24 79  1  0  0  0
 25 80  1  0  0  0
 26 81  1  0  0  0
 26 82  1  0  0  0
 27 83  1  0  0  0
 27 84  1  0  0  0
 28 85  1  0  0  0
 28 86  1  0  0  0
 29 87  1  0  0  0
 29 88  1  0  0  0
 33 89  1  0  0  0
 33 90  1  0  0  0
 33 91  1  0  0  0
 34 92  1  0  0  0
 34 93  1  0  0  0
 34 94  1  0  0  0
 35 95  1  0  0  0
 35 96  1  0  0  0
 35 97  1  0  0  0
 36 98  1  0  0  0
 37 99  1  0  0  0
 40100  1  0  0  0
 40101  1  0  0  0
 41102  1  0  0  0
 41103  1  0  0  0
 44104  1  0  0  0
 44105  1  0  0  0
 45106  1  0  0  0
 46107  1  0  0  0
 49108  1  0  0  0
 50109  1  0  0  0
 51110  1  0  0  0
 51111  1  0  0  0
 51112  1  0  0  0
 52113  1  0  0  0
M  END
$$$$
