3wi2_ligand
  -I-interpret- 

 53 57  0  0  0  0  0  0  0  0999 V2000
   19.4890    3.5550   63.0760 C   0  0  0  0  0
   26.3060    5.3400   53.5370 C   0  0  0  0  0
   26.5190    4.7150   54.7490 C   0  0  0  0  0
   20.1450    2.8200   62.1160 C   0  0  0  0  0
   18.2310    4.0390   62.8120 C   0  0  0  0  0
   25.0810    5.8870   53.2120 C   0  0  0  0  0
   22.8460    6.3230   53.8190 C   0  0  0  0  0
   25.4850    4.6430   55.6540 C   0  0  0  0  0
   16.7280    3.5370   56.1930 C   0  0  0  0  0
   19.5430    2.5590   60.8970 C   0  0  0  0  0
   17.6120    3.7730   61.6140 C   0  0  0  0  0
   17.7650    4.3660   55.8240 C   0  0  0  0  0
   21.8380    6.2210   54.7550 C   0  0  0  0  0
   18.9160    4.1840   57.9520 C   0  0  0  0  0
   24.0690    5.7880   54.1400 C   0  0  0  0  0
   24.2420    5.1740   55.3730 C   0  0  0  0  0
   16.7950    3.0380   57.4830 C   0  0  0  0  0
   17.8640    3.3650   58.2990 C   0  0  0  0  0
   18.2720    3.0290   60.6600 C   0  0  0  0  0
   18.8280    4.6780   56.6650 C   0  0  0  0  0
   22.0760    5.6050   55.9610 C   0  0  0  0  0
   16.4420    2.0260   59.3270 C   0  0  0  0  0
   15.7970   -0.2270   59.7750 C   0  0  0  0  0
   14.5260    1.5690   60.9180 C   0  0  0  0  0
   20.9680    5.5080   56.9440 C   0  0  0  0  0
   15.8810    1.1650   60.3890 C   0  0  0  0  0
   23.2580    5.0830   56.2900 N   0  0  0  0  0
   15.9210    2.1960   58.1310 N   0  0  0  0  0
   17.6230    2.7140   59.4620 N   0  0  0  0  0
   19.7940    5.5310   56.1500 O   0  0  0  0  0
   19.9632    3.7515   64.0375 H   0  0  0  0  0
   27.1243    5.4031   52.8197 H   0  0  0  0  0
   27.4921    4.2847   54.9858 H   0  0  0  0  0
   21.1467    2.4401   62.3167 H   0  0  0  0  0
   17.7174    4.6412   63.5615 H   0  0  0  0  0
   24.9205    6.3804   52.2534 H   0  0  0  0  0
   22.6776    6.8109   52.8589 H   0  0  0  0  0
   25.6511    4.1556   56.6147 H   0  0  0  0  0
   15.9104    3.2907   55.5155 H   0  0  0  0  0
   20.0703    1.9873   60.1333 H   0  0  0  0  0
   16.6069    4.1476   61.4200 H   0  0  0  0  0
   17.7516    4.7986   54.8236 H   0  0  0  0  0
   20.8510    6.6295   54.5382 H   0  0  0  0  0
   19.7383    4.4194   58.6277 H   0  0  0  0  0
   15.1489   -0.1978   58.8991 H   0  0  0  0  0
   16.7943   -0.5534   59.4800 H   0  0  0  0  0
   15.3879   -0.9221   60.5082 H   0  0  0  0  0
   14.5864    2.5723   61.3398 H   0  0  0  0  0
   13.8016    1.5589   60.1036 H   0  0  0  0  0
   14.2151    0.8665   61.6913 H   0  0  0  0  0
   20.9896    6.3216   57.6690 H   0  0  0  0  0
   21.0355    4.6054   57.5514 H   0  0  0  0  0
   16.5297    1.2367   61.2620 H   0  0  0  0  0
  4  1  4  0  0  0
  5  1  4  0  0  0
  3  2  4  0  0  0
  6  2  4  0  0  0
  8  3  4  0  0  0
 10  4  4  0  0  0
 11  5  4  0  0  0
 15  6  4  0  0  0
 13  7  4  0  0  0
  7 15  4  0  0  0
 16  8  4  0  0  0
 12  9  4  0  0  0
  9 17  4  0  0  0
 19 10  4  0  0  0
 19 11  4  0  0  0
 20 12  4  0  0  0
 21 13  4  0  0  0
 14 18  4  0  0  0
 20 14  4  0  0  0
 16 15  4  0  0  0
 27 16  4  0  0  0
 18 17  4  0  0  0
 17 28  4  0  0  0
 18 29  4  0  0  0
 29 19  1  0  0  0
 30 20  1  0  0  0
 25 21  1  0  0  0
 21 27  4  0  0  0
 22 26  1  0  0  0
 22 28  4  0  0  0
 29 22  4  0  0  0
 26 23  1  0  0  0
 26 24  1  0  0  0
 25 30  1  0  0  0
  1 31  1  0  0  0
  2 32  1  0  0  0
  3 33  1  0  0  0
  4 34  1  0  0  0
  5 35  1  0  0  0
  6 36  1  0  0  0
  7 37  1  0  0  0
  8 38  1  0  0  0
  9 39  1  0  0  0
 10 40  1  0  0  0
 11 41  1  0  0  0
 12 42  1  0  0  0
 13 43  1  0  0  0
 14 44  1  0  0  0
 23 45  1  0  0  0
 23 46  1  0  0  0
 23 47  1  0  0  0
 24 48  1  0  0  0
 24 49  1  0  0  0
 24 50  1  0  0  0
 25 51  1  0  0  0
 25 52  1  0  0  0
 26 53  1  0  0  0
M  END
$$$$
