3t2v_ligand
  -I-interpret- 

 48 47  0  0  0  0  0  0  0  0999 V2000
  -33.9510  -17.3520  -41.2190 O   0  0  0  0  0
  -34.0330  -18.4540  -40.3110 C   0  0  0  0  0
  -34.5280  -19.7330  -41.0620 C   0  0  0  0  0
  -36.0100  -19.5200  -41.4330 C   0  0  0  0  0
  -36.6450  -18.5410  -40.9570 O   0  0  0  0  0
  -36.6040  -20.3100  -42.2120 O   0  0  0  0  0
  -32.6790  -18.6280  -39.6050 C   0  0  0  0  0
  -32.8450  -19.2280  -38.1980 C   0  0  0  0  0
  -31.7820  -20.2770  -37.8220 C   0  0  0  0  0
  -31.7050  -21.4470  -38.8130 C   0  0  0  0  0
  -31.9950  -22.7980  -38.1760 C   0  0  0  0  0
  -32.4830  -23.7830  -39.2280 C   0  0  0  0  0
  -33.5930  -20.1050  -42.2560 C   0  0  0  0  0
  -33.9360  -21.3460  -43.1040 C   0  0  0  0  0
  -34.4300  -22.6070  -42.3520 C   0  0  0  0  0
  -35.6900  -23.2020  -42.9770 C   0  0  0  0  0
  -35.8720  -24.6740  -42.6200 C   0  0  0  0  0
  -35.7650  -25.5280  -43.8770 C   0  0  0  0  0
  -34.7953  -17.2403  -41.6620 H   0  0  0  0  0
  -34.7714  -18.2632  -39.5322 H   0  0  0  0  0
  -34.4724  -20.6117  -40.4195 H   0  0  0  0  0
  -36.0653  -18.0325  -40.3852 H   0  0  0  0  0
  -32.2134  -17.6472  -39.5078 H   0  0  0  0  0
  -32.0667  -19.3071  -40.1983 H   0  0  0  0  0
  -33.8115  -19.7316  -38.1778 H   0  0  0  0  0
  -32.7485  -18.4070  -37.4875 H   0  0  0  0  0
  -32.0538  -20.6869  -36.8493 H   0  0  0  0  0
  -30.8125  -19.7788  -37.8250 H   0  0  0  0  0
  -30.6883  -21.4797  -39.2046 H   0  0  0  0  0
  -32.4593  -21.2772  -39.5813 H   0  0  0  0  0
  -32.7678  -22.6754  -37.4171 H   0  0  0  0  0
  -31.0804  -23.1828  -37.7249 H   0  0  0  0  0
  -33.3955  -23.4012  -39.6858 H   0  0  0  0  0
  -31.7156  -23.9063  -39.9922 H   0  0  0  0  0
  -32.6862  -24.7447  -38.7569 H   0  0  0  0  0
  -32.6280  -20.3296  -41.8016 H   0  0  0  0  0
  -33.6628  -19.2627  -42.9443 H   0  0  0  0  0
  -33.0046  -21.6381  -43.5891 H   0  0  0  0  0
  -34.7623  -21.0440  -43.7476 H   0  0  0  0  0
  -34.6660  -22.3178  -41.3279 H   0  0  0  0  0
  -33.6423  -23.3588  -42.4009 H   0  0  0  0  0
  -35.5994  -23.1250  -44.0605 H   0  0  0  0  0
  -36.5499  -22.6520  -42.5947 H   0  0  0  0  0
  -36.8547  -24.8166  -42.1705 H   0  0  0  0  0
  -35.0959  -24.9721  -41.9151 H   0  0  0  0  0
  -36.5391  -25.2300  -44.5841 H   0  0  0  0  0
  -34.7836  -25.3853  -44.3292 H   0  0  0  0  0
  -35.8960  -26.5776  -43.6138 H   0  0  0  0  0
  1  2  1  0  0  0
  2  3  1  0  0  0
  2  7  1  0  0  0
  3  4  1  0  0  0
  3 13  1  0  0  0
  4  5  1  0  0  0
  4  6  2  0  0  0
  7  8  1  0  0  0
  8  9  1  0  0  0
  9 10  1  0  0  0
 10 11  1  0  0  0
 11 12  1  0  0  0
 13 14  1  0  0  0
 14 15  1  0  0  0
 15 16  1  0  0  0
 16 17  1  0  0  0
 17 18  1  0  0  0
  1 19  1  0  0  0
  2 20  1  0  0  0
  3 21  1  0  0  0
  5 22  1  0  0  0
  7 23  1  0  0  0
  7 24  1  0  0  0
  8 25  1  0  0  0
  8 26  1  0  0  0
  9 27  1  0  0  0
  9 28  1  0  0  0
 10 29  1  0  0  0
 10 30  1  0  0  0
 11 31  1  0  0  0
 11 32  1  0  0  0
 12 33  1  0  0  0
 12 34  1  0  0  0
 12 35  1  0  0  0
 13 36  1  0  0  0
 13 37  1  0  0  0
 14 38  1  0  0  0
 14 39  1  0  0  0
 15 40  1  0  0  0
 15 41  1  0  0  0
 16 42  1  0  0  0
 16 43  1  0  0  0
 17 44  1  0  0  0
 17 45  1  0  0  0
 18 46  1  0  0  0
 18 47  1  0  0  0
 18 48  1  0  0  0
M  END
$$$$
