### 
### Created by X-TOOL on Mon Sep 10 21:13:13 2018
### 

@<TRIPOS>MOLECULE
4gw5_ligand
  191   192     1     0     0
SMALL
GAST_HUCK


@<TRIPOS>ATOM
      1 N          17.3600    7.9810   27.9330 N.4       1 CYS         0.2385
      2 CA         15.9550    8.3060   28.1620 C.3       1 CYS         0.0749
      3 C          15.0370    7.2700   27.5180 C.2       1 CYS         0.2275
      4 O          15.1090    7.0220   26.3110 O.2       1 CYS        -0.3907
      5 CB         15.6350    9.7020   27.6250 C.3       1 CYS         0.0643
      6 SG         13.9560   10.2950   27.9700 S.3       1 CYS        -0.0848
      7 N          14.1660    6.6710   28.3220 N.am      1 GLN        -0.2608
      8 CA         13.3220    5.5910   27.8280 C.3       1 GLN         0.1331
      9 C          11.9100    5.5840   28.4090 C.2       1 GLN         0.2042
     10 O          11.6370    6.2000   29.4430 O.2       1 GLN        -0.3944
     11 CB         14.0020    4.2410   28.0640 C.3       1 GLN         0.0045
     12 CG         14.2100    3.8800   29.5230 C.3       1 GLN         0.0412
     13 CD         15.0780    2.6450   29.6890 C.2       1 GLN         0.1737
     14 OE1        16.0600    2.4600   28.9650 O.2       1 GLN        -0.3973
     15 NE2        14.7150    1.7870   30.6390 N.am      1 GLN        -0.3009
     16 N          11.0160    4.8730   27.7290 N.am      1 TYR        -0.2621
     17 CA          9.6280    4.7770   28.1540 C.3       1 TYR         0.1390
     18 C           9.5030    3.9510   29.4330 C.2       1 TYR         0.2059
     19 O          10.1050    2.8810   29.5560 O.2       1 TYR        -0.3942
     20 CB          8.7760    4.1720   27.0420 C.3       1 TYR         0.0163
     21 CG          7.2890    4.2560   27.2990 C.ar      1 TYR        -0.0493
     22 CD1         6.5900    5.4300   27.0500 C.ar      1 TYR        -0.0685
     23 CD2         6.5830    3.1600   27.7880 C.ar      1 TYR        -0.0685
     24 CE1         5.2250    5.5110   27.2800 C.ar      1 TYR        -0.0398
     25 CE2         5.2190    3.2300   28.0200 C.ar      1 TYR        -0.0398
     26 CZ          4.5460    4.4080   27.7640 C.ar      1 TYR         0.0805
     27 OH          3.1930    4.4920   27.9900 O.3       1 TYR        -0.3376
     28 N           8.7250    4.4630   30.3830 N.am      1 ASN        -0.2615
     29 CA          8.5580    3.8280   31.6910 C.3       1 ASN         0.1476
     30 C           7.1450    3.2660   31.8250 C.2       1 ASN         0.2063
     31 O           6.1700    3.9840   31.6150 O.2       1 ASN        -0.3942
     32 CB          8.8340    4.8430   32.8020 C.3       1 ASN         0.0773
     33 CG          8.8610    4.2140   34.1820 C.2       1 ASN         0.1780
     34 OD1         7.8320    3.7930   34.7000 O.2       1 ASN        -0.3970
     35 ND2        10.0420    4.1670   34.7920 N.am      1 ASN        -0.3007
     36 N           7.0330    1.9880   32.1770 N.am      1 LEU        -0.2636
     37 CA          5.7350    1.3070   32.1390 C.3       1 LEU         0.1312
     38 C           4.8110    1.6300   33.3220 C.2       1 LEU         0.2040
     39 O           3.5940    1.4580   33.2220 O.2       1 LEU        -0.3944
     40 CB          5.9200   -0.2060   31.9820 C.3       1 LEU        -0.0101
     41 CG          6.6600   -0.6620   30.7140 C.3       1 LEU        -0.0425
     42 CD1         6.8860   -2.1630   30.7470 C.3       1 LEU        -0.0625
     43 CD2         5.9190   -0.2560   29.4390 C.3       1 LEU        -0.0625
     44 N           5.3900    2.0980   34.4300 N.am      1 SER        -0.2616
     45 CA          4.6260    2.4820   35.6210 C.3       1 SER         0.1539
     46 C           4.0650    3.9040   35.5130 C.2       1 SER         0.2062
     47 O           2.8970    4.1510   35.8230 O.2       1 SER        -0.3943
     48 CB          5.4930    2.3650   36.8830 C.3       1 SER         0.0843
     49 OG          5.8850    1.0230   37.1110 O.3       1 SER        -0.3903
     50 N           4.9100    4.8380   35.0830 N.am      1 SER        -0.2615
     51 CA          4.4920    6.2230   34.9010 C.3       1 SER         0.1539
     52 C           3.8360    6.4490   33.5280 C.2       1 SER         0.2062
     53 O           3.1260    7.4370   33.3340 O.2       1 SER        -0.3943
     54 CB          5.6750    7.1820   35.1180 C.3       1 SER         0.0843
     55 OG          6.6340    7.0720   34.0790 O.3       1 SER        -0.3903
     56 N           4.0740    5.5260   32.5910 N.am      1 ARG        -0.2637
     57 CA          3.5330    5.6090   31.2200 C.3       1 ARG         0.1311
     58 C           3.9110    6.8950   30.4850 C.2       1 ARG         0.2039
     59 O           3.0570    7.5730   29.9150 O.2       1 ARG        -0.3944
     60 CB          2.0170    5.4460   31.2180 C.3       1 ARG        -0.0092
     61 CG          1.5330    4.1320   31.7810 C.3       1 ARG        -0.0156
     62 CD          1.7470    3.0150   30.7980 C.3       1 ARG         0.0627
     63 NE          1.0310    1.8180   31.2140 N.pl3     1 ARG        -0.2723
     64 CZ         -0.2180    1.5300   30.8580 C.cat     1 ARG         0.2882
     65 NH1        -0.8940    2.3510   30.0600 N.pl3     1 ARG        -0.2849
     66 NH2        -0.7880    0.4170   31.3000 N.pl3     1 ARG        -0.2849
     67 N           5.2020    7.2100   30.5210 N.am      1 ALA        -0.2640
     68 CA          5.7610    8.4030   29.9100 C.3       1 ALA         0.1282
     69 C           7.2680    8.1770   29.8240 C.2       1 ALA         0.2036
     70 O           7.7940    7.2650   30.4720 O.2       1 ALA        -0.3944
     71 CB          5.4470    9.6310   30.7630 C.3       1 ALA        -0.0244
     72 N           7.9640    8.9850   29.0290 N.am      1 LEU        -0.2637
     73 CA          9.4200    8.8790   28.9700 C.3       1 LEU         0.1312
     74 C          10.0330    9.1930   30.3410 C.2       1 LEU         0.2039
     75 O           9.5520   10.0730   31.0610 O.2       1 LEU        -0.3944
     76 CB         10.0080    9.7640   27.8640 C.3       1 LEU        -0.0101
     77 CG          9.7280    9.2880   26.4280 C.3       1 LEU        -0.0425
     78 CD1        10.1810   10.3130   25.3780 C.3       1 LEU        -0.0625
     79 CD2        10.3660    7.9290   26.1670 C.3       1 LEU        -0.0625
     80 N          11.0760    8.4460   30.6980 N.am      1 LYS        -0.2637
     81 CA         11.7110    8.5430   32.0130 C.3       1 LYS         0.1309
     82 C          13.2010    8.8350   31.8750 C.2       1 LYS         0.2034
     83 O          14.0230    7.9240   31.9260 O.2       1 LYS        -0.3944
     84 CB         11.5250    7.2280   32.7760 C.3       1 LYS        -0.0122
     85 CG         11.0300    7.3630   34.2100 C.3       1 LYS        -0.0440
     86 CD         12.0990    7.9190   35.1340 C.3       1 LYS        -0.0124
     87 CE         11.5990    7.9620   36.5670 C.3       1 LYS        -0.0354
     88 NZ         12.5390    8.6680   37.4850 N.4       1 LYS         0.2185
     89 N          13.5500   10.1050   31.7100 N.am      1 CYS        -0.2687
     90 CA         14.9420   10.4860   31.4890 C.3       1 CYS         0.1041
     91 C          15.7560   10.5450   32.7840 C.2       1 CYS         0.0609
     92 O          15.3434   11.1971   33.7801 O.co2     1 CYS        -0.5666
     93 CB         15.0100   11.8260   30.7590 C.3       1 CYS         0.0388
     94 SG         14.0490   11.8960   29.2270 S.3       1 CYS        -0.0887
     95 O          16.8548    9.9324   32.8550 O.co2     1 CYS        -0.5666
     96 H1         17.9417    8.6799   28.3680 H         1 CYS         0.2015
     97 H2         17.5431    7.9609   26.9420 H         1 CYS         0.2015
     98 H3         17.5652    7.0779   28.3310 H         1 CYS         0.2015
     99 H4         15.7732    8.3009   29.2468 H         1 CYS         0.1107
    100 H5         15.7732    9.6870   26.5338 H         1 CYS         0.0466
    101 H6         16.3456   10.4110   28.0749 H         1 CYS         0.0466
    102 H7         14.0888    6.9639   29.2750 H         1 GLN         0.1885
    103 H8         13.2218    5.7315   26.7416 H         1 GLN         0.0801
    104 H9         14.9862    4.2631   27.5733 H         1 GLN         0.0337
    105 H10        13.3801    3.4593   27.6034 H         1 GLN         0.0337
    106 H11        13.2298    3.6889   29.9841 H         1 GLN         0.0504
    107 H12        14.6959    4.7257   30.0316 H         1 GLN         0.0504
    108 H13        15.2497    0.9562   30.7932 H         1 GLN         0.1814
    109 H14        13.9075    1.9730   31.1988 H         1 GLN         0.1814
    110 H15        11.3057    4.3907   26.9023 H         1 TYR         0.1885
    111 H16         9.2588    5.7922   28.3615 H         1 TYR         0.0821
    112 H17         9.0498    3.1122   26.9328 H         1 TYR         0.0453
    113 H18         8.9969    4.7061   26.1061 H         1 TYR         0.0453
    114 H19         7.1196    6.2962   26.6701 H         1 TYR         0.0530
    115 H20         7.1104    2.2349   27.9909 H         1 TYR         0.0530
    116 H21         4.6929    6.4343   27.0814 H         1 TYR         0.0525
    117 H22         4.6844    2.3667   28.3995 H         1 TYR         0.0525
    118 H23         2.8889    5.3633   27.7644 H         1 TYR         0.2458
    119 H24         8.2354    5.3147   30.1961 H         1 ASN         0.1885
    120 H25         9.2778    3.0010   31.7793 H         1 ASN         0.0826
    121 H26         8.0455    5.6096   32.7810 H         1 ASN         0.0551
    122 H27         9.8093    5.3148   32.6121 H         1 ASN         0.0551
    123 H28        10.1182    3.7630   35.7036 H         1 ASN         0.1814
    124 H29        10.8537    4.5356   34.3390 H         1 ASN         0.1814
    125 H30         7.8454    1.4847   32.4716 H         1 LEU         0.1883
    126 H31         5.2205    1.6664   31.2356 H         1 LEU         0.0800
    127 H32         4.9222   -0.6690   31.9752 H         1 LEU         0.0315
    128 H33         6.4867   -0.5687   32.8522 H         1 LEU         0.0315
    129 H34         7.6430   -0.1686   30.7021 H         1 LEU         0.0298
    130 H35         7.4157   -2.4742   29.8346 H         1 LEU         0.0232
    131 H36         5.9160   -2.6788   30.8017 H         1 LEU         0.0232
    132 H37         7.4901   -2.4236   31.6286 H         1 LEU         0.0232
    133 H38         5.7658    0.8333   29.4351 H         1 LEU         0.0232
    134 H39         4.9437   -0.7636   29.4043 H         1 LEU         0.0232
    135 H40         6.5146   -0.5456   28.5607 H         1 LEU         0.0232
    136 H41         6.3855    2.1905   34.4485 H         1 SER         0.1884
    137 H42         3.7787    1.7871   35.7170 H         1 SER         0.0823
    138 H43         4.9168    2.7228   37.7490 H         1 SER         0.0606
    139 H44         6.3927    2.9857   36.7594 H         1 SER         0.0606
    140 H45         5.1114    0.4829   37.2224 H         1 SER         0.2097
    141 H46         5.8554    4.5835   34.8796 H         1 SER         0.1884
    142 H47         3.7362    6.4453   35.6687 H         1 SER         0.0823
    143 H48         6.1582    6.9416   36.0765 H         1 SER         0.0606
    144 H49         5.2968    8.2145   35.1467 H         1 SER         0.0606
    145 H50         7.3486    7.6760   34.2439 H         1 SER         0.2097
    146 H51         4.6461    4.7415   32.8302 H         1 ARG         0.1883
    147 H52         3.9628    4.7700   30.6532 H         1 ARG         0.0800
    148 H53         1.6631    5.5271   30.1797 H         1 ARG         0.0313
    149 H54         1.5823    6.2589   31.8181 H         1 ARG         0.0313
    150 H55         0.4596    4.2111   32.0079 H         1 ARG         0.0301
    151 H56         2.0877    3.9099   32.7046 H         1 ARG         0.0301
    152 H57         2.8218    2.7894   30.7364 H         1 ARG         0.0689
    153 H58         1.3810    3.3291   29.8094 H         1 ARG         0.0689
    154 H59         1.5237    1.1501   31.8240 H         1 ARG         0.2642
    155 H60        -1.8608    2.1237   29.7871 H         1 ARG         0.2615
    156 H61        -0.4508    3.2143   29.7147 H         1 ARG         0.2615
    157 H62        -0.2646   -0.2192   31.9182 H         1 ARG         0.2615
    158 H63        -1.7541    0.1889   31.0251 H         1 ARG         0.2615
    159 H64         5.8249    6.5890   30.9968 H         1 ALA         0.1883
    160 H65         5.3427    8.5440   28.9025 H         1 ALA         0.0797
    161 H66         5.8758   10.5261   30.2889 H         1 ALA         0.0277
    162 H67         5.8824    9.5026   31.7649 H         1 ALA         0.0277
    163 H68         4.3567    9.7485   30.8493 H         1 ALA         0.0277
    164 H69         7.4900    9.6660   28.4709 H         1 LEU         0.1883
    165 H70         9.6696    7.8363   28.7240 H         1 LEU         0.0800
    166 H71        11.0984    9.8036   28.0031 H         1 LEU         0.0315
    167 H72         9.5871   10.7741   27.9761 H         1 LEU         0.0315
    168 H73         8.6390    9.1709   26.3266 H         1 LEU         0.0298
    169 H74         9.9604    9.9285   24.3713 H         1 LEU         0.0232
    170 H75        11.2631   10.4845   25.4760 H         1 LEU         0.0232
    171 H76         9.6440   11.2601   25.5346 H         1 LEU         0.0232
    172 H77        10.0276    7.2125   26.9300 H         1 LEU         0.0232
    173 H78        11.4610    8.0232   26.2125 H         1 LEU         0.0232
    174 H79        10.0699    7.5703   25.1702 H         1 LEU         0.0232
    175 H80        11.4416    7.7895   30.0382 H         1 LYS         0.1883
    176 H81        11.2370    9.3592   32.5778 H         1 LYS         0.0800
    177 H82        12.4955    6.7108   32.8004 H         1 LYS         0.0312
    178 H83        10.7972    6.6160   32.2231 H         1 LYS         0.0312
    179 H84        10.7267    6.3708   34.5753 H         1 LYS         0.0269
    180 H85        10.1628    8.0396   34.2236 H         1 LYS         0.0269
    181 H86        12.3606    8.9377   34.8120 H         1 LYS         0.0317
    182 H87        12.9910    7.2775   35.0818 H         1 LYS         0.0317
    183 H88        11.4669    6.9302   36.9245 H         1 LYS         0.0813
    184 H89        10.6307    8.4835   36.5861 H         1 LYS         0.0813
    185 H90        12.1602    8.6676   38.4191 H         1 LYS         0.1994
    186 H91        12.6629    9.6185   37.1731 H         1 LYS         0.1994
    187 H92        13.4291    8.1951   37.4832 H         1 LYS         0.1994
    188 H93        12.8459   10.8146   31.7376 H         1 CYS         0.1876
    189 H94        15.3985    9.7209   30.8439 H         1 CYS         0.0734
    190 H95        16.0626   12.0306   30.5138 H         1 CYS         0.0425
    191 H96        14.6331   12.6060   31.4368 H         1 CYS         0.0425
@<TRIPOS>BOND
     1    1    2 1  
     2    2    3 1  
     3    2    5 1  
     4    3    4 2  
     5    3    7 am 
     6    5    6 1  
     7    6   94 1  
     8    7    8 1  
     9    8    9 1  
    10    8   11 1  
    11    9   10 2  
    12    9   16 am 
    13   11   12 1  
    14   12   13 1  
    15   13   14 2  
    16   13   15 am 
    17   16   17 1  
    18   17   18 1  
    19   17   20 1  
    20   18   19 2  
    21   18   28 am 
    22   20   21 1  
    23   21   22 ar 
    24   21   23 ar 
    25   22   24 ar 
    26   23   25 ar 
    27   24   26 ar 
    28   25   26 ar 
    29   26   27 1  
    30   28   29 1  
    31   29   30 1  
    32   29   32 1  
    33   30   31 2  
    34   30   36 am 
    35   32   33 1  
    36   33   34 2  
    37   33   35 am 
    38   36   37 1  
    39   37   38 1  
    40   37   40 1  
    41   38   39 2  
    42   38   44 am 
    43   40   41 1  
    44   41   42 1  
    45   41   43 1  
    46   44   45 1  
    47   45   46 1  
    48   45   48 1  
    49   46   47 2  
    50   46   50 am 
    51   48   49 1  
    52   50   51 1  
    53   51   52 1  
    54   51   54 1  
    55   52   53 2  
    56   52   56 am 
    57   54   55 1  
    58   56   57 1  
    59   57   58 1  
    60   57   60 1  
    61   58   59 2  
    62   58   67 am 
    63   60   61 1  
    64   61   62 1  
    65   62   63 1  
    66   63   64 ar 
    67   64   65 ar 
    68   64   66 ar 
    69   67   68 1  
    70   68   69 1  
    71   68   71 1  
    72   69   70 2  
    73   69   72 am 
    74   72   73 1  
    75   73   74 1  
    76   73   76 1  
    77   74   75 2  
    78   74   80 am 
    79   76   77 1  
    80   77   78 1  
    81   77   79 1  
    82   80   81 1  
    83   81   82 1  
    84   81   84 1  
    85   82   83 2  
    86   82   89 am 
    87   84   85 1  
    88   85   86 1  
    89   86   87 1  
    90   87   88 1  
    91   89   90 1  
    92   90   91 1  
    93   90   93 1  
    94   91   92 ar 
    95   93   94 1  
    96   91   95 ar 
    97    1   96 1  
    98    1   97 1  
    99    1   98 1  
   100    2   99 1  
   101    5  100 1  
   102    5  101 1  
   103    7  102 1  
   104    8  103 1  
   105   11  104 1  
   106   11  105 1  
   107   12  106 1  
   108   12  107 1  
   109   15  108 1  
   110   15  109 1  
   111   16  110 1  
   112   17  111 1  
   113   20  112 1  
   114   20  113 1  
   115   22  114 1  
   116   23  115 1  
   117   24  116 1  
   118   25  117 1  
   119   27  118 1  
   120   28  119 1  
   121   29  120 1  
   122   32  121 1  
   123   32  122 1  
   124   35  123 1  
   125   35  124 1  
   126   36  125 1  
   127   37  126 1  
   128   40  127 1  
   129   40  128 1  
   130   41  129 1  
   131   42  130 1  
   132   42  131 1  
   133   42  132 1  
   134   43  133 1  
   135   43  134 1  
   136   43  135 1  
   137   44  136 1  
   138   45  137 1  
   139   48  138 1  
   140   48  139 1  
   141   49  140 1  
   142   50  141 1  
   143   51  142 1  
   144   54  143 1  
   145   54  144 1  
   146   55  145 1  
   147   56  146 1  
   148   57  147 1  
   149   60  148 1  
   150   60  149 1  
   151   61  150 1  
   152   61  151 1  
   153   62  152 1  
   154   62  153 1  
   155   63  154 1  
   156   65  155 1  
   157   65  156 1  
   158   66  157 1  
   159   66  158 1  
   160   67  159 1  
   161   68  160 1  
   162   71  161 1  
   163   71  162 1  
   164   71  163 1  
   165   72  164 1  
   166   73  165 1  
   167   76  166 1  
   168   76  167 1  
   169   77  168 1  
   170   78  169 1  
   171   78  170 1  
   172   78  171 1  
   173   79  172 1  
   174   79  173 1  
   175   79  174 1  
   176   80  175 1  
   177   81  176 1  
   178   84  177 1  
   179   84  178 1  
   180   85  179 1  
   181   85  180 1  
   182   86  181 1  
   183   86  182 1  
   184   87  183 1  
   185   87  184 1  
   186   88  185 1  
   187   88  186 1  
   188   88  187 1  
   189   89  188 1  
   190   90  189 1  
   191   93  190 1  
   192   93  191 1  
@<TRIPOS>SUBSTRUCTURE
     1 CYS         1

