4gw5_ligand
  -I-interpret- 

191192  0  0  0  0  0  0  0  0999 V2000
   17.3600    7.9810   27.9330 N   0  3  0  0  0
   15.9550    8.3060   28.1620 C   0  0  0  0  0
   15.0370    7.2700   27.5180 C   0  0  0  0  0
   15.1090    7.0220   26.3110 O   0  0  0  0  0
   15.6350    9.7020   27.6250 C   0  0  0  0  0
   13.9560   10.2950   27.9700 S   0  0  0  0  0
   14.1660    6.6710   28.3220 N   0  0  0  0  0
   13.3220    5.5910   27.8280 C   0  0  0  0  0
   11.9100    5.5840   28.4090 C   0  0  0  0  0
   11.6370    6.2000   29.4430 O   0  0  0  0  0
   14.0020    4.2410   28.0640 C   0  0  0  0  0
   14.2100    3.8800   29.5230 C   0  0  0  0  0
   15.0780    2.6450   29.6890 C   0  0  0  0  0
   16.0600    2.4600   28.9650 O   0  0  0  0  0
   14.7150    1.7870   30.6390 N   0  0  0  0  0
   11.0160    4.8730   27.7290 N   0  0  0  0  0
    9.6280    4.7770   28.1540 C   0  0  0  0  0
    9.5030    3.9510   29.4330 C   0  0  0  0  0
   10.1050    2.8810   29.5560 O   0  0  0  0  0
    8.7760    4.1720   27.0420 C   0  0  0  0  0
    7.2890    4.2560   27.2990 C   0  0  0  0  0
    6.5900    5.4300   27.0500 C   0  0  0  0  0
    6.5830    3.1600   27.7880 C   0  0  0  0  0
    5.2250    5.5110   27.2800 C   0  0  0  0  0
    5.2190    3.2300   28.0200 C   0  0  0  0  0
    4.5460    4.4080   27.7640 C   0  0  0  0  0
    3.1930    4.4920   27.9900 O   0  0  0  0  0
    8.7250    4.4630   30.3830 N   0  0  0  0  0
    8.5580    3.8280   31.6910 C   0  0  0  0  0
    7.1450    3.2660   31.8250 C   0  0  0  0  0
    6.1700    3.9840   31.6150 O   0  0  0  0  0
    8.8340    4.8430   32.8020 C   0  0  0  0  0
    8.8610    4.2140   34.1820 C   0  0  0  0  0
    7.8320    3.7930   34.7000 O   0  0  0  0  0
   10.0420    4.1670   34.7920 N   0  0  0  0  0
    7.0330    1.9880   32.1770 N   0  0  0  0  0
    5.7350    1.3070   32.1390 C   0  0  0  0  0
    4.8110    1.6300   33.3220 C   0  0  0  0  0
    3.5940    1.4580   33.2220 O   0  0  0  0  0
    5.9200   -0.2060   31.9820 C   0  0  0  0  0
    6.6600   -0.6620   30.7140 C   0  0  0  0  0
    6.8860   -2.1630   30.7470 C   0  0  0  0  0
    5.9190   -0.2560   29.4390 C   0  0  0  0  0
    5.3900    2.0980   34.4300 N   0  0  0  0  0
    4.6260    2.4820   35.6210 C   0  0  0  0  0
    4.0650    3.9040   35.5130 C   0  0  0  0  0
    2.8970    4.1510   35.8230 O   0  0  0  0  0
    5.4930    2.3650   36.8830 C   0  0  0  0  0
    5.8850    1.0230   37.1110 O   0  0  0  0  0
    4.9100    4.8380   35.0830 N   0  0  0  0  0
    4.4920    6.2230   34.9010 C   0  0  0  0  0
    3.8360    6.4490   33.5280 C   0  0  0  0  0
    3.1260    7.4370   33.3340 O   0  0  0  0  0
    5.6750    7.1820   35.1180 C   0  0  0  0  0
    6.6340    7.0720   34.0790 O   0  0  0  0  0
    4.0740    5.5260   32.5910 N   0  0  0  0  0
    3.5330    5.6090   31.2200 C   0  0  0  0  0
    3.9110    6.8950   30.4850 C   0  0  0  0  0
    3.0570    7.5730   29.9150 O   0  0  0  0  0
    2.0170    5.4460   31.2180 C   0  0  0  0  0
    1.5330    4.1320   31.7810 C   0  0  0  0  0
    1.7470    3.0150   30.7980 C   0  0  0  0  0
    1.0310    1.8180   31.2140 N   0  0  0  0  0
   -0.2180    1.5300   30.8580 C   0  0  0  0  0
   -0.8940    2.3510   30.0600 N   0  0  0  0  0
   -0.7880    0.4170   31.3000 N   0  0  0  0  0
    5.2020    7.2100   30.5210 N   0  0  0  0  0
    5.7610    8.4030   29.9100 C   0  0  0  0  0
    7.2680    8.1770   29.8240 C   0  0  0  0  0
    7.7940    7.2650   30.4720 O   0  0  0  0  0
    5.4470    9.6310   30.7630 C   0  0  0  0  0
    7.9640    8.9850   29.0290 N   0  0  0  0  0
    9.4200    8.8790   28.9700 C   0  0  0  0  0
   10.0330    9.1930   30.3410 C   0  0  0  0  0
    9.5520   10.0730   31.0610 O   0  0  0  0  0
   10.0080    9.7640   27.8640 C   0  0  0  0  0
    9.7280    9.2880   26.4280 C   0  0  0  0  0
   10.1810   10.3130   25.3780 C   0  0  0  0  0
   10.3660    7.9290   26.1670 C   0  0  0  0  0
   11.0760    8.4460   30.6980 N   0  0  0  0  0
   11.7110    8.5430   32.0130 C   0  0  0  0  0
   13.2010    8.8350   31.8750 C   0  0  0  0  0
   14.0230    7.9240   31.9260 O   0  0  0  0  0
   11.5250    7.2280   32.7760 C   0  0  0  0  0
   11.0300    7.3630   34.2100 C   0  0  0  0  0
   12.0990    7.9190   35.1340 C   0  0  0  0  0
   11.5990    7.9620   36.5670 C   0  0  0  0  0
   12.5390    8.6680   37.4850 N   0  3  0  0  0
   13.5500   10.1050   31.7100 N   0  0  0  0  0
   14.9420   10.4860   31.4890 C   0  0  0  0  0
   15.7560   10.5450   32.7840 C   0  0  0  0  0
   15.3434   11.1971   33.7801 O   0  0  0  0  0
   15.0100   11.8260   30.7590 C   0  0  0  0  0
   14.0490   11.8960   29.2270 S   0  0  0  0  0
   16.8548    9.9324   32.8550 O   0  0  0  0  0
   17.5556    7.0483   28.2966 H   0  0  0  0  0
   17.5544    8.0047   26.9320 H   0  0  0  0  0
   17.9480    8.6638   28.4110 H   0  0  0  0  0
   15.7795    8.2927   29.2377 H   0  0  0  0  0
   15.7323    9.6503   26.5406 H   0  0  0  0  0
   16.3187   10.3921   28.1194 H   0  0  0  0  0
   14.0872    6.9697   29.2941 H   0  0  0  0  0
   13.2010    5.7692   26.7595 H   0  0  0  0  0
   14.9905    4.3006   27.6086 H   0  0  0  0  0
   13.3485    3.4789   27.6394 H   0  0  0  0  0
   13.2350    3.6715   29.9635 H   0  0  0  0  0
   14.7114    4.7156   30.0114 H   0  0  0  0  0
   15.2563    0.9361   30.7916 H   0  0  0  0  0
   13.8954    1.9802   31.2147 H   0  0  0  0  0
   11.3115    4.3810   26.8857 H   0  0  0  0  0
    9.2655    5.7829   28.3660 H   0  0  0  0  0
    9.0348    3.1155   26.9724 H   0  0  0  0  0
    8.9811    4.7358   26.1320 H   0  0  0  0  0
    7.1225    6.3010   26.6680 H   0  0  0  0  0
    7.1133    2.2298   27.9920 H   0  0  0  0  0
    4.6900    6.4394   27.0803 H   0  0  0  0  0
    4.6814    2.3620   28.4016 H   0  0  0  0  0
    2.8724    3.6504   28.3224 H   0  0  0  0  0
    8.2256    5.3317   30.1924 H   0  0  0  0  0
    9.2689    3.0066   31.7809 H   0  0  0  0  0
    8.0307    5.5796   32.7873 H   0  0  0  0  0
    9.8145    5.2815   32.6165 H   0  0  0  0  0
   10.1170    3.7690   35.7281 H   0  0  0  0  0
   10.8727    4.5290   34.3236 H   0  0  0  0  0
    7.8616    1.4747   32.4775 H   0  0  0  0  0
    5.2238    1.7024   31.2613 H   0  0  0  0  0
    4.9192   -0.6340   31.9249 H   0  0  0  0  0
    6.5277   -0.5309   32.8265 H   0  0  0  0  0
    7.6261   -0.1576   30.6987 H   0  0  0  0  0
    7.4846   -2.4199   31.6209 H   0  0  0  0  0
    5.9241   -2.6729   30.8012 H   0  0  0  0  0
    7.4109   -2.4701   29.8424 H   0  0  0  0  0
    4.9278   -0.7094   29.4363 H   0  0  0  0  0
    5.8236    0.8293   29.4057 H   0  0  0  0  0
    6.4795   -0.5996   28.5695 H   0  0  0  0  0
    6.4055    2.1923   34.4488 H   0  0  0  0  0
    3.7848    1.7925   35.6923 H   0  0  0  0  0
    4.9112    2.7082   37.7385 H   0  0  0  0  0
    6.3886    2.9714   36.7479 H   0  0  0  0  0
    6.4245    0.9787   37.9038 H   0  0  0  0  0
    5.8743    4.5784   34.8755 H   0  0  0  0  0
    3.7349    6.4390   35.6549 H   0  0  0  0  0
    6.1579    6.9252   36.0608 H   0  0  0  0  0
    5.2933    8.2029   35.1275 H   0  0  0  0  0
    7.3561    7.6823   34.2456 H   0  0  0  0  0
    4.6575    4.7258   32.8350 H   0  0  0  0  0
    3.9955    4.7847   30.6771 H   0  0  0  0  0
    1.6911    5.4892   30.1788 H   0  0  0  0  0
    1.6087    6.2353   31.8492 H   0  0  0  0  0
    0.4668    4.2130   31.9924 H   0  0  0  0  0
    2.0945    3.9119   32.6890 H   0  0  0  0  0
    2.8121    2.7888   30.7487 H   0  0  0  0  0
    1.3732    3.3277   29.8230 H   0  0  0  0  0
    1.5189    1.1566   31.8181 H   0  0  0  0  0
   -1.8507    2.1248   29.7879 H   0  0  0  0  0
   -0.4559    3.2071   29.7199 H   0  0  0  0  0
   -0.2689   -0.2142   31.9104 H   0  0  0  0  0
    5.8373    6.5765   31.0063 H   0  0  0  0  0
    5.3360    8.5805   28.9221 H   0  0  0  0  0
    4.3664    9.7463   30.8477 H   0  0  0  0  0
    5.8789    9.5025   31.7555 H   0  0  0  0  0
    5.8724   10.5173   30.2922 H   0  0  0  0  0
    7.4805    9.6796   28.4597 H   0  0  0  0  0
    9.6770    7.8512   28.7139 H   0  0  0  0  0
   11.0902    9.7501   27.9935 H   0  0  0  0  0
    9.5421   10.7441   27.9658 H   0  0  0  0  0
    8.6470    9.1854   26.3334 H   0  0  0  0  0
    9.6482   11.2510   25.5343 H   0  0  0  0  0
   11.2533   10.4821   25.4761 H   0  0  0  0  0
    9.9619    9.9309   24.3810 H   0  0  0  0  0
   11.4445    8.0025   26.3068 H   0  0  0  0  0
    9.9571    7.1973   26.8637 H   0  0  0  0  0
   10.1512    7.6186   25.1445 H   0  0  0  0  0
   11.4489    7.7764   30.0250 H   0  0  0  0  0
   11.2408    9.3602   32.5600 H   0  0  0  0  0
   12.5081    6.7604   32.8308 H   0  0  0  0  0
   10.7638    6.6631   32.2379 H   0  0  0  0  0
   10.7531    6.3716   34.5686 H   0  0  0  0  0
   10.1853    8.0519   34.2144 H   0  0  0  0  0
   12.3476    8.9317   34.8166 H   0  0  0  0  0
   12.9768    7.2745   35.0859 H   0  0  0  0  0
   11.4986    6.9346   36.9169 H   0  0  0  0  0
   10.6535    8.5044   36.5750 H   0  0  0  0  0
   12.1547    8.6669   38.4298 H   0  0  0  0  0
   13.4393    8.1886   37.4823 H   0  0  0  0  0
   12.6636    9.6296   37.1684 H   0  0  0  0  0
   12.8318   10.8287   31.7381 H   0  0  0  0  0
   15.3903    9.7076   30.8715 H   0  0  0  0  0
   14.4995   11.6027   33.5683 H   0  0  0  0  0
   16.0533   11.9894   30.4888 H   0  0  0  0  0
   14.5940   12.5767   31.4310 H   0  0  0  0  0
  1  2  1  0  0  0
  2  3  1  0  0  0
  2  5  1  0  0  0
  3  4  2  0  0  0
  3  7  1  0  0  0
  5  6  1  0  0  0
  6 94  1  0  0  0
  7  8  1  0  0  0
  8  9  1  0  0  0
  8 11  1  0  0  0
  9 10  2  0  0  0
  9 16  1  0  0  0
 11 12  1  0  0  0
 12 13  1  0  0  0
 13 14  2  0  0  0
 13 15  1  0  0  0
 16 17  1  0  0  0
 17 18  1  0  0  0
 17 20  1  0  0  0
 18 19  2  0  0  0
 18 28  1  0  0  0
 20 21  1  0  0  0
 21 22  4  0  0  0
 21 23  4  0  0  0
 22 24  4  0  0  0
 23 25  4  0  0  0
 24 26  4  0  0  0
 25 26  4  0  0  0
 26 27  1  0  0  0
 28 29  1  0  0  0
 29 30  1  0  0  0
 29 32  1  0  0  0
 30 31  2  0  0  0
 30 36  1  0  0  0
 32 33  1  0  0  0
 33 34  2  0  0  0
 33 35  1  0  0  0
 36 37  1  0  0  0
 37 38  1  0  0  0
 37 40  1  0  0  0
 38 39  2  0  0  0
 38 44  1  0  0  0
 40 41  1  0  0  0
 41 42  1  0  0  0
 41 43  1  0  0  0
 44 45  1  0  0  0
 45 46  1  0  0  0
 45 48  1  0  0  0
 46 47  2  0  0  0
 46 50  1  0  0  0
 48 49  1  0  0  0
 50 51  1  0  0  0
 51 52  1  0  0  0
 51 54  1  0  0  0
 52 53  2  0  0  0
 52 56  1  0  0  0
 54 55  1  0  0  0
 56 57  1  0  0  0
 57 58  1  0  0  0
 57 60  1  0  0  0
 58 59  2  0  0  0
 58 67  1  0  0  0
 60 61  1  0  0  0
 61 62  1  0  0  0
 62 63  1  0  0  0
 63 64  1  0  0  0
 64 65  1  0  0  0
 64 66  2  0  0  0
 67 68  1  0  0  0
 68 69  1  0  0  0
 68 71  1  0  0  0
 69 70  2  0  0  0
 69 72  1  0  0  0
 72 73  1  0  0  0
 73 74  1  0  0  0
 73 76  1  0  0  0
 74 75  2  0  0  0
 74 80  1  0  0  0
 76 77  1  0  0  0
 77 78  1  0  0  0
 77 79  1  0  0  0
 80 81  1  0  0  0
 81 82  1  0  0  0
 81 84  1  0  0  0
 82 83  2  0  0  0
 82 89  1  0  0  0
 84 85  1  0  0  0
 85 86  1  0  0  0
 86 87  1  0  0  0
 87 88  1  0  0  0
 89 90  1  0  0  0
 90 91  1  0  0  0
 90 93  1  0  0  0
 91 92  1  0  0  0
 93 94  1  0  0  0
 91 95  2  0  0  0
  1 96  1  0  0  0
  1 97  1  0  0  0
  1 98  1  0  0  0
  2 99  1  0  0  0
  5100  1  0  0  0
  5101  1  0  0  0
  7102  1  0  0  0
  8103  1  0  0  0
 11104  1  0  0  0
 11105  1  0  0  0
 12106  1  0  0  0
 12107  1  0  0  0
 15108  1  0  0  0
 15109  1  0  0  0
 16110  1  0  0  0
 17111  1  0  0  0
 20112  1  0  0  0
 20113  1  0  0  0
 22114  1  0  0  0
 23115  1  0  0  0
 24116  1  0  0  0
 25117  1  0  0  0
 27118  1  0  0  0
 28119  1  0  0  0
 29120  1  0  0  0
 32121  1  0  0  0
 32122  1  0  0  0
 35123  1  0  0  0
 35124  1  0  0  0
 36125  1  0  0  0
 37126  1  0  0  0
 40127  1  0  0  0
 40128  1  0  0  0
 41129  1  0  0  0
 42130  1  0  0  0
 42131  1  0  0  0
 42132  1  0  0  0
 43133  1  0  0  0
 43134  1  0  0  0
 43135  1  0  0  0
 44136  1  0  0  0
 45137  1  0  0  0
 48138  1  0  0  0
 48139  1  0  0  0
 49140  1  0  0  0
 50141  1  0  0  0
 51142  1  0  0  0
 54143  1  0  0  0
 54144  1  0  0  0
 55145  1  0  0  0
 56146  1  0  0  0
 57147  1  0  0  0
 60148  1  0  0  0
 60149  1  0  0  0
 61150  1  0  0  0
 61151  1  0  0  0
 62152  1  0  0  0
 62153  1  0  0  0
 63154  1  0  0  0
 65155  1  0  0  0
 65156  1  0  0  0
 66157  1  0  0  0
 67158  1  0  0  0
 68159  1  0  0  0
 71160  1  0  0  0
 71161  1  0  0  0
 71162  1  0  0  0
 72163  1  0  0  0
 73164  1  0  0  0
 76165  1  0  0  0
 76166  1  0  0  0
 77167  1  0  0  0
 78168  1  0  0  0
 78169  1  0  0  0
 78170  1  0  0  0
 79171  1  0  0  0
 79172  1  0  0  0
 79173  1  0  0  0
 80174  1  0  0  0
 81175  1  0  0  0
 84176  1  0  0  0
 84177  1  0  0  0
 85178  1  0  0  0
 85179  1  0  0  0
 86180  1  0  0  0
 86181  1  0  0  0
 87182  1  0  0  0
 87183  1  0  0  0
 88184  1  0  0  0
 88185  1  0  0  0
 88186  1  0  0  0
 89187  1  0  0  0
 90188  1  0  0  0
 92189  1  0  0  0
 93190  1  0  0  0
 93191  1  0  0  0
M  END
$$$$
