5zwh_ligand
  -I-interpret- 

 66 68  0  0  0  0  0  0  0  0999 V2000
   14.9280    6.1900   24.7540 C   0  0  0  0  0
   14.7210    7.3700   21.2630 C   0  0  0  0  0
   14.7460    7.3720   22.6060 C   0  0  0  0  0
   14.6620    7.6690   18.5120 C   0  0  0  0  0
   15.1560    6.1690   20.4270 C   0  0  0  0  0
   13.6820    1.0690   28.6620 O   0  0  0  0  0
   13.1020    1.5010   27.6810 C   0  0  0  0  0
   11.8880    1.8080   27.7430 C   0  0  0  0  0
   10.7650    2.1020   27.8780 C   0  0  0  0  0
    9.5480    2.3120   28.0400 C   0  0  0  0  0
    8.6980    1.4170   27.5760 C   0  0  0  0  0
    7.2340    1.6320   27.7560 C   0  0  0  0  0
   13.8310    1.6670   26.3840 C   0  0  0  0  0
   12.8360    1.6300   25.2380 C   0  0  0  0  0
   14.6380    2.9660   26.4440 C   0  0  0  0  0
   15.9260    2.7310   25.6530 C   0  0  0  0  0
   16.2710    4.0240   24.9560 C   0  0  0  0  0
   15.2820    5.0050   25.5710 C   0  0  0  0  0
   14.0050    4.2910   25.9630 C   0  0  0  0  0
   13.0200    4.1160   24.8080 C   0  0  0  0  0
   13.3250    5.2230   26.9620 C   0  0  0  0  0
   13.1500    6.6540   26.4200 C   0  0  0  0  0
   14.3230    7.2600   25.6280 C   0  0  0  0  0
   15.1360    6.2240   23.4220 C   0  0  0  0  0
   14.2550    8.6530   20.6320 C   0  0  0  0  0
   15.2380    6.3460   18.9070 C   0  0  0  0  0
   14.5330    5.2840   18.2610 O   0  0  0  0  0
   13.8330    7.8020   17.4930 C   0  0  0  0  0
   15.0280    8.8470   19.3410 C   0  0  0  0  0
   16.4410    8.8820   19.5490 O   0  0  0  0  0
   14.4569    8.2886   23.1202 H   0  0  0  0  0
   14.3911    5.4097   20.5899 H   0  0  0  0  0
   16.1732    5.9449   20.7483 H   0  0  0  0  0
    9.1961    3.2087   28.5500 H   0  0  0  0  0
    9.0633    0.5264   27.0645 H   0  0  0  0  0
    7.0053    1.6939   28.8199 H   0  0  0  0  0
    6.9414    2.5604   27.2655 H   0  0  0  0  0
    6.6886    0.7984   27.3137 H   0  0  0  0  0
   14.5337    0.8518   26.2118 H   0  0  0  0  0
   12.3136    0.6733   25.2428 H   0  0  0  0  0
   12.1157    2.4393   25.3576 H   0  0  0  0  0
   13.3668    1.7509   24.2937 H   0  0  0  0  0
   14.7550    3.1445   27.5129 H   0  0  0  0  0
   15.7868    1.9309   24.9260 H   0  0  0  0  0
   16.7338    2.4296   26.3199 H   0  0  0  0  0
   16.1889    3.9590   23.8710 H   0  0  0  0  0
   17.3103    4.3208   25.0972 H   0  0  0  0  0
   15.8185    5.3973   26.4349 H   0  0  0  0  0
   13.5361    3.6735   23.9560 H   0  0  0  0  0
   12.2067    3.4616   25.1217 H   0  0  0  0  0
   12.6171    5.0885   24.5253 H   0  0  0  0  0
   13.9548    5.2772   27.8500 H   0  0  0  0  0
   12.3333    4.8218   27.1711 H   0  0  0  0  0
   13.0289    7.2884   27.2980 H   0  0  0  0  0
   12.3168    6.6033   25.7191 H   0  0  0  0  0
   13.9635    8.0817   25.0085 H   0  0  0  0  0
   15.0757    7.6406   26.3184 H   0  0  0  0  0
   15.6095    5.3691   22.9392 H   0  0  0  0  0
   14.4315    9.4908   21.3066 H   0  0  0  0  0
   13.1854    8.6058   20.4275 H   0  0  0  0  0
   16.2828    6.3172   18.5978 H   0  0  0  0  0
   14.5866    5.3982   17.3093 H   0  0  0  0  0
   13.5459    6.9293   16.9065 H   0  0  0  0  0
   13.4357    8.7845   17.2383 H   0  0  0  0  0
   14.7798    9.8002   18.8742 H   0  0  0  0  0
   16.8843    9.0060   18.7066 H   0  0  0  0  0
 18  1  1  0  0  0
  1 23  1  0  0  0
  1 24  2  0  0  0
  3  2  2  0  0  0
  2  5  1  0  0  0
  2 25  1  0  0  0
 24  3  1  0  0  0
 26  4  1  0  0  0
  4 28  2  0  0  0
  4 29  1  0  0  0
  5 26  1  0  0  0
  7  6  2  0  0  0
  7  8  1  0  0  0
 13  7  1  0  0  0
  8  9  3  0  0  0
  9 10  1  0  0  0
 10 11  2  0  0  0
 11 12  1  0  0  0
 13 14  1  0  0  0
 15 13  1  0  0  0
 16 15  1  0  0  0
 15 19  1  0  0  0
 17 16  1  0  0  0
 18 17  1  0  0  0
 18 19  1  0  0  0
 19 20  1  0  0  0
 19 21  1  0  0  0
 21 22  1  0  0  0
 23 22  1  0  0  0
 29 25  1  0  0  0
 26 27  1  0  0  0
 29 30  1  0  0  0
  3 31  1  0  0  0
  5 32  1  0  0  0
  5 33  1  0  0  0
 10 34  1  0  0  0
 11 35  1  0  0  0
 12 36  1  0  0  0
 12 37  1  0  0  0
 12 38  1  0  0  0
 13 39  1  0  0  0
 14 40  1  0  0  0
 14 41  1  0  0  0
 14 42  1  0  0  0
 15 43  1  0  0  0
 16 44  1  0  0  0
 16 45  1  0  0  0
 17 46  1  0  0  0
 17 47  1  0  0  0
 18 48  1  0  0  0
 20 49  1  0  0  0
 20 50  1  0  0  0
 20 51  1  0  0  0
 21 52  1  0  0  0
 21 53  1  0  0  0
 22 54  1  0  0  0
 22 55  1  0  0  0
 23 56  1  0  0  0
 23 57  1  0  0  0
 24 58  1  0  0  0
 25 59  1  0  0  0
 25 60  1  0  0  0
 26 61  1  0  0  0
 27 62  1  0  0  0
 28 63  1  0  0  0
 28 64  1  0  0  0
 29 65  1  0  0  0
 30 66  1  0  0  0
M  END
$$$$
