4dce_ligand
  -I-interpret- 

 69 72  0  0  0  0  0  0  0  0999 V2000
    5.7780   20.0630   37.4190 C   0  0  0  0  0
    6.7920   20.2780   36.4240 O   0  0  0  0  0
    8.0910   19.9970   36.7930 C   0  0  0  0  0
    8.4030   19.1410   37.8670 C   0  0  0  0  0
    9.1290   20.5870   36.0580 C   0  0  0  0  0
    8.8370   21.4130   35.0050 O   0  0  0  0  0
    8.9520   22.8190   35.3160 C   0  0  0  0  0
   10.4600   20.3150   36.3880 C   0  0  0  0  0
   11.4790   20.8840   35.6780 O   0  0  0  0  0
   12.2860   19.9240   35.0050 C   0  0  0  0  0
   10.7500   19.4770   37.4630 C   0  0  0  0  0
    9.7370   18.8850   38.2110 C   0  0  0  0  0
   10.1260   18.0740   39.2170 N   0  0  0  0  0
    9.5180   17.8520   40.3880 C   0  0  0  0  0
    8.3640   18.4550   40.6980 N   0  0  0  0  0
   10.0820   16.9970   41.2680 N   0  0  0  0  0
    9.5190   16.7260   42.4390 C   0  0  0  0  0
    8.3260   17.3460   42.7860 C   0  0  0  0  0
    7.7610   18.2350   41.8740 C   0  0  0  0  0
    6.5550   18.8740   42.1530 N   0  0  0  0  0
    5.8990   18.6890   43.4560 C   0  0  0  0  0
    5.8290   19.6840   41.1440 C   0  0  0  0  0
    4.5050   18.9450   40.8470 C   0  0  0  0  0
    3.7670   18.5090   42.1330 C   0  0  0  0  0
    4.6800   17.8110   43.1630 C   0  0  0  0  0
    3.9550   17.5690   44.4730 C   0  0  0  0  0
    3.5330   18.5180   45.1350 O   0  0  0  0  0
    3.8510   16.2840   44.8220 N   0  0  0  0  0
    3.1940   15.8620   46.0700 C   0  0  0  0  0
    3.0010   14.3550   46.0190 C   0  0  0  0  0
    1.7090   13.8350   45.9450 C   0  0  0  0  0
    1.5250   12.4520   45.8880 C   0  0  0  0  0
    2.6290   11.6060   45.9060 C   0  0  0  0  0
    2.4250   10.0930   45.8450 C   0  0  0  0  0
    3.9140   12.1350   45.9830 C   0  0  0  0  0
    4.1060   13.5130   46.0400 C   0  0  0  0  0
    5.7813   19.0150   37.7188 H   0  0  0  0  0
    5.9827   20.6909   38.2861 H   0  0  0  0  0
    4.8034   20.3205   37.0043 H   0  0  0  0  0
    7.5994   18.6734   38.4358 H   0  0  0  0  0
    8.2639   23.0686   36.1237 H   0  0  0  0  0
    9.9735   23.0388   35.6262 H   0  0  0  0  0
    8.7050   23.4067   34.4319 H   0  0  0  0  0
   12.7268   19.2456   35.7355 H   0  0  0  0  0
   11.6690   19.3577   34.3073 H   0  0  0  0  0
   13.0780   20.4361   34.4586 H   0  0  0  0  0
   11.7904   19.2815   37.7229 H   0  0  0  0  0
   10.9963   17.5642   39.0650 H   0  0  0  0  0
    9.9902   16.0211   43.1240 H   0  0  0  0  0
    7.8458   17.1433   43.7433 H   0  0  0  0  0
    5.6136   19.6408   43.9039 H   0  0  0  0  0
    6.5662   18.2253   44.1826 H   0  0  0  0  0
    6.4226   19.7955   40.2366 H   0  0  0  0  0
    5.6361   20.6889   41.5196 H   0  0  0  0  0
    4.7424   18.0476   40.2756 H   0  0  0  0  0
    3.8541   19.6285   40.3019 H   0  0  0  0  0
    2.9971   17.7945   41.8416 H   0  0  0  0  0
    3.3715   19.4090   42.6039 H   0  0  0  0  0
    4.9815   16.8549   42.7351 H   0  0  0  0  0
    4.2394   15.5718   44.2037 H   0  0  0  0  0
    2.2299   16.3600   46.1729 H   0  0  0  0  0
    3.8100   16.1321   46.9277 H   0  0  0  0  0
    0.8484   14.5039   45.9317 H   0  0  0  0  0
    0.5190   12.0365   45.8296 H   0  0  0  0  0
    1.8296    9.7732   46.7002 H   0  0  0  0  0
    1.9057    9.8346   44.9221 H   0  0  0  0  0
    3.3946    9.5957   45.8693 H   0  0  0  0  0
    4.7750   11.4668   45.9988 H   0  0  0  0  0
    5.1126   13.9268   46.1005 H   0  0  0  0  0
  1  2  1  0  0  0
  2  3  1  0  0  0
  3  4  4  0  0  0
  3  5  4  0  0  0
  4 12  4  0  0  0
  5  6  1  0  0  0
  5  8  4  0  0  0
  6  7  1  0  0  0
  8  9  1  0  0  0
  8 11  4  0  0  0
  9 10  1  0  0  0
 11 12  4  0  0  0
 12 13  1  0  0  0
 13 14  1  0  0  0
 14 15  4  0  0  0
 14 16  4  0  0  0
 15 19  4  0  0  0
 16 17  4  0  0  0
 17 18  4  0  0  0
 18 19  4  0  0  0
 19 20  1  0  0  0
 20 21  1  0  0  0
 20 22  1  0  0  0
 21 25  1  0  0  0
 22 23  1  0  0  0
 23 24  1  0  0  0
 24 25  1  0  0  0
 25 26  1  0  0  0
 26 27  2  0  0  0
 26 28  1  0  0  0
 28 29  1  0  0  0
 29 30  1  0  0  0
 30 31  4  0  0  0
 30 36  4  0  0  0
 31 32  4  0  0  0
 32 33  4  0  0  0
 33 34  1  0  0  0
 33 35  4  0  0  0
 35 36  4  0  0  0
  1 37  1  0  0  0
  1 38  1  0  0  0
  1 39  1  0  0  0
  4 40  1  0  0  0
  7 41  1  0  0  0
  7 42  1  0  0  0
  7 43  1  0  0  0
 10 44  1  0  0  0
 10 45  1  0  0  0
 10 46  1  0  0  0
 11 47  1  0  0  0
 13 48  1  0  0  0
 17 49  1  0  0  0
 18 50  1  0  0  0
 21 51  1  0  0  0
 21 52  1  0  0  0
 22 53  1  0  0  0
 22 54  1  0  0  0
 23 55  1  0  0  0
 23 56  1  0  0  0
 24 57  1  0  0  0
 24 58  1  0  0  0
 25 59  1  0  0  0
 28 60  1  0  0  0
 29 61  1  0  0  0
 29 62  1  0  0  0
 31 63  1  0  0  0
 32 64  1  0  0  0
 34 65  1  0  0  0
 34 66  1  0  0  0
 34 67  1  0  0  0
 35 68  1  0  0  0
 36 69  1  0  0  0
M  END
$$$$
