1bju_ligand
  -I-interpret- 

 33 34  0  0  0  0  0  0  0  0999 V2000
   -2.7990   13.9840   14.4490 N   0  0  0  0  0
   -2.0060   12.2130   15.6660 N   0  0  0  0  0
   -2.3010   13.5080   15.5820 C   0  0  0  0  0
   -1.8870   14.3700   16.6050 C   0  0  0  0  0
   -1.9370   15.7610   16.4670 C   0  0  0  0  0
   -1.5410   16.6110   17.5040 C   0  0  0  0  0
   -1.0780   16.0860   18.7200 C   0  0  0  0  0
   -1.0270   14.6990   18.8660 C   0  0  0  0  0
   -1.4250   13.8630   17.8200 C   0  0  0  0  0
   -0.6720   16.8760   19.7460 N   0  0  0  0  0
    0.2400   17.8600   19.6510 C   0  0  0  0  0
    0.7740   18.1990   18.5840 O   0  0  0  0  0
    0.5310   18.4530   20.8150 N   0  0  0  0  0
    1.5460   19.2940   21.0740 C   0  0  0  0  0
    1.3980   20.2380   22.0940 C   0  0  0  0  0
    2.4440   21.1080   22.4110 C   0  0  0  0  0
    3.6410   21.0470   21.6980 C   0  0  0  0  0
    3.7940   20.1190   20.6750 C   0  0  0  0  0
    2.7500   19.2470   20.3620 C   0  0  0  0  0
    4.9500   22.0990   22.0540 Cl  0  0  0  0  0
   -2.9512   13.3598   13.6568 H   0  0  0  0  0
   -2.1636   11.6010   14.8653 H   0  0  0  0  0
   -1.6223   11.8324   16.5310 H   0  0  0  0  0
   -2.2924   16.1916   15.5308 H   0  0  0  0  0
   -1.5924   17.6911   17.3666 H   0  0  0  0  0
   -0.6745   14.2654   19.8019 H   0  0  0  0  0
   -1.3731   12.7829   17.9570 H   0  0  0  0  0
   -1.0914   16.7106   20.6610 H   0  0  0  0  0
   -0.0900   18.2419   21.5961 H   0  0  0  0  0
    0.4599   20.2958   22.6460 H   0  0  0  0  0
    2.3247   21.8341   23.2152 H   0  0  0  0  0
    4.7292   20.0721   20.1171 H   0  0  0  0  0
    2.8735   18.5234   19.5563 H   0  0  0  0  0
  1  3  2  0  0  0
  3  4  1  0  0  0
  4  5  4  0  0  0
  4  9  4  0  0  0
  5  6  4  0  0  0
  6  7  4  0  0  0
  7  8  4  0  0  0
  7 10  1  0  0  0
  8  9  4  0  0  0
 10 11  1  0  0  0
 11 12  2  0  0  0
 11 13  1  0  0  0
 13 14  1  0  0  0
 14 15  4  0  0  0
 14 19  4  0  0  0
 15 16  4  0  0  0
 16 17  4  0  0  0
 17 18  4  0  0  0
 17 20  1  0  0  0
 18 19  4  0  0  0
  3  2  1  0  0  0
  1 21  1  0  0  0
  2 22  1  0  0  0
  2 23  1  0  0  0
  5 24  1  0  0  0
  6 25  1  0  0  0
  8 26  1  0  0  0
  9 27  1  0  0  0
 10 28  1  0  0  0
 13 29  1  0  0  0
 15 30  1  0  0  0
 16 31  1  0  0  0
 18 32  1  0  0  0
 19 33  1  0  0  0
M  END
$$$$
