1n9m_ligand
  -I-interpret- 

 32 33  0  0  0  0  0  0  0  0999 V2000
   17.5910   19.2890   32.1550 C   0  0  0  0  0
   18.3220   20.2080   31.6920 O   0  0  0  0  0
   16.3490   19.2480   31.9060 O   0  0  0  0  0
   18.2070   18.2580   33.0180 C   0  0  0  0  0
   19.7000   18.0010   32.7400 C   0  0  0  0  0
   19.8460   17.1860   31.4540 C   0  0  0  0  0
   21.2610   16.5720   31.2820 C   0  0  0  0  0
   21.3960   15.6170   30.0880 C   0  0  0  0  0
   20.7650   13.9110   30.3710 S   0  0  0  0  0
   21.4720   13.4010   28.7790 C   0  0  0  0  0
   22.8320   14.0730   28.6830 C   0  0  0  0  0
   23.9080   13.3210   29.3080 N   0  0  0  0  0
   24.4610   14.0040   30.3260 C   0  0  0  0  0
   25.3840   13.5830   31.0710 O   0  0  0  0  0
   23.8270   15.1890   30.4850 N   0  0  0  0  0
   22.7740   15.3920   29.4990 C   0  0  0  0  0
   15.9618   18.4842   32.3399 H   0  0  0  0  0
   17.6809   17.3234   32.8236 H   0  0  0  0  0
   18.1306   18.6146   34.0452 H   0  0  0  0  0
   20.1346   17.4475   33.5724 H   0  0  0  0  0
   20.2179   18.9535   32.6274 H   0  0  0  0  0
   19.6713   17.8579   30.6136 H   0  0  0  0  0
   19.1309   16.3645   31.4987 H   0  0  0  0  0
   21.4698   15.9921   32.1810 H   0  0  0  0  0
   21.9501   17.3989   31.1101 H   0  0  0  0  0
   20.7851   16.1953   29.3949 H   0  0  0  0  0
   20.8284   13.6973   27.9507 H   0  0  0  0  0
   21.5649   12.3166   28.7201 H   0  0  0  0  0
   23.0328   14.1875   27.6178 H   0  0  0  0  0
   24.2061   12.3917   29.0115 H   0  0  0  0  0
   24.0602   15.8640   31.2133 H   0  0  0  0  0
   22.9349   16.2992   28.9166 H   0  0  0  0  0
  1  2  2  0  0  0
  1  3  1  0  0  0
  1  4  1  0  0  0
  4  5  1  0  0  0
  5  6  1  0  0  0
  6  7  1  0  0  0
  7  8  1  0  0  0
  8  9  1  0  0  0
  8 16  1  0  0  0
  9 10  1  0  0  0
 10 11  1  0  0  0
 11 12  1  0  0  0
 11 16  1  0  0  0
 12 13  1  0  0  0
 13 14  2  0  0  0
 13 15  1  0  0  0
 15 16  1  0  0  0
  3 17  1  0  0  0
  4 18  1  0  0  0
  4 19  1  0  0  0
  5 20  1  0  0  0
  5 21  1  0  0  0
  6 22  1  0  0  0
  6 23  1  0  0  0
  7 24  1  0  0  0
  7 25  1  0  0  0
  8 26  1  0  0  0
 10 27  1  0  0  0
 10 28  1  0  0  0
 11 29  1  0  0  0
 12 30  1  0  0  0
 15 31  1  0  0  0
 16 32  1  0  0  0
M  END
$$$$
