1x8r_ligand
  -I-interpret- 

 41 41  0  0  0  0  0  0  0  0999 V2000
   56.2860   12.1770   27.9070 C   0  0  0  0  0
   55.1440   11.3880   28.2520 C   0  0  0  0  0
   55.3160   10.1140   29.0520 C   0  0  0  0  0
   56.7150   10.0620   29.8670 C   0  0  0  0  0
   57.8740   10.2840   28.8460 C   0  0  0  0  0
   57.6980   11.7780   28.3270 C   0  0  0  0  0
   56.1070   13.4350   27.1360 C   0  0  0  0  0
   55.1400    8.8710   28.0560 O   0  0  0  0  0
   56.7200    8.7810   30.5050 O   0  0  0  0  0
   59.1440   10.1660   29.4990 O   0  0  0  0  0
   55.2130   13.4830   26.3050 O   0  0  0  0  0
   56.8630   14.3300   27.3980 O   0  0  0  0  0
   53.7310    7.9660   27.8310 P   0  0  0  0  0
   52.7100    8.9450   27.2190 O   0  0  0  0  0
   53.3550    7.4670   29.2770 O   0  0  0  0  0
   54.2470    6.9310   26.8210 O   0  0  0  0  0
   60.0980    9.0840   29.1230 C   0  0  0  0  0
   59.5270    7.5800   29.0190 C   0  0  0  0  0
   61.3260    9.1880   30.0280 C   0  0  0  0  0
   61.7740   10.3270   30.3930 O   0  0  0  0  0
   61.7160    8.0690   30.4590 O   0  0  0  0  0
   60.5300    9.3660   27.2920 P   0  0  0  0  0
   61.8580    8.6100   27.0230 O   0  0  0  0  0
   60.7630   10.8400   27.0870 O   0  0  0  0  0
   59.4030    8.7680   26.3880 O   0  0  0  0  0
   54.1490   11.7041   27.9387 H   0  0  0  0  0
   54.5497   10.0737   29.8261 H   0  0  0  0  0
   56.8405   10.8325   30.6277 H   0  0  0  0  0
   57.8401    9.5502   28.0407 H   0  0  0  0  0
   57.9641   12.4260   29.1621 H   0  0  0  0  0
   58.3198   11.8684   27.4363 H   0  0  0  0  0
   55.9799    8.7251   31.1139 H   0  0  0  0  0
   54.7515   12.6415   26.2841 H   0  0  0  0  0
   52.4221    9.5670   27.8912 H   0  0  0  0  0
   53.0493    8.2107   29.8015 H   0  0  0  0  0
   58.6699    7.5639   28.3457 H   0  0  0  0  0
   60.3062    6.9228   28.6331 H   0  0  0  0  0
   59.2201    7.2400   30.0081 H   0  0  0  0  0
   61.3112   11.0195   29.9157 H   0  0  0  0  0
   61.7205    7.6686   27.1510 H   0  0  0  0  0
   59.3107    7.8303   26.5718 H   0  0  0  0  0
  1  2  2  0  0  0
  1  6  1  0  0  0
  1  7  1  0  0  0
  2  3  1  0  0  0
  3  4  1  0  0  0
  3  8  1  0  0  0
  4  5  1  0  0  0
  4  9  1  0  0  0
  5  6  1  0  0  0
  5 10  1  0  0  0
  7 11  1  0  0  0
  7 12  2  0  0  0
  8 13  1  0  0  0
 10 17  1  0  0  0
 13 14  1  0  0  0
 13 15  1  0  0  0
 13 16  2  0  0  0
 17 18  1  0  0  0
 17 19  1  0  0  0
 17 22  1  0  0  0
 19 20  1  0  0  0
 19 21  2  0  0  0
 22 23  1  0  0  0
 22 24  2  0  0  0
 22 25  1  0  0  0
  2 26  1  0  0  0
  3 27  1  0  0  0
  4 28  1  0  0  0
  5 29  1  0  0  0
  6 30  1  0  0  0
  6 31  1  0  0  0
  9 32  1  0  0  0
 11 33  1  0  0  0
 14 34  1  0  0  0
 15 35  1  0  0  0
 18 36  1  0  0  0
 18 37  1  0  0  0
 18 38  1  0  0  0
 20 39  1  0  0  0
 23 40  1  0  0  0
 25 41  1  0  0  0
M  END
$$$$
