2qju_ligand
  -I-interpret- 

 43 45  0  0  0  0  0  0  0  0999 V2000
   17.7390  -15.3290  -26.0670 C   0  0  0  0  0
   16.4430  -14.5350  -25.9120 N   0  3  0  0  0
   15.7990  -13.7810  -24.7460 C   0  0  0  0  0
   15.9540  -12.2340  -25.0660 C   0  0  0  0  0
   15.4550  -11.0860  -24.1950 C   0  0  0  0  0
   16.2700  -10.6330  -23.0100 N   0  0  0  0  0
   15.8780   -9.5300  -22.1190 C   0  0  0  0  0
   15.5080   -8.2760  -22.7010 C   0  0  0  0  0
   15.1210   -7.1410  -21.9360 C   0  0  0  0  0
   15.1100   -7.1420  -20.5390 C   0  0  0  0  0
   15.5030   -8.4530  -19.9130 C   0  0  0  0  0
   15.8850   -9.5540  -20.6610 C   0  0  0  0  0
   16.2050  -10.7030  -19.7490 C   0  0  0  0  0
   16.5990  -12.0140  -20.4100 C   0  0  0  0  0
   17.7620  -11.8620  -21.3850 C   0  0  0  0  0
   17.5260  -11.1940  -22.6040 C   0  0  0  0  0
   19.0150  -12.3730  -21.0740 C   0  0  0  0  0
   20.2000  -12.2440  -22.0350 C   0  0  0  0  0
   19.9460  -11.5770  -23.2430 C   0  0  0  0  0
   18.6370  -11.0950  -23.4600 C   0  0  0  0  0
   18.5888  -14.6794  -25.8574 H   0  0  0  0  0
   17.7375  -16.1647  -25.3672 H   0  0  0  0  0
   17.8120  -15.7074  -27.0866 H   0  0  0  0  0
   15.7767  -15.3033  -25.9906 H   0  0  0  0  0
   16.6732  -13.7391  -26.5069 H   0  0  0  0  0
   16.2840  -14.0342  -23.8032 H   0  0  0  0  0
   14.7490  -14.0532  -24.6387 H   0  0  0  0  0
   15.3364  -12.1253  -25.9575 H   0  0  0  0  0
   17.0347  -12.1009  -25.0168 H   0  0  0  0  0
   14.5251  -11.4551  -23.7624 H   0  0  0  0  0
   15.4391  -10.2238  -24.8617 H   0  0  0  0  0
   15.5236   -8.1860  -23.7872 H   0  0  0  0  0
   14.8210   -6.2340  -22.4608 H   0  0  0  0  0
   14.8390   -6.2653  -19.9507 H   0  0  0  0  0
   15.4863   -8.5394  -18.8266 H   0  0  0  0  0
   15.2888  -10.9102  -19.1961 H   0  0  0  0  0
   17.0710  -10.3899  -19.1659 H   0  0  0  0  0
   15.7381  -12.3747  -20.9728 H   0  0  0  0  0
   16.9113  -12.7020  -19.6243 H   0  0  0  0  0
   19.1590  -12.8798  -20.1198 H   0  0  0  0  0
   21.1838  -12.6470  -21.7946 H   0  0  0  0  0
   20.7305  -11.4362  -23.9865 H   0  0  0  0  0
   18.4667  -10.5834  -24.4073 H   0  0  0  0  0
  1  2  1  0  0  0
  2  3  1  0  0  0
  3  4  1  0  0  0
  4  5  1  0  0  0
  5  6  1  0  0  0
  6  7  1  0  0  0
  6 16  1  0  0  0
  7  8  4  0  0  0
  7 12  4  0  0  0
  8  9  4  0  0  0
  9 10  4  0  0  0
 10 11  4  0  0  0
 11 12  4  0  0  0
 12 13  1  0  0  0
 13 14  1  0  0  0
 14 15  1  0  0  0
 15 16  4  0  0  0
 15 17  4  0  0  0
 16 20  4  0  0  0
 17 18  4  0  0  0
 18 19  4  0  0  0
 19 20  4  0  0  0
  1 21  1  0  0  0
  1 22  1  0  0  0
  1 23  1  0  0  0
  2 24  1  0  0  0
  2 25  1  0  0  0
  3 26  1  0  0  0
  3 27  1  0  0  0
  4 28  1  0  0  0
  4 29  1  0  0  0
  5 30  1  0  0  0
  5 31  1  0  0  0
  8 32  1  0  0  0
  9 33  1  0  0  0
 10 34  1  0  0  0
 11 35  1  0  0  0
 13 36  1  0  0  0
 13 37  1  0  0  0
 14 38  1  0  0  0
 14 39  1  0  0  0
 17 40  1  0  0  0
 18 41  1  0  0  0
 19 42  1  0  0  0
 20 43  1  0  0  0
M  END
$$$$
