1tng_ligand
  -I-interpret- 

 24 24  0  0  0  0  0  0  0  0999 V2000
   29.4710   15.0640   16.9590 C   0  0  0  0  0
   29.6470   13.5710   16.9460 C   0  0  0  0  0
   29.8870   13.0470   18.3560 C   0  0  0  0  0
   28.6840   13.3890   19.2590 C   0  0  0  0  0
   28.3610   14.8940   19.2410 C   0  0  0  0  0
   28.2560   15.3640   17.7860 C   0  0  0  0  0
   29.2860   15.5890   15.5510 C   0  0  0  0  0
   30.5350   15.6930   14.8290 N   0  3  0  0  0
   30.3535   15.5472   17.3783 H   0  0  0  0  0
   30.5080   13.3223   16.3255 H   0  0  0  0  0
   28.7419   13.1122   16.5481 H   0  0  0  0  0
   30.7844   13.5127   18.7633 H   0  0  0  0  0
   30.0113   11.9647   18.3196 H   0  0  0  0  0
   28.9332   13.1055   20.2816 H   0  0  0  0  0
   27.8135   12.8485   18.8872 H   0  0  0  0  0
   29.1515   15.4459   19.7496 H   0  0  0  0  0
   27.4164   15.0735   19.7545 H   0  0  0  0  0
   27.4181   14.8330   17.3343 H   0  0  0  0  0
   28.1363   16.4473   17.8039 H   0  0  0  0  0
   28.8531   16.5870   15.6188 H   0  0  0  0  0
   28.6445   14.8906   15.0136 H   0  0  0  0  0
   30.3552   16.0499   13.8905 H   0  0  0  0  0
   31.1596   16.3307   15.3226 H   0  0  0  0  0
   30.9679   14.7716   14.7665 H   0  0  0  0  0
  2  1  1  0  0  0
  1  6  1  0  0  0
  1  7  1  0  0  0
  2  3  1  0  0  0
  3  4  1  0  0  0
  4  5  1  0  0  0
  5  6  1  0  0  0
  7  8  1  0  0  0
  1  9  1  0  0  0
  2 10  1  0  0  0
  2 11  1  0  0  0
  3 12  1  0  0  0
  3 13  1  0  0  0
  4 14  1  0  0  0
  4 15  1  0  0  0
  5 16  1  0  0  0
  5 17  1  0  0  0
  6 18  1  0  0  0
  6 19  1  0  0  0
  7 20  1  0  0  0
  7 21  1  0  0  0
  8 22  1  0  0  0
  8 23  1  0  0  0
  8 24  1  0  0  0
M  END
$$$$
