3ook_ligand
  -I-interpret- 

 61 65  0  0  0  0  0  0  0  0999 V2000
   23.4380   17.7780    3.4490 N   0  0  0  0  0
   22.5910   17.0860    2.6230 C   0  0  0  0  0
   23.2210   16.1010    2.0480 N   0  0  0  0  0
   24.6660   17.1810    3.3450 C   0  0  0  0  0
   24.5080   16.1040    2.4500 C   0  0  0  0  0
   23.9840   20.0800    3.9250 C   0  0  0  0  0
   24.2200   20.2790    2.6050 N   0  0  0  0  0
   25.0320   21.3030    2.1230 C   0  0  0  0  0
   23.0970   18.9150    4.3110 C   0  0  0  0  0
   25.8960   17.4370    3.9330 C   0  0  0  0  0
   24.5290   22.6000    1.9610 C   0  0  0  0  0
   26.3870   21.0220    1.8610 C   0  0  0  0  0
   26.7320   23.3130    1.2330 C   0  0  0  0  0
   25.6130   15.3210    2.1050 C   0  0  0  0  0
   27.6600   24.3830    0.7890 C   0  0  0  0  0
   26.9640   16.6330    3.6250 C   0  0  0  0  0
   21.1560   17.3880    2.4650 C   0  0  0  0  0
   26.8210   15.6010    2.6950 C   0  0  0  0  0
   27.2220   22.0190    1.4080 C   0  0  0  0  0
   25.3790   23.6030    1.5200 C   0  0  0  0  0
   24.4480   20.8220    4.7580 O   0  0  0  0  0
   28.8040   24.1430    0.4560 O   0  0  0  0  0
   23.1710   18.4730    5.7910 C   0  0  0  0  0
   20.7860   18.6440    1.9850 C   0  0  0  0  0
   20.1930   16.4700    2.9040 C   0  0  0  0  0
   26.9030   19.7930    2.0700 F   0  0  0  0  0
   23.2290   22.8740    2.2280 F   0  0  0  0  0
   28.1590   16.8710    4.1960 F   0  0  0  0  0
   27.8620   14.7940    2.4670 F   0  0  0  0  0
   27.2470   25.6510    0.8020 O   0  0  0  0  0
   18.4940   18.0240    2.2360 C   0  0  0  0  0
   18.8560   16.7850    2.7540 C   0  0  0  0  0
   19.4590   18.9390    1.8480 C   0  0  0  0  0
   16.8290   18.4710    2.0700 Cl  0  0  0  0  0
   22.4620   19.5060    6.6800 C   0  0  0  0  0
   22.5100   17.0840    5.9650 C   0  0  0  0  0
   22.4290   19.0510    8.1470 C   0  0  0  0  0
   22.5790   16.6150    7.4310 C   0  0  0  0  0
   21.8130   17.6350    8.2920 C   0  0  0  0  0
   23.7822   19.6490    1.9328 H   0  0  0  0  0
   22.0720   19.2600    4.1754 H   0  0  0  0  0
   26.0124   18.2663    4.6307 H   0  0  0  0  0
   25.5183   14.5080    1.3852 H   0  0  0  0  0
   28.2658   21.7968    1.1862 H   0  0  0  0  0
   25.0024   24.6181    1.3943 H   0  0  0  0  0
   24.2175   18.4048    6.0883 H   0  0  0  0  0
   21.5454   19.3806    1.7226 H   0  0  0  0  0
   20.4930   15.5244    3.3557 H   0  0  0  0  0
   26.3298   25.6847    1.0834 H   0  0  0  0  0
   18.0886   16.0658    3.0403 H   0  0  0  0  0
   19.1579   19.9000    1.4309 H   0  0  0  0  0
   21.4364   19.6202    6.3290 H   0  0  0  0  0
   23.0080   20.4476    6.6209 H   0  0  0  0  0
   23.0430   16.3643    5.3436 H   0  0  0  0  0
   21.4628   17.1575    5.6717 H   0  0  0  0  0
   21.8153   19.7530    8.7115 H   0  0  0  0  0
   23.4522   19.0214    8.5214 H   0  0  0  0  0
   23.6169   16.5500    7.7576 H   0  0  0  0  0
   22.1324   15.6258    7.5318 H   0  0  0  0  0
   20.7756   17.6672    7.9591 H   0  0  0  0  0
   21.8750   17.3300    9.3366 H   0  0  0  0  0
  1  2  4  0  0  0
  1  4  4  0  0  0
  9  1  1  0  0  0
  2  3  4  0  0  0
  2 17  1  0  0  0
  5  3  4  0  0  0
  4  5  4  0  0  0
  4 10  4  0  0  0
  5 14  4  0  0  0
  7  6  1  0  0  0
  6  9  1  0  0  0
  6 21  2  0  0  0
  8  7  1  0  0  0
  8 11  4  0  0  0
 12  8  4  0  0  0
  9 23  1  0  0  0
 10 16  4  0  0  0
 11 20  4  0  0  0
 11 27  1  0  0  0
 19 12  4  0  0  0
 12 26  1  0  0  0
 13 15  1  0  0  0
 13 19  4  0  0  0
 13 20  4  0  0  0
 14 18  4  0  0  0
 15 22  2  0  0  0
 15 30  1  0  0  0
 16 18  4  0  0  0
 16 28  1  0  0  0
 17 24  4  0  0  0
 17 25  4  0  0  0
 18 29  1  0  0  0
 23 35  1  0  0  0
 23 36  1  0  0  0
 24 33  4  0  0  0
 25 32  4  0  0  0
 32 31  4  0  0  0
 31 33  4  0  0  0
 31 34  1  0  0  0
 35 37  1  0  0  0
 36 38  1  0  0  0
 37 39  1  0  0  0
 38 39  1  0  0  0
  7 40  1  0  0  0
  9 41  1  0  0  0
 10 42  1  0  0  0
 14 43  1  0  0  0
 19 44  1  0  0  0
 20 45  1  0  0  0
 23 46  1  0  0  0
 24 47  1  0  0  0
 25 48  1  0  0  0
 30 49  1  0  0  0
 32 50  1  0  0  0
 33 51  1  0  0  0
 35 52  1  0  0  0
 35 53  1  0  0  0
 36 54  1  0  0  0
 36 55  1  0  0  0
 37 56  1  0  0  0
 37 57  1  0  0  0
 38 58  1  0  0  0
 38 59  1  0  0  0
 39 60  1  0  0  0
 39 61  1  0  0  0
M  END
$$$$
