4q4p_ligand
  -I-interpret- 

 43 46  0  0  0  0  0  0  0  0999 V2000
  109.0460   18.4540   24.1300 O   0  0  0  0  0
  107.9630   18.1050   23.6670 C   0  0  0  0  0
  106.8830   17.7850   24.4800 N   0  0  0  0  0
  107.6990   18.0350   22.2280 C   0  0  0  0  0
  106.4020   17.7000   21.7870 C   0  0  0  0  0
  105.4170   17.3910   22.7210 N   0  0  0  0  0
  105.6600   17.4370   24.0430 C   0  0  0  0  0
  106.0950   17.7450   20.4230 C   0  0  0  0  0
  107.0750   18.1250   19.5020 C   0  0  0  0  0
  108.3610   18.4240   19.9500 C   0  0  0  0  0
  108.6710   18.3810   21.2920 C   0  0  0  0  0
  106.9990   18.3160   18.1240 N   0  0  0  0  0
  108.2150   18.7070   17.7820 C   0  0  0  0  0
  109.0750   18.7800   18.8220 N   0  0  0  0  0
  108.6210   19.0120   16.5470 N   0  0  0  0  0
  107.7210   18.9920   15.4080 C   0  0  0  0  0
  108.4550   19.1210   14.0920 C   0  0  0  0  0
  107.5390   19.0940   12.9080 N   0  3  0  0  0
  108.2860   18.7640   11.6580 C   0  0  0  0  0
  107.3440   18.6610   10.4830 C   0  0  0  0  0
  106.5570   19.9420   10.2960 C   0  0  0  0  0
  105.8540   20.3320   11.5810 C   0  0  0  0  0
  106.8180   20.3930   12.7450 C   0  0  0  0  0
  104.4884   17.1232   22.3948 H   0  0  0  0  0
  104.8712   17.1939   24.7549 H   0  0  0  0  0
  105.0940   17.4843   20.0794 H   0  0  0  0  0
  109.6820   18.6189   21.6228 H   0  0  0  0  0
  109.5972   19.2679   16.3987 H   0  0  0  0  0
  107.0414   19.8392   15.4999 H   0  0  0  0  0
  107.1959   18.0368   15.4094 H   0  0  0  0  0
  109.1350   18.2735   14.0059 H   0  0  0  0  0
  108.9709   20.0812   14.0916 H   0  0  0  0  0
  106.8482   18.3632   13.0785 H   0  0  0  0  0
  108.7885   17.8059   11.7910 H   0  0  0  0  0
  109.0090   19.5555   11.4609 H   0  0  0  0  0
  106.6435   17.8470   10.6696 H   0  0  0  0  0
  107.9305   18.4790    9.5824 H   0  0  0  0  0
  105.8089   19.7855    9.5188 H   0  0  0  0  0
  107.2444   20.7397   10.0146 H   0  0  0  0  0
  105.0952   19.5810   11.8006 H   0  0  0  0  0
  105.4126   21.3195   11.4466 H   0  0  0  0  0
  107.5492   21.1785   12.5541 H   0  0  0  0  0
  106.2557   20.5988   13.6558 H   0  0  0  0  0
  1  2  2  0  0  0
  2  3  1  0  0  0
  2  4  1  0  0  0
  3  7  2  0  0  0
  4  5  4  0  0  0
  4 11  4  0  0  0
  5  6  1  0  0  0
  5  8  4  0  0  0
  6  7  1  0  0  0
  8  9  4  0  0  0
  9 10  4  0  0  0
  9 12  4  0  0  0
 10 11  4  0  0  0
 10 14  4  0  0  0
 12 13  4  0  0  0
 13 14  4  0  0  0
 13 15  1  0  0  0
 15 16  1  0  0  0
 16 17  1  0  0  0
 17 18  1  0  0  0
 18 19  1  0  0  0
 18 23  1  0  0  0
 19 20  1  0  0  0
 20 21  1  0  0  0
 21 22  1  0  0  0
 22 23  1  0  0  0
  6 24  1  0  0  0
  7 25  1  0  0  0
  8 26  1  0  0  0
 11 27  1  0  0  0
 15 28  1  0  0  0
 16 29  1  0  0  0
 16 30  1  0  0  0
 17 31  1  0  0  0
 17 32  1  0  0  0
 18 33  1  0  0  0
 19 34  1  0  0  0
 19 35  1  0  0  0
 20 36  1  0  0  0
 20 37  1  0  0  0
 21 38  1  0  0  0
 21 39  1  0  0  0
 22 40  1  0  0  0
 22 41  1  0  0  0
 23 42  1  0  0  0
 23 43  1  0  0  0
M  END
$$$$
