3e12_ligand
  -I-interpret- 

 35 34  0  0  0  0  0  0  0  0999 V2000
   39.7270   55.7430   13.7460 O   0  0  0  0  0
   39.6260   55.9760   15.3180 P   0  0  0  0  0
   39.1850   57.4810   15.6280 O   0  0  0  0  0
   40.9090   55.6160   15.9830 O   0  0  0  0  0
   38.4920   55.0150   15.7580 O   0  0  0  0  0
   37.8650   55.1850   16.9500 C   0  0  0  0  0
   37.4430   53.8060   17.4370 C   0  0  0  0  0
   38.5460   53.2410   18.1550 O   0  0  0  0  0
   36.2470   53.9850   18.3460 C   0  0  0  0  0
   35.1470   54.5220   17.5600 O   0  0  0  0  0
   35.8220   52.6600   18.9970 C   0  0  0  0  0
   35.5660   51.6450   18.0140 O   0  0  0  0  0
   34.5270   52.8820   19.7500 C   0  0  0  0  0
   34.6880   53.9870   20.6180 O   0  0  0  0  0
   34.2040   51.6600   20.6120 C   0  0  0  0  0
   32.7440   51.7120   21.0630 C   0  0  0  0  0
   31.8340   51.4820   20.2610 O   0  0  0  0  0
   32.4040   52.0100   22.5220 C   0  0  0  0  0
   31.1740   51.9720   22.8410 O   0  0  0  0  0
   33.3810   52.2120   23.3110 O   0  0  0  0  0
   38.8927   55.9797   13.3343 H   0  0  0  0  0
   38.3564   57.6690   15.1811 H   0  0  0  0  0
   36.9971   55.8348   16.8380 H   0  0  0  0  0
   38.5317   55.6592   17.6703 H   0  0  0  0  0
   37.1730   53.1437   16.6145 H   0  0  0  0  0
   39.2929   53.1360   17.5611 H   0  0  0  0  0
   36.5183   54.6699   19.1493 H   0  0  0  0  0
   34.3799   54.6410   18.1247 H   0  0  0  0  0
   36.6318   52.3365   19.6509 H   0  0  0  0  0
   35.3037   50.8334   18.4545 H   0  0  0  0  0
   33.7260   53.0554   19.0314 H   0  0  0  0  0
   33.8712   54.1355   21.1001 H   0  0  0  0  0
   34.8512   51.6577   21.4891 H   0  0  0  0  0
   34.3675   50.7546   20.0275 H   0  0  0  0  0
   34.2020   52.1905   22.8139 H   0  0  0  0  0
  1  2  1  0  0  0
  2  3  1  0  0  0
  2  4  2  0  0  0
  2  5  1  0  0  0
  5  6  1  0  0  0
  6  7  1  0  0  0
  7  8  1  0  0  0
  7  9  1  0  0  0
  9 10  1  0  0  0
  9 11  1  0  0  0
 11 12  1  0  0  0
 11 13  1  0  0  0
 13 14  1  0  0  0
 13 15  1  0  0  0
 15 16  1  0  0  0
 16 17  2  0  0  0
 16 18  1  0  0  0
 18 19  2  0  0  0
 18 20  1  0  0  0
  1 21  1  0  0  0
  3 22  1  0  0  0
  6 23  1  0  0  0
  6 24  1  0  0  0
  7 25  1  0  0  0
  8 26  1  0  0  0
  9 27  1  0  0  0
 10 28  1  0  0  0
 11 29  1  0  0  0
 12 30  1  0  0  0
 13 31  1  0  0  0
 14 32  1  0  0  0
 15 33  1  0  0  0
 15 34  1  0  0  0
 20 35  1  0  0  0
M  END
$$$$
