3doz_ligand
  -I-interpret- 

 31 32  0  0  0  0  0  0  0  0999 V2000
  -18.6040   15.6990   11.8590 C   0  0  0  0  0
  -19.6890   14.8210   11.7800 C   0  0  0  0  0
  -21.4670   15.4180   11.6830 Br  0  0  0  0  0
  -19.4720   13.4600   11.7640 C   0  0  0  0  0
  -18.1770   12.9680   11.8280 C   0  0  0  0  0
  -17.0970   13.8390   11.9040 C   0  0  0  0  0
  -17.2960   15.2080   11.9060 C   0  0  0  0  0
  -16.0590   16.1150   12.0350 C   0  0  0  0  0
  -16.1250   17.1500   12.6890 O   0  0  0  0  0
  -14.9170   15.6440   11.5220 N   0  0  0  0  0
  -13.8580   16.2750   11.6140 N   0  0  0  0  0
  -13.8270   17.4360   12.2420 C   0  0  0  0  0
  -12.6790   18.1990   12.4750 C   0  0  0  0  0
  -11.3940   17.7520   12.1660 C   0  0  0  0  0
  -10.2830   18.5490   12.4560 C   0  0  0  0  0
   -8.5140   18.0030   12.0440 Br  0  0  0  0  0
  -10.4680   19.7830   13.0630 C   0  0  0  0  0
   -9.3980   20.5610   13.3480 O   0  0  0  0  0
  -11.7420   20.2280   13.3850 C   0  0  0  0  0
  -11.9700   21.9090   14.2180 Br  0  0  0  0  0
  -12.8400   19.4320   13.0940 C   0  0  0  0  0
  -14.0820   19.8630   13.4100 O   0  0  0  0  0
  -18.7792   16.7745   11.8841 H   0  0  0  0  0
  -20.3156   12.7726   11.7012 H   0  0  0  0  0
  -18.0053   11.8916   11.8186 H   0  0  0  0  0
  -16.0843   13.4401   11.9625 H   0  0  0  0  0
  -14.1276   17.1587   13.2524 H   0  0  0  0  0
  -14.3959   18.0768   11.5684 H   0  0  0  0  0
  -11.2560   16.7779   11.6968 H   0  0  0  0  0
   -9.6962   21.3740   13.7624 H   0  0  0  0  0
  -14.0235   20.7250   13.8284 H   0  0  0  0  0
  1  2  4  0  0  0
  1  7  4  0  0  0
  2  3  1  0  0  0
  2  4  4  0  0  0
  4  5  4  0  0  0
  5  6  4  0  0  0
  6  7  4  0  0  0
  7  8  1  0  0  0
  8  9  2  0  0  0
  8 10  1  0  0  0
 10 11  2  0  0  0
 11 12  1  0  0  0
 12 13  1  0  0  0
 13 14  4  0  0  0
 13 21  4  0  0  0
 14 15  4  0  0  0
 15 16  1  0  0  0
 15 17  4  0  0  0
 17 18  1  0  0  0
 17 19  4  0  0  0
 19 20  1  0  0  0
 19 21  4  0  0  0
 21 22  1  0  0  0
  1 23  1  0  0  0
  4 24  1  0  0  0
  5 25  1  0  0  0
  6 26  1  0  0  0
 12 27  1  0  0  0
 12 28  1  0  0  0
 14 29  1  0  0  0
 18 30  1  0  0  0
 22 31  1  0  0  0
M  END
$$$$
