4ded_ligand
  -I-interpret- 

 42 44  0  0  0  0  0  0  0  0999 V2000
   -3.0620  -32.8350    6.8240 N   0  0  0  0  0
   -3.7940  -30.6670    6.5190 N   0  0  0  0  0
   -3.4210  -31.6380    8.6900 N   0  0  0  0  0
   -4.5370  -28.4380    6.4130 N   0  0  0  0  0
   -0.7470  -34.0730    4.2970 C   0  0  0  0  0
   -7.2560  -25.7670    5.7640 N   0  0  0  0  0
   -1.3420  -33.5730    3.0920 C   0  0  0  0  0
   -0.6230  -32.7370    0.8990 N   0  0  0  0  0
   -2.5330  -32.8090    3.1730 C   0  0  0  0  0
   -3.1240  -32.5500    4.4390 C   0  0  0  0  0
   -2.5310  -33.0470    5.6490 C   0  0  0  0  0
   -1.3400  -33.8110    5.5630 C   0  0  0  0  0
   -0.7710  -33.8240    1.8670 C   0  0  0  0  0
   -3.4270  -31.6990    7.3370 C   0  0  0  0  0
   -4.1810  -29.4860    7.1310 C   0  0  0  0  0
   -4.2060  -29.3330    8.5200 C   0  0  0  0  0
   -3.8120  -30.4540    9.2480 C   0  0  0  0  0
   -4.9690  -28.4320    5.1660 C   0  0  0  0  0
   -4.1990  -29.0240    4.1030 C   0  0  0  0  0
   -4.6680  -29.0110    2.7620 C   0  0  0  0  0
   -5.9100  -28.4050    2.4500 C   0  0  0  0  0
   -6.6930  -27.8060    3.4780 C   0  0  0  0  0
   -6.2430  -27.8090    4.8380 C   0  0  0  0  0
   -7.0280  -27.2160    5.8010 C   0  0  0  0  0
   -7.5470  -27.8770    6.6760 O   0  0  0  0  0
   -0.3850  -34.9370    1.5690 O   0  0  0  0  0
   -3.2070  -33.6591    7.4073 H   0  0  0  0  0
   -4.4709  -27.5303    6.8735 H   0  0  0  0  0
    0.1697  -34.6602    4.2422 H   0  0  0  0  0
   -7.8458  -25.3254    6.4693 H   0  0  0  0  0
   -6.8247  -25.2014    5.0329 H   0  0  0  0  0
   -0.2006  -32.9189   -0.0114 H   0  0  0  0  0
   -0.9422  -31.7973    1.1346 H   0  0  0  0  0
   -2.9950  -32.4206    2.2654 H   0  0  0  0  0
   -4.0420  -31.9648    4.4927 H   0  0  0  0  0
   -0.8770  -34.1990    6.4703 H   0  0  0  0  0
   -4.5119  -28.4032    8.9996 H   0  0  0  0  0
   -3.8161  -30.3812   10.3356 H   0  0  0  0  0
   -3.2403  -29.4899    4.3310 H   0  0  0  0  0
   -4.0716  -29.4678    1.9723 H   0  0  0  0  0
   -6.2674  -28.3971    1.4203 H   0  0  0  0  0
   -7.6458  -27.3399    3.2269 H   0  0  0  0  0
  1 11  1  0  0  0
 14  1  1  0  0  0
  2 14  4  0  0  0
 15  2  4  0  0  0
 14  3  4  0  0  0
 17  3  4  0  0  0
  4 15  1  0  0  0
 18  4  1  0  0  0
  5  7  4  0  0  0
 12  5  4  0  0  0
 24  6  1  0  0  0
  9  7  4  0  0  0
  7 13  1  0  0  0
 13  8  1  0  0  0
 10  9  4  0  0  0
 11 10  4  0  0  0
 11 12  4  0  0  0
 13 26  2  0  0  0
 15 16  4  0  0  0
 16 17  4  0  0  0
 18 19  4  0  0  0
 23 18  4  0  0  0
 19 20  4  0  0  0
 21 20  4  0  0  0
 22 21  4  0  0  0
 23 22  4  0  0  0
 23 24  1  0  0  0
 24 25  2  0  0  0
  1 27  1  0  0  0
  4 28  1  0  0  0
  5 29  1  0  0  0
  6 30  1  0  0  0
  6 31  1  0  0  0
  8 32  1  0  0  0
  8 33  1  0  0  0
  9 34  1  0  0  0
 10 35  1  0  0  0
 12 36  1  0  0  0
 16 37  1  0  0  0
 17 38  1  0  0  0
 19 39  1  0  0  0
 20 40  1  0  0  0
 21 41  1  0  0  0
 22 42  1  0  0  0
M  END
$$$$
