5j1w_ligand
  -I-interpret- 

 23 25  0  0  0  0  0  0  0  0999 V2000
   -6.3150   29.2970   -8.2830 C   0  0  0  0  0
   -6.2560   30.6530   -7.9980 C   0  0  0  0  0
   -6.1230   31.2480   -6.7330 C   0  0  0  0  0
   -6.1250   32.5450   -6.5020 N   0  0  0  0  0
   -6.2820   33.3360   -7.5710 C   0  0  0  0  0
   -6.3630   31.5730   -9.0590 C   0  0  0  0  0
   -6.2650   34.6530   -7.3540 N   0  0  0  0  0
   -6.4710   31.0980  -10.3640 C   0  0  0  0  0
   -6.4990   29.7360  -10.6400 C   0  0  0  0  0
   -6.3970   32.9230   -8.8390 N   0  0  0  0  0
   -6.5100   29.2350  -11.9600 C   0  0  0  0  0
   -6.4470   28.8200   -9.5780 C   0  0  0  0  0
   -6.4750   27.4500   -9.9160 C   0  0  0  0  0
   -6.5320   26.9860  -11.1710 N   0  0  0  0  0
   -6.5090   27.8890  -12.1590 C   0  0  0  0  0
   -6.2556   28.5828   -7.4618 H   0  0  0  0  0
   -6.0092   30.5850   -5.8753 H   0  0  0  0  0
   -6.1367   35.0124   -6.4081 H   0  0  0  0  0
   -6.3803   35.2999   -8.1341 H   0  0  0  0  0
   -6.5350   31.8100  -11.1868 H   0  0  0  0  0
   -6.5192   29.9182  -12.8093 H   0  0  0  0  0
   -6.4486   26.7234   -9.1040 H   0  0  0  0  0
   -6.4882   27.5236  -13.1857 H   0  0  0  0  0
  1  2  4  0  0  0
  1 12  4  0  0  0
  2  3  4  0  0  0
  2  6  4  0  0  0
  3  4  4  0  0  0
  4  5  4  0  0  0
  5  7  1  0  0  0
  5 10  4  0  0  0
  6  8  4  0  0  0
  6 10  4  0  0  0
  8  9  4  0  0  0
  9 11  4  0  0  0
  9 12  4  0  0  0
 11 15  4  0  0  0
 12 13  4  0  0  0
 13 14  4  0  0  0
 14 15  4  0  0  0
  1 16  1  0  0  0
  3 17  1  0  0  0
  7 18  1  0  0  0
  7 19  1  0  0  0
  8 20  1  0  0  0
 11 21  1  0  0  0
 13 22  1  0  0  0
 15 23  1  0  0  0
M  END
$$$$
