2q89_ligand
  -I-interpret- 

 21 21  0  0  0  0  0  0  0  0999 V2000
   15.6550   24.2200   32.7830 O   0  0  0  0  0
   16.3760   23.6530   31.9400 C   0  0  0  0  0
   16.5880   24.0770   30.7810 O   0  0  0  0  0
   17.0450   22.3110   32.3500 C   0  0  0  0  0
   18.1960   22.0150   31.4680 N   0  0  0  0  0
   19.2850   21.2470   31.9200 C   0  0  0  0  0
   20.4450   20.9610   30.9830 C   0  0  0  0  0
   19.3380   20.7470   33.2290 N   0  0  0  0  0
   18.2350   20.9940   34.1750 C   0  0  0  0  0
   17.4710   22.2800   33.8380 C   0  0  0  0  0
   16.3180   22.2720   34.6690 O   0  0  0  0  0
   17.1735   23.4705   30.3217 H   0  0  0  0  0
   16.2918   21.5327   32.2272 H   0  0  0  0  0
   20.0804   20.4193   30.1102 H   0  0  0  0  0
   20.8951   21.9019   30.6664 H   0  0  0  0  0
   21.1894   20.3572   31.5021 H   0  0  0  0  0
   20.1489   20.2063   33.5299 H   0  0  0  0  0
   18.6582   21.0994   35.1739 H   0  0  0  0  0
   17.5392   20.1571   34.1152 H   0  0  0  0  0
   18.0966   23.1569   34.0047 H   0  0  0  0  0
   15.7974   23.0606   34.4996 H   0  0  0  0  0
  1  2  2  0  0  0
  2  3  1  0  0  0
  2  4  1  0  0  0
  4  5  1  0  0  0
  4 10  1  0  0  0
  5  6  2  0  0  0
  6  7  1  0  0  0
  6  8  1  0  0  0
  8  9  1  0  0  0
  9 10  1  0  0  0
 10 11  1  0  0  0
  3 12  1  0  0  0
  4 13  1  0  0  0
  7 14  1  0  0  0
  7 15  1  0  0  0
  7 16  1  0  0  0
  8 17  1  0  0  0
  9 18  1  0  0  0
  9 19  1  0  0  0
 10 20  1  0  0  0
 11 21  1  0  0  0
M  END
$$$$
