5lz2_ligand
  -I-interpret- 

 25 26  0  0  0  0  0  0  0  0999 V2000
   25.4730    4.9660   -2.7160 N   0  0  0  0  0
   25.3080    3.7330   -2.0130 C   0  0  0  0  0
   23.9670    3.0660   -2.0380 C   0  0  0  0  0
   25.1060    2.4730   -2.7970 C   0  0  0  0  0
   24.1110    7.3260   -2.9480 C   0  0  0  0  0
   23.0430    7.7700   -5.0420 C   0  0  0  0  0
   22.2950    8.7660   -4.4490 C   0  0  0  0  0
   22.4510    9.0500   -3.0940 C   0  0  0  0  0
   21.6710   10.0890   -2.4730 C   0  0  0  0  0
   23.3690    8.3190   -2.3470 C   0  0  0  0  0
   24.6770    6.1420   -0.7210 O   0  0  0  0  0
   25.2690    6.4090   -1.9960 S   0  0  0  0  0
   26.5090    7.1120   -2.0650 O   0  0  0  0  0
   23.9500    7.0500   -4.2960 C   0  0  0  0  0
   21.0540   10.9120   -1.9810 N   0  0  0  0  0
   25.7275    4.9398   -3.7034 H   0  0  0  0  0
   25.9990    4.0531   -1.2332 H   0  0  0  0  0
   22.9244    3.3349   -2.2080 H   0  0  0  0  0
   23.2014    2.7451   -1.3316 H   0  0  0  0  0
   25.5872    1.5029   -2.9213 H   0  0  0  0  0
   25.3101    2.0928   -3.7979 H   0  0  0  0  0
   22.9161    7.5524   -6.1025 H   0  0  0  0  0
   21.5787    9.3333   -5.0433 H   0  0  0  0  0
   23.5012    8.5319   -1.2862 H   0  0  0  0  0
   24.5406    6.2636   -4.7660 H   0  0  0  0  0
  1  2  1  0  0  0
 12  1  1  0  0  0
  2  3  1  0  0  0
  2  4  1  0  0  0
  4  3  1  0  0  0
  5 10  4  0  0  0
  5 12  1  0  0  0
 14  5  4  0  0  0
  6  7  4  0  0  0
  6 14  4  0  0  0
  7  8  4  0  0  0
  8  9  1  0  0  0
  8 10  4  0  0  0
  9 15  3  0  0  0
 12 11  2  0  0  0
 12 13  2  0  0  0
  1 16  1  0  0  0
  2 17  1  0  0  0
  3 18  1  0  0  0
  3 19  1  0  0  0
  4 20  1  0  0  0
  4 21  1  0  0  0
  6 22  1  0  0  0
  7 23  1  0  0  0
 10 24  1  0  0  0
 14 25  1  0  0  0
M  END
$$$$
