1fmb_ligand
  -I-interpret- 

 82 84  0  0  0  0  0  0  0  0999 V2000
    6.4880   21.1190    6.5200 S   0  0  0  0  0
    6.9640   22.3740    6.0080 O   0  0  0  0  0
    5.1110   21.0070    6.8760 O   0  0  0  0  0
    9.6950   22.1480    0.9520 C   0  0  0  0  0
    8.7560   22.6570    1.7970 C   0  0  0  0  0
    7.7930   21.7770    2.4330 C   0  0  0  0  0
    7.8250   20.4490    2.1930 C   0  0  0  0  0
    8.8370   19.8570    1.2590 C   0  0  0  0  0
    9.7530   20.7400    0.6730 C   0  0  0  0  0
   10.7630   20.2350   -0.2150 C   0  0  0  0  0
   10.8110   18.8940   -0.4930 C   0  0  0  0  0
    9.8750   17.9990    0.0950 C   0  0  0  0  0
    8.9000   18.4890    0.9680 C   0  0  0  0  0
    2.1590   16.6320   -0.4430 O   0  0  0  0  0
    1.1910   17.7140   -0.7010 C   0  0  0  0  0
    2.2440   18.8780    1.1540 N   0  0  0  0  0
    1.9270   19.0160   -0.2780 C   0  0  0  0  0
    3.2600   19.1980   -1.0430 C   0  0  0  0  0
    3.9850   20.5270   -0.9940 C   0  0  0  0  0
    5.0320   20.8010   -0.1070 C   0  0  0  0  0
    5.7340   22.0130   -0.1100 C   0  0  0  0  0
    5.3690   22.9990   -1.0340 C   0  0  0  0  0
    4.3470   22.7430   -1.9450 C   0  0  0  0  0
    3.6590   21.5260   -1.9270 C   0  0  0  0  0
    3.6960   19.9570    3.6110 N   0  0  0  0  0
    2.3190   19.4000    3.5590 C   0  0  0  0  0
    1.8300   19.7870    2.1110 C   0  0  0  0  0
    1.1100   20.7340    1.8380 O   0  0  0  0  0
    1.3810   19.9220    4.6750 C   0  0  0  0  0
   -0.0900   19.5970    4.3670 C   0  0  0  0  0
    1.8700   19.2880    5.9980 C   0  0  0  0  0
    4.7730   19.2870    4.1060 C   0  0  0  0  0
    4.7100   18.1280    4.5340 O   0  0  0  0  0
    6.1180   20.0380    4.0130 C   0  0  0  0  0
    6.8410   19.4250    2.7860 C   0  0  0  0  0
    6.9770   19.9000    5.3110 C   0  0  0  0  0
    6.9310   19.4080    8.6970 C   0  0  0  0  0
    7.4420   20.7170    8.0430 C   0  0  0  0  0
    7.1320   21.8660    9.0330 C   0  0  0  0  0
    8.9560   20.6600    7.7230 C   0  0  0  0  0
   10.4131   22.8189    0.4804 H   0  0  0  0  0
    8.7277   23.7283    1.9962 H   0  0  0  0  0
    7.0417   22.1896    3.1064 H   0  0  0  0  0
   11.4869   20.9144   -0.6650 H   0  0  0  0  0
   11.5733   18.5098   -1.1708 H   0  0  0  0  0
    9.9180   16.9343   -0.1346 H   0  0  0  0  0
    8.1858   17.8035    1.4241 H   0  0  0  0  0
    1.7672   15.7894   -0.6841 H   0  0  0  0  0
    0.2657   17.5718   -0.1427 H   0  0  0  0  0
    0.8846   17.7430   -1.7466 H   0  0  0  0  0
    2.7950   18.0738    1.4542 H   0  0  0  0  0
    1.2911   19.8743   -0.4949 H   0  0  0  0  0
    2.9919   19.0720   -2.0920 H   0  0  0  0  0
    3.9452   18.4958   -0.5681 H   0  0  0  0  0
    5.3137   20.0376    0.6182 H   0  0  0  0  0
    6.5486   22.1850    0.5935 H   0  0  0  0  0
    5.8813   23.9611   -1.0406 H   0  0  0  0  0
    4.0802   23.5011   -2.6813 H   0  0  0  0  0
    2.8591   21.3497   -2.6462 H   0  0  0  0  0
    3.8435   20.9008    3.2533 H   0  0  0  0  0
    2.3072   18.3255    3.7417 H   0  0  0  0  0
    1.4203   21.0088    4.7493 H   0  0  0  0  0
   -0.3752   20.0670    3.4258 H   0  0  0  0  0
   -0.2131   18.5169    4.2872 H   0  0  0  0  0
   -0.7207   19.9775    5.1704 H   0  0  0  0  0
    1.8155   18.2021    5.9209 H   0  0  0  0  0
    2.9009   19.5891    6.1844 H   0  0  0  0  0
    1.2370   19.6276    6.8179 H   0  0  0  0  0
    5.9583   21.1106    3.9029 H   0  0  0  0  0
    7.3908   18.5373    3.0989 H   0  0  0  0  0
    6.1026   19.1565    2.0305 H   0  0  0  0  0
    6.8257   18.9055    5.7308 H   0  0  0  0  0
    8.0261   20.0539    5.0584 H   0  0  0  0  0
    7.4466   19.2514    9.6445 H   0  0  0  0  0
    5.8584   19.4866    8.8742 H   0  0  0  0  0
    7.1299   18.5687    8.0306 H   0  0  0  0  0
    7.6817   21.7033    9.9601 H   0  0  0  0  0
    7.4344   22.8157    8.5916 H   0  0  0  0  0
    6.0624   21.8852    9.2419 H   0  0  0  0  0
    9.2672   21.6038    7.2753 H   0  0  0  0  0
    9.5146   20.4915    8.6437 H   0  0  0  0  0
    9.1482   19.8447    7.0255 H   0  0  0  0  0
  1  2  2  0  0  0
  1  3  2  0  0  0
 36  1  1  0  0  0
  1 38  1  0  0  0
  5  4  4  0  0  0
  9  4  4  0  0  0
  6  5  4  0  0  0
  7  6  4  0  0  0
  7  8  4  0  0  0
 35  7  1  0  0  0
  8  9  4  0  0  0
  8 13  4  0  0  0
  9 10  4  0  0  0
 10 11  4  0  0  0
 12 11  4  0  0  0
 13 12  4  0  0  0
 15 14  1  0  0  0
 17 15  1  0  0  0
 17 18  1  0  0  0
 18 19  1  0  0  0
 19 20  4  0  0  0
 19 24  4  0  0  0
 20 21  4  0  0  0
 21 22  4  0  0  0
 23 22  4  0  0  0
 24 23  4  0  0  0
 26 25  1  0  0  0
 25 32  1  0  0  0
 27 26  1  0  0  0
 26 29  1  0  0  0
 27 28  2  0  0  0
 29 30  1  0  0  0
 29 31  1  0  0  0
 32 33  2  0  0  0
 32 34  1  0  0  0
 34 35  1  0  0  0
 34 36  1  0  0  0
 38 39  1  0  0  0
 38 40  1  0  0  0
 38 37  1  0  0  0
 16 27  1  0  0  0
 16 17  1  0  0  0
  4 41  1  0  0  0
  5 42  1  0  0  0
  6 43  1  0  0  0
 10 44  1  0  0  0
 11 45  1  0  0  0
 12 46  1  0  0  0
 13 47  1  0  0  0
 14 48  1  0  0  0
 15 49  1  0  0  0
 15 50  1  0  0  0
 16 51  1  0  0  0
 17 52  1  0  0  0
 18 53  1  0  0  0
 18 54  1  0  0  0
 20 55  1  0  0  0
 21 56  1  0  0  0
 22 57  1  0  0  0
 23 58  1  0  0  0
 24 59  1  0  0  0
 25 60  1  0  0  0
 26 61  1  0  0  0
 29 62  1  0  0  0
 30 63  1  0  0  0
 30 64  1  0  0  0
 30 65  1  0  0  0
 31 66  1  0  0  0
 31 67  1  0  0  0
 31 68  1  0  0  0
 34 69  1  0  0  0
 35 70  1  0  0  0
 35 71  1  0  0  0
 36 72  1  0  0  0
 36 73  1  0  0  0
 37 74  1  0  0  0
 37 75  1  0  0  0
 37 76  1  0  0  0
 39 77  1  0  0  0
 39 78  1  0  0  0
 39 79  1  0  0  0
 40 80  1  0  0  0
 40 81  1  0  0  0
 40 82  1  0  0  0
M  END
$$$$
