3bh3_ligand
  -I-interpret- 

 16 15  0  0  0  0  0  0  0  0999 V2000
    3.8040  -31.9540  -16.1460 C   0  0  0  0  0
    3.4510  -33.3260  -13.8830 C   0  0  0  0  0
    4.8510  -33.1870  -13.3390 C   0  0  0  0  0
    5.6030  -32.3340  -13.7870 O   0  0  0  0  0
    5.2680  -34.1500  -12.2450 C   0  0  0  0  0
    2.9820  -32.3350  -14.9320 C   0  0  0  0  0
    4.7476  -31.5155  -15.8212 H   0  0  0  0  0
    4.0020  -32.8442  -16.7431 H   0  0  0  0  0
    3.2518  -31.2291  -16.7441 H   0  0  0  0  0
    2.7950  -33.1677  -13.0270 H   0  0  0  0  0
    3.4322  -34.2967  -14.3785 H   0  0  0  0  0
    6.1196  -34.7387  -12.5861 H   0  0  0  0  0
    5.5472  -33.5872  -11.3543 H   0  0  0  0  0
    4.4360  -34.8141  -12.0108 H   0  0  0  0  0
    2.1160  -32.8322  -15.3688 H   0  0  0  0  0
    2.9197  -31.4000  -14.3752 H   0  0  0  0  0
  6  1  1  0  0  0
  2  3  1  0  0  0
  2  6  1  0  0  0
  3  4  2  0  0  0
  3  5  1  0  0  0
  1  7  1  0  0  0
  1  8  1  0  0  0
  1  9  1  0  0  0
  2 10  1  0  0  0
  2 11  1  0  0  0
  5 12  1  0  0  0
  5 13  1  0  0  0
  5 14  1  0  0  0
  6 15  1  0  0  0
  6 16  1  0  0  0
M  END
$$$$
