3lbl_ligand
  -I-interpret- 

 56 59  0  0  0  0  0  0  0  0999 V2000
  -13.6040    3.6600  -18.5500 C   0  0  0  0  0
  -12.8400    4.7960  -18.7890 C   0  0  0  0  0
  -11.7930    5.1400  -17.9500 C   0  0  0  0  0
  -10.8820    6.5690  -18.3070 Cl  0  0  0  0  0
  -11.5150    4.3300  -16.8510 C   0  0  0  0  0
  -12.2720    3.1770  -16.5990 C   0  0  0  0  0
  -13.3360    2.8340  -17.4390 C   0  0  0  0  0
  -14.3840    1.7070  -17.5500 C   0  0  0  0  0
  -15.1480    2.1160  -18.7510 C   0  0  0  0  0
  -16.1070    1.4800  -19.1780 O   0  0  0  0  0
  -14.6360    3.2170  -19.2730 N   0  0  0  0  0
  -13.8270    0.2960  -17.8780 C   0  0  0  0  0
  -12.6350    0.3320  -18.8850 C   0  0  0  0  0
  -11.4510   -0.6270  -18.7400 C   0  0  0  0  0
  -10.8500   -0.7770  -20.1340 C   0  0  0  0  0
  -10.4100    0.0060  -17.8270 C   0  0  0  0  0
  -11.8420   -2.0140  -18.2170 C   0  0  0  0  0
  -13.6520   -0.3580  -16.5620 N   0  3  0  0  0
  -14.9400   -0.0540  -15.8890 C   0  0  0  0  0
  -14.8500   -0.3780  -14.3920 C   0  0  0  0  0
  -15.3270    0.3400  -13.5260 O   0  0  0  0  0
  -14.3020   -1.5660  -14.1460 N   0  0  0  0  0
  -15.4100    1.3420  -16.4370 C   0  0  0  0  0
  -16.0800    2.5630  -15.6900 C   0  0  0  0  0
  -15.5880    3.5780  -14.8320 C   0  0  0  0  0
  -14.3260    3.6400  -14.3650 F   0  0  0  0  0
  -16.4730    4.5770  -14.3870 C   0  0  0  0  0
  -15.9740    5.8310  -13.3140 Cl  0  0  0  0  0
  -17.7990    4.6200  -14.7900 C   0  0  0  0  0
  -18.2820    3.6550  -15.6510 C   0  0  0  0  0
  -17.4160    2.6710  -16.0920 C   0  0  0  0  0
  -13.0680    5.4254  -19.6492 H   0  0  0  0  0
  -10.6991    4.5959  -16.1789 H   0  0  0  0  0
  -12.0300    2.5452  -15.7444 H   0  0  0  0  0
  -14.9838    3.6697  -20.1183 H   0  0  0  0  0
  -14.4983   -0.3332  -18.4624 H   0  0  0  0  0
  -12.1953    1.3186  -18.7388 H   0  0  0  0  0
  -13.0855    0.0535  -19.8377 H   0  0  0  0  0
  -11.6022   -1.1821  -20.8109 H   0  0  0  0  0
  -10.5229    0.1984  -20.4941 H   0  0  0  0  0
   -9.9970   -1.4541  -20.0896 H   0  0  0  0  0
  -10.0712    0.9465  -18.2616 H   0  0  0  0  0
  -10.8530    0.1949  -16.8491 H   0  0  0  0  0
   -9.5632   -0.6717  -17.7189 H   0  0  0  0  0
  -12.3017   -1.9138  -17.2338 H   0  0  0  0  0
  -12.5507   -2.4741  -18.9056 H   0  0  0  0  0
  -10.9507   -2.6368  -18.1411 H   0  0  0  0  0
  -12.8390   -0.0183  -16.0482 H   0  0  0  0  0
  -13.4596   -1.3573  -16.6311 H   0  0  0  0  0
  -15.7901   -0.6943  -16.1245 H   0  0  0  0  0
  -14.2643   -1.9223  -13.1910 H   0  0  0  0  0
  -13.9199   -2.1199  -14.9125 H   0  0  0  0  0
  -16.4544    1.1098  -16.6454 H   0  0  0  0  0
  -18.4562    5.4111  -14.4291 H   0  0  0  0  0
  -19.3224    3.6683  -15.9759 H   0  0  0  0  0
  -17.7983    1.9330  -16.7972 H   0  0  0  0  0
  1  2  4  0  0  0
  1  7  4  0  0  0
  1 11  1  0  0  0
  2  3  4  0  0  0
  3  4  1  0  0  0
  3  5  4  0  0  0
  5  6  4  0  0  0
  6  7  4  0  0  0
  7  8  1  0  0  0
  8  9  1  0  0  0
  8 12  1  0  0  0
  8 23  1  0  0  0
  9 10  2  0  0  0
  9 11  1  0  0  0
 12 13  1  0  0  0
 12 18  1  0  0  0
 13 14  1  0  0  0
 14 15  1  0  0  0
 14 16  1  0  0  0
 14 17  1  0  0  0
 18 19  1  0  0  0
 19 20  1  0  0  0
 19 23  1  0  0  0
 20 21  2  0  0  0
 20 22  1  0  0  0
 23 24  1  0  0  0
 24 25  4  0  0  0
 24 31  4  0  0  0
 25 26  1  0  0  0
 25 27  4  0  0  0
 27 28  1  0  0  0
 27 29  4  0  0  0
 29 30  4  0  0  0
 30 31  4  0  0  0
  2 32  1  0  0  0
  5 33  1  0  0  0
  6 34  1  0  0  0
 11 35  1  0  0  0
 12 36  1  0  0  0
 13 37  1  0  0  0
 13 38  1  0  0  0
 15 39  1  0  0  0
 15 40  1  0  0  0
 15 41  1  0  0  0
 16 42  1  0  0  0
 16 43  1  0  0  0
 16 44  1  0  0  0
 17 45  1  0  0  0
 17 46  1  0  0  0
 17 47  1  0  0  0
 18 48  1  0  0  0
 18 49  1  0  0  0
 19 50  1  0  0  0
 22 51  1  0  0  0
 22 52  1  0  0  0
 23 53  1  0  0  0
 29 54  1  0  0  0
 30 55  1  0  0  0
 31 56  1  0  0  0
M  END
$$$$
