### 
### Created by X-TOOL on Mon Sep 10 21:12:57 2018
### 

@<TRIPOS>MOLECULE
2oi3_ligand
  204   209     1     0     0
SMALL
GAST_HUCK


@<TRIPOS>ATOM
      1 C          40.3480   -9.7090  -56.4520 C.2       1 ACE         0.1752
      2 O          40.6970  -10.7170  -57.0630 O.2       1 ACE        -0.3972
      3 CH3        40.5650   -9.6120  -54.9580 C.3       1 ACE         0.0258
      4 N          39.7710   -8.6570  -57.0290 N.am      1 HIS        -0.2640
      5 CA         39.2810   -8.6000  -58.4110 C.3       1 HIS         0.1420
      6 C          39.5300   -7.2220  -59.0570 C.2       1 HIS         0.2061
      7 O          39.8240   -6.2360  -58.3860 O.2       1 HIS        -0.3942
      8 CB         37.7670   -8.9300  -58.3960 C.3       1 HIS         0.0427
      9 CG         37.3990  -10.3950  -58.3150 C.2       1 HIS         0.0561
     10 ND1        38.2330  -11.4820  -58.4600 N.pl3     1 HIS        -0.2623
     11 CD2        36.1280  -10.8920  -58.2000 C.2       1 HIS        -0.0276
     12 CE1        37.4900  -12.6000  -58.4360 C.2       1 HIS         0.0875
     13 NE2        36.1910  -12.2900  -58.2860 N.2       1 HIS        -0.3437
     14 N          39.3480   -7.1370  -60.3770 N.am      1 SER        -0.2614
     15 CA         39.3600   -5.8850  -61.1630 C.3       1 SER         0.1539
     16 C          38.2540   -5.9120  -62.2330 C.2       1 SER         0.2062
     17 O          38.4400   -5.5900  -63.4090 O.2       1 SER        -0.3943
     18 CB         40.7550   -5.6320  -61.7270 C.3       1 SER         0.0843
     19 OG         40.9240   -4.2650  -62.0590 O.3       1 SER        -0.3903
     20 N          37.0780   -6.3800  -61.7920 N.am      1 LYS        -0.2637
     21 CA         35.8440   -6.6120  -62.5700 C.3       1 LYS         0.1310
     22 C          35.3490   -5.4120  -63.3970 C.2       1 LYS         0.2040
     23 O          34.7190   -5.6010  -64.4370 O.2       1 LYS        -0.3944
     24 CB         34.7640   -7.1130  -61.5880 C.3       1 LYS        -0.0122
     25 CG         34.4050   -6.0880  -60.4880 C.3       1 LYS        -0.0440
     26 CD         33.7490   -6.7140  -59.2520 C.3       1 LYS        -0.0124
     27 CE         32.4770   -7.4910  -59.6040 C.3       1 LYS        -0.0354
     28 NZ         31.7130   -7.8050  -58.3810 N.4       1 LYS         0.2185
     29 N          35.6570   -4.2000  -62.9350 N.am      1 TYR        -0.2621
     30 CA         35.2880   -2.9030  -63.5260 C.3       1 TYR         0.1392
     31 C          36.3750   -1.8640  -63.1780 C.2       1 TYR         0.2082
     32 O          37.0040   -2.0100  -62.1260 O.2       1 TYR        -0.3940
     33 CB         33.9320   -2.4360  -62.9530 C.3       1 TYR         0.0164
     34 CG         32.7000   -2.8890  -63.7240 C.ar      1 TYR        -0.0493
     35 CD1        32.1150   -4.1460  -63.4730 C.ar      1 TYR        -0.0685
     36 CD2        32.1180   -2.0300  -64.6790 C.ar      1 TYR        -0.0685
     37 CE1        30.9720   -4.5570  -64.1870 C.ar      1 TYR        -0.0398
     38 CE2        30.9690   -2.4320  -65.3880 C.ar      1 TYR        -0.0398
     39 CZ         30.3960   -3.6990  -65.1490 C.ar      1 TYR         0.0805
     40 OH         29.2890   -4.0830  -65.8400 O.3       1 TYR        -0.3376
     41 N          36.5640   -0.7910  -63.9740 N.am      1 PRO        -0.2497
     42 CA         37.5710    0.2590  -63.7500 C.3       1 PRO         0.1338
     43 C          37.1790    1.2560  -62.6280 C.2       1 PRO         0.2041
     44 O          37.2200    2.4770  -62.8100 O.2       1 PRO        -0.3944
     45 CB         37.7540    0.9080  -65.1300 C.3       1 PRO        -0.0104
     46 CG         36.3520    0.8220  -65.7270 C.3       1 PRO        -0.0281
     47 CD         35.8660   -0.5390  -65.2320 C.3       1 PRO         0.0369
     48 N          36.7840    0.7080  -61.4700 N.am      1 LEU        -0.2637
     49 CA         36.1720    1.3350  -60.2860 C.3       1 LEU         0.1314
     50 C          34.8170    2.0620  -60.5310 C.2       1 LEU         0.2064
     51 O          34.5220    2.5030  -61.6470 O.2       1 LEU        -0.3942
     52 CB         37.2060    2.2340  -59.5720 C.3       1 LEU        -0.0101
     53 CG         38.2790    1.4560  -58.7850 C.3       1 LEU        -0.0425
     54 CD1        39.5060    2.3350  -58.5450 C.3       1 LEU        -0.0625
     55 CD2        37.7370    0.8550  -57.4850 C.3       1 LEU        -0.0625
     56 N          33.9640    2.1800  -59.4900 N.am      1 PRO        -0.2498
     57 CA         32.7090    2.9260  -59.5460 C.3       1 PRO         0.1340
     58 C          32.9210    4.4450  -59.6450 C.2       1 PRO         0.2066
     59 O          33.9660    4.9490  -59.2150 O.2       1 PRO        -0.3942
     60 CB         31.9400    2.5820  -58.2670 C.3       1 PRO        -0.0104
     61 CG         32.9220    1.8980  -57.3410 C.3       1 PRO        -0.0281
     62 CD         34.1710    1.6290  -58.1680 C.3       1 PRO         0.0369
     63 N          31.9170    5.1970  -60.1360 N.am      1 PRO        -0.2498
     64 CA         31.9580    6.6530  -60.1640 C.3       1 PRO         0.1338
     65 C          31.7420    7.2100  -58.7590 C.2       1 PRO         0.2041
     66 O          30.6830    7.0540  -58.1460 O.2       1 PRO        -0.3944
     67 CB         30.8580    7.0570  -61.1480 C.3       1 PRO        -0.0104
     68 CG         29.8040    5.9550  -61.0000 C.3       1 PRO        -0.0281
     69 CD         30.5780    4.7300  -60.5020 C.3       1 PRO         0.0369
     70 N          32.7920    7.8680  -58.2660 N.am      1 LEU        -0.2637
     71 CA         32.7970    8.5780  -56.9960 C.3       1 LEU         0.1314
     72 C          31.6480    9.6090  -56.8790 C.2       1 LEU         0.2064
     73 O          31.1430   10.0980  -57.9000 O.2       1 LEU        -0.3942
     74 CB         34.1610    9.2570  -56.8370 C.3       1 LEU        -0.0101
     75 CG         35.3490    8.3640  -56.4530 C.3       1 LEU        -0.0425
     76 CD1        36.5890    9.2240  -56.2110 C.3       1 LEU        -0.0625
     77 CD2        35.0600    7.6030  -55.1750 C.3       1 LEU        -0.0625
     78 N          31.2300    9.9540  -55.6440 N.am      1 PRO        -0.2498
     79 CA         30.0900   10.8260  -55.3970 C.3       1 PRO         0.1338
     80 C          30.3710   12.2980  -55.7500 C.2       1 PRO         0.2042
     81 O          31.4690   12.6870  -56.1580 O.2       1 PRO        -0.3944
     82 CB         29.7340   10.6420  -53.9120 C.3       1 PRO        -0.0104
     83 CG         30.7860    9.7090  -53.3320 C.3       1 PRO        -0.0281
     84 CD         31.8660    9.6060  -54.3860 C.3       1 PRO         0.0369
     85 N          29.3530   13.1360  -55.5460 N.am      1 SER        -0.2616
     86 CA         29.4100   14.5990  -55.7330 C.3       1 SER         0.1539
     87 C          30.3310   15.3340  -54.7410 C.2       1 SER         0.2062
     88 O          30.7350   16.4690  -55.0080 O.2       1 SER        -0.3943
     89 CB         27.9960   15.1850  -55.6350 C.3       1 SER         0.0843
     90 OG         27.4400   14.9320  -54.3530 O.3       1 SER        -0.3903
     91 N          30.6710   14.6960  -53.6080 N.am      1 LEU        -0.2637
     92 CA         31.4630   15.2410  -52.4890 C.3       1 LEU         0.1309
     93 C          30.9030   16.5570  -51.8910 C.2       1 LEU         0.1992
     94 O          31.6210   17.3290  -51.2530 O.2       1 LEU        -0.3947
     95 CB         32.9580   15.3350  -52.8810 C.3       1 LEU        -0.0101
     96 CG         33.5910   14.0540  -53.4620 C.3       1 LEU        -0.0425
     97 CD1        35.0720   14.2980  -53.7540 C.3       1 LEU        -0.0625
     98 CD2        33.4850   12.8550  -52.5170 C.3       1 LEU        -0.0625
     99 N          29.6180   16.8440  -52.0740 N.am      1 NH2        -0.2990
    100 H1         40.1905   -8.6434  -54.5952 H         1 ACE         0.0467
    101 H2         41.6394   -9.6956  -54.7373 H         1 ACE         0.0467
    102 H3         40.0229  -10.4263  -54.4551 H         1 ACE         0.0467
    103 H4         39.6620   -7.8337  -56.4719 H         1 HIS         0.1884
    104 H5         39.8087   -9.3602  -59.0057 H         1 HIS         0.0824
    105 H6         37.3269   -8.5249  -59.3192 H         1 HIS         0.0491
    106 H7         37.3229   -8.4248  -57.5257 H         1 HIS         0.0491
    107 H8         39.2565  -11.4434  -58.5688 H         1 HIS         0.2386
    108 H9         35.2228  -10.3019  -58.0648 H         1 HIS         0.0324
    109 H10        37.8831  -13.6117  -58.5252 H         1 HIS         0.1149
    110 H11        39.1907   -7.9900  -60.8746 H         1 SER         0.1884
    111 H12        39.1299   -5.0547  -60.4792 H         1 SER         0.0823
    112 H13        40.8944   -6.2424  -62.6314 H         1 SER         0.0606
    113 H14        41.5051   -5.9154  -60.9740 H         1 SER         0.0606
    114 H15        40.2798   -4.0168  -62.7117 H         1 SER         0.2097
    115 H16        37.0302   -6.5988  -60.8174 H         1 LYS         0.1883
    116 H17        36.0552   -7.4197  -63.2863 H         1 LYS         0.0800
    117 H18        35.1328   -8.0288  -61.1030 H         1 LYS         0.0312
    118 H19        33.8530   -7.3424  -62.1603 H         1 LYS         0.0312
    119 H20        33.7090   -5.3506  -60.9144 H         1 LYS         0.0269
    120 H21        35.3283   -5.5807  -60.1715 H         1 LYS         0.0269
    121 H22        33.4903   -5.9129  -58.5440 H         1 LYS         0.0317
    122 H23        34.4658   -7.4025  -58.7807 H         1 LYS         0.0317
    123 H24        32.7526   -8.4280  -60.1101 H         1 LYS         0.0813
    124 H25        31.8535   -6.8816  -60.2747 H         1 LYS         0.0813
    125 H26        30.8796   -8.3157  -58.6273 H         1 LYS         0.1994
    126 H27        31.4568   -6.9484  -57.9156 H         1 LYS         0.1994
    127 H28        32.2807   -8.3654  -57.7648 H         1 LYS         0.1994
    128 H29        36.1981   -4.1683  -62.0947 H         1 TYR         0.1885
    129 H30        35.2097   -3.0047  -64.6185 H         1 TYR         0.0821
    130 H31        33.9336   -1.3362  -62.9339 H         1 TYR         0.0453
    131 H32        33.8484   -2.8204  -61.9258 H         1 TYR         0.0453
    132 H33        32.5473   -4.8013  -62.7255 H         1 TYR         0.0530
    133 H34        32.5564   -1.0568  -64.8682 H         1 TYR         0.0530
    134 H35        30.5353   -5.5310  -63.9979 H         1 TYR         0.0525
    135 H36        30.5241   -1.7664  -66.1188 H         1 TYR         0.0525
    136 H37        29.0313   -4.9547  -65.5639 H         1 TYR         0.2458
    137 H38        38.5189   -0.2110  -63.4492 H         1 PRO         0.0802
    138 H39        38.4797    0.3488  -65.7387 H         1 PRO         0.0313
    139 H40        38.0823    1.9537  -65.0366 H         1 PRO         0.0313
    140 H41        36.3848    0.8569  -66.8259 H         1 PRO         0.0287
    141 H42        35.7102    1.6334  -65.3534 H         1 PRO         0.0287
    142 H43        34.7787   -0.5180  -65.0667 H         1 PRO         0.0524
    143 H44        36.1103   -1.3207  -65.9663 H         1 PRO         0.0524
    144 H45        36.9270   -0.2792  -61.3991 H         1 LEU         0.1883
    145 H46        35.9414    0.5118  -59.5938 H         1 LEU         0.0800
    146 H47        36.6686    2.8879  -58.8694 H         1 LEU         0.0315
    147 H48        37.7121    2.8486  -60.3311 H         1 LEU         0.0315
    148 H49        38.5985    0.6140  -59.4165 H         1 LEU         0.0298
    149 H50        40.2608    1.7654  -57.9830 H         1 LEU         0.0232
    150 H51        39.2128    3.2242  -57.9676 H         1 LEU         0.0232
    151 H52        39.9276    2.6480  -59.5116 H         1 LEU         0.0232
    152 H53        36.8577    0.2327  -57.7074 H         1 LEU         0.0232
    153 H54        37.4488    1.6649  -56.7988 H         1 LEU         0.0232
    154 H55        38.5151    0.2356  -57.0150 H         1 LEU         0.0232
    155 H56        32.1333    2.5975  -60.4239 H         1 PRO         0.0802
    156 H57        31.1029    1.9067  -58.4978 H         1 PRO         0.0313
    157 H58        31.5530    3.4991  -57.7989 H         1 PRO         0.0313
    158 H59        32.5002    0.9525  -56.9693 H         1 PRO         0.0287
    159 H60        33.1622    2.5521  -56.4898 H         1 PRO         0.0287
    160 H61        35.0408    2.1094  -57.6961 H         1 PRO         0.0524
    161 H62        34.3444    0.5451  -58.2391 H         1 PRO         0.0524
    162 H63        32.9333    7.0011  -60.5349 H         1 PRO         0.0802
    163 H64        31.2466    7.0905  -62.1765 H         1 PRO         0.0313
    164 H65        30.4374    8.0382  -60.8828 H         1 PRO         0.0313
    165 H66        29.3272    5.7435  -61.9684 H         1 PRO         0.0287
    166 H67        29.0360    6.2501  -60.2698 H         1 PRO         0.0287
    167 H68        30.0756    4.2951  -59.6254 H         1 PRO         0.0524
    168 H69        30.6448    3.9745  -61.2987 H         1 PRO         0.0524
    169 H70        33.6335    7.8738  -58.8062 H         1 LEU         0.1883
    170 H71        32.6721    7.8426  -56.1876 H         1 LEU         0.0800
    171 H72        34.0591   10.0256  -56.0567 H         1 LEU         0.0315
    172 H73        34.4050    9.7379  -57.7957 H         1 LEU         0.0315
    173 H74        35.5436    7.6526  -57.2691 H         1 LEU         0.0298
    174 H75        37.4356    8.5776  -55.9365 H         1 LEU         0.0232
    175 H76        36.3895    9.9335  -55.3944 H         1 LEU         0.0232
    176 H77        36.8344    9.7798  -57.1279 H         1 LEU         0.0232
    177 H78        34.1700    6.9724  -55.3171 H         1 LEU         0.0232
    178 H79        34.8777    8.3156  -54.3571 H         1 LEU         0.0232
    179 H80        35.9225    6.9684  -54.9231 H         1 LEU         0.0232
    180 H81        29.2436   10.4901  -56.0140 H         1 PRO         0.0802
    181 H82        28.7334   10.1959  -53.8128 H         1 PRO         0.0313
    182 H83        29.7566   11.6112  -53.3922 H         1 PRO         0.0313
    183 H84        30.3514    8.7189  -53.1300 H         1 PRO         0.0287
    184 H85        31.1972   10.1259  -52.4008 H         1 PRO         0.0287
    185 H86        32.6845   10.3067  -54.1645 H         1 PRO         0.0524
    186 H87        32.2623    8.5808  -54.4285 H         1 PRO         0.0524
    187 H88        28.4849   12.7427  -55.2432 H         1 SER         0.1884
    188 H89        29.7965   14.7871  -56.7455 H         1 SER         0.0823
    189 H90        27.3587   14.7230  -56.4034 H         1 SER         0.0606
    190 H91        28.0421   16.2713  -55.8014 H         1 SER         0.0606
    191 H92        26.5657   15.3011  -54.3098 H         1 SER         0.2097
    192 H93        30.3537   13.7524  -53.5135 H         1 LEU         0.1883
    193 H94        31.4008   14.4984  -51.6799 H         1 LEU         0.0800
    194 H95        33.5248   15.6103  -51.9794 H         1 LEU         0.0315
    195 H96        33.0582   16.1303  -53.6343 H         1 LEU         0.0315
    196 H97        33.0722   13.8079  -54.4002 H         1 LEU         0.0298
    197 H98        35.5197   13.3825  -54.1680 H         1 LEU         0.0232
    198 H99        35.5895   14.5702  -52.8223 H         1 LEU         0.0232
    199 H100       35.1722   15.1167  -54.4818 H         1 LEU         0.0232
    200 H101       32.4265   12.6587  -52.2911 H         1 LEU         0.0232
    201 H102       34.0244   13.0748  -51.5838 H         1 LEU         0.0232
    202 H103       33.9278   11.9697  -52.9967 H         1 LEU         0.0232
    203 H104       29.2355   17.6875  -51.6970 H         1 NH2         0.1815
    204 H105       29.0339   16.2164  -52.5886 H         1 NH2         0.1815
@<TRIPOS>BOND
     1    1    2 2  
     2    1    3 1  
     3    1    4 am 
     4    4    5 1  
     5    5    6 1  
     6    5    8 1  
     7    6    7 2  
     8    6   14 am 
     9    8    9 1  
    10    9   10 1  
    11    9   11 2  
    12   10   12 1  
    13   11   13 1  
    14   12   13 2  
    15   14   15 1  
    16   15   16 1  
    17   15   18 1  
    18   16   17 2  
    19   16   20 am 
    20   18   19 1  
    21   20   21 1  
    22   21   22 1  
    23   21   24 1  
    24   22   23 2  
    25   22   29 am 
    26   24   25 1  
    27   25   26 1  
    28   26   27 1  
    29   27   28 1  
    30   29   30 1  
    31   30   31 1  
    32   30   33 1  
    33   31   32 2  
    34   31   41 am 
    35   33   34 1  
    36   34   35 ar 
    37   34   36 ar 
    38   35   37 ar 
    39   36   38 ar 
    40   37   39 ar 
    41   38   39 ar 
    42   39   40 1  
    43   41   42 1  
    44   41   47 1  
    45   42   43 1  
    46   42   45 1  
    47   43   44 2  
    48   43   48 am 
    49   45   46 1  
    50   46   47 1  
    51   48   49 1  
    52   49   50 1  
    53   49   52 1  
    54   50   51 2  
    55   50   56 am 
    56   52   53 1  
    57   53   54 1  
    58   53   55 1  
    59   56   57 1  
    60   56   62 1  
    61   57   58 1  
    62   57   60 1  
    63   58   59 2  
    64   58   63 am 
    65   60   61 1  
    66   61   62 1  
    67   63   64 1  
    68   63   69 1  
    69   64   65 1  
    70   64   67 1  
    71   65   66 2  
    72   65   70 am 
    73   67   68 1  
    74   68   69 1  
    75   70   71 1  
    76   71   72 1  
    77   71   74 1  
    78   72   73 2  
    79   72   78 am 
    80   74   75 1  
    81   75   76 1  
    82   75   77 1  
    83   78   79 1  
    84   78   84 1  
    85   79   80 1  
    86   79   82 1  
    87   80   81 2  
    88   80   85 am 
    89   82   83 1  
    90   83   84 1  
    91   85   86 1  
    92   86   87 1  
    93   86   89 1  
    94   87   88 2  
    95   87   91 am 
    96   89   90 1  
    97   91   92 1  
    98   92   93 1  
    99   92   95 1  
   100   93   94 2  
   101   93   99 am 
   102   95   96 1  
   103   96   97 1  
   104   96   98 1  
   105    3  100 1  
   106    3  101 1  
   107    3  102 1  
   108    4  103 1  
   109    5  104 1  
   110    8  105 1  
   111    8  106 1  
   112   10  107 1  
   113   11  108 1  
   114   12  109 1  
   115   14  110 1  
   116   15  111 1  
   117   18  112 1  
   118   18  113 1  
   119   19  114 1  
   120   20  115 1  
   121   21  116 1  
   122   24  117 1  
   123   24  118 1  
   124   25  119 1  
   125   25  120 1  
   126   26  121 1  
   127   26  122 1  
   128   27  123 1  
   129   27  124 1  
   130   28  125 1  
   131   28  126 1  
   132   28  127 1  
   133   29  128 1  
   134   30  129 1  
   135   33  130 1  
   136   33  131 1  
   137   35  132 1  
   138   36  133 1  
   139   37  134 1  
   140   38  135 1  
   141   40  136 1  
   142   42  137 1  
   143   45  138 1  
   144   45  139 1  
   145   46  140 1  
   146   46  141 1  
   147   47  142 1  
   148   47  143 1  
   149   48  144 1  
   150   49  145 1  
   151   52  146 1  
   152   52  147 1  
   153   53  148 1  
   154   54  149 1  
   155   54  150 1  
   156   54  151 1  
   157   55  152 1  
   158   55  153 1  
   159   55  154 1  
   160   57  155 1  
   161   60  156 1  
   162   60  157 1  
   163   61  158 1  
   164   61  159 1  
   165   62  160 1  
   166   62  161 1  
   167   64  162 1  
   168   67  163 1  
   169   67  164 1  
   170   68  165 1  
   171   68  166 1  
   172   69  167 1  
   173   69  168 1  
   174   70  169 1  
   175   71  170 1  
   176   74  171 1  
   177   74  172 1  
   178   75  173 1  
   179   76  174 1  
   180   76  175 1  
   181   76  176 1  
   182   77  177 1  
   183   77  178 1  
   184   77  179 1  
   185   79  180 1  
   186   82  181 1  
   187   82  182 1  
   188   83  183 1  
   189   83  184 1  
   190   84  185 1  
   191   84  186 1  
   192   85  187 1  
   193   86  188 1  
   194   89  189 1  
   195   89  190 1  
   196   90  191 1  
   197   91  192 1  
   198   92  193 1  
   199   95  194 1  
   200   95  195 1  
   201   96  196 1  
   202   97  197 1  
   203   97  198 1  
   204   97  199 1  
   205   98  200 1  
   206   98  201 1  
   207   98  202 1  
   208   99  203 1  
   209   99  204 1  
@<TRIPOS>SUBSTRUCTURE
     1 ACE         1

