2oi3_ligand
  -I-interpret- 

203208  0  0  0  0  0  0  0  0999 V2000
   40.3480   -9.7090  -56.4520 C   0  0  0  0  0
   40.6970  -10.7170  -57.0630 O   0  0  0  0  0
   40.5650   -9.6120  -54.9580 C   0  0  0  0  0
   39.7710   -8.6570  -57.0290 N   0  0  0  0  0
   39.2810   -8.6000  -58.4110 C   0  0  0  0  0
   39.5300   -7.2220  -59.0570 C   0  0  0  0  0
   39.8240   -6.2360  -58.3860 O   0  0  0  0  0
   37.7670   -8.9300  -58.3960 C   0  0  0  0  0
   37.3990  -10.3950  -58.3150 C   0  0  0  0  0
   38.2330  -11.4820  -58.4600 N   0  0  0  0  0
   36.1280  -10.8920  -58.2000 C   0  0  0  0  0
   37.4900  -12.6000  -58.4360 C   0  0  0  0  0
   36.1910  -12.2900  -58.2860 N   0  0  0  0  0
   39.3480   -7.1370  -60.3770 N   0  0  0  0  0
   39.3600   -5.8850  -61.1630 C   0  0  0  0  0
   38.2540   -5.9120  -62.2330 C   0  0  0  0  0
   38.4400   -5.5900  -63.4090 O   0  0  0  0  0
   40.7550   -5.6320  -61.7270 C   0  0  0  0  0
   40.9240   -4.2650  -62.0590 O   0  0  0  0  0
   37.0780   -6.3800  -61.7920 N   0  0  0  0  0
   35.8440   -6.6120  -62.5700 C   0  0  0  0  0
   35.3490   -5.4120  -63.3970 C   0  0  0  0  0
   34.7190   -5.6010  -64.4370 O   0  0  0  0  0
   34.7640   -7.1130  -61.5880 C   0  0  0  0  0
   34.4050   -6.0880  -60.4880 C   0  0  0  0  0
   33.7490   -6.7140  -59.2520 C   0  0  0  0  0
   32.4770   -7.4910  -59.6040 C   0  0  0  0  0
   31.7130   -7.8050  -58.3810 N   0  3  0  0  0
   35.6570   -4.2000  -62.9350 N   0  0  0  0  0
   35.2880   -2.9030  -63.5260 C   0  0  0  0  0
   36.3750   -1.8640  -63.1780 C   0  0  0  0  0
   37.0040   -2.0100  -62.1260 O   0  0  0  0  0
   33.9320   -2.4360  -62.9530 C   0  0  0  0  0
   32.7000   -2.8890  -63.7240 C   0  0  0  0  0
   32.1150   -4.1460  -63.4730 C   0  0  0  0  0
   32.1180   -2.0300  -64.6790 C   0  0  0  0  0
   30.9720   -4.5570  -64.1870 C   0  0  0  0  0
   30.9690   -2.4320  -65.3880 C   0  0  0  0  0
   30.3960   -3.6990  -65.1490 C   0  0  0  0  0
   29.2890   -4.0830  -65.8400 O   0  0  0  0  0
   36.5640   -0.7910  -63.9740 N   0  0  0  0  0
   37.5710    0.2590  -63.7500 C   0  0  0  0  0
   37.1790    1.2560  -62.6280 C   0  0  0  0  0
   37.2200    2.4770  -62.8100 O   0  0  0  0  0
   37.7540    0.9080  -65.1300 C   0  0  0  0  0
   36.3520    0.8220  -65.7270 C   0  0  0  0  0
   35.8660   -0.5390  -65.2320 C   0  0  0  0  0
   36.7840    0.7080  -61.4700 N   0  0  0  0  0
   36.1720    1.3350  -60.2860 C   0  0  0  0  0
   34.8170    2.0620  -60.5310 C   0  0  0  0  0
   34.5220    2.5030  -61.6470 O   0  0  0  0  0
   37.2060    2.2340  -59.5720 C   0  0  0  0  0
   38.2790    1.4560  -58.7850 C   0  0  0  0  0
   39.5060    2.3350  -58.5450 C   0  0  0  0  0
   37.7370    0.8550  -57.4850 C   0  0  0  0  0
   33.9640    2.1800  -59.4900 N   0  0  0  0  0
   32.7090    2.9260  -59.5460 C   0  0  0  0  0
   32.9210    4.4450  -59.6450 C   0  0  0  0  0
   33.9660    4.9490  -59.2150 O   0  0  0  0  0
   31.9400    2.5820  -58.2670 C   0  0  0  0  0
   32.9220    1.8980  -57.3410 C   0  0  0  0  0
   34.1710    1.6290  -58.1680 C   0  0  0  0  0
   31.9170    5.1970  -60.1360 N   0  0  0  0  0
   31.9580    6.6530  -60.1640 C   0  0  0  0  0
   31.7420    7.2100  -58.7590 C   0  0  0  0  0
   30.6830    7.0540  -58.1460 O   0  0  0  0  0
   30.8580    7.0570  -61.1480 C   0  0  0  0  0
   29.8040    5.9550  -61.0000 C   0  0  0  0  0
   30.5780    4.7300  -60.5020 C   0  0  0  0  0
   32.7920    7.8680  -58.2660 N   0  0  0  0  0
   32.7970    8.5780  -56.9960 C   0  0  0  0  0
   31.6480    9.6090  -56.8790 C   0  0  0  0  0
   31.1430   10.0980  -57.9000 O   0  0  0  0  0
   34.1610    9.2570  -56.8370 C   0  0  0  0  0
   35.3490    8.3640  -56.4530 C   0  0  0  0  0
   36.5890    9.2240  -56.2110 C   0  0  0  0  0
   35.0600    7.6030  -55.1750 C   0  0  0  0  0
   31.2300    9.9540  -55.6440 N   0  0  0  0  0
   30.0900   10.8260  -55.3970 C   0  0  0  0  0
   30.3710   12.2980  -55.7500 C   0  0  0  0  0
   31.4690   12.6870  -56.1580 O   0  0  0  0  0
   29.7340   10.6420  -53.9120 C   0  0  0  0  0
   30.7860    9.7090  -53.3320 C   0  0  0  0  0
   31.8660    9.6060  -54.3860 C   0  0  0  0  0
   29.3530   13.1360  -55.5460 N   0  0  0  0  0
   29.4100   14.5990  -55.7330 C   0  0  0  0  0
   30.3310   15.3340  -54.7410 C   0  0  0  0  0
   30.7350   16.4690  -55.0080 O   0  0  0  0  0
   27.9960   15.1850  -55.6350 C   0  0  0  0  0
   27.4400   14.9320  -54.3530 O   0  0  0  0  0
   30.6710   14.6960  -53.6080 N   0  0  0  0  0
   31.4630   15.2410  -52.4890 C   0  0  0  0  0
   30.9030   16.5570  -51.8910 C   0  0  0  0  0
   31.6210   17.3290  -51.2530 O   0  0  0  0  0
   32.9580   15.3350  -52.8810 C   0  0  0  0  0
   33.5910   14.0540  -53.4620 C   0  0  0  0  0
   35.0720   14.2980  -53.7540 C   0  0  0  0  0
   33.4850   12.8550  -52.5170 C   0  0  0  0  0
   29.6180   16.8440  -52.0740 N   0  0  0  0  0
   40.0274  -10.4194  -54.4609 H   0  0  0  0  0
   41.6299   -9.6950  -54.7407 H   0  0  0  0  0
   40.1935   -8.6519  -54.5998 H   0  0  0  0  0
   39.6598   -7.8173  -56.4608 H   0  0  0  0  0
   39.8261   -9.3264  -59.0138 H   0  0  0  0  0
   37.3692   -8.5699  -59.3448 H   0  0  0  0  0
   37.3650   -8.4666  -57.4950 H   0  0  0  0  0
   35.2219  -10.3014  -58.0647 H   0  0  0  0  0
   37.8835  -13.6126  -58.5253 H   0  0  0  0  0
   39.1876   -8.0071  -60.8846 H   0  0  0  0  0
   39.1325   -5.0376  -60.5163 H   0  0  0  0  0
   40.8831   -6.2308  -62.6287 H   0  0  0  0  0
   41.4934   -5.9041  -60.9728 H   0  0  0  0  0
   41.8067   -4.1291  -62.4111 H   0  0  0  0  0
   37.0292   -6.6032  -60.7979 H   0  0  0  0  0
   36.0706   -7.3576  -63.3322 H   0  0  0  0  0
   35.1589   -7.9998  -61.0923 H   0  0  0  0  0
   33.8595   -7.3028  -62.1658 H   0  0  0  0  0
   33.6889   -5.3871  -60.9171 H   0  0  0  0  0
   35.3344   -5.6210  -60.1621 H   0  0  0  0  0
   33.4772   -5.9099  -58.5681 H   0  0  0  0  0
   34.4596   -7.4102  -58.8065 H   0  0  0  0  0
   32.7543   -8.4217  -60.0989 H   0  0  0  0  0
   31.8587   -6.8813  -60.2629 H   0  0  0  0  0
   30.8700   -8.3218  -58.6314 H   0  0  0  0  0
   32.2884   -8.3720  -57.7583 H   0  0  0  0  0
   31.4544   -6.9375  -57.9110 H   0  0  0  0  0
   36.2090   -4.1677  -62.0779 H   0  0  0  0  0
   35.2046   -3.0056  -64.6080 H   0  0  0  0  0
   33.9383   -1.3467  -62.9925 H   0  0  0  0  0
   33.8508   -2.8713  -61.9570 H   0  0  0  0  0
   32.5496   -4.8049  -62.7213 H   0  0  0  0  0
   32.5588   -1.0514  -64.8693 H   0  0  0  0  0
   30.5329   -5.5364  -63.9969 H   0  0  0  0  0
   30.5216   -1.7627  -66.1229 H   0  0  0  0  0
   29.0340   -3.3846  -66.4473 H   0  0  0  0  0
   38.5107   -0.1454  -63.3738 H   0  0  0  0  0
   38.5078    0.4089  -65.7390 H   0  0  0  0  0
   38.1314    1.9291  -65.0740 H   0  0  0  0  0
   36.3439    0.9095  -66.8135 H   0  0  0  0  0
   35.7056    1.6442  -65.4201 H   0  0  0  0  0
   34.7856   -0.5408  -65.0880 H   0  0  0  0  0
   36.0788   -1.3203  -65.9617 H   0  0  0  0  0
   36.9298   -0.2989  -61.3977 H   0  0  0  0  0
   35.8891    0.5134  -59.6279 H   0  0  0  0  0
   36.6601    2.8462  -58.8542 H   0  0  0  0  0
   37.7227    2.8062  -60.3426 H   0  0  0  0  0
   38.5843    0.6071  -59.3968 H   0  0  0  0  0
   39.9227    2.6445  -59.5035 H   0  0  0  0  0
   39.2142    3.2157  -57.9728 H   0  0  0  0  0
   40.2531    1.7695  -57.9881 H   0  0  0  0  0
   37.3652    1.6544  -56.8440 H   0  0  0  0  0
   36.9251    0.1653  -57.7159 H   0  0  0  0  0
   38.5362    0.3190  -56.9731 H   0  0  0  0  0
   32.1595    2.6449  -60.4444 H   0  0  0  0  0
   31.0936    1.9309  -58.4855 H   0  0  0  0  0
   31.5317    3.4810  -57.8052 H   0  0  0  0  0
   32.5071    0.9715  -56.9441 H   0  0  0  0  0
   33.1498    2.5244  -56.4786 H   0  0  0  0  0
   35.0384    2.0939  -57.6995 H   0  0  0  0  0
   34.3540    0.5564  -58.2331 H   0  0  0  0  0
   32.9195    7.0540  -60.4848 H   0  0  0  0  0
   31.2282    7.1396  -62.1699 H   0  0  0  0  0
   30.4541    8.0462  -60.9324 H   0  0  0  0  0
   29.2939    5.7548  -61.9423 H   0  0  0  0  0
   29.0136    6.2426  -60.3067 H   0  0  0  0  0
   30.0778    4.2766  -59.6462 H   0  0  0  0  0
   30.6322    3.9644  -61.2759 H   0  0  0  0  0
   33.6504    7.8739  -58.8170 H   0  0  0  0  0
   32.6295    7.8594  -56.1937 H   0  0  0  0  0
   34.0453    9.9646  -56.0160 H   0  0  0  0  0
   34.4036    9.6666  -57.8175 H   0  0  0  0  0
   35.5160    7.6643  -57.2719 H   0  0  0  0  0
   36.8311    9.7743  -57.1202 H   0  0  0  0  0
   36.3900    9.9265  -55.4017 H   0  0  0  0  0
   37.4271    8.5824  -55.9391 H   0  0  0  0  0
   34.8757    8.3102  -54.3663 H   0  0  0  0  0
   34.1802    6.9756  -55.3183 H   0  0  0  0  0
   35.9169    6.9777  -54.9243 H   0  0  0  0  0
   29.2543   10.5553  -56.0423 H   0  0  0  0  0
   28.7339   10.2237  -53.7980 H   0  0  0  0  0
   29.7279   11.5985  -53.3893 H   0  0  0  0  0
   30.3648    8.7315  -53.0970 H   0  0  0  0  0
   31.1828   10.0921  -52.3918 H   0  0  0  0  0
   32.6984   10.2743  -54.1657 H   0  0  0  0  0
   32.2893    8.6022  -54.4214 H   0  0  0  0  0
   28.4675   12.7349  -55.2371 H   0  0  0  0  0
   29.8398   14.7554  -56.7224 H   0  0  0  0  0
   27.3662   14.7183  -56.3923 H   0  0  0  0  0
   28.0477   16.2624  -55.7920 H   0  0  0  0  0
   26.5565   15.3050  -54.3093 H   0  0  0  0  0
   30.3473   13.7335  -53.5116 H   0  0  0  0  0
   31.3744   14.5312  -51.6666 H   0  0  0  0  0
   33.5009   15.5529  -51.9613 H   0  0  0  0  0
   33.0202   16.0885  -53.6661 H   0  0  0  0  0
   33.0375   13.8201  -54.3714 H   0  0  0  0  0
   35.1699   15.1094  -54.4752 H   0  0  0  0  0
   35.5836   14.5677  -52.8300 H   0  0  0  0  0
   35.5145   13.3902  -54.1642 H   0  0  0  0  0
   33.9969   13.0843  -51.5824 H   0  0  0  0  0
   32.4347   12.6447  -52.3153 H   0  0  0  0  0
   33.9482   11.9850  -52.9825 H   0  0  0  0  0
   29.2270   17.7027  -51.6865 H   0  0  0  0  0
   29.0230   16.2055  -52.6020 H   0  0  0  0  0
  1  2  2  0  0  0
  1  3  1  0  0  0
  1  4  1  0  0  0
  4  5  1  0  0  0
  5  6  1  0  0  0
  5  8  1  0  0  0
  6  7  2  0  0  0
  6 14  1  0  0  0
  8  9  1  0  0  0
  9 10  4  0  0  0
  9 11  4  0  0  0
 10 12  4  0  0  0
 11 13  4  0  0  0
 12 13  4  0  0  0
 14 15  1  0  0  0
 15 16  1  0  0  0
 15 18  1  0  0  0
 16 17  2  0  0  0
 16 20  1  0  0  0
 18 19  1  0  0  0
 20 21  1  0  0  0
 21 22  1  0  0  0
 21 24  1  0  0  0
 22 23  2  0  0  0
 22 29  1  0  0  0
 24 25  1  0  0  0
 25 26  1  0  0  0
 26 27  1  0  0  0
 27 28  1  0  0  0
 29 30  1  0  0  0
 30 31  1  0  0  0
 30 33  1  0  0  0
 31 32  2  0  0  0
 31 41  1  0  0  0
 33 34  1  0  0  0
 34 35  4  0  0  0
 34 36  4  0  0  0
 35 37  4  0  0  0
 36 38  4  0  0  0
 37 39  4  0  0  0
 38 39  4  0  0  0
 39 40  1  0  0  0
 41 42  1  0  0  0
 41 47  1  0  0  0
 42 43  1  0  0  0
 42 45  1  0  0  0
 43 44  2  0  0  0
 43 48  1  0  0  0
 45 46  1  0  0  0
 46 47  1  0  0  0
 48 49  1  0  0  0
 49 50  1  0  0  0
 49 52  1  0  0  0
 50 51  2  0  0  0
 50 56  1  0  0  0
 52 53  1  0  0  0
 53 54  1  0  0  0
 53 55  1  0  0  0
 56 57  1  0  0  0
 56 62  1  0  0  0
 57 58  1  0  0  0
 57 60  1  0  0  0
 58 59  2  0  0  0
 58 63  1  0  0  0
 60 61  1  0  0  0
 61 62  1  0  0  0
 63 64  1  0  0  0
 63 69  1  0  0  0
 64 65  1  0  0  0
 64 67  1  0  0  0
 65 66  2  0  0  0
 65 70  1  0  0  0
 67 68  1  0  0  0
 68 69  1  0  0  0
 70 71  1  0  0  0
 71 72  1  0  0  0
 71 74  1  0  0  0
 72 73  2  0  0  0
 72 78  1  0  0  0
 74 75  1  0  0  0
 75 76  1  0  0  0
 75 77  1  0  0  0
 78 79  1  0  0  0
 78 84  1  0  0  0
 79 80  1  0  0  0
 79 82  1  0  0  0
 80 81  2  0  0  0
 80 85  1  0  0  0
 82 83  1  0  0  0
 83 84  1  0  0  0
 85 86  1  0  0  0
 86 87  1  0  0  0
 86 89  1  0  0  0
 87 88  2  0  0  0
 87 91  1  0  0  0
 89 90  1  0  0  0
 91 92  1  0  0  0
 92 93  1  0  0  0
 92 95  1  0  0  0
 93 94  2  0  0  0
 93 99  1  0  0  0
 95 96  1  0  0  0
 96 97  1  0  0  0
 96 98  1  0  0  0
  3100  1  0  0  0
  3101  1  0  0  0
  3102  1  0  0  0
  4103  1  0  0  0
  5104  1  0  0  0
  8105  1  0  0  0
  8106  1  0  0  0
 11107  1  0  0  0
 12108  1  0  0  0
 14109  1  0  0  0
 15110  1  0  0  0
 18111  1  0  0  0
 18112  1  0  0  0
 19113  1  0  0  0
 20114  1  0  0  0
 21115  1  0  0  0
 24116  1  0  0  0
 24117  1  0  0  0
 25118  1  0  0  0
 25119  1  0  0  0
 26120  1  0  0  0
 26121  1  0  0  0
 27122  1  0  0  0
 27123  1  0  0  0
 28124  1  0  0  0
 28125  1  0  0  0
 28126  1  0  0  0
 29127  1  0  0  0
 30128  1  0  0  0
 33129  1  0  0  0
 33130  1  0  0  0
 35131  1  0  0  0
 36132  1  0  0  0
 37133  1  0  0  0
 38134  1  0  0  0
 40135  1  0  0  0
 42136  1  0  0  0
 45137  1  0  0  0
 45138  1  0  0  0
 46139  1  0  0  0
 46140  1  0  0  0
 47141  1  0  0  0
 47142  1  0  0  0
 48143  1  0  0  0
 49144  1  0  0  0
 52145  1  0  0  0
 52146  1  0  0  0
 53147  1  0  0  0
 54148  1  0  0  0
 54149  1  0  0  0
 54150  1  0  0  0
 55151  1  0  0  0
 55152  1  0  0  0
 55153  1  0  0  0
 57154  1  0  0  0
 60155  1  0  0  0
 60156  1  0  0  0
 61157  1  0  0  0
 61158  1  0  0  0
 62159  1  0  0  0
 62160  1  0  0  0
 64161  1  0  0  0
 67162  1  0  0  0
 67163  1  0  0  0
 68164  1  0  0  0
 68165  1  0  0  0
 69166  1  0  0  0
 69167  1  0  0  0
 70168  1  0  0  0
 71169  1  0  0  0
 74170  1  0  0  0
 74171  1  0  0  0
 75172  1  0  0  0
 76173  1  0  0  0
 76174  1  0  0  0
 76175  1  0  0  0
 77176  1  0  0  0
 77177  1  0  0  0
 77178  1  0  0  0
 79179  1  0  0  0
 82180  1  0  0  0
 82181  1  0  0  0
 83182  1  0  0  0
 83183  1  0  0  0
 84184  1  0  0  0
 84185  1  0  0  0
 85186  1  0  0  0
 86187  1  0  0  0
 89188  1  0  0  0
 89189  1  0  0  0
 90190  1  0  0  0
 91191  1  0  0  0
 92192  1  0  0  0
 95193  1  0  0  0
 95194  1  0  0  0
 96195  1  0  0  0
 97196  1  0  0  0
 97197  1  0  0  0
 97198  1  0  0  0
 98199  1  0  0  0
 98200  1  0  0  0
 98201  1  0  0  0
 99202  1  0  0  0
 99203  1  0  0  0
M  END
$$$$
