4ucr_ligand
  -I-interpret- 

 25 26  0  0  0  0  0  0  0  0999 V2000
   17.3440   94.6070   14.9730 O   0  0  0  0  0
   18.5110   94.9750   15.1550 C   0  0  0  0  0
   19.1110   94.8600   16.3280 N   0  0  0  0  0
   19.2780   95.6120   14.0190 C   0  0  0  0  0
   20.6460   95.7470   14.0570 C   0  0  0  0  0
   18.5520   96.1030   12.9310 C   0  0  0  0  0
   19.1930   96.7450   11.8980 C   0  0  0  0  0
   18.4840   97.1600   10.8220 O   0  0  0  0  0
   20.6060   96.9100   11.9220 C   0  0  0  0  0
   21.3360   96.4130   13.0260 C   0  0  0  0  0
   22.7390   96.5610   12.9880 C   0  0  0  0  0
   23.3320   97.1720   11.9240 C   0  0  0  0  0
   21.2200   97.5130   10.8440 N   0  0  0  0  0
   22.5440   97.6350   10.8540 C   0  0  0  0  0
   23.1700   98.3610    9.7000 C   0  0  0  0  0
   18.6100   94.4569   17.1198 H   0  0  0  0  0
   20.0747   95.1744   16.4409 H   0  0  0  0  0
   21.2039   95.3327   14.8968 H   0  0  0  0  0
   17.4698   95.9762   12.9009 H   0  0  0  0  0
   19.0743   97.5861   10.1962 H   0  0  0  0  0
   23.3487   96.1864   13.8102 H   0  0  0  0  0
   24.4140   97.3018   11.9018 H   0  0  0  0  0
   23.6642   99.2617   10.0641 H   0  0  0  0  0
   23.9021   97.7127    9.2186 H   0  0  0  0  0
   22.3969   98.6342    8.9818 H   0  0  0  0  0
  1  2  2  0  0  0
  2  3  1  0  0  0
  2  4  1  0  0  0
  4  5  4  0  0  0
  4  6  4  0  0  0
  5 10  4  0  0  0
  6  7  4  0  0  0
  7  8  1  0  0  0
  7  9  4  0  0  0
  9 10  4  0  0  0
  9 13  4  0  0  0
 10 11  4  0  0  0
 11 12  4  0  0  0
 12 14  4  0  0  0
 13 14  4  0  0  0
 14 15  1  0  0  0
  3 16  1  0  0  0
  3 17  1  0  0  0
  5 18  1  0  0  0
  6 19  1  0  0  0
  8 20  1  0  0  0
 11 21  1  0  0  0
 12 22  1  0  0  0
 15 23  1  0  0  0
 15 24  1  0  0  0
 15 25  1  0  0  0
M  END
$$$$
