5yqw_ligand
  -I-interpret- 

 57 58  0  0  0  0  0  0  0  0999 V2000
  -16.5830    2.0940   21.9050 C   0  0  0  0  0
  -15.1740    2.6820   22.1500 C   0  0  0  0  0
  -14.4860    2.9440   20.7650 C   0  0  0  0  0
  -14.5500    1.7130   19.8850 C   0  0  0  0  0
  -16.0140    1.2820   19.7550 C   0  0  0  0  0
  -16.1790   -0.0380   18.9750 C   0  0  0  0  0
  -14.9660    4.1270   24.2200 C   0  0  0  0  0
  -15.2270    5.5450   24.7780 C   0  0  0  0  0
  -15.2680    3.9480   22.9090 N   0  0  0  0  0
  -17.1630    1.7700   23.1790 O   0  0  0  0  0
  -13.0870    3.2760   21.0210 O   0  0  0  0  0
  -14.1580    2.1930   18.5650 O   0  0  0  0  0
  -16.4770    0.9120   21.1150 O   0  0  0  0  0
  -15.2840   -1.1080   19.3070 O   0  0  0  0  0
  -14.5480    3.1830   24.8930 O   0  0  0  0  0
  -20.7900    0.8420   24.8930 C   0  0  0  0  0
  -20.5130    0.0870   23.5700 C   0  0  0  0  0
  -18.9420    0.1370   23.3520 C   0  0  0  0  0
  -18.6340    1.6390   23.2080 C   0  0  0  0  0
  -19.0690    2.3520   24.4690 C   0  0  0  0  0
  -18.7820    3.8400   24.3940 C   0  0  0  0  0
  -22.2050   -1.7900   23.2720 C   0  0  0  0  0
  -22.5750   -3.2580   23.3080 C   0  0  0  0  0
  -20.9080   -1.3690   23.6730 N   0  0  0  0  0
  -22.1520    0.7910   25.1940 O   0  0  0  0  0
  -18.6350   -0.5520   22.1070 O   0  0  0  0  0
  -20.5360    2.2310   24.5160 O   0  0  0  0  0
  -19.2990    4.4190   23.1680 O   0  0  0  0  0
  -23.0180   -0.9480   22.8650 O   0  0  0  0  0
  -17.2066    2.8167   21.3788 H   0  0  0  0  0
  -14.5836    1.9742   22.7318 H   0  0  0  0  0
  -15.0004    3.7555   20.2503 H   0  0  0  0  0
  -13.9391    0.8977   20.2725 H   0  0  0  0  0
  -16.5452    2.0975   19.2643 H   0  0  0  0  0
  -15.9766    0.2059   17.9321 H   0  0  0  0  0
  -17.1784   -0.4015   19.2142 H   0  0  0  0  0
  -15.9735    5.4905   25.5704 H   0  0  0  0  0
  -14.2990    5.9528   25.1788 H   0  0  0  0  0
  -15.5918    6.1878   23.9769 H   0  0  0  0  0
  -15.5920    4.7680   22.3962 H   0  0  0  0  0
  -13.0413    4.0561   21.5787 H   0  0  0  0  0
  -13.2417    2.4783   18.5886 H   0  0  0  0  0
  -15.4824   -1.8712   18.7595 H   0  0  0  0  0
  -20.2106    0.4457   25.7269 H   0  0  0  0  0
  -21.0804    0.5449   22.7597 H   0  0  0  0  0
  -18.3694   -0.3282   24.1543 H   0  0  0  0  0
  -19.1286    2.0431   22.3248 H   0  0  0  0  0
  -18.5472    1.9228   25.3243 H   0  0  0  0  0
  -17.7020    3.9853   24.4163 H   0  0  0  0  0
  -19.2675    4.3287   25.2387 H   0  0  0  0  0
  -23.4403   -3.3975   23.9560 H   0  0  0  0  0
  -22.8162   -3.5954   22.3000 H   0  0  0  0  0
  -21.7339   -3.8340   23.6938 H   0  0  0  0  0
  -20.2408   -2.0520   24.0318 H   0  0  0  0  0
  -22.3149    1.2611   26.0150 H   0  0  0  0  0
  -17.6870   -0.5325   21.9571 H   0  0  0  0  0
  -19.1018    5.3584   23.1511 H   0  0  0  0  0
  1  2  1  0  0  0
 10  1  1  0  0  0
  1 13  1  0  0  0
  2  3  1  0  0  0
  2  9  1  0  0  0
  3  4  1  0  0  0
  3 11  1  0  0  0
  5  4  1  0  0  0
  4 12  1  0  0  0
  5  6  1  0  0  0
 13  5  1  0  0  0
  6 14  1  0  0  0
  7  8  1  0  0  0
  9  7  1  0  0  0
  7 15  2  0  0  0
 19 10  1  0  0  0
 17 16  1  0  0  0
 16 25  1  0  0  0
 16 27  1  0  0  0
 17 18  1  0  0  0
 24 17  1  0  0  0
 18 19  1  0  0  0
 18 26  1  0  0  0
 19 20  1  0  0  0
 20 21  1  0  0  0
 27 20  1  0  0  0
 21 28  1  0  0  0
 22 23  1  0  0  0
 22 24  1  0  0  0
 22 29  2  0  0  0
  1 30  1  0  0  0
  2 31  1  0  0  0
  3 32  1  0  0  0
  4 33  1  0  0  0
  5 34  1  0  0  0
  6 35  1  0  0  0
  6 36  1  0  0  0
  8 37  1  0  0  0
  8 38  1  0  0  0
  8 39  1  0  0  0
  9 40  1  0  0  0
 11 41  1  0  0  0
 12 42  1  0  0  0
 14 43  1  0  0  0
 16 44  1  0  0  0
 17 45  1  0  0  0
 18 46  1  0  0  0
 19 47  1  0  0  0
 20 48  1  0  0  0
 21 49  1  0  0  0
 21 50  1  0  0  0
 23 51  1  0  0  0
 23 52  1  0  0  0
 23 53  1  0  0  0
 24 54  1  0  0  0
 25 55  1  0  0  0
 26 56  1  0  0  0
 28 57  1  0  0  0
M  END
$$$$
