3vp3_ligand
  -I-interpret- 

 18 18  0  0  0  0  0  0  0  0999 V2000
    7.5220   -7.5220    0.0000 C   0  0  0  0  0
    6.7470   -8.4990    0.8920 C   0  0  0  0  0
    7.0360   -9.4950   -0.2300 C   0  0  0  0  0
    5.5940   -9.9510   -0.3860 C   0  0  0  0  0
    4.7990  -10.1750   -1.8910 S   0  0  0  0  0
    4.7040   -9.7850    0.6580 N   0  0  0  0  0
    3.5530   -9.8350    0.1730 N   0  0  0  0  0
    3.2700  -10.0230   -1.1360 C   0  0  0  0  0
    2.0750  -10.0150   -1.7210 N   0  0  0  0  0
    8.5334   -7.8976   -0.1550 H   0  0  0  0  0
    7.0160   -7.4299   -0.9610 H   0  0  0  0  0
    7.5656   -6.5464    0.4841 H   0  0  0  0  0
    5.7480   -8.2997    1.2797 H   0  0  0  0  0
    6.9889   -8.6823    1.9389 H   0  0  0  0  0
    7.7800  -10.2657   -0.0285 H   0  0  0  0  0
    7.5320   -9.1079   -1.1201 H   0  0  0  0  0
    2.0026  -10.1067   -2.7343 H   0  0  0  0  0
    1.2313   -9.9172   -1.1562 H   0  0  0  0  0
  1  2  1  0  0  0
  2  3  1  0  0  0
  3  4  1  0  0  0
  4  5  4  0  0  0
  4  6  4  0  0  0
  5  8  4  0  0  0
  6  7  4  0  0  0
  7  8  4  0  0  0
  8  9  1  0  0  0
  1 10  1  0  0  0
  1 11  1  0  0  0
  1 12  1  0  0  0
  2 13  1  0  0  0
  2 14  1  0  0  0
  3 15  1  0  0  0
  3 16  1  0  0  0
  9 17  1  0  0  0
  9 18  1  0  0  0
M  END
$$$$
