5cbr_ligand
  -I-interpret- 

 34 35  0  0  0  0  0  0  0  0999 V2000
    6.7590   11.9520   48.0490 N   0  3  0  0  0
    8.6980   13.7030   49.2220 C   0  0  0  0  0
    8.2450   14.6080   50.1950 C   0  0  0  0  0
    9.4960   12.6150   49.5910 C   0  0  0  0  0
    9.8400   12.4600   50.9430 C   0  0  0  0  0
    9.3950   13.3630   51.9140 C   0  0  0  0  0
    8.1190   15.4480   52.5470 C   0  0  0  0  0
    7.2570   17.3450   54.3730 C   0  0  0  0  0
    6.1180   14.7990   45.7610 O   0  0  0  0  0
    6.3810   13.6300   46.1340 C   0  0  0  0  0
    6.3260   12.5740   45.4440 O   0  0  0  0  0
    6.8430   13.3920   47.6040 C   0  0  0  0  0
    8.2850   13.8890   47.7850 C   0  0  0  0  0
   10.8240   11.1190   51.3900 Cl  0  0  0  0  0
    9.8380   13.1150   53.5870 Cl  0  0  0  0  0
    8.5870   14.4550   51.5580 C   0  0  0  0  0
    9.0470   16.1540   53.3330 C   0  0  0  0  0
    6.7700   15.7680   52.7280 C   0  0  0  0  0
    6.3290   16.6990   53.6200 N   0  0  0  0  0
    8.6170   17.0960   54.2650 C   0  0  0  0  0
    9.5470   17.7460   55.0220 O   0  0  0  0  0
    7.0761   11.8770   49.0155 H   0  0  0  0  0
    5.7928   11.6322   47.9811 H   0  0  0  0  0
    7.3515   11.3771   47.4499 H   0  0  0  0  0
    7.6166   15.4459   49.8932 H   0  0  0  0  0
    9.8437   11.9018   48.8436 H   0  0  0  0  0
    6.9184   18.0905   55.0925 H   0  0  0  0  0
    6.5812   11.8246   45.9870 H   0  0  0  0  0
    6.1507   13.9556   48.2294 H   0  0  0  0  0
    8.9515   13.3200   47.1368 H   0  0  0  0  0
    8.3430   14.9452   47.5221 H   0  0  0  0  0
   10.1132   15.9624   53.2119 H   0  0  0  0  0
    6.0306   15.2440   52.1224 H   0  0  0  0  0
   10.4234   17.4281   54.7929 H   0  0  0  0  0
 12  1  1  0  0  0
  3  2  4  0  0  0
  2  4  4  0  0  0
  2 13  1  0  0  0
 16  3  4  0  0  0
  5  4  4  0  0  0
  6  5  4  0  0  0
  5 14  1  0  0  0
  6 15  1  0  0  0
 16  6  4  0  0  0
  7 16  1  0  0  0
 17  7  4  0  0  0
  7 18  4  0  0  0
  8 19  4  0  0  0
 20  8  4  0  0  0
 10  9  2  0  0  0
 10 11  1  0  0  0
 12 10  1  0  0  0
 13 12  1  0  0  0
 17 20  4  0  0  0
 18 19  4  0  0  0
 20 21  1  0  0  0
  1 22  1  0  0  0
  1 23  1  0  0  0
  1 24  1  0  0  0
  3 25  1  0  0  0
  4 26  1  0  0  0
  8 27  1  0  0  0
 11 28  1  0  0  0
 12 29  1  0  0  0
 13 30  1  0  0  0
 13 31  1  0  0  0
 17 32  1  0  0  0
 18 33  1  0  0  0
 21 34  1  0  0  0
M  END
$$$$
