5tg2_ligand
  -I-interpret- 

 74 74  0  0  0  0  0  0  0  0999 V2000
   59.4130  -50.9490   24.2820 C   0  0  0  0  0
   60.1440  -52.1570   24.8600 C   0  0  0  0  0
   59.4050  -53.4520   24.5640 C   0  0  0  0  0
   59.8190  -54.0820   23.2550 C   0  0  0  0  0
   58.9900  -55.3330   22.9830 C   0  0  0  0  0
   58.9490  -55.6250   21.5060 C   0  0  0  0  0
   61.0130  -55.2910   20.3750 C   0  0  0  0  0
   57.9820  -56.7450   21.1650 C   0  0  0  0  0
   57.9360  -56.9780   19.6610 C   0  0  0  0  0
   57.1150  -55.8850   18.9850 C   0  0  0  0  0
   57.2330  -55.8980   17.4610 C   0  0  0  0  0
   56.8820  -54.5310   16.8880 C   0  0  0  0  0
   57.8850  -53.6150   17.3860 N   0  0  0  0  0
   60.2220  -56.0880   21.1800 O   0  0  0  0  0
   60.7110  -54.1820   20.0800 O   0  0  0  0  0
   62.2350  -55.9180   19.9440 N   0  0  0  0  0
   63.1220  -55.1890   19.0770 C   0  0  0  0  0
   62.4050  -54.8250   17.7880 C   0  0  0  0  0
   61.5170  -55.4960   17.3460 O   0  0  0  0  0
   64.3540  -56.0430   18.8170 C   0  0  0  0  0
   65.2320  -56.2500   20.0480 C   0  0  0  0  0
   66.3810  -57.2030   19.7400 C   0  0  0  0  0
   65.7780  -54.9610   20.6370 C   0  0  0  0  0
   62.8500  -53.6300   17.0900 N   0  0  0  0  0
   62.1720  -53.2510   15.8750 C   0  0  0  0  0
   61.2300  -52.0680   16.1350 C   0  0  0  0  0
   60.0720  -52.3630   17.0920 C   0  0  0  0  0
   59.0120  -53.3080   16.5380 C   0  0  0  0  0
   59.0750  -53.7900   15.4490 O   0  0  0  0  0
   63.2020  -52.8380   14.8270 C   0  0  0  0  0
   63.9810  -53.9840   14.5290 O   0  0  0  0  0
   59.3300  -51.0593   23.2008 H   0  0  0  0  0
   58.4167  -50.8853   24.7195 H   0  0  0  0  0
   59.9719  -50.0424   24.5142 H   0  0  0  0  0
   60.2078  -52.0361   25.9414 H   0  0  0  0  0
   61.1324  -52.2123   24.4038 H   0  0  0  0  0
   58.3419  -53.2203   24.4994 H   0  0  0  0  0
   59.6395  -54.1577   25.3609 H   0  0  0  0  0
   60.8719  -54.3584   23.3108 H   0  0  0  0  0
   59.6573  -53.3662   22.4491 H   0  0  0  0  0
   57.9734  -55.1699   23.3409 H   0  0  0  0  0
   59.4438  -56.1788   23.4996 H   0  0  0  0  0
   58.6375  -54.7277   20.9712 H   0  0  0  0  0
   56.9857  -56.4669   21.5089 H   0  0  0  0  0
   58.3171  -57.6602   21.6530 H   0  0  0  0  0
   57.4745  -57.9455   19.4633 H   0  0  0  0  0
   58.9514  -56.9586   19.2652 H   0  0  0  0  0
   57.4909  -54.9243   19.3370 H   0  0  0  0  0
   56.0682  -56.0552   19.2365 H   0  0  0  0  0
   56.5425  -56.6391   17.0583 H   0  0  0  0  0
   58.2588  -56.1444   17.1870 H   0  0  0  0  0
   55.8820  -54.2222   17.1926 H   0  0  0  0  0
   56.8752  -54.5517   15.7982 H   0  0  0  0  0
   57.7980  -53.1970   18.3123 H   0  0  0  0  0
   62.4681  -56.8633   20.2482 H   0  0  0  0  0
   63.4357  -54.2565   19.5461 H   0  0  0  0  0
   64.9570  -55.5246   18.0715 H   0  0  0  0  0
   64.0066  -57.0253   18.4970 H   0  0  0  0  0
   64.5779  -56.6866   20.8028 H   0  0  0  0  0
   65.9784  -58.1670   19.4290 H   0  0  0  0  0
   66.9914  -56.7871   18.9385 H   0  0  0  0  0
   66.9920  -57.3341   20.6331 H   0  0  0  0  0
   66.3843  -54.4496   19.8893 H   0  0  0  0  0
   64.9488  -54.3194   20.9351 H   0  0  0  0  0
   66.3914  -55.1922   21.5078 H   0  0  0  0  0
   63.6240  -53.0725   17.4513 H   0  0  0  0  0
   61.5915  -54.1022   15.5193 H   0  0  0  0  0
   60.7861  -51.8019   15.1757 H   0  0  0  0  0
   61.8292  -51.2838   16.5976 H   0  0  0  0  0
   59.5764  -51.4131   17.2923 H   0  0  0  0  0
   60.5011  -52.8472   17.9692 H   0  0  0  0  0
   63.8326  -52.0335   15.2054 H   0  0  0  0  0
   62.7078  -52.4663   13.9294 H   0  0  0  0  0
   64.6416  -53.7580   13.8701 H   0  0  0  0  0
  1  2  1  0  0  0
  2  3  1  0  0  0
  3  4  1  0  0  0
  4  5  1  0  0  0
  5  6  1  0  0  0
  6  8  1  0  0  0
  6 14  1  0  0  0
 14  7  1  0  0  0
  7 15  2  0  0  0
  7 16  1  0  0  0
  8  9  1  0  0  0
  9 10  1  0  0  0
 10 11  1  0  0  0
 11 12  1  0  0  0
 12 13  1  0  0  0
 13 28  1  0  0  0
 16 17  1  0  0  0
 17 18  1  0  0  0
 17 20  1  0  0  0
 18 19  2  0  0  0
 18 24  1  0  0  0
 20 21  1  0  0  0
 21 22  1  0  0  0
 21 23  1  0  0  0
 24 25  1  0  0  0
 25 26  1  0  0  0
 25 30  1  0  0  0
 26 27  1  0  0  0
 27 28  1  0  0  0
 28 29  2  0  0  0
 30 31  1  0  0  0
  1 32  1  0  0  0
  1 33  1  0  0  0
  1 34  1  0  0  0
  2 35  1  0  0  0
  2 36  1  0  0  0
  3 37  1  0  0  0
  3 38  1  0  0  0
  4 39  1  0  0  0
  4 40  1  0  0  0
  5 41  1  0  0  0
  5 42  1  0  0  0
  6 43  1  0  0  0
  8 44  1  0  0  0
  8 45  1  0  0  0
  9 46  1  0  0  0
  9 47  1  0  0  0
 10 48  1  0  0  0
 10 49  1  0  0  0
 11 50  1  0  0  0
 11 51  1  0  0  0
 12 52  1  0  0  0
 12 53  1  0  0  0
 13 54  1  0  0  0
 16 55  1  0  0  0
 17 56  1  0  0  0
 20 57  1  0  0  0
 20 58  1  0  0  0
 21 59  1  0  0  0
 22 60  1  0  0  0
 22 61  1  0  0  0
 22 62  1  0  0  0
 23 63  1  0  0  0
 23 64  1  0  0  0
 23 65  1  0  0  0
 24 66  1  0  0  0
 25 67  1  0  0  0
 26 68  1  0  0  0
 26 69  1  0  0  0
 27 70  1  0  0  0
 27 71  1  0  0  0
 30 72  1  0  0  0
 30 73  1  0  0  0
 31 74  1  0  0  0
M  END
$$$$
