6g3a_ligand
  -I-interpret- 

 33 35  0  0  0  0  0  0  0  0999 V2000
   13.1640    7.8960    9.6720 O   0  0  0  0  0
   14.3930    7.3690   10.1820 C   0  0  0  0  0
   14.6370    7.7240   11.6290 C   0  0  0  0  0
   14.8650    9.1390   11.7710 O   0  0  0  0  0
   14.2730    9.6260   12.9570 C   0  0  0  0  0
   13.2070   10.5610   12.6080 N   0  0  0  0  0
   12.5280   10.6340   11.4220 C   0  0  0  0  0
   11.6460   11.6700   11.4670 C   0  0  0  0  0
   11.7620   12.2950   12.7400 C   0  0  0  0  0
   11.1460   13.3360   13.4820 C   0  0  0  0  0
   11.5510   13.5830   14.7440 N   0  0  0  0  0
   12.5140   12.8130   15.2560 C   0  0  0  0  0
   13.1500   11.7990   14.6810 N   0  0  0  0  0
   12.7520   11.5640   13.4240 C   0  0  0  0  0
   10.1520   14.0800   13.0010 N   0  0  0  0  0
   13.7900    8.4060   13.7290 C   0  0  0  0  0
   14.8410    7.9870   14.6050 O   0  0  0  0  0
   13.4950    7.4400   12.5950 C   0  0  0  0  0
   13.5260    6.0640   12.9910 O   0  0  0  0  0
   10.3830   12.1890    9.9030 I   0  0  0  0  0
   13.0640    7.6390    8.7525 H   0  0  0  0  0
   15.2052    7.7979    9.5951 H   0  0  0  0  0
   14.3406    6.2825   10.1127 H   0  0  0  0  0
   15.4872    7.0911   11.8833 H   0  0  0  0  0
   14.9655   10.1838   13.5874 H   0  0  0  0  0
   12.6713    9.9659   10.5727 H   0  0  0  0  0
   12.8170   13.0466   16.2767 H   0  0  0  0  0
    9.7999   13.9129   12.0584 H   0  0  0  0  0
    9.7426   14.8170   13.5752 H   0  0  0  0  0
   12.9234    8.5349   14.3775 H   0  0  0  0  0
   14.9663    8.6467   15.2911 H   0  0  0  0  0
   12.4926    7.5833   12.1916 H   0  0  0  0  0
   13.3324    5.5093   12.2318 H   0  0  0  0  0
  1  2  1  0  0  0
  2  3  1  0  0  0
  3  4  1  0  0  0
  3 18  1  0  0  0
  4  5  1  0  0  0
  5  6  1  0  0  0
  5 16  1  0  0  0
  6  7  4  0  0  0
  6 14  4  0  0  0
  7  8  4  0  0  0
  8  9  4  0  0  0
  8 20  1  0  0  0
  9 10  4  0  0  0
  9 14  4  0  0  0
 10 11  4  0  0  0
 10 15  1  0  0  0
 11 12  4  0  0  0
 12 13  4  0  0  0
 13 14  4  0  0  0
 16 17  1  0  0  0
 16 18  1  0  0  0
 18 19  1  0  0  0
  1 21  1  0  0  0
  2 22  1  0  0  0
  2 23  1  0  0  0
  3 24  1  0  0  0
  5 25  1  0  0  0
  7 26  1  0  0  0
 12 27  1  0  0  0
 15 28  1  0  0  0
 15 29  1  0  0  0
 16 30  1  0  0  0
 17 31  1  0  0  0
 18 32  1  0  0  0
 19 33  1  0  0  0
M  END
$$$$
