### 
### Created by X-TOOL on Mon Sep 10 21:13:16 2018
### 

@<TRIPOS>MOLECULE
4mnw_ligand
  211   212     1     0     0
SMALL
GAST_HUCK


@<TRIPOS>ATOM
      1 N          36.3850   21.1140  -11.3550 N.4       1 GLN         0.2380
      2 CA         36.4910   19.7350  -11.8980 C.3       1 GLN         0.0671
      3 C          35.1380   19.0740  -11.9130 C.2       1 GLN         0.2269
      4 O          34.2730   19.3800  -11.1000 O.2       1 GLN        -0.3907
      5 CB         37.4630   18.8700  -11.0980 C.3       1 GLN         0.0247
      6 CG         37.2920   18.9680   -9.5940 C.3       1 GLN         0.0443
      7 CD         38.2140   20.0070   -8.9810 C.2       1 GLN         0.1738
      8 OE1        38.0200   21.2100   -9.1680 O.2       1 GLN        -0.3973
      9 NE2        39.2260   19.5490   -8.2490 N.am      1 GLN        -0.3009
     10 N          34.9690   18.1600  -12.8430 N.am      1 CYS        -0.2602
     11 CA         33.7430   17.4160  -12.9570 C.3       1 CYS         0.1397
     12 C          34.1650   16.0040  -13.2800 C.2       1 CYS         0.2048
     13 O          34.1530   15.5840  -14.4170 O.2       1 CYS        -0.3944
     14 CB         32.8880   18.0240  -14.0640 C.3       1 CYS         0.0311
     15 SG         31.2740   17.2580  -14.2830 S.3       1 CYS        -0.1735
     16 N          34.5590   15.2950  -12.2390 N.am      1 TRP        -0.2626
     17 CA         35.2940   14.0440  -12.3230 C.3       1 TRP         0.1352
     18 C          34.5020   12.7970  -12.0770 C.2       1 TRP         0.2052
     19 O          34.9280   11.7150  -12.4530 O.2       1 TRP        -0.3942
     20 CB         36.3730   14.0540  -11.2490 C.3       1 TRP         0.0042
     21 CG         37.5410   14.8620  -11.5710 C.2       1 TRP        -0.0418
     22 CD1        38.5140   15.3080  -10.7190 C.2       1 TRP         0.0167
     23 CD2        37.9110   15.3020  -12.8610 C.ar      1 TRP        -0.0214
     24 NE1        39.4560   16.0110  -11.4100 N.pl3     1 TRP        -0.2890
     25 CE2        39.1120   16.0260  -12.7250 C.ar      1 TRP         0.0603
     26 CE3        37.3510   15.1650  -14.1160 C.ar      1 TRP        -0.0747
     27 CZ2        39.7470   16.5760  -13.7980 C.ar      1 TRP        -0.0443
     28 CZ3        37.9780   15.7170  -15.1720 C.ar      1 TRP        -0.0792
     29 CH2        39.1600   16.4090  -15.0210 C.ar      1 TRP        -0.0768
     30 N          33.3720   12.9530  -11.4200 N.am      1 ASP        -0.2621
     31 CA         32.6450   11.8350  -10.8550 C.3       1 ASP         0.1423
     32 C          31.5630   11.3180  -11.7940 C.2       1 ASP         0.2056
     33 O          30.6840   12.0630  -12.2000 O.2       1 ASP        -0.3943
     34 CB         32.0480   12.3070   -9.5320 C.3       1 ASP         0.0406
     35 CG         31.1600   11.2810   -8.8590 C.2       1 ASP         0.0393
     36 OD1        31.2910   10.0730   -9.0820 O.co2     1 ASP        -0.5688
     37 OD2        30.3360   11.7420   -8.0650 O.co2     1 ASP        -0.5688
     38 N          31.6200   10.0280  -12.0960 N.am      1 ARG        -0.2636
     39 CA         30.6190    9.3900  -12.9560 C.3       1 ARG         0.1311
     40 C          29.2230    9.3600  -12.3330 C.2       1 ARG         0.2037
     41 O          28.2280    9.3700  -13.0560 O.2       1 ARG        -0.3944
     42 CB         31.0430    7.9620  -13.3070 C.3       1 ARG        -0.0092
     43 CG         30.9920    6.9830  -12.1390 C.3       1 ARG        -0.0156
     44 CD         31.4620    5.5970  -12.5410 C.3       1 ARG         0.0627
     45 NE         32.8920    5.5690  -12.8100 N.pl3     1 ARG        -0.2723
     46 CZ         33.6100    4.4590  -12.9390 C.cat     1 ARG         0.2882
     47 NH1        33.0330    3.2650  -12.8210 N.pl3     1 ARG        -0.2849
     48 NH2        34.9120    4.5430  -13.1690 N.pl3     1 ARG        -0.2849
     49 N          29.1570    9.2900  -11.0040 N.am      1 GLY        -0.2664
     50 CA         27.8800    9.1720  -10.2970 C.3       1 GLY         0.1201
     51 C          27.2230   10.5120  -10.0360 C.2       1 GLY         0.2008
     52 O          27.0700   10.9280   -8.8870 O.2       1 GLY        -0.3947
     53 N          26.8100   11.1700  -11.1140 N.am      1 CYS        -0.2632
     54 CA         26.2270   12.5080  -11.0330 C.3       1 CYS         0.1396
     55 C          24.8610   12.6060  -11.7250 C.2       1 CYS         0.2047
     56 O          24.4650   13.6710  -12.1980 O.2       1 CYS        -0.3944
     57 CB         27.1990   13.5250  -11.6230 C.3       1 CYS         0.0311
     58 SG         27.4890   13.3140  -13.3920 S.3       1 CYS        -0.1735
     59 N          24.1310   11.4970  -11.7320 N.am      1 GLU        -0.2636
     60 CA         22.8020   11.4240  -12.3390 C.3       1 GLU         0.1325
     61 C          21.7950   12.2820  -11.5870 C.2       1 GLU         0.2041
     62 O          21.8520   12.3650  -10.3690 O.2       1 GLU        -0.3944
     63 CB         22.2750    9.9830  -12.3020 C.3       1 GLU        -0.0008
     64 CG         23.1050    8.9420  -13.0530 C.3       1 GLU         0.0044
     65 CD         24.2310    8.3420  -12.2280 C.2       1 GLU         0.0350
     66 OE1        24.4910    8.8250  -11.1080 O.co2     1 GLU        -0.5690
     67 OE2        24.8730    7.3820  -12.7030 O.co2     1 GLU        -0.5690
     68 N          20.8710   12.9020  -12.3110 N.am      1 ASN        -0.2616
     69 CA         19.6950   13.5310  -11.7060 C.3       1 ASN         0.1476
     70 C          20.0430   14.6260  -10.6920 C.2       1 ASN         0.2063
     71 O          19.4470   14.7070   -9.6160 O.2       1 ASN        -0.3942
     72 CB         18.8220   12.4420  -11.0630 C.3       1 ASN         0.0773
     73 CG         17.4090   12.9080  -10.7780 C.2       1 ASN         0.1780
     74 OD1        16.8240   13.6670  -11.5450 O.2       1 ASN        -0.3970
     75 ND2        16.8470   12.4400   -9.6690 N.am      1 ASN        -0.3007
     76 N          21.0150   15.4630  -11.0500 N.am      1 ARG        -0.2636
     77 CA         21.4520   16.5790  -10.2060 C.3       1 ARG         0.1311
     78 C          20.8600   17.8950  -10.6960 C.2       1 ARG         0.2039
     79 O          20.5240   18.0360  -11.8680 O.2       1 ARG        -0.3944
     80 CB         22.9730   16.7120  -10.2310 C.3       1 ARG        -0.0092
     81 CG         23.7380   15.5900   -9.5550 C.3       1 ARG        -0.0156
     82 CD         24.1850   15.9450   -8.1420 C.3       1 ARG         0.0627
     83 NE         25.0760   17.1100   -8.0860 N.pl3     1 ARG        -0.2723
     84 CZ         26.4090   17.0860   -8.1910 C.cat     1 ARG         0.2882
     85 NH1        27.0790   15.9500   -8.3760 N.pl3     1 ARG        -0.2849
     86 NH2        27.0830   18.2280   -8.1150 N.pl3     1 ARG        -0.2849
     87 N          20.7610   18.8590   -9.7880 N.am      1 LYS        -0.2637
     88 CA         20.3310   20.2220  -10.1250 C.3       1 LYS         0.1310
     89 C          21.4150   21.0240  -10.8690 C.2       1 LYS         0.2039
     90 O          21.1270   21.7130  -11.8520 O.2       1 LYS        -0.3944
     91 CB         19.9320   20.9810   -8.8530 C.3       1 LYS        -0.0122
     92 CG         18.5740   20.6130   -8.2830 C.3       1 LYS        -0.0440
     93 CD         18.2410   21.5080   -7.0960 C.3       1 LYS        -0.0124
     94 CE         17.4410   20.7790   -6.0300 C.3       1 LYS        -0.0354
     95 NZ         16.9920   21.7110   -4.9580 N.4       1 LYS         0.2185
     96 N          22.6490   20.9200  -10.3800 N.am      1 CYS        -0.2629
     97 CA         23.7970   21.7330  -10.8250 C.3       1 CYS         0.1396
     98 C          23.5030   23.2240  -10.6910 C.2       1 CYS         0.2048
     99 O          23.5460   23.9700  -11.6690 O.2       1 CYS        -0.3944
    100 CB         24.2270   21.4070  -12.2590 C.3       1 CYS         0.0311
    101 SG         24.5940   19.6730  -12.6160 S.3       1 CYS        -0.1735
    102 N          23.2010   23.6100   -9.4550 N.am      1 ASN        -0.2616
    103 CA         22.9040   24.9870   -9.0060 C.3       1 ASN         0.1472
    104 C          21.5050   25.0550   -8.3960 C.2       1 ASN         0.2015
    105 O          21.3340   24.7960   -7.2050 O.2       1 ASN        -0.3946
    106 CB         23.0790   26.0540  -10.0960 C.3       1 ASN         0.0773
    107 CG         24.5390   26.3230  -10.4190 C.2       1 ASN         0.1780
    108 OD1        25.3520   26.5560   -9.5250 O.2       1 ASN        -0.3970
    109 ND2        24.8780   26.2880  -11.6990 N.am      1 ASN        -0.3007
    110 N          20.5100   25.3830   -9.2110 N.am      1 NH2        -0.2988
    111 H          37.2965   21.5443  -11.3506 H         1 GLN         0.2015
    112 H          36.0260   21.0779  -10.4138 H         1 GLN         0.2015
    113 H          35.7607   21.6554  -11.9322 H         1 GLN         0.2015
    114 H          36.8609   19.8033  -12.9317 H         1 GLN         0.1100
    115 H          38.4879   19.1806  -11.3493 H         1 GLN         0.0370
    116 H          37.3148   17.8210  -11.3940 H         1 GLN         0.0370
    117 H          37.5151   17.9880   -9.1470 H         1 GLN         0.0506
    118 H          36.2503   19.2435   -9.3726 H         1 GLN         0.0506
    119 H          39.8642   20.1895   -7.8218 H         1 GLN         0.1814
    120 H          39.3486   18.5642   -8.1259 H         1 GLN         0.1814
    121 H          35.7115   17.9774  -13.4874 H         1 CYS         0.1885
    122 H          33.1841   17.4379  -12.0098 H         1 CYS         0.0808
    123 H          33.4403   17.9335  -15.0110 H         1 CYS         0.0422
    124 H          32.7324   19.0876  -13.8304 H         1 CYS         0.0422
    125 H          30.7821   17.7215  -15.0310 H         1 CYS         0.1019
    126 H          34.3362   15.6430  -11.3284 H         1 TRP         0.1884
    127 H          35.7500   13.9808  -13.3220 H         1 TRP         0.0815
    128 H          36.7062   13.0182  -11.0877 H         1 TRP         0.0397
    129 H          35.9302   14.4454  -10.3213 H         1 TRP         0.0397
    130 H          38.5333   15.1278   -9.6452 H         1 TRP         0.0795
    131 H          40.2904   16.4570  -11.0029 H         1 TRP         0.2216
    132 H          36.4222   14.6221  -14.2487 H         1 TRP         0.0540
    133 H          40.6768   17.1220  -13.6865 H         1 TRP         0.0541
    134 H          37.5445   15.6150  -16.1603 H         1 TRP         0.0510
    135 H          39.6378   16.8329  -15.8969 H         1 TRP         0.0530
    136 H          33.0027   13.8754  -11.3071 H         1 ASP         0.1884
    137 H          33.3498   11.0134  -10.6595 H         1 ASP         0.0819
    138 H          31.4498   13.2098   -9.7244 H         1 ASP         0.0478
    139 H          32.8733   12.5529   -8.8476 H         1 ASP         0.0478
    140 H          32.3668    9.4750  -11.7267 H         1 ARG         0.1883
    141 H          30.5606    9.9730  -13.8869 H         1 ARG         0.0800
    142 H          32.0757    7.9930  -13.6846 H         1 ARG         0.0313
    143 H          30.3746    7.5894  -14.0972 H         1 ARG         0.0313
    144 H          29.9557    6.9157  -11.7764 H         1 ARG         0.0301
    145 H          31.6391    7.3578  -11.3323 H         1 ARG         0.0301
    146 H          30.9228    5.2872  -13.4483 H         1 ARG         0.0689
    147 H          31.2394    4.8945  -11.7243 H         1 ARG         0.0689
    148 H          33.3802    6.4708  -12.9069 H         1 ARG         0.2642
    149 H          33.5962    2.4086  -12.9223 H         1 ARG         0.2615
    150 H          32.0234    3.1977  -12.6284 H         1 ARG         0.2615
    151 H          35.3603    5.4658  -13.2606 H         1 ARG         0.2615
    152 H          35.4759    3.6855  -13.2562 H         1 ARG         0.2615
    153 H          30.0044    9.3189  -10.4738 H         1 GLY         0.1881
    154 H          28.0580    8.6748   -9.3321 H         1 GLY         0.0763
    155 H          27.1979    8.5595  -10.9048 H         1 GLY         0.0763
    156 H          26.9010   10.7356  -12.0101 H         1 CYS         0.1884
    157 H          26.0799   12.7475   -9.9695 H         1 CYS         0.0808
    158 H          28.1618   13.4286  -11.0998 H         1 CYS         0.0422
    159 H          26.7903   14.5326  -11.4563 H         1 CYS         0.0422
    160 H          28.1375   14.0166  -13.7111 H         1 CYS         0.1019
    161 H          24.5063   10.6752  -11.3033 H         1 GLU         0.1883
    162 H          22.8698   11.7674  -13.3818 H         1 GLU         0.0801
    163 H          21.2645    9.9838  -12.7366 H         1 GLU         0.0330
    164 H          22.2207    9.6723  -11.2482 H         1 GLU         0.0330
    165 H          23.5435    9.4226  -13.9400 H         1 GLU         0.0433
    166 H          22.4360    8.1283  -13.3698 H         1 GLU         0.0433
    167 H          20.9819   12.9409  -13.3041 H         1 ASN         0.1885
    168 H          19.1159   14.0039  -12.5128 H         1 ASN         0.0826
    169 H          19.2874   12.1339  -10.1151 H         1 ASN         0.0551
    170 H          18.7761   11.5809  -11.7459 H         1 ASN         0.0551
    171 H          15.9155   12.7119   -9.4274 H         1 ASN         0.1814
    172 H          17.3554   11.8158   -9.0758 H         1 ASN         0.1814
    173 H          21.4658   15.3243  -11.9318 H         1 ARG         0.1883
    174 H          21.1197   16.3927   -9.1741 H         1 ARG         0.0800
    175 H          23.2391   17.6539   -9.7291 H         1 ARG         0.0313
    176 H          23.2923   16.7540  -11.2828 H         1 ARG         0.0313
    177 H          24.6290   15.3597  -10.1576 H         1 ARG         0.0301
    178 H          23.0895   14.7029   -9.5056 H         1 ARG         0.0301
    179 H          24.7153   15.0802   -7.7168 H         1 ARG         0.0689
    180 H          23.2915   16.1606   -7.5378 H         1 ARG         0.0689
    181 H          24.6339   18.0308   -7.9536 H         1 ARG         0.2642
    182 H          28.1060   15.9645   -8.4530 H         1 ARG         0.2615
    183 H          26.5702   15.0569   -8.4421 H         1 ARG         0.2615
    184 H          26.5791   19.1149   -7.9721 H         1 ARG         0.2615
    185 H          28.1096   18.2267   -8.1989 H         1 ARG         0.2615
    186 H          20.9883   18.6484   -8.8372 H         1 LYS         0.1883
    187 H          19.4508   20.1465  -10.7804 H         1 LYS         0.0800
    188 H          19.9238   22.0560   -9.0860 H         1 LYS         0.0312
    189 H          20.6910   20.7784   -8.0830 H         1 LYS         0.0312
    190 H          18.5906   19.5637   -7.9533 H         1 LYS         0.0269
    191 H          17.8068   20.7409   -9.0608 H         1 LYS         0.0269
    192 H          17.6533   22.3662   -7.4540 H         1 LYS         0.0317
    193 H          19.1799   21.8672   -6.6496 H         1 LYS         0.0317
    194 H          18.0703   19.9954   -5.5830 H         1 LYS         0.0813
    195 H          16.5581   20.3182   -6.4971 H         1 LYS         0.0813
    196 H          16.4653   21.1997   -4.2672 H         1 LYS         0.1994
    197 H          16.4106   22.4298   -5.3595 H         1 LYS         0.1994
    198 H          17.7963   22.1340   -4.5219 H         1 LYS         0.1994
    199 H          22.8089   20.2437   -9.6610 H         1 CYS         0.1884
    200 H          24.6429   21.4959  -10.1630 H         1 CYS         0.0808
    201 H          25.1324   21.9922  -12.4778 H         1 CYS         0.0422
    202 H          23.4154   21.7221  -12.9312 H         1 CYS         0.0422
    203 H          24.8640   19.5800  -13.5828 H         1 CYS         0.1019
    204 H          23.1717   22.8948   -8.7567 H         1 ASN         0.1885
    205 H          23.6244   25.2258   -8.2098 H         1 ASN         0.0826
    206 H          22.6161   26.9901   -9.7506 H         1 ASN         0.0551
    207 H          22.5732   25.7103  -11.0103 H         1 ASN         0.0551
    208 H          25.8255   26.4576  -11.9701 H         1 ASN         0.1814
    209 H          24.1864   26.0920  -12.3942 H         1 ASN         0.1814
    210 H          19.5752   25.4412   -8.8606 H         1 NH2         0.1815
    211 H          20.6952   25.5719  -10.1754 H         1 NH2         0.1815
@<TRIPOS>BOND
     1    1    2 1  
     2    2    3 1  
     3    2    5 1  
     4    3    4 2  
     5    3   10 am 
     6    5    6 1  
     7    6    7 1  
     8    7    8 2  
     9    7    9 am 
    10   10   11 1  
    11   11   12 1  
    12   11   14 1  
    13   12   13 2  
    14   12   16 am 
    15   14   15 1  
    16   16   17 1  
    17   17   18 1  
    18   17   20 1  
    19   18   19 2  
    20   18   30 am 
    21   20   21 1  
    22   21   22 2  
    23   21   23 1  
    24   22   24 1  
    25   23   25 ar 
    26   23   26 ar 
    27   24   25 1  
    28   25   27 ar 
    29   26   28 ar 
    30   27   29 ar 
    31   28   29 ar 
    32   30   31 1  
    33   31   32 1  
    34   31   34 1  
    35   32   33 2  
    36   32   38 am 
    37   34   35 1  
    38   35   36 ar 
    39   35   37 ar 
    40   38   39 1  
    41   39   40 1  
    42   39   42 1  
    43   40   41 2  
    44   40   49 am 
    45   42   43 1  
    46   43   44 1  
    47   44   45 1  
    48   45   46 ar 
    49   46   47 ar 
    50   46   48 ar 
    51   49   50 1  
    52   50   51 1  
    53   51   52 2  
    54   51   53 am 
    55   53   54 1  
    56   54   55 1  
    57   54   57 1  
    58   55   56 2  
    59   55   59 am 
    60   57   58 1  
    61   59   60 1  
    62   60   61 1  
    63   60   63 1  
    64   61   62 2  
    65   61   68 am 
    66   63   64 1  
    67   64   65 1  
    68   65   66 ar 
    69   65   67 ar 
    70   68   69 1  
    71   69   70 1  
    72   69   72 1  
    73   70   71 2  
    74   70   76 am 
    75   72   73 1  
    76   73   74 2  
    77   73   75 am 
    78   76   77 1  
    79   77   78 1  
    80   77   80 1  
    81   78   79 2  
    82   78   87 am 
    83   80   81 1  
    84   81   82 1  
    85   82   83 1  
    86   83   84 ar 
    87   84   85 ar 
    88   84   86 ar 
    89   87   88 1  
    90   88   89 1  
    91   88   91 1  
    92   89   90 2  
    93   89   96 am 
    94   91   92 1  
    95   92   93 1  
    96   93   94 1  
    97   94   95 1  
    98   96   97 1  
    99   97   98 1  
   100   97  100 1  
   101   98   99 2  
   102   98  102 am 
   103  100  101 1  
   104  102  103 1  
   105  103  104 1  
   106  103  106 1  
   107  104  105 2  
   108  104  110 am 
   109  106  107 1  
   110  107  108 2  
   111  107  109 am 
   112    1  111 1  
   113    1  112 1  
   114    1  113 1  
   115    2  114 1  
   116    5  115 1  
   117    5  116 1  
   118    6  117 1  
   119    6  118 1  
   120    9  119 1  
   121    9  120 1  
   122   10  121 1  
   123   11  122 1  
   124   14  123 1  
   125   14  124 1  
   126   15  125 1  
   127   16  126 1  
   128   17  127 1  
   129   20  128 1  
   130   20  129 1  
   131   22  130 1  
   132   24  131 1  
   133   26  132 1  
   134   27  133 1  
   135   28  134 1  
   136   29  135 1  
   137   30  136 1  
   138   31  137 1  
   139   34  138 1  
   140   34  139 1  
   141   38  140 1  
   142   39  141 1  
   143   42  142 1  
   144   42  143 1  
   145   43  144 1  
   146   43  145 1  
   147   44  146 1  
   148   44  147 1  
   149   45  148 1  
   150   47  149 1  
   151   47  150 1  
   152   48  151 1  
   153   48  152 1  
   154   49  153 1  
   155   50  154 1  
   156   50  155 1  
   157   53  156 1  
   158   54  157 1  
   159   57  158 1  
   160   57  159 1  
   161   58  160 1  
   162   59  161 1  
   163   60  162 1  
   164   63  163 1  
   165   63  164 1  
   166   64  165 1  
   167   64  166 1  
   168   68  167 1  
   169   69  168 1  
   170   72  169 1  
   171   72  170 1  
   172   75  171 1  
   173   75  172 1  
   174   76  173 1  
   175   77  174 1  
   176   80  175 1  
   177   80  176 1  
   178   81  177 1  
   179   81  178 1  
   180   82  179 1  
   181   82  180 1  
   182   83  181 1  
   183   85  182 1  
   184   85  183 1  
   185   86  184 1  
   186   86  185 1  
   187   87  186 1  
   188   88  187 1  
   189   91  188 1  
   190   91  189 1  
   191   92  190 1  
   192   92  191 1  
   193   93  192 1  
   194   93  193 1  
   195   94  194 1  
   196   94  195 1  
   197   95  196 1  
   198   95  197 1  
   199   95  198 1  
   200   96  199 1  
   201   97  200 1  
   202  100  201 1  
   203  100  202 1  
   204  101  203 1  
   205  102  204 1  
   206  103  205 1  
   207  106  206 1  
   208  106  207 1  
   209  109  208 1  
   210  109  209 1  
   211  110  210 1  
   212  110  211 1  
@<TRIPOS>SUBSTRUCTURE
     1 GLN         1

