4mnw_ligand
  -I-interpret- 

210211  0  0  0  0  0  0  0  0999 V2000
   36.3850   21.1140  -11.3550 N   0  3  0  0  0
   36.4910   19.7350  -11.8980 C   0  0  0  0  0
   35.1380   19.0740  -11.9130 C   0  0  0  0  0
   34.2730   19.3800  -11.1000 O   0  0  0  0  0
   37.4630   18.8700  -11.0980 C   0  0  0  0  0
   37.2920   18.9680   -9.5940 C   0  0  0  0  0
   38.2140   20.0070   -8.9810 C   0  0  0  0  0
   38.0200   21.2100   -9.1680 O   0  0  0  0  0
   39.2260   19.5490   -8.2490 N   0  0  0  0  0
   34.9690   18.1600  -12.8430 N   0  0  0  0  0
   33.7430   17.4160  -12.9570 C   0  0  0  0  0
   34.1650   16.0040  -13.2800 C   0  0  0  0  0
   34.1530   15.5840  -14.4170 O   0  0  0  0  0
   32.8880   18.0240  -14.0640 C   0  0  0  0  0
   31.2740   17.2580  -14.2830 S   0  0  0  0  0
   34.5590   15.2950  -12.2390 N   0  0  0  0  0
   35.2940   14.0440  -12.3230 C   0  0  0  0  0
   34.5020   12.7970  -12.0770 C   0  0  0  0  0
   34.9280   11.7150  -12.4530 O   0  0  0  0  0
   36.3730   14.0540  -11.2490 C   0  0  0  0  0
   37.5410   14.8620  -11.5710 C   0  0  0  0  0
   38.5140   15.3080  -10.7190 C   0  0  0  0  0
   37.9110   15.3020  -12.8610 C   0  0  0  0  0
   39.4560   16.0110  -11.4100 N   0  0  0  0  0
   39.1120   16.0260  -12.7250 C   0  0  0  0  0
   37.3510   15.1650  -14.1160 C   0  0  0  0  0
   39.7470   16.5760  -13.7980 C   0  0  0  0  0
   37.9780   15.7170  -15.1720 C   0  0  0  0  0
   39.1600   16.4090  -15.0210 C   0  0  0  0  0
   33.3720   12.9530  -11.4200 N   0  0  0  0  0
   32.6450   11.8350  -10.8550 C   0  0  0  0  0
   31.5630   11.3180  -11.7940 C   0  0  0  0  0
   30.6840   12.0630  -12.2000 O   0  0  0  0  0
   32.0480   12.3070   -9.5320 C   0  0  0  0  0
   31.1600   11.2810   -8.8590 C   0  0  0  0  0
   31.2910   10.0730   -9.0820 O   0  0  0  0  0
   30.3360   11.7420   -8.0650 O   0  0  0  0  0
   31.6200   10.0280  -12.0960 N   0  0  0  0  0
   30.6190    9.3900  -12.9560 C   0  0  0  0  0
   29.2230    9.3600  -12.3330 C   0  0  0  0  0
   28.2280    9.3700  -13.0560 O   0  0  0  0  0
   31.0430    7.9620  -13.3070 C   0  0  0  0  0
   30.9920    6.9830  -12.1390 C   0  0  0  0  0
   31.4620    5.5970  -12.5410 C   0  0  0  0  0
   32.8920    5.5690  -12.8100 N   0  0  0  0  0
   33.6100    4.4590  -12.9390 C   0  0  0  0  0
   33.0330    3.2650  -12.8210 N   0  0  0  0  0
   34.9120    4.5430  -13.1690 N   0  0  0  0  0
   29.1570    9.2900  -11.0040 N   0  0  0  0  0
   27.8800    9.1720  -10.2970 C   0  0  0  0  0
   27.2230   10.5120  -10.0360 C   0  0  0  0  0
   27.0700   10.9280   -8.8870 O   0  0  0  0  0
   26.8100   11.1700  -11.1140 N   0  0  0  0  0
   26.2270   12.5080  -11.0330 C   0  0  0  0  0
   24.8610   12.6060  -11.7250 C   0  0  0  0  0
   24.4650   13.6710  -12.1980 O   0  0  0  0  0
   27.1990   13.5250  -11.6230 C   0  0  0  0  0
   27.4890   13.3140  -13.3920 S   0  0  0  0  0
   24.1310   11.4970  -11.7320 N   0  0  0  0  0
   22.8020   11.4240  -12.3390 C   0  0  0  0  0
   21.7950   12.2820  -11.5870 C   0  0  0  0  0
   21.8520   12.3650  -10.3690 O   0  0  0  0  0
   22.2750    9.9830  -12.3020 C   0  0  0  0  0
   23.1050    8.9420  -13.0530 C   0  0  0  0  0
   24.2310    8.3420  -12.2280 C   0  0  0  0  0
   24.4910    8.8250  -11.1080 O   0  0  0  0  0
   24.8730    7.3820  -12.7030 O   0  0  0  0  0
   20.8710   12.9020  -12.3110 N   0  0  0  0  0
   19.6950   13.5310  -11.7060 C   0  0  0  0  0
   20.0430   14.6260  -10.6920 C   0  0  0  0  0
   19.4470   14.7070   -9.6160 O   0  0  0  0  0
   18.8220   12.4420  -11.0630 C   0  0  0  0  0
   17.4090   12.9080  -10.7780 C   0  0  0  0  0
   16.8240   13.6670  -11.5450 O   0  0  0  0  0
   16.8470   12.4400   -9.6690 N   0  0  0  0  0
   21.0150   15.4630  -11.0500 N   0  0  0  0  0
   21.4520   16.5790  -10.2060 C   0  0  0  0  0
   20.8600   17.8950  -10.6960 C   0  0  0  0  0
   20.5240   18.0360  -11.8680 O   0  0  0  0  0
   22.9730   16.7120  -10.2310 C   0  0  0  0  0
   23.7380   15.5900   -9.5550 C   0  0  0  0  0
   24.1850   15.9450   -8.1420 C   0  0  0  0  0
   25.0760   17.1100   -8.0860 N   0  0  0  0  0
   26.4090   17.0860   -8.1910 C   0  0  0  0  0
   27.0790   15.9500   -8.3760 N   0  0  0  0  0
   27.0830   18.2280   -8.1150 N   0  0  0  0  0
   20.7610   18.8590   -9.7880 N   0  0  0  0  0
   20.3310   20.2220  -10.1250 C   0  0  0  0  0
   21.4150   21.0240  -10.8690 C   0  0  0  0  0
   21.1270   21.7130  -11.8520 O   0  0  0  0  0
   19.9320   20.9810   -8.8530 C   0  0  0  0  0
   18.5740   20.6130   -8.2830 C   0  0  0  0  0
   18.2410   21.5080   -7.0960 C   0  0  0  0  0
   17.4410   20.7790   -6.0300 C   0  0  0  0  0
   16.9920   21.7110   -4.9580 N   0  3  0  0  0
   22.6490   20.9200  -10.3800 N   0  0  0  0  0
   23.7970   21.7330  -10.8250 C   0  0  0  0  0
   23.5030   23.2240  -10.6910 C   0  0  0  0  0
   23.5460   23.9700  -11.6690 O   0  0  0  0  0
   24.2270   21.4070  -12.2590 C   0  0  0  0  0
   24.5940   19.6730  -12.6160 S   0  0  0  0  0
   23.2010   23.6100   -9.4550 N   0  0  0  0  0
   22.9040   24.9870   -9.0060 C   0  0  0  0  0
   21.5050   25.0550   -8.3960 C   0  0  0  0  0
   21.3340   24.7960   -7.2050 O   0  0  0  0  0
   23.0790   26.0540  -10.0960 C   0  0  0  0  0
   24.5390   26.3230  -10.4190 C   0  0  0  0  0
   25.3520   26.5560   -9.5250 O   0  0  0  0  0
   24.8780   26.2880  -11.6990 N   0  0  0  0  0
   20.5100   25.3830   -9.2110 N   0  0  0  0  0
   35.7272   21.6510  -11.9201 H   0  0  0  0  0
   36.0535   21.0741  -10.3912 H   0  0  0  0  0
   37.3018   21.5603  -11.3822 H   0  0  0  0  0
   36.8762   19.8241  -12.9138 H   0  0  0  0  0
   38.4692   19.2191  -11.3301 H   0  0  0  0  0
   37.2734   17.8332  -11.3758 H   0  0  0  0  0
   37.5362   17.9984   -9.1601 H   0  0  0  0  0
   36.2630   19.2622   -9.3872 H   0  0  0  0  0
   39.8791   20.2022   -7.8163 H   0  0  0  0  0
   39.3489   18.5446   -8.1204 H   0  0  0  0  0
   35.7264   17.9737  -13.5003 H   0  0  0  0  0
   33.1403   17.4372  -12.0490 H   0  0  0  0  0
   33.4333   17.8829  -14.9972 H   0  0  0  0  0
   32.7091   19.0635  -13.7893 H   0  0  0  0  0
   30.6250   17.8695  -15.2698 H   0  0  0  0  0
   34.3317   15.6499  -11.3102 H   0  0  0  0  0
   35.6551   14.0056  -13.3507 H   0  0  0  0  0
   36.7184   13.0264  -11.1353 H   0  0  0  0  0
   35.9259   14.4839  -10.3527 H   0  0  0  0  0
   38.5334   15.1276   -9.6442 H   0  0  0  0  0
   36.4170   14.6191  -14.2494 H   0  0  0  0  0
   40.6820   17.1250  -13.6859 H   0  0  0  0  0
   37.5421   15.6145  -16.1658 H   0  0  0  0  0
   39.6404   16.8352  -15.9017 H   0  0  0  0  0
   32.9953   13.8939  -11.3048 H   0  0  0  0  0
   33.3230   10.9963  -10.6969 H   0  0  0  0  0
   31.4304   13.1788   -9.7476 H   0  0  0  0  0
   32.8783   12.5106   -8.8558 H   0  0  0  0  0
   31.9867    9.9420   -9.7304 H   0  0  0  0  0
   32.3818    9.4639  -11.7193 H   0  0  0  0  0
   30.5637   10.0000  -13.8576 H   0  0  0  0  0
   32.0802    8.0093  -13.6389 H   0  0  0  0  0
   30.3443    7.5974  -14.0600 H   0  0  0  0  0
   29.9586    6.9085  -11.8005 H   0  0  0  0  0
   31.6514    7.3531  -11.3539 H   0  0  0  0  0
   30.9362    5.3071  -13.4507 H   0  0  0  0  0
   31.2543    4.9125  -11.7185 H   0  0  0  0  0
   33.3755    6.4620  -12.9059 H   0  0  0  0  0
   33.5932    2.4170  -12.9077 H   0  0  0  0  0
   32.0307    3.1982  -12.6439 H   0  0  0  0  0
   35.3583    5.4569  -13.2462 H   0  0  0  0  0
   30.0213    9.3195  -10.4632 H   0  0  0  0  0
   28.0762    8.7044   -9.3321 H   0  0  0  0  0
   27.2060    8.5877  -10.9234 H   0  0  0  0  0
   26.9028   10.7269  -12.0280 H   0  0  0  0  0
   26.0550   12.7261   -9.9790 H   0  0  0  0  0
   28.1558   13.3909  -11.1184 H   0  0  0  0  0
   26.7616   14.5132  -11.4809 H   0  0  0  0  0
   28.3447   14.2410  -13.8131 H   0  0  0  0  0
   24.5138   10.6587  -11.2948 H   0  0  0  0  0
   22.9081   11.7809  -13.3634 H   0  0  0  0  0
   21.2994   10.0029  -12.7878 H   0  0  0  0  0
   22.2844    9.6820  -11.2544 H   0  0  0  0  0
   23.5602    9.4442  -13.9066 H   0  0  0  0  0
   22.4339    8.1279  -13.3267 H   0  0  0  0  0
   24.5214    7.1602  -13.5683 H   0  0  0  0  0
   20.9841   12.9417  -13.3239 H   0  0  0  0  0
   19.1448   14.0355  -12.5003 H   0  0  0  0  0
   19.2794   12.1679  -10.1123 H   0  0  0  0  0
   18.7620   11.6083  -11.7626 H   0  0  0  0  0
   15.8934   12.7097   -9.4275 H   0  0  0  0  0
   17.3691   11.8109   -9.0590 H   0  0  0  0  0
   21.4748   15.3216  -11.9494 H   0  0  0  0  0
   21.1089   16.3691   -9.1929 H   0  0  0  0  0
   23.2137   17.6244   -9.6854 H   0  0  0  0  0
   23.2683   16.7008  -11.2802 H   0  0  0  0  0
   24.6315   15.3921  -10.1472 H   0  0  0  0  0
   23.0745   14.7278   -9.4877 H   0  0  0  0  0
   24.7365   15.0912   -7.7483 H   0  0  0  0  0
   23.2916   16.1875   -7.5666 H   0  0  0  0  0
   24.6382   18.0219   -7.9549 H   0  0  0  0  0
   28.0956   15.9649   -8.4573 H   0  0  0  0  0
   26.5755   15.0650   -8.4364 H   0  0  0  0  0
   26.5836   19.1068   -7.9784 H   0  0  0  0  0
   20.9928   18.6442   -8.8182 H   0  0  0  0  0
   19.4758   20.1206  -10.7932 H   0  0  0  0  0
   19.8850   22.0369   -9.1193 H   0  0  0  0  0
   20.6706   20.7286   -8.0922 H   0  0  0  0  0
   18.5957   19.5748   -7.9518 H   0  0  0  0  0
   17.8154   20.7466   -9.0542 H   0  0  0  0  0
   17.6394   22.3412   -7.4593 H   0  0  0  0  0
   19.1783   21.8382   -6.6483 H   0  0  0  0  0
   18.0759   20.0148   -5.5818 H   0  0  0  0  0
   16.5606   20.3383   -6.4977 H   0  0  0  0  0
   16.4592   21.1926   -4.2596 H   0  0  0  0  0
   17.8067   22.1384   -4.5175 H   0  0  0  0  0
   16.4038   22.4379   -5.3655 H   0  0  0  0  0
   22.8121   20.2302   -9.6466 H   0  0  0  0  0
   24.6275   21.4761  -10.1674 H   0  0  0  0  0
   25.1552   21.9531  -12.4275 H   0  0  0  0  0
   23.3835   21.6744  -12.8954 H   0  0  0  0  0
   24.9502   19.5504  -13.8915 H   0  0  0  0  0
   23.1711   22.8805   -8.7427 H   0  0  0  0  0
   23.6478   25.2245   -8.2455 H   0  0  0  0  0
   22.6390   26.9822   -9.7313 H   0  0  0  0  0
   22.5958   25.6903  -11.0028 H   0  0  0  0  0
   25.8450   26.4580  -11.9753 H   0  0  0  0  0
   24.1720   26.0910  -12.4084 H   0  0  0  0  0
   19.5546   25.4286   -8.8568 H   0  0  0  0  0
   20.7008   25.5894  -10.1915 H   0  0  0  0  0
  1  2  1  0  0  0
  2  3  1  0  0  0
  2  5  1  0  0  0
  3  4  2  0  0  0
  3 10  1  0  0  0
  5  6  1  0  0  0
  6  7  1  0  0  0
  7  8  2  0  0  0
  7  9  1  0  0  0
 10 11  1  0  0  0
 11 12  1  0  0  0
 11 14  1  0  0  0
 12 13  2  0  0  0
 12 16  1  0  0  0
 14 15  1  0  0  0
 16 17  1  0  0  0
 17 18  1  0  0  0
 17 20  1  0  0  0
 18 19  2  0  0  0
 18 30  1  0  0  0
 20 21  1  0  0  0
 21 22  4  0  0  0
 21 23  4  0  0  0
 22 24  4  0  0  0
 23 25  4  0  0  0
 23 26  4  0  0  0
 24 25  4  0  0  0
 25 27  4  0  0  0
 26 28  4  0  0  0
 27 29  4  0  0  0
 28 29  4  0  0  0
 30 31  1  0  0  0
 31 32  1  0  0  0
 31 34  1  0  0  0
 32 33  2  0  0  0
 32 38  1  0  0  0
 34 35  1  0  0  0
 35 36  1  0  0  0
 35 37  2  0  0  0
 38 39  1  0  0  0
 39 40  1  0  0  0
 39 42  1  0  0  0
 40 41  2  0  0  0
 40 49  1  0  0  0
 42 43  1  0  0  0
 43 44  1  0  0  0
 44 45  1  0  0  0
 45 46  1  0  0  0
 46 47  1  0  0  0
 46 48  2  0  0  0
 49 50  1  0  0  0
 50 51  1  0  0  0
 51 52  2  0  0  0
 51 53  1  0  0  0
 53 54  1  0  0  0
 54 55  1  0  0  0
 54 57  1  0  0  0
 55 56  2  0  0  0
 55 59  1  0  0  0
 57 58  1  0  0  0
 59 60  1  0  0  0
 60 61  1  0  0  0
 60 63  1  0  0  0
 61 62  2  0  0  0
 61 68  1  0  0  0
 63 64  1  0  0  0
 64 65  1  0  0  0
 65 66  2  0  0  0
 65 67  1  0  0  0
 68 69  1  0  0  0
 69 70  1  0  0  0
 69 72  1  0  0  0
 70 71  2  0  0  0
 70 76  1  0  0  0
 72 73  1  0  0  0
 73 74  2  0  0  0
 73 75  1  0  0  0
 76 77  1  0  0  0
 77 78  1  0  0  0
 77 80  1  0  0  0
 78 79  2  0  0  0
 78 87  1  0  0  0
 80 81  1  0  0  0
 81 82  1  0  0  0
 82 83  1  0  0  0
 83 84  1  0  0  0
 84 85  1  0  0  0
 84 86  2  0  0  0
 87 88  1  0  0  0
 88 89  1  0  0  0
 88 91  1  0  0  0
 89 90  2  0  0  0
 89 96  1  0  0  0
 91 92  1  0  0  0
 92 93  1  0  0  0
 93 94  1  0  0  0
 94 95  1  0  0  0
 96 97  1  0  0  0
 97 98  1  0  0  0
 97100  1  0  0  0
 98 99  2  0  0  0
 98102  1  0  0  0
100101  1  0  0  0
102103  1  0  0  0
103104  1  0  0  0
103106  1  0  0  0
104105  2  0  0  0
104110  1  0  0  0
106107  1  0  0  0
107108  2  0  0  0
107109  1  0  0  0
  1111  1  0  0  0
  1112  1  0  0  0
  1113  1  0  0  0
  2114  1  0  0  0
  5115  1  0  0  0
  5116  1  0  0  0
  6117  1  0  0  0
  6118  1  0  0  0
  9119  1  0  0  0
  9120  1  0  0  0
 10121  1  0  0  0
 11122  1  0  0  0
 14123  1  0  0  0
 14124  1  0  0  0
 15125  1  0  0  0
 16126  1  0  0  0
 17127  1  0  0  0
 20128  1  0  0  0
 20129  1  0  0  0
 22130  1  0  0  0
 26131  1  0  0  0
 27132  1  0  0  0
 28133  1  0  0  0
 29134  1  0  0  0
 30135  1  0  0  0
 31136  1  0  0  0
 34137  1  0  0  0
 34138  1  0  0  0
 36139  1  0  0  0
 38140  1  0  0  0
 39141  1  0  0  0
 42142  1  0  0  0
 42143  1  0  0  0
 43144  1  0  0  0
 43145  1  0  0  0
 44146  1  0  0  0
 44147  1  0  0  0
 45148  1  0  0  0
 47149  1  0  0  0
 47150  1  0  0  0
 48151  1  0  0  0
 49152  1  0  0  0
 50153  1  0  0  0
 50154  1  0  0  0
 53155  1  0  0  0
 54156  1  0  0  0
 57157  1  0  0  0
 57158  1  0  0  0
 58159  1  0  0  0
 59160  1  0  0  0
 60161  1  0  0  0
 63162  1  0  0  0
 63163  1  0  0  0
 64164  1  0  0  0
 64165  1  0  0  0
 67166  1  0  0  0
 68167  1  0  0  0
 69168  1  0  0  0
 72169  1  0  0  0
 72170  1  0  0  0
 75171  1  0  0  0
 75172  1  0  0  0
 76173  1  0  0  0
 77174  1  0  0  0
 80175  1  0  0  0
 80176  1  0  0  0
 81177  1  0  0  0
 81178  1  0  0  0
 82179  1  0  0  0
 82180  1  0  0  0
 83181  1  0  0  0
 85182  1  0  0  0
 85183  1  0  0  0
 86184  1  0  0  0
 87185  1  0  0  0
 88186  1  0  0  0
 91187  1  0  0  0
 91188  1  0  0  0
 92189  1  0  0  0
 92190  1  0  0  0
 93191  1  0  0  0
 93192  1  0  0  0
 94193  1  0  0  0
 94194  1  0  0  0
 95195  1  0  0  0
 95196  1  0  0  0
 95197  1  0  0  0
 96198  1  0  0  0
 97199  1  0  0  0
100200  1  0  0  0
100201  1  0  0  0
101202  1  0  0  0
102203  1  0  0  0
103204  1  0  0  0
106205  1  0  0  0
106206  1  0  0  0
109207  1  0  0  0
109208  1  0  0  0
110209  1  0  0  0
110210  1  0  0  0
M  END
$$$$
