5i3m_ligand
  -I-interpret- 

 81 83  0  0  0  0  0  0  0  0999 V2000
  -23.8030  -15.8390  -10.9950 O   0  0  0  0  0
  -22.9480  -16.7090  -10.9000 C   0  0  0  0  0
  -23.0380  -17.9350  -11.7620 C   0  0  0  0  0
  -21.8340  -16.5500  -10.1720 N   0  0  0  0  0
  -21.3530  -15.2020   -9.8630 C   0  0  0  0  0
  -20.3780  -14.8670  -11.0040 C   0  0  0  0  0
  -21.0090  -14.9770  -12.2890 O   0  0  0  0  0
  -19.7480  -13.4670  -10.9080 C   0  0  0  0  0
  -18.3960  -13.5540  -11.4020 O   0  0  0  0  0
  -19.7710  -12.7950   -9.5080 C   0  0  0  0  0
  -20.5230  -11.4530   -9.5660 C   0  0  0  0  0
  -20.7050  -10.8730   -8.2640 O   0  0  0  0  0
  -20.3830  -13.5430   -8.4360 O   0  0  0  0  0
  -20.5780  -14.9600   -8.5580 C   0  0  0  0  0
  -21.1420  -15.4310   -7.2960 N   0  0  0  0  0
  -20.5660  -15.1490   -6.1040 C   0  0  0  0  0
  -21.0510  -15.9610   -4.8690 S   0  0  0  0  0
  -19.5490  -14.2670   -5.9510 N   0  0  0  0  0
  -18.7320  -14.0500   -4.7450 C   0  0  0  0  0
  -19.0310  -12.7160   -4.0680 C   0  0  0  0  0
  -17.7720  -11.9380   -3.8670 N   0  0  0  0  0
  -17.4970  -11.1420   -5.1020 C   0  0  0  0  0
  -17.9520   -9.6870   -5.2080 C   0  0  0  0  0
  -19.1110   -9.2220   -4.3100 C   0  0  0  0  0
  -18.3060   -9.4570   -6.6970 C   0  0  0  0  0
  -16.1280  -11.3130   -5.6550 C   0  0  0  0  0
  -15.1720  -10.4860   -5.7190 O   0  0  0  0  0
  -16.0390  -12.4100   -6.1170 O   0  0  0  0  0
  -17.0010  -12.0770   -2.5210 S   0  0  0  0  0
  -17.0220  -10.8770   -1.7640 O   0  0  0  0  0
  -17.7590  -13.0360   -1.7580 O   0  0  0  0  0
  -15.4770  -12.6250   -2.5870 C   0  0  0  0  0
  -15.2770  -13.9920   -2.6890 C   0  0  0  0  0
  -14.0010  -14.5410   -2.7360 C   0  0  0  0  0
  -14.3420  -11.8110   -2.4850 C   0  0  0  0  0
  -13.0470  -12.3510   -2.5090 C   0  0  0  0  0
  -12.8740  -13.7290   -2.6460 C   0  0  0  0  0
  -11.5280  -14.3380   -2.7340 C   0  0  0  0  0
  -10.4440  -13.8090   -2.0480 C   0  0  0  0  0
   -9.1850  -14.4120   -2.1980 C   0  0  0  0  0
   -9.0010  -15.5300   -2.9970 C   0  0  0  0  0
  -10.0790  -16.0490   -3.6790 C   0  0  0  0  0
  -11.3210  -15.4510   -3.5510 C   0  0  0  0  0
  -23.9735  -18.4549  -11.5555 H   0  0  0  0  0
  -23.0074  -17.6427  -12.8116 H   0  0  0  0  0
  -22.1982  -18.5944  -11.5425 H   0  0  0  0  0
  -21.3228  -17.3655   -9.8343 H   0  0  0  0  0
  -22.2520  -14.5966   -9.7476 H   0  0  0  0  0
  -19.5827  -15.6045  -10.8955 H   0  0  0  0  0
  -21.4109  -15.8447  -12.3737 H   0  0  0  0  0
  -20.3738  -12.8112  -11.5134 H   0  0  0  0  0
  -18.3987  -13.9710  -12.2667 H   0  0  0  0  0
  -18.7101  -12.7014   -9.2759 H   0  0  0  0  0
  -21.5080  -11.6357   -9.9955 H   0  0  0  0  0
  -19.9324  -10.7601  -10.1653 H   0  0  0  0  0
  -21.1764  -10.0410   -8.3486 H   0  0  0  0  0
  -19.6787  -15.5643   -8.6773 H   0  0  0  0  0
  -21.9955  -15.9892   -7.3133 H   0  0  0  0  0
  -19.3243  -13.6892   -6.7609 H   0  0  0  0  0
  -17.6841  -14.0471   -5.0451 H   0  0  0  0  0
  -18.9616  -14.8455   -4.0360 H   0  0  0  0  0
  -19.4887  -12.9062   -3.0972 H   0  0  0  0  0
  -19.7057  -12.1405   -4.7018 H   0  0  0  0  0
  -18.2241  -11.6460   -5.7388 H   0  0  0  0  0
  -17.1256   -9.0819   -4.8351 H   0  0  0  0  0
  -19.9999   -9.8128   -4.5312 H   0  0  0  0  0
  -18.8350   -9.3562   -3.2641 H   0  0  0  0  0
  -19.3166   -8.1687   -4.5006 H   0  0  0  0  0
  -17.4243   -9.6398   -7.3112 H   0  0  0  0  0
  -19.1025  -10.1412   -6.9897 H   0  0  0  0  0
  -18.6397   -8.4286   -6.8351 H   0  0  0  0  0
  -15.4319   -9.6647   -5.2952 H   0  0  0  0  0
  -16.1421  -14.6537   -2.7335 H   0  0  0  0  0
  -13.8815  -15.6190   -2.8445 H   0  0  0  0  0
  -14.4674  -10.7329   -2.3846 H   0  0  0  0  0
  -12.1797  -11.6967   -2.4210 H   0  0  0  0  0
  -10.5680  -12.9392   -1.4029 H   0  0  0  0  0
   -8.3289  -13.9897   -1.6719 H   0  0  0  0  0
   -8.0174  -15.9915   -3.0841 H   0  0  0  0  0
   -9.9551  -16.9251   -4.3156 H   0  0  0  0  0
  -12.1643  -15.8623   -4.1058 H   0  0  0  0  0
  1  2  2  0  0  0
  2  3  1  0  0  0
  2  4  1  0  0  0
  4  5  1  0  0  0
  5  6  1  0  0  0
  5 14  1  0  0  0
  6  7  1  0  0  0
  6  8  1  0  0  0
  8  9  1  0  0  0
  8 10  1  0  0  0
 10 11  1  0  0  0
 10 13  1  0  0  0
 11 12  1  0  0  0
 13 14  1  0  0  0
 14 15  1  0  0  0
 15 16  1  0  0  0
 16 17  2  0  0  0
 16 18  1  0  0  0
 18 19  1  0  0  0
 19 20  1  0  0  0
 20 21  1  0  0  0
 21 22  1  0  0  0
 21 29  1  0  0  0
 22 23  1  0  0  0
 22 26  1  0  0  0
 23 24  1  0  0  0
 23 25  1  0  0  0
 26 27  1  0  0  0
 26 28  2  0  0  0
 29 30  2  0  0  0
 29 31  2  0  0  0
 29 32  1  0  0  0
 32 33  4  0  0  0
 32 35  4  0  0  0
 33 34  4  0  0  0
 34 37  4  0  0  0
 35 36  4  0  0  0
 36 37  4  0  0  0
 37 38  1  0  0  0
 38 39  4  0  0  0
 38 43  4  0  0  0
 39 40  4  0  0  0
 40 41  4  0  0  0
 41 42  4  0  0  0
 42 43  4  0  0  0
  3 44  1  0  0  0
  3 45  1  0  0  0
  3 46  1  0  0  0
  4 47  1  0  0  0
  5 48  1  0  0  0
  6 49  1  0  0  0
  7 50  1  0  0  0
  8 51  1  0  0  0
  9 52  1  0  0  0
 10 53  1  0  0  0
 11 54  1  0  0  0
 11 55  1  0  0  0
 12 56  1  0  0  0
 14 57  1  0  0  0
 15 58  1  0  0  0
 18 59  1  0  0  0
 19 60  1  0  0  0
 19 61  1  0  0  0
 20 62  1  0  0  0
 20 63  1  0  0  0
 22 64  1  0  0  0
 23 65  1  0  0  0
 24 66  1  0  0  0
 24 67  1  0  0  0
 24 68  1  0  0  0
 25 69  1  0  0  0
 25 70  1  0  0  0
 25 71  1  0  0  0
 27 72  1  0  0  0
 33 73  1  0  0  0
 34 74  1  0  0  0
 35 75  1  0  0  0
 36 76  1  0  0  0
 39 77  1  0  0  0
 40 78  1  0  0  0
 41 79  1  0  0  0
 42 80  1  0  0  0
 43 81  1  0  0  0
M  END
$$$$
