5emk_ligand
  -I-interpret- 

 55 58  0  0  0  0  0  0  0  0999 V2000
   22.7150  -44.4170  -10.6530 C   0  0  0  0  0
   22.9620  -43.0370  -10.2120 C   0  0  0  0  0
   22.9500  -42.9680   -8.8060 C   0  0  0  0  0
   23.7070  -41.9750   -8.1600 C   0  0  0  0  0
   23.7340  -41.8690   -6.7690 C   0  0  0  0  0
   22.9770  -42.7540   -5.9920 C   0  0  0  0  0
   22.2160  -43.7440   -6.6160 C   0  0  0  0  0
   22.1990  -43.8610   -8.0150 C   0  0  0  0  0
   21.4270  -44.8790   -8.5800 C   0  0  0  0  0
   21.4780  -44.9160  -10.0530 N   0  3  0  0  0
   21.1320  -46.2590  -10.5460 C   0  0  0  0  0
   19.5990  -46.4610  -10.3950 C   0  0  0  0  0
   18.9310  -45.2730  -10.7510 O   0  0  0  0  0
   19.1290  -47.6300  -11.2510 C   0  0  0  0  0
   19.6980  -48.7690  -10.5270 N   0  0  0  0  0
   19.0620  -49.4360   -9.5530 C   0  0  0  0  0
   17.8940  -49.2110   -9.2330 O   0  0  0  0  0
   19.8100  -50.4330   -8.8980 C   0  0  0  0  0
   21.1920  -50.5980   -9.0950 C   0  0  0  0  0
   19.1550  -51.2720   -7.9940 C   0  0  0  0  0
   19.8410  -52.2720   -7.3050 C   0  0  0  0  0
   21.2050  -52.4330   -7.5110 C   0  0  0  0  0
   21.8830  -51.6020   -8.4000 C   0  0  0  0  0
   23.2490  -51.8080   -8.5690 C   0  0  0  0  0
   23.7900  -51.7170   -9.8090 N   0  0  0  0  0
   25.1700  -51.9250  -10.0020 C   0  0  0  0  0
   25.9600  -52.2380   -8.8920 C   0  0  0  0  0
   25.4110  -52.3320   -7.6110 C   0  0  0  0  0
   24.0450  -52.1140   -7.4470 C   0  0  0  0  0
   23.5467  -45.0489  -10.3414 H   0  0  0  0  0
   22.6220  -44.4368  -11.7388 H   0  0  0  0  0
   22.1796  -42.3898  -10.6082 H   0  0  0  0  0
   23.9369  -42.7142  -10.5773 H   0  0  0  0  0
   24.2858  -41.2721   -8.7592 H   0  0  0  0  0
   24.3413  -41.1011   -6.2898 H   0  0  0  0  0
   22.9818  -42.6704   -4.9052 H   0  0  0  0  0
   21.6284  -44.4339   -6.0103 H   0  0  0  0  0
   20.3907  -44.6976   -8.2949 H   0  0  0  0  0
   21.8232  -45.8273   -8.2169 H   0  0  0  0  0
   20.7730  -44.2476  -10.3637 H   0  0  0  0  0
   21.6651  -47.0152   -9.9697 H   0  0  0  0  0
   21.4182  -46.3556  -11.5933 H   0  0  0  0  0
   19.3666  -46.6956   -9.3562 H   0  0  0  0  0
   17.9840  -45.3993  -10.6572 H   0  0  0  0  0
   19.4522  -47.5678  -12.2901 H   0  0  0  0  0
   18.0460  -47.6811  -11.3632 H   0  0  0  0  0
   20.6378  -49.0743  -10.7798 H   0  0  0  0  0
   21.7262  -49.9467   -9.7868 H   0  0  0  0  0
   18.0862  -51.1428   -7.8234 H   0  0  0  0  0
   19.3104  -52.9225   -6.6098 H   0  0  0  0  0
   21.7469  -53.2123   -6.9752 H   0  0  0  0  0
   25.6120  -51.8437  -10.9950 H   0  0  0  0  0
   27.0272  -52.4124   -9.0290 H   0  0  0  0  0
   26.0408  -52.5719   -6.7543 H   0  0  0  0  0
   23.5944  -52.1797   -6.4567 H   0  0  0  0  0
  1  2  1  0  0  0
  1 10  1  0  0  0
  2  3  1  0  0  0
  3  4  4  0  0  0
  3  8  4  0  0  0
  4  5  4  0  0  0
  5  6  4  0  0  0
  6  7  4  0  0  0
  7  8  4  0  0  0
  8  9  1  0  0  0
  9 10  1  0  0  0
 10 11  1  0  0  0
 11 12  1  0  0  0
 12 13  1  0  0  0
 12 14  1  0  0  0
 14 15  1  0  0  0
 15 16  1  0  0  0
 16 17  2  0  0  0
 16 18  1  0  0  0
 18 19  4  0  0  0
 18 20  4  0  0  0
 19 23  4  0  0  0
 20 21  4  0  0  0
 21 22  4  0  0  0
 22 23  4  0  0  0
 23 24  1  0  0  0
 24 25  4  0  0  0
 24 29  4  0  0  0
 25 26  4  0  0  0
 26 27  4  0  0  0
 27 28  4  0  0  0
 28 29  4  0  0  0
  1 30  1  0  0  0
  1 31  1  0  0  0
  2 32  1  0  0  0
  2 33  1  0  0  0
  4 34  1  0  0  0
  5 35  1  0  0  0
  6 36  1  0  0  0
  7 37  1  0  0  0
  9 38  1  0  0  0
  9 39  1  0  0  0
 10 40  1  0  0  0
 11 41  1  0  0  0
 11 42  1  0  0  0
 12 43  1  0  0  0
 13 44  1  0  0  0
 14 45  1  0  0  0
 14 46  1  0  0  0
 15 47  1  0  0  0
 19 48  1  0  0  0
 20 49  1  0  0  0
 21 50  1  0  0  0
 22 51  1  0  0  0
 26 52  1  0  0  0
 27 53  1  0  0  0
 28 54  1  0  0  0
 29 55  1  0  0  0
M  END
$$$$
