1wbs_ligand
  -I-interpret- 

 57 61  0  0  0  0  0  0  0  0999 V2000
    8.3180   17.9930   37.4450 F   0  0  0  0  0
    7.6970   16.8470   37.7910 C   0  0  0  0  0
    7.4690   16.5540   39.1310 C   0  0  0  0  0
    6.8000   15.3920   39.5290 C   0  0  0  0  0
    6.4230   14.5080   38.5100 C   0  0  0  0  0
    6.6510   14.7930   37.1560 C   0  0  0  0  0
    7.2950   15.9760   36.7940 C   0  0  0  0  0
    6.2270   13.8110   36.1220 C   0  0  0  0  0
    5.2390   13.1310   36.3430 O   0  0  0  0  0
    7.0090   13.6810   35.0110 N   0  0  0  0  0
    6.8070   12.7690   33.9560 C   0  0  0  0  0
    7.8600   11.9170   33.5820 C   0  0  0  0  0
    7.7290   11.0010   32.5530 C   0  0  0  0  0
    6.5350   10.9230   31.8540 C   0  0  0  0  0
    6.1000   10.1270   30.8130 N   0  0  0  0  0
    4.8030   10.4600   30.5020 C   0  0  0  0  0
    4.3710   11.4520   31.3070 C   0  0  0  0  0
    3.0110   12.1060   31.3050 C   0  0  0  0  0
    2.2040   11.6290   32.5140 C   0  0  0  0  0
    1.7530   10.1990   32.3490 C   0  0  0  0  0
    0.6990    9.8620   31.5030 C   0  0  0  0  0
    0.3190    8.5320   31.3850 C   0  0  0  0  0
    0.9390    7.5840   32.0770 N   0  0  0  0  0
    1.9410    7.8700   32.8890 C   0  0  0  0  0
    2.3770    9.1750   33.0560 C   0  0  0  0  0
    5.4710   11.7790   32.2170 C   0  0  0  0  0
    5.6130   12.7130   33.2620 C   0  0  0  0  0
    6.5920   15.0760   40.9080 N   0  0  0  0  0
    5.6800   13.9520   41.1820 C   0  0  0  0  0
    5.8330   13.5300   42.6410 C   0  0  0  0  0
    5.4740   14.6290   43.4950 O   0  0  0  0  0
    6.3890   15.7080   43.2810 C   0  0  0  0  0
    6.3200   16.2010   41.8310 C   0  0  0  0  0
    7.8216   17.2495   39.8927 H   0  0  0  0  0
    5.9374   13.5696   38.7777 H   0  0  0  0  0
    7.4782   16.2100   35.7453 H   0  0  0  0  0
    7.8149   14.3020   34.9375 H   0  0  0  0  0
    8.8072   11.9794   34.1178 H   0  0  0  0  0
    8.5599   10.3449   32.2939 H   0  0  0  0  0
    4.2094    9.9900   29.7179 H   0  0  0  0  0
    2.4830   11.8362   30.3904 H   0  0  0  0  0
    3.1317   13.1881   31.3568 H   0  0  0  0  0
    1.3208   12.2605   32.6102 H   0  0  0  0  0
    2.8381   11.6910   33.3984 H   0  0  0  0  0
    0.1775   10.6353   30.9389 H   0  0  0  0  0
   -0.4984    8.2629   30.7160 H   0  0  0  0  0
    2.4331    7.0663   33.4368 H   0  0  0  0  0
    3.2006    9.3974   33.7345 H   0  0  0  0  0
    4.7924   13.3825   33.5198 H   0  0  0  0  0
    5.9246   13.1136   40.5299 H   0  0  0  0  0
    4.6513   14.2601   40.9950 H   0  0  0  0  0
    6.8675   13.2438   42.8309 H   0  0  0  0  0
    5.1800   12.6815   42.8452 H   0  0  0  0  0
    7.4005   15.3567   43.4850 H   0  0  0  0  0
    6.1236   16.5307   43.9449 H   0  0  0  0  0
    5.3252   16.5994   41.6318 H   0  0  0  0  0
    7.0655   16.9815   41.6789 H   0  0  0  0  0
  1  2  1  0  0  0
  2  3  4  0  0  0
  2  7  4  0  0  0
  3  4  4  0  0  0
  4  5  4  0  0  0
  4 28  1  0  0  0
  5  6  4  0  0  0
  6  7  4  0  0  0
  6  8  1  0  0  0
  8  9  2  0  0  0
  8 10  1  0  0  0
 10 11  1  0  0  0
 11 12  4  0  0  0
 11 27  4  0  0  0
 12 13  4  0  0  0
 13 14  4  0  0  0
 14 15  4  0  0  0
 14 26  4  0  0  0
 15 16  4  0  0  0
 16 17  4  0  0  0
 17 18  1  0  0  0
 17 26  4  0  0  0
 18 19  1  0  0  0
 19 20  1  0  0  0
 20 21  4  0  0  0
 20 25  4  0  0  0
 21 22  4  0  0  0
 22 23  4  0  0  0
 23 24  4  0  0  0
 24 25  4  0  0  0
 26 27  4  0  0  0
 28 29  1  0  0  0
 28 33  1  0  0  0
 29 30  1  0  0  0
 30 31  1  0  0  0
 31 32  1  0  0  0
 32 33  1  0  0  0
  3 34  1  0  0  0
  5 35  1  0  0  0
  7 36  1  0  0  0
 10 37  1  0  0  0
 12 38  1  0  0  0
 13 39  1  0  0  0
 16 40  1  0  0  0
 18 41  1  0  0  0
 18 42  1  0  0  0
 19 43  1  0  0  0
 19 44  1  0  0  0
 21 45  1  0  0  0
 22 46  1  0  0  0
 24 47  1  0  0  0
 25 48  1  0  0  0
 27 49  1  0  0  0
 29 50  1  0  0  0
 29 51  1  0  0  0
 30 52  1  0  0  0
 30 53  1  0  0  0
 32 54  1  0  0  0
 32 55  1  0  0  0
 33 56  1  0  0  0
 33 57  1  0  0  0
M  END
$$$$
