3d7g_ligand
  -I-interpret- 

 36 35  0  0  0  0  0  0  0  0999 V2000
   13.7490   48.4110   40.6760 O   0  0  0  0  0
   13.8020   47.1700   40.4630 C   0  0  0  0  0
   13.0090   46.5980   39.6810 O   0  0  0  0  0
   14.8920   46.3870   41.1760 C   0  0  0  0  0
   14.7250   44.8530   41.2340 C   0  0  0  0  0
   16.0310   44.1220   41.6460 C   0  0  0  0  0
   16.9750   44.3140   40.4370 C   0  0  0  0  0
   16.8700   43.5680   39.3920 O   0  0  0  0  0
   17.8840   45.2060   40.4590 O   0  0  0  0  0
   16.7140   44.8350   42.7200 N   0  0  0  0  0
   17.9450   44.4480   43.0600 C   0  0  0  0  0
   18.3930   43.4060   42.5490 O   0  0  0  0  0
   18.6600   45.2230   43.8790 N   0  0  0  0  0
   19.9690   44.8800   44.3990 C   0  0  0  0  0
   20.1230   45.4820   45.7790 C   0  0  0  0  0
   20.6490   44.7780   46.6720 O   0  0  0  0  0
   19.6700   46.6410   45.9760 O   0  0  0  0  0
   20.8720   45.6850   43.4530 C   0  0  0  0  0
   22.5840   45.5330   43.9370 S   0  0  0  0  0
   23.0650   45.7260   42.2410 C   0  0  0  0  0
   14.4350   48.6569   41.3009 H   0  0  0  0  0
   14.8768   46.7285   42.2110 H   0  0  0  0  0
   15.8069   46.5667   40.6114 H   0  0  0  0  0
   14.4496   44.5089   40.2371 H   0  0  0  0  0
   13.9654   44.6276   41.9826 H   0  0  0  0  0
   15.8063   43.0969   41.9405 H   0  0  0  0  0
   16.1486   42.9467   39.5149 H   0  0  0  0  0
   16.2606   45.6122   43.2004 H   0  0  0  0  0
   18.2576   46.1178   44.1579 H   0  0  0  0  0
   20.1660   43.8095   44.4571 H   0  0  0  0  0
   19.3159   46.9889   45.1543 H   0  0  0  0  0
   20.5841   46.7353   43.4988 H   0  0  0  0  0
   20.7558   45.2989   42.4403 H   0  0  0  0  0
   22.6229   44.9268   41.6461 H   0  0  0  0  0
   22.7154   46.6906   41.8730 H   0  0  0  0  0
   24.1513   45.6788   42.1651 H   0  0  0  0  0
  1  2  1  0  0  0
  2  3  2  0  0  0
  2  4  1  0  0  0
  4  5  1  0  0  0
  5  6  1  0  0  0
  6  7  1  0  0  0
  6 10  1  0  0  0
  7  8  1  0  0  0
  7  9  2  0  0  0
 10 11  1  0  0  0
 11 12  2  0  0  0
 11 13  1  0  0  0
 13 14  1  0  0  0
 14 15  1  0  0  0
 14 18  1  0  0  0
 15 16  2  0  0  0
 15 17  1  0  0  0
 18 19  1  0  0  0
 19 20  1  0  0  0
  1 21  1  0  0  0
  4 22  1  0  0  0
  4 23  1  0  0  0
  5 24  1  0  0  0
  5 25  1  0  0  0
  6 26  1  0  0  0
  8 27  1  0  0  0
 10 28  1  0  0  0
 13 29  1  0  0  0
 14 30  1  0  0  0
 17 31  1  0  0  0
 18 32  1  0  0  0
 18 33  1  0  0  0
 20 34  1  0  0  0
 20 35  1  0  0  0
 20 36  1  0  0  0
M  END
$$$$
