6ixd_ligand
  -I-interpret- 

117123  0  0  0  0  0  0  0  0999 V2000
    8.2120   14.7490   18.3970 C   0  0  0  0  0
    8.6390   14.8780   17.2760 O   0  0  0  0  0
    7.0120   13.7850   18.6780 C   0  0  0  0  0
    6.0700   13.7650   17.4650 C   0  0  0  0  0
    4.6440   14.1730   17.8870 C   0  0  0  0  0
    4.0400   15.0850   16.8240 C   0  0  0  0  0
    2.8930   15.9800   17.4640 C   0  0  0  0  0
    1.4390   15.2440   17.2650 S   0  0  0  0  0
    0.5150   16.3360   16.4170 C   0  0  0  0  0
    1.4510   17.5920   16.1430 C   0  0  0  0  0
    1.5990   17.7700   14.8150 N   0  0  0  0  0
    3.0650   17.6610   14.5020 C   0  0  0  0  0
    3.5720   17.7670   13.4080 O   0  0  0  0  0
    3.7840   17.3970   15.7890 N   0  0  0  0  0
    2.8570   17.3520   16.7730 C   0  0  0  0  0
   12.5370   17.8890   21.6600 C   0  0  0  0  0
   11.6690   17.6390   20.4320 C   0  0  0  0  0
   10.7340   16.5870   20.4400 C   0  0  0  0  0
    9.8980   16.4000   19.3470 C   0  0  0  0  0
   10.9520   18.2500   18.1640 C   0  0  0  0  0
    8.7820   15.4690   19.5050 N   0  0  0  0  0
    9.9580   17.2320   18.2060 C   0  0  0  0  0
   11.0670   19.1640   16.9490 C   0  0  0  0  0
   11.7770   18.4400   19.2770 C   0  0  0  0  0
   12.7450   19.4760   19.2180 O   0  0  0  0  0
   14.0060   18.9460   18.7900 C   0  0  0  0  0
   14.8720   20.1170   18.3460 C   0  0  0  0  0
   16.0840   19.9990   18.2850 O   0  0  0  0  0
   16.3170   24.2300   18.6410 C   0  0  0  0  0
   14.1920   21.3100   17.9940 N   0  0  0  0  0
   16.4280   25.2730   18.0230 O   0  0  0  0  0
   15.0190   23.4140   18.7300 C   0  0  0  0  0
   14.1130   22.0320   15.2480 C   0  0  0  0  0
   14.2960   23.1060   16.3630 C   0  0  0  0  0
   13.7550   20.0380   13.2960 C   0  0  0  0  0
   14.9510   22.4540   17.5680 C   0  0  0  0  0
   13.9620   24.3120   18.7330 O   0  0  0  0  0
   15.2270   21.5510   14.5140 C   0  0  0  0  0
   12.8400   21.5280   14.9870 C   0  0  0  0  0
   15.0320   20.5530   13.5440 C   0  0  0  0  0
   12.6430   20.5240   14.0030 C   0  0  0  0  0
   19.4010   24.4250   18.0390 C   0  0  0  0  0
   17.4520   23.6910   19.3330 N   0  0  0  0  0
   19.4170   23.4720   17.2890 O   0  0  0  0  0
   18.7770   24.5010   19.2960 C   0  0  0  0  0
   19.5150   23.8920   20.4870 C   0  0  0  0  0
   17.5790   22.4810   20.1720 C   0  0  0  0  0
   19.0040   24.6720   21.7650 C   0  0  0  0  0
   21.0010   24.1530   20.3210 C   0  0  0  0  0
   19.1450   22.2360   20.5670 S   0  0  0  0  0
   20.0830   25.6500   17.7020 N   0  0  0  0  0
   21.5020   27.8050   17.7740 O   0  0  0  0  0
   20.9050   25.8000   16.5900 C   0  0  0  0  0
   20.3220   26.4410   15.4200 C   0  0  0  0  0
   19.0060   26.1050   14.7620 C   0  0  0  0  0
   18.6570   26.8260   13.5370 C   0  0  0  0  0
   21.9980   26.7950   16.9420 C   0  0  0  0  0
   21.2540   27.2520   14.8280 C   0  0  0  0  0
   20.9150   28.0240   13.5660 C   0  0  0  0  0
   19.6020   27.7720   12.9480 C   0  0  0  0  0
   22.5040   27.3760   15.6190 C   0  0  0  0  0
    6.4657   14.1337   19.5544 H   0  0  0  0  0
    7.3909   12.7790   18.8582 H   0  0  0  0  0
    6.0437   12.7567   17.0518 H   0  0  0  0  0
    6.4357   14.4707   16.7191 H   0  0  0  0  0
    4.6844   14.7021   18.8391 H   0  0  0  0  0
    4.0272   13.2805   17.9928 H   0  0  0  0  0
    3.6159   14.4747   16.0266 H   0  0  0  0  0
    4.8190   15.7333   16.4228 H   0  0  0  0  0
    3.0976   16.1094   18.5268 H   0  0  0  0  0
   -0.3716   16.6229   16.9824 H   0  0  0  0  0
    0.1544   15.9039   15.4835 H   0  0  0  0  0
    0.9912   18.4746   16.5875 H   0  0  0  0  0
    0.8514   17.9467   14.1440 H   0  0  0  0  0
    4.7901   17.2735   15.9028 H   0  0  0  0  0
    3.0673   18.1212   17.5161 H   0  0  0  0  0
   11.8987   18.1061   22.5164 H   0  0  0  0  0
   13.1356   17.0019   21.8670 H   0  0  0  0  0
   13.1952   18.7371   21.4715 H   0  0  0  0  0
   10.6663   15.9217   21.3007 H   0  0  0  0  0
    8.3923   15.3242   20.4364 H   0  0  0  0  0
    9.2607   17.0975   17.3791 H   0  0  0  0  0
   11.2707   18.5637   16.0623 H   0  0  0  0  0
   10.1315   19.7070   16.8146 H   0  0  0  0  0
   11.8807   19.8724   17.1045 H   0  0  0  0  0
   13.8639   18.2453   17.9673 H   0  0  0  0  0
   14.4871   18.4054   19.6051 H   0  0  0  0  0
   13.1742   21.3562   18.0425 H   0  0  0  0  0
   14.9771   22.8160   19.6404 H   0  0  0  0  0
   13.3255   23.5138   16.6458 H   0  0  0  0  0
   14.9243   23.9171   15.9949 H   0  0  0  0  0
   13.6223   19.2548   12.5496 H   0  0  0  0  0
   15.9560   22.1575   17.2679 H   0  0  0  0  0
   13.1339   23.8296   18.7881 H   0  0  0  0  0
   16.2237   21.9510   14.7002 H   0  0  0  0  0
   11.9851   21.9095   15.5454 H   0  0  0  0  0
   15.8846   20.1762   12.9789 H   0  0  0  0  0
   11.6448   20.1365   13.7994 H   0  0  0  0  0
   18.6947   25.5832   19.3971 H   0  0  0  0  0
   17.2106   21.6190   19.6158 H   0  0  0  0  0
   16.9961   22.6141   21.0834 H   0  0  0  0  0
   19.2353   25.7319   21.6588 H   0  0  0  0  0
   17.9261   24.5419   21.8616 H   0  0  0  0  0
   19.4998   24.2777   22.6521 H   0  0  0  0  0
   21.3479   23.6946   19.3949 H   0  0  0  0  0
   21.1779   25.2279   20.2843 H   0  0  0  0  0
   21.5406   23.7233   21.1650 H   0  0  0  0  0
   19.9550   26.4546   18.3157 H   0  0  0  0  0
   22.2079   28.4210   17.9833 H   0  0  0  0  0
   21.1877   24.7742   16.3536 H   0  0  0  0  0
   18.3396   25.3526   15.1838 H   0  0  0  0  0
   17.6901   26.6569   13.0631 H   0  0  0  0  0
   22.8070   26.3092   17.4876 H   0  0  0  0  0
   21.6164   28.7376   13.1336 H   0  0  0  0  0
   19.3303   28.3009   12.0345 H   0  0  0  0  0
   23.3725   26.8726   15.1943 H   0  0  0  0  0
   22.9136   28.3841   15.6826 H   0  0  0  0  0
  1  2  2  0  0  0
  1  3  1  0  0  0
 21  1  1  0  0  0
  3  4  1  0  0  0
  4  5  1  0  0  0
  5  6  1  0  0  0
  6  7  1  0  0  0
  7  8  1  0  0  0
  7 15  1  0  0  0
  8  9  1  0  0  0
 10  9  1  0  0  0
 10 11  1  0  0  0
 15 10  1  0  0  0
 12 11  1  0  0  0
 12 13  2  0  0  0
 14 12  1  0  0  0
 15 14  1  0  0  0
 17 16  1  0  0  0
 17 18  4  0  0  0
 24 17  4  0  0  0
 18 19  4  0  0  0
 19 21  1  0  0  0
 22 19  4  0  0  0
 20 22  4  0  0  0
 20 23  1  0  0  0
 24 20  4  0  0  0
 25 24  1  0  0  0
 26 25  1  0  0  0
 27 26  1  0  0  0
 27 28  2  0  0  0
 30 27  1  0  0  0
 29 31  2  0  0  0
 29 32  1  0  0  0
 43 29  1  0  0  0
 36 30  1  0  0  0
 32 36  1  0  0  0
 32 37  1  0  0  0
 34 33  1  0  0  0
 33 38  4  0  0  0
 33 39  4  0  0  0
 36 34  1  0  0  0
 40 35  4  0  0  0
 41 35  4  0  0  0
 38 40  4  0  0  0
 39 41  4  0  0  0
 42 44  2  0  0  0
 42 45  1  0  0  0
 51 42  1  0  0  0
 45 43  1  0  0  0
 43 47  1  0  0  0
 45 46  1  0  0  0
 46 48  1  0  0  0
 46 49  1  0  0  0
 46 50  1  0  0  0
 50 47  1  0  0  0
 53 51  1  0  0  0
 57 52  1  0  0  0
 53 54  1  0  0  0
 53 57  1  0  0  0
 54 55  4  0  0  0
 54 58  4  0  0  0
 55 56  4  0  0  0
 56 60  4  0  0  0
 57 61  1  0  0  0
 58 59  4  0  0  0
 58 61  1  0  0  0
 59 60  4  0  0  0
  3 62  1  0  0  0
  3 63  1  0  0  0
  4 64  1  0  0  0
  4 65  1  0  0  0
  5 66  1  0  0  0
  5 67  1  0  0  0
  6 68  1  0  0  0
  6 69  1  0  0  0
  7 70  1  0  0  0
  9 71  1  0  0  0
  9 72  1  0  0  0
 10 73  1  0  0  0
 11 74  1  0  0  0
 14 75  1  0  0  0
 15 76  1  0  0  0
 16 77  1  0  0  0
 16 78  1  0  0  0
 16 79  1  0  0  0
 18 80  1  0  0  0
 21 81  1  0  0  0
 22 82  1  0  0  0
 23 83  1  0  0  0
 23 84  1  0  0  0
 23 85  1  0  0  0
 26 86  1  0  0  0
 26 87  1  0  0  0
 30 88  1  0  0  0
 32 89  1  0  0  0
 34 90  1  0  0  0
 34 91  1  0  0  0
 35 92  1  0  0  0
 36 93  1  0  0  0
 37 94  1  0  0  0
 38 95  1  0  0  0
 39 96  1  0  0  0
 40 97  1  0  0  0
 41 98  1  0  0  0
 45 99  1  0  0  0
 47100  1  0  0  0
 47101  1  0  0  0
 48102  1  0  0  0
 48103  1  0  0  0
 48104  1  0  0  0
 49105  1  0  0  0
 49106  1  0  0  0
 49107  1  0  0  0
 51108  1  0  0  0
 52109  1  0  0  0
 53110  1  0  0  0
 55111  1  0  0  0
 56112  1  0  0  0
 57113  1  0  0  0
 59114  1  0  0  0
 60115  1  0  0  0
 61116  1  0  0  0
 61117  1  0  0  0
M  END
$$$$
