### 
### Created by X-TOOL on Sun Sep  9 21:51:06 2018
### 

@<TRIPOS>MOLECULE
2w16_ligand
  136   136     1     0     0
SMALL
GAST_HUCK


@<TRIPOS>ATOM
      1 N         -71.1050  -35.8190   20.5870 N.4       1 NON         0.2396
      2 CA        -71.5520  -36.5590   19.3330 C.3       1 NON         0.0885
      3 C         -70.6300  -36.3190   18.1080 C.2       1 NON         0.2290
      4 O         -71.0550  -35.6630   17.1400 O.2       1 NON        -0.3906
      5 CB        -71.7580  -38.0710   19.5970 C.3       1 NON         0.1041
      6 OG        -70.5410  -38.7270   19.9630 O.3       1 NON        -0.3870
      7 N         -69.3790  -36.8010   18.1740 N.am      1 NON        -0.2609
      8 CA        -68.4530  -36.7100   17.0290 C.3       1 NON         0.1312
      9 C         -68.2980  -38.0450   16.2930 C.2       1 NON         0.2040
     10 O         -67.7050  -38.1210   15.2100 O.2       1 NON        -0.3944
     11 CB        -67.0910  -36.1140   17.4310 C.3       1 NON        -0.0092
     12 CG        -67.0660  -34.5880   17.7650 C.3       1 NON        -0.0156
     13 CD        -67.5860  -33.6160   16.6800 C.3       1 NON         0.0627
     14 NE        -69.0380  -33.6450   16.6900 N.pl3     1 NON        -0.2723
     15 CZ        -69.8380  -33.2280   15.7140 C.cat     1 NON         0.2882
     16 NH1       -69.3430  -32.6790   14.6050 N.pl3     1 NON        -0.2849
     17 NH2       -71.1580  -33.3710   15.8680 N.pl3     1 NON        -0.2849
     18 N         -68.8650  -39.0870   16.8980 N.am      1 NON        -0.2616
     19 CA        -68.9260  -40.4360   16.3250 C.3       1 NON         0.1539
     20 C         -67.9730  -41.4210   17.0330 C.2       1 NON         0.2062
     21 O         -67.8660  -42.5910   16.6530 O.2       1 NON        -0.3943
     22 CB        -70.3670  -40.9480   16.3530 C.3       1 NON         0.0843
     23 OG        -70.7290  -41.3860   17.6500 O.3       1 NON        -0.3903
     24 N         -67.3140  -40.9420   18.0790 N.am      1 NON        -0.2637
     25 CA        -66.1090  -41.5680   18.5860 C.3       1 NON         0.1311
     26 CB        -65.2670  -40.3950   19.0570 C.3       1 NON        -0.0090
     27 CG        -63.8230  -40.5230   18.5910 C.3       1 NON        -0.0081
     28 CD        -63.3090  -39.1540   18.1650 C.3       1 NON         0.1516
     29 NE        -63.1450  -38.2960   19.3460 N.2       1 NON         0.0851
     30 OZ        -64.0570  -37.5460   19.6720 O.2       1 NON         0.1605
     31 CZ        -62.0640  -38.2950   20.0080 C.2       1 NON         0.3885
     32 OH        -61.9550  -37.5630   20.9770 O.2       1 NON        -0.2003
     33 C         -66.3580  -42.4920   19.7330 C.2       1 NON         0.2039
     34 O         -67.4020  -42.4100   20.3860 O.2       1 NON        -0.3944
     35 N         -65.3810  -43.3540   20.0190 N.am      1 NON        -0.2637
     36 CA        -65.5530  -44.4350   21.0020 C.3       1 NON         0.1310
     37 C         -65.4230  -44.0810   22.4980 C.2       1 NON         0.2039
     38 O         -66.2140  -44.5540   23.3270 O.2       1 NON        -0.3944
     39 CB        -64.5890  -45.5810   20.6740 C.3       1 NON        -0.0123
     40 CG        -64.6510  -46.7740   21.6400 C.3       1 NON        -0.0470
     41 CD        -65.9200  -47.5800   21.4250 C.3       1 NON        -0.0325
     42 CE        -66.1240  -48.5710   22.5500 C.3       1 NON         0.0310
     43 NZ        -66.4970  -47.8440   23.7910 N.am      1 NON        -0.2850
     44 N         -64.4090  -43.2780   22.8240 N.am      1 NON        -0.2637
     45 CA        -63.9810  -43.0160   24.2120 C.3       1 NON         0.1311
     46 CB        -64.7660  -41.9300   24.9540 C.3       1 NON        -0.0090
     47 CG        -64.8470  -40.5820   24.2680 C.3       1 NON        -0.0081
     48 CD        -64.0570  -39.5250   25.0250 C.3       1 NON         0.1516
     49 NE        -63.8870  -38.4440   24.0530 N.2       1 NON         0.0851
     50 OZ        -64.1820  -38.6130   22.8810 O.2       1 NON         0.1605
     51 CZ        -63.4370  -37.3130   24.3810 C.2       1 NON         0.3885
     52 OH        -63.3390  -36.4570   23.5150 O.2       1 NON        -0.2003
     53 C         -63.9910  -44.2030   25.1310 C.2       1 NON         0.2040
     54 O         -63.1820  -45.1280   24.9830 O.2       1 NON        -0.3944
     55 N         -64.9570  -44.1780   26.0540 N.am      1 NON        -0.2613
     56 CA        -64.9670  -44.9500   27.3010 C.3       1 NON         0.1565
     57 C         -66.1520  -45.9390   27.3500 C.2       1 NON         0.2065
     58 O         -66.9200  -45.9790   28.3080 O.2       1 NON        -0.3943
     59 CB        -64.9210  -43.9650   28.5460 C.3       1 NON         0.0924
     60 OG1       -65.0460  -44.6870   29.7820 O.3       1 NON        -0.3874
     61 CG2       -66.0030  -42.8530   28.4600 C.3       1 NON        -0.0346
     62 N         -66.2540  -46.7400   26.2910 N.am      1 NON        -0.2613
     63 CA        -67.4060  -47.5990   25.9790 C.3       1 NON         0.1563
     64 C         -67.0610  -48.4400   24.7540 C.2       1 NON         0.2042
     65 O         -67.3280  -49.6420   24.7060 O.2       1 NON        -0.3944
     66 CB        -68.7290  -46.8110   25.6230 C.3       1 NON         0.0924
     67 OG1       -69.1820  -47.2080   24.3200 O.3       1 NON        -0.3874
     68 CG2       -68.5360  -45.2930   25.5920 C.3       1 NON        -0.0346
     69 H1        -71.7444  -36.0179   21.3404 H         1 NON         0.2016
     70 H2        -71.0962  -34.8273   20.4068 H         1 NON         0.2016
     71 H3        -70.1786  -36.1221   20.8438 H         1 NON         0.2016
     72 H4        -72.5365  -36.1472   19.0660 H         1 NON         0.1122
     73 H5        -72.1518  -38.5396   18.6831 H         1 NON         0.0640
     74 H6        -72.4849  -38.1921   20.4136 H         1 NON         0.0640
     75 H7        -70.7128  -39.6488   20.1151 H         1 NON         0.2099
     76 H8        -69.0668  -37.2325   19.0204 H         1 NON         0.1884
     77 H9        -68.9063  -36.0076   16.3140 H         1 NON         0.0800
     78 H10       -66.3931  -36.2847   16.5980 H         1 NON         0.0313
     79 H11       -66.7392  -36.6561   18.3211 H         1 NON         0.0313
     80 H12       -66.0229  -34.3141   17.9815 H         1 NON         0.0301
     81 H13       -67.6793  -34.4367   18.6655 H         1 NON         0.0301
     82 H14       -67.2158  -33.9300   15.6929 H         1 NON         0.0689
     83 H15       -67.2342  -32.5965   16.8963 H         1 NON         0.0689
     84 H16       -69.4908  -34.0248   17.5336 H         1 NON         0.2642
     85 H17       -69.9788  -32.3617   13.8593 H         1 NON         0.2615
     86 H18       -68.3246  -32.5720   14.4936 H         1 NON         0.2615
     87 H19       -71.5331  -33.7962   16.7279 H         1 NON         0.2615
     88 H20       -71.8001  -33.0560   15.1268 H         1 NON         0.2615
     89 H21       -69.2745  -38.9409   17.7985 H         1 NON         0.1884
     90 H22       -68.6098  -40.3680   15.2736 H         1 NON         0.0823
     91 H23       -70.4629  -41.7890   15.6504 H         1 NON         0.0606
     92 H24       -71.0426  -40.1357   16.0470 H         1 NON         0.0606
     93 H25       -70.6518  -40.6622   18.2605 H         1 NON         0.2097
     94 H26       -67.6600  -40.1212   18.5335 H         1 NON         0.1883
     95 H27       -65.6012  -42.1212   17.7822 H         1 NON         0.0800
     96 H28       -65.2862  -40.3596   20.1563 H         1 NON         0.0313
     97 H29       -65.6920  -39.4645   18.6527 H         1 NON         0.0313
     98 H30       -63.7719  -41.2163   17.7385 H         1 NON         0.0303
     99 H31       -63.2038  -40.9081   19.4145 H         1 NON         0.0303
    100 H32       -64.0298  -38.6916   17.4747 H         1 NON         0.0767
    101 H33       -62.3389  -39.2690   17.6593 H         1 NON         0.0767
    102 H34       -61.2394  -38.9426   19.7137 H         1 NON         0.2097
    103 H35       -64.5027  -43.2624   19.5498 H         1 NON         0.1883
    104 H36       -66.5784  -44.8088   20.8654 H         1 NON         0.0800
    105 H37       -63.5644  -45.1811   20.6901 H         1 NON         0.0312
    106 H38       -64.8240  -45.9468   19.6636 H         1 NON         0.0312
    107 H39       -64.6323  -46.4010   22.6746 H         1 NON         0.0268
    108 H40       -63.7792  -47.4223   21.4681 H         1 NON         0.0268
    109 H41       -65.8437  -48.1258   20.4730 H         1 NON         0.0285
    110 H42       -66.7801  -46.8953   21.3872 H         1 NON         0.0285
    111 H43       -65.1920  -49.1303   22.7191 H         1 NON         0.0520
    112 H44       -66.9281  -49.2714   22.2800 H         1 NON         0.0520
    113 H45       -66.2988  -46.8667   23.8664 H         1 NON         0.1851
    114 H46       -63.9094  -42.8270   22.0844 H         1 NON         0.1883
    115 H47       -62.9393  -42.6714   24.1341 H         1 NON         0.0800
    116 H48       -64.2893  -41.7805   25.9340 H         1 NON         0.0313
    117 H49       -65.7931  -42.2964   25.0979 H         1 NON         0.0313
    118 H50       -65.9006  -40.2707   24.2140 H         1 NON         0.0303
    119 H51       -64.4390  -40.6732   23.2506 H         1 NON         0.0303
    120 H52       -63.0814  -39.9204   25.3442 H         1 NON         0.0767
    121 H53       -64.6164  -39.1747   25.9050 H         1 NON         0.0767
    122 H54       -63.1435  -37.1047   25.4088 H         1 NON         0.2097
    123 H55       -65.7405  -43.5816   25.8795 H         1 NON         0.1884
    124 H56       -64.0466  -45.5518   27.3266 H         1 NON         0.0826
    125 H57       -63.9372  -43.4729   28.5409 H         1 NON         0.0639
    126 H58       -65.8739  -45.1529   29.7930 H         1 NON         0.2101
    127 H59       -65.9289  -42.2003   29.3423 H         1 NON         0.0257
    128 H60       -67.0011  -43.3142   28.4279 H         1 NON         0.0257
    129 H61       -65.8449  -42.2572   27.5489 H         1 NON         0.0257
    130 H62       -65.4827  -46.7589   25.6548 H         1 NON         0.1884
    131 H63       -67.6008  -48.2509   26.8434 H         1 NON         0.0826
    132 H64       -69.4949  -47.0578   26.3730 H         1 NON         0.0639
    133 H65       -69.3571  -48.1417   24.3177 H         1 NON         0.2101
    134 H66       -69.4901  -44.8072   25.3395 H         1 NON         0.0257
    135 H67       -67.7813  -45.0347   24.8346 H         1 NON         0.0257
    136 H68       -68.1981  -44.9461   26.5796 H         1 NON         0.0257
@<TRIPOS>BOND
     1    1    2 1  
     2    2    3 1  
     3    2    5 1  
     4    3    4 2  
     5    3    7 am 
     6    5    6 1  
     7    7    8 1  
     8    8    9 1  
     9    8   11 1  
    10    9   10 2  
    11    9   18 am 
    12   11   12 1  
    13   12   13 1  
    14   13   14 1  
    15   14   15 ar 
    16   15   16 ar 
    17   15   17 ar 
    18   18   19 1  
    19   19   20 1  
    20   19   22 1  
    21   20   21 2  
    22   20   24 am 
    23   22   23 1  
    24   24   25 1  
    25   25   26 1  
    26   25   33 1  
    27   26   27 1  
    28   27   28 1  
    29   28   29 1  
    30   29   30 2  
    31   29   31 1  
    32   31   32 2  
    33   33   34 2  
    34   33   35 am 
    35   35   36 1  
    36   36   37 1  
    37   36   39 1  
    38   37   38 2  
    39   37   44 am 
    40   39   40 1  
    41   40   41 1  
    42   41   42 1  
    43   42   43 1  
    44   43   64 am 
    45   44   45 1  
    46   45   46 1  
    47   45   53 1  
    48   46   47 1  
    49   47   48 1  
    50   48   49 1  
    51   49   50 2  
    52   49   51 1  
    53   51   52 2  
    54   53   54 2  
    55   53   55 am 
    56   55   56 1  
    57   56   57 1  
    58   56   59 1  
    59   57   58 2  
    60   57   62 am 
    61   59   60 1  
    62   59   61 1  
    63   62   63 1  
    64   63   64 1  
    65   63   66 1  
    66   64   65 2  
    67   66   67 1  
    68   66   68 1  
    69    1   69 1  
    70    1   70 1  
    71    1   71 1  
    72    2   72 1  
    73    5   73 1  
    74    5   74 1  
    75    6   75 1  
    76    7   76 1  
    77    8   77 1  
    78   11   78 1  
    79   11   79 1  
    80   12   80 1  
    81   12   81 1  
    82   13   82 1  
    83   13   83 1  
    84   14   84 1  
    85   16   85 1  
    86   16   86 1  
    87   17   87 1  
    88   17   88 1  
    89   18   89 1  
    90   19   90 1  
    91   22   91 1  
    92   22   92 1  
    93   23   93 1  
    94   24   94 1  
    95   25   95 1  
    96   26   96 1  
    97   26   97 1  
    98   27   98 1  
    99   27   99 1  
   100   28  100 1  
   101   28  101 1  
   102   31  102 1  
   103   35  103 1  
   104   36  104 1  
   105   39  105 1  
   106   39  106 1  
   107   40  107 1  
   108   40  108 1  
   109   41  109 1  
   110   41  110 1  
   111   42  111 1  
   112   42  112 1  
   113   43  113 1  
   114   44  114 1  
   115   45  115 1  
   116   46  116 1  
   117   46  117 1  
   118   47  118 1  
   119   47  119 1  
   120   48  120 1  
   121   48  121 1  
   122   51  122 1  
   123   55  123 1  
   124   56  124 1  
   125   59  125 1  
   126   60  126 1  
   127   61  127 1  
   128   61  128 1  
   129   61  129 1  
   130   62  130 1  
   131   63  131 1  
   132   66  132 1  
   133   67  133 1  
   134   68  134 1  
   135   68  135 1  
   136   68  136 1  
@<TRIPOS>SUBSTRUCTURE
     1 NON         1

