2w16_ligand
  -I-interpret- 

135135  0  0  0  0  0  0  0  0999 V2000
  -71.1050  -35.8190   20.5870 N   0  3  0  0  0
  -71.5520  -36.5590   19.3330 C   0  0  0  0  0
  -70.6300  -36.3190   18.1080 C   0  0  0  0  0
  -71.0550  -35.6630   17.1400 O   0  0  0  0  0
  -71.7580  -38.0710   19.5970 C   0  0  0  0  0
  -70.5410  -38.7270   19.9630 O   0  0  0  0  0
  -69.3790  -36.8010   18.1740 N   0  0  0  0  0
  -68.4530  -36.7100   17.0290 C   0  0  0  0  0
  -68.2980  -38.0450   16.2930 C   0  0  0  0  0
  -67.7050  -38.1210   15.2100 O   0  0  0  0  0
  -67.0910  -36.1140   17.4310 C   0  0  0  0  0
  -67.0660  -34.5880   17.7650 C   0  0  0  0  0
  -67.5860  -33.6160   16.6800 C   0  0  0  0  0
  -69.0380  -33.6450   16.6900 N   0  0  0  0  0
  -69.8380  -33.2280   15.7140 C   0  0  0  0  0
  -69.3430  -32.6790   14.6050 N   0  0  0  0  0
  -71.1580  -33.3710   15.8680 N   0  0  0  0  0
  -68.8650  -39.0870   16.8980 N   0  0  0  0  0
  -68.9260  -40.4360   16.3250 C   0  0  0  0  0
  -67.9730  -41.4210   17.0330 C   0  0  0  0  0
  -67.8660  -42.5910   16.6530 O   0  0  0  0  0
  -70.3670  -40.9480   16.3530 C   0  0  0  0  0
  -70.7290  -41.3860   17.6500 O   0  0  0  0  0
  -67.3140  -40.9420   18.0790 N   0  0  0  0  0
  -66.1090  -41.5680   18.5860 C   0  0  0  0  0
  -65.2670  -40.3950   19.0570 C   0  0  0  0  0
  -63.8230  -40.5230   18.5910 C   0  0  0  0  0
  -63.3090  -39.1540   18.1650 C   0  0  0  0  0
  -63.1450  -38.2960   19.3460 N   0  3  0  0  0
  -64.0570  -37.5460   19.6720 O   0  0  0  0  0
  -62.0640  -38.2950   20.0080 C   0  0  0  0  0
  -61.9550  -37.5630   20.9770 O   0  0  0  0  0
  -66.3580  -42.4920   19.7330 C   0  0  0  0  0
  -67.4020  -42.4100   20.3860 O   0  0  0  0  0
  -65.3810  -43.3540   20.0190 N   0  0  0  0  0
  -65.5530  -44.4350   21.0020 C   0  0  0  0  0
  -65.4230  -44.0810   22.4980 C   0  0  0  0  0
  -66.2140  -44.5540   23.3270 O   0  0  0  0  0
  -64.5890  -45.5810   20.6740 C   0  0  0  0  0
  -64.6510  -46.7740   21.6400 C   0  0  0  0  0
  -65.9200  -47.5800   21.4250 C   0  0  0  0  0
  -66.1240  -48.5710   22.5500 C   0  0  0  0  0
  -66.4970  -47.8440   23.7910 N   0  0  0  0  0
  -64.4090  -43.2780   22.8240 N   0  0  0  0  0
  -63.9810  -43.0160   24.2120 C   0  0  0  0  0
  -64.7660  -41.9300   24.9540 C   0  0  0  0  0
  -64.8470  -40.5820   24.2680 C   0  0  0  0  0
  -64.0570  -39.5250   25.0250 C   0  0  0  0  0
  -63.8870  -38.4440   24.0530 N   0  3  0  0  0
  -64.1820  -38.6130   22.8810 O   0  0  0  0  0
  -63.4370  -37.3130   24.3810 C   0  0  0  0  0
  -63.3390  -36.4570   23.5150 O   0  0  0  0  0
  -63.9910  -44.2030   25.1310 C   0  0  0  0  0
  -63.1820  -45.1280   24.9830 O   0  0  0  0  0
  -64.9570  -44.1780   26.0540 N   0  0  0  0  0
  -64.9670  -44.9500   27.3010 C   0  0  0  0  0
  -66.1520  -45.9390   27.3500 C   0  0  0  0  0
  -66.9200  -45.9790   28.3080 O   0  0  0  0  0
  -64.9210  -43.9650   28.5460 C   0  0  0  0  0
  -65.0460  -44.6870   29.7820 O   0  0  0  0  0
  -66.0030  -42.8530   28.4600 C   0  0  0  0  0
  -66.2540  -46.7400   26.2910 N   0  0  0  0  0
  -67.4060  -47.5990   25.9790 C   0  0  0  0  0
  -67.0610  -48.4400   24.7540 C   0  0  0  0  0
  -67.3280  -49.6420   24.7060 O   0  0  0  0  0
  -68.7290  -46.8110   25.6230 C   0  0  0  0  0
  -69.1820  -47.2080   24.3200 O   0  0  0  0  0
  -68.5360  -45.2930   25.5920 C   0  0  0  0  0
  -70.9812  -34.8299   20.3707 H   0  0  0  0  0
  -71.8140  -35.9234   21.3128 H   0  0  0  0  0
  -70.2216  -36.2099   20.9143 H   0  0  0  0  0
  -72.5187  -36.1288   19.0711 H   0  0  0  0  0
  -72.1265  -38.5282   18.6787 H   0  0  0  0  0
  -72.4621  -38.1780   20.4222 H   0  0  0  0  0
  -70.7146  -39.6586   20.1167 H   0  0  0  0  0
  -69.0606  -37.2412   19.0373 H   0  0  0  0  0
  -68.9077  -36.0164   16.3217 H   0  0  0  0  0
  -66.4391  -36.2436   16.5671 H   0  0  0  0  0
  -66.7964  -36.6272   18.3464 H   0  0  0  0  0
  -66.0157  -34.3346   17.9094 H   0  0  0  0  0
  -67.7324  -34.4617   18.6183 H   0  0  0  0  0
  -67.2153  -33.9197   15.7010 H   0  0  0  0  0
  -67.2334  -32.6056   16.8869 H   0  0  0  0  0
  -69.4864  -34.0211   17.5254 H   0  0  0  0  0
  -68.3345  -32.5730   14.4947 H   0  0  0  0  0
  -71.7939  -33.0590   15.1340 H   0  0  0  0  0
  -71.5295  -33.7921   16.7195 H   0  0  0  0  0
  -69.2827  -38.9379   17.8165 H   0  0  0  0  0
  -68.5889  -40.3720   15.2904 H   0  0  0  0  0
  -70.4509  -41.7895   15.6653 H   0  0  0  0  0
  -71.0313  -40.1342   16.0623 H   0  0  0  0  0
  -71.6357  -41.7012   17.6386 H   0  0  0  0  0
  -67.6669  -40.1047   18.5426 H   0  0  0  0  0
  -65.6415  -42.1851   17.8187 H   0  0  0  0  0
  -65.2781  -40.3771   20.1468 H   0  0  0  0  0
  -65.6852  -39.4794   18.6388 H   0  0  0  0  0
  -63.7713  -41.2112   17.7473 H   0  0  0  0  0
  -63.2089  -40.9062   19.4060 H   0  0  0  0  0
  -64.0251  -38.6959   17.4828 H   0  0  0  0  0
  -62.3468  -39.2690   17.6661 H   0  0  0  0  0
  -61.2387  -38.9432   19.7134 H   0  0  0  0  0
  -64.4851  -43.2606   19.5404 H   0  0  0  0  0
  -66.6022  -44.7089   20.8913 H   0  0  0  0  0
  -63.5801  -45.1736   20.7397 H   0  0  0  0  0
  -64.8685  -45.9568   19.6897 H   0  0  0  0  0
  -64.6440  -46.3975   22.6629 H   0  0  0  0  0
  -63.7912  -47.4184   21.4568 H   0  0  0  0  0
  -65.8342  -48.1269   20.4860 H   0  0  0  0  0
  -66.7696  -46.8977   21.3992 H   0  0  0  0  0
  -65.2002  -49.1247   22.7177 H   0  0  0  0  0
  -66.9211  -49.2646   22.2824 H   0  0  0  0  0
  -66.2949  -46.8472   23.8679 H   0  0  0  0  0
  -63.8994  -42.8179   22.0696 H   0  0  0  0  0
  -62.9601  -42.6889   24.0150 H   0  0  0  0  0
  -64.2421  -41.7631   25.8952 H   0  0  0  0  0
  -65.7902  -42.2941   25.0345 H   0  0  0  0  0
  -65.8920  -40.2739   24.2330 H   0  0  0  0  0
  -64.4264  -40.6774   23.2670 H   0  0  0  0  0
  -63.1030  -39.9056   25.3899 H   0  0  0  0  0
  -64.5716  -39.1922   25.9264 H   0  0  0  0  0
  -63.1432  -37.1045   25.4097 H   0  0  0  0  0
  -65.7562  -43.5697   25.8760 H   0  0  0  0  0
  -64.0713  -45.5697   27.3434 H   0  0  0  0  0
  -63.9468  -43.4768   28.5209 H   0  0  0  0  0
  -65.0152  -44.0696   30.5165 H   0  0  0  0  0
  -65.8453  -42.2634   27.5569 H   0  0  0  0  0
  -66.9915  -43.3113   28.4283 H   0  0  0  0  0
  -65.9286  -42.2070   29.3348 H   0  0  0  0  0
  -65.4673  -46.7593   25.6421 H   0  0  0  0  0
  -67.5961  -48.1847   26.8784 H   0  0  0  0  0
  -69.4494  -47.0520   26.4047 H   0  0  0  0  0
  -69.9856  -46.7301   24.1025 H   0  0  0  0  0
  -68.2011  -44.9505   26.5711 H   0  0  0  0  0
  -67.7880  -45.0384   24.8412 H   0  0  0  0  0
  -69.4820  -44.8128   25.3417 H   0  0  0  0  0
  1  2  1  0  0  0
  2  3  1  0  0  0
  2  5  1  0  0  0
  3  4  2  0  0  0
  3  7  1  0  0  0
  5  6  1  0  0  0
  7  8  1  0  0  0
  8  9  1  0  0  0
  8 11  1  0  0  0
  9 10  2  0  0  0
  9 18  1  0  0  0
 11 12  1  0  0  0
 12 13  1  0  0  0
 13 14  1  0  0  0
 14 15  1  0  0  0
 15 16  2  0  0  0
 15 17  1  0  0  0
 18 19  1  0  0  0
 19 20  1  0  0  0
 19 22  1  0  0  0
 20 21  2  0  0  0
 20 24  1  0  0  0
 22 23  1  0  0  0
 24 25  1  0  0  0
 25 26  1  0  0  0
 25 33  1  0  0  0
 26 27  1  0  0  0
 27 28  1  0  0  0
 28 29  1  0  0  0
 29 30  2  0  0  0
 29 31  1  0  0  0
 31 32  2  0  0  0
 33 34  2  0  0  0
 33 35  1  0  0  0
 35 36  1  0  0  0
 36 37  1  0  0  0
 36 39  1  0  0  0
 37 38  2  0  0  0
 37 44  1  0  0  0
 39 40  1  0  0  0
 40 41  1  0  0  0
 41 42  1  0  0  0
 42 43  1  0  0  0
 43 64  1  0  0  0
 44 45  1  0  0  0
 45 46  1  0  0  0
 45 53  1  0  0  0
 46 47  1  0  0  0
 47 48  1  0  0  0
 48 49  1  0  0  0
 49 50  2  0  0  0
 49 51  1  0  0  0
 51 52  2  0  0  0
 53 54  2  0  0  0
 53 55  1  0  0  0
 55 56  1  0  0  0
 56 57  1  0  0  0
 56 59  1  0  0  0
 57 58  2  0  0  0
 57 62  1  0  0  0
 59 60  1  0  0  0
 59 61  1  0  0  0
 62 63  1  0  0  0
 63 64  1  0  0  0
 63 66  1  0  0  0
 64 65  2  0  0  0
 66 67  1  0  0  0
 66 68  1  0  0  0
  1 69  1  0  0  0
  1 70  1  0  0  0
  1 71  1  0  0  0
  2 72  1  0  0  0
  5 73  1  0  0  0
  5 74  1  0  0  0
  6 75  1  0  0  0
  7 76  1  0  0  0
  8 77  1  0  0  0
 11 78  1  0  0  0
 11 79  1  0  0  0
 12 80  1  0  0  0
 12 81  1  0  0  0
 13 82  1  0  0  0
 13 83  1  0  0  0
 14 84  1  0  0  0
 16 85  1  0  0  0
 17 86  1  0  0  0
 17 87  1  0  0  0
 18 88  1  0  0  0
 19 89  1  0  0  0
 22 90  1  0  0  0
 22 91  1  0  0  0
 23 92  1  0  0  0
 24 93  1  0  0  0
 25 94  1  0  0  0
 26 95  1  0  0  0
 26 96  1  0  0  0
 27 97  1  0  0  0
 27 98  1  0  0  0
 28 99  1  0  0  0
 28100  1  0  0  0
 31101  1  0  0  0
 35102  1  0  0  0
 36103  1  0  0  0
 39104  1  0  0  0
 39105  1  0  0  0
 40106  1  0  0  0
 40107  1  0  0  0
 41108  1  0  0  0
 41109  1  0  0  0
 42110  1  0  0  0
 42111  1  0  0  0
 43112  1  0  0  0
 44113  1  0  0  0
 45114  1  0  0  0
 46115  1  0  0  0
 46116  1  0  0  0
 47117  1  0  0  0
 47118  1  0  0  0
 48119  1  0  0  0
 48120  1  0  0  0
 51121  1  0  0  0
 55122  1  0  0  0
 56123  1  0  0  0
 59124  1  0  0  0
 60125  1  0  0  0
 61126  1  0  0  0
 61127  1  0  0  0
 61128  1  0  0  0
 62129  1  0  0  0
 63130  1  0  0  0
 66131  1  0  0  0
 67132  1  0  0  0
 68133  1  0  0  0
 68134  1  0  0  0
 68135  1  0  0  0
M  END
$$$$
