2i0h_ligand
  -I-interpret- 

 56 60  0  0  0  0  0  0  0  0999 V2000
   22.1560    9.6740   30.7590 C   0  0  0  0  0
   24.8960   11.6670   30.8460 C   0  0  0  0  0
   23.8900   11.0410   31.6760 C   0  0  0  0  0
   24.2680   10.5070   32.9720 C   0  0  0  0  0
   25.6160   10.5880   33.4420 C   0  0  0  0  0
   26.6210   11.2160   32.6100 C   0  0  0  0  0
   26.2560   11.7560   31.3120 C   0  0  0  0  0
   20.7240    9.5950   30.3210 C   0  0  0  0  0
   22.5980   10.9330   31.2560 N   0  0  0  0  0
   23.0680    9.7460   33.9900 Cl  0  0  0  0  0
   19.9180   10.6890   30.4110 C   0  0  0  0  0
   20.4670   12.0160   30.9590 C   0  0  0  0  0
   21.8270   11.9870   31.3460 N   0  0  0  0  0
   22.8200    8.6690   30.6570 O   0  0  0  0  0
   20.0940   13.3900   31.2550 N   0  0  0  0  0
   20.7690   14.6360   31.5960 C   0  0  0  0  0
   18.6610   13.4460   31.1830 C   0  0  0  0  0
   18.0490   14.0450   29.9900 C   0  0  0  0  0
   16.6270   14.1460   29.8600 C   0  0  0  0  0
   15.7910   13.6570   30.9050 C   0  0  0  0  0
   16.3130   13.0580   32.1030 C   0  0  0  0  0
   17.7380   12.9550   32.2440 C   0  0  0  0  0
   18.3100   12.2470   33.7110 Cl  0  0  0  0  0
   14.4870   13.7710   30.7540 F   0  0  0  0  0
   21.0460   14.9820   33.0300 C   0  0  0  0  0
   21.9390   16.1590   33.3640 C   0  0  0  0  0
   23.3220   15.9440   32.8890 N   0  0  0  0  0
   23.8280   16.3650   31.6820 C   0  0  0  0  0
   25.2180   15.9500   31.6640 C   0  0  0  0  0
   25.4860   15.2980   32.8620 C   0  0  0  0  0
   24.2580   15.2860   33.6410 C   0  0  0  0  0
   26.2070   16.1360   30.6770 C   0  0  0  0  0
   27.5050   15.6220   30.9520 C   0  0  0  0  0
   27.7830   14.9450   32.1930 C   0  0  0  0  0
   26.7600   14.7730   33.1640 C   0  0  0  0  0
   23.2150   16.9730   30.8040 O   0  0  0  0  0
   24.0690   14.8050   34.7580 O   0  0  0  0  0
   24.6254   12.0704   29.8702 H   0  0  0  0  0
   25.8844   10.1810   34.4169 H   0  0  0  0  0
   27.6518   11.2835   32.9579 H   0  0  0  0  0
   27.0139   12.2302   30.6884 H   0  0  0  0  0
   20.3268    8.6586   29.9292 H   0  0  0  0  0
   18.8776   10.6232   30.0926 H   0  0  0  0  0
   20.0843   15.4141   31.2588 H   0  0  0  0  0
   21.7574   14.5384   31.1469 H   0  0  0  0  0
   18.6882   14.4189   29.1902 H   0  0  0  0  0
   16.1873   14.5935   28.9686 H   0  0  0  0  0
   15.6452   12.6921   32.8829 H   0  0  0  0  0
   21.5780   14.1153   33.4224 H   0  0  0  0  0
   20.0725   15.2529   33.4387 H   0  0  0  0  0
   21.9613   16.2781   34.4472 H   0  0  0  0  0
   21.5394   17.0454   32.8714 H   0  0  0  0  0
   25.9867   16.6519   29.7424 H   0  0  0  0  0
   28.2988   15.7419   30.2147 H   0  0  0  0  0
   28.7847   14.5622   32.3883 H   0  0  0  0  0
   26.9519   14.2562   34.1043 H   0  0  0  0  0
  1  8  1  0  0  0
  9  1  1  0  0  0
  1 14  2  0  0  0
  3  2  4  0  0  0
  2  7  4  0  0  0
  3  4  4  0  0  0
  3  9  1  0  0  0
  4  5  4  0  0  0
  4 10  1  0  0  0
  5  6  4  0  0  0
  6  7  4  0  0  0
  8 11  2  0  0  0
  9 13  1  0  0  0
 11 12  1  0  0  0
 12 13  2  0  0  0
 12 15  1  0  0  0
 15 16  1  0  0  0
 15 17  1  0  0  0
 16 25  1  0  0  0
 17 18  4  0  0  0
 17 22  4  0  0  0
 18 19  4  0  0  0
 19 20  4  0  0  0
 20 21  4  0  0  0
 20 24  1  0  0  0
 21 22  4  0  0  0
 22 23  1  0  0  0
 25 26  1  0  0  0
 26 27  1  0  0  0
 27 28  1  0  0  0
 27 31  1  0  0  0
 28 29  1  0  0  0
 28 36  2  0  0  0
 29 30  4  0  0  0
 29 32  4  0  0  0
 30 31  1  0  0  0
 30 35  4  0  0  0
 31 37  2  0  0  0
 32 33  4  0  0  0
 33 34  4  0  0  0
 34 35  4  0  0  0
  2 38  1  0  0  0
  5 39  1  0  0  0
  6 40  1  0  0  0
  7 41  1  0  0  0
  8 42  1  0  0  0
 11 43  1  0  0  0
 16 44  1  0  0  0
 16 45  1  0  0  0
 18 46  1  0  0  0
 19 47  1  0  0  0
 21 48  1  0  0  0
 25 49  1  0  0  0
 25 50  1  0  0  0
 26 51  1  0  0  0
 26 52  1  0  0  0
 32 53  1  0  0  0
 33 54  1  0  0  0
 34 55  1  0  0  0
 35 56  1  0  0  0
M  END
$$$$
