3v4j_ligand
  -I-interpret- 

 19 19  0  0  0  0  0  0  0  0999 V2000
  -17.2370  -23.1440    1.1680 O   0  0  0  0  0
  -16.3760  -22.6920    0.3860 C   0  0  0  0  0
  -16.6710  -22.6610   -1.0640 C   0  0  0  0  0
  -17.7850  -23.0360   -1.4930 O   0  0  0  0  0
  -15.7170  -22.2050   -1.9460 C   0  0  0  0  0
  -14.4840  -21.7550   -1.4740 C   0  0  0  0  0
  -13.5740  -21.3380   -2.4510 N   0  3  0  0  0
  -12.2790  -21.2810   -2.1860 N   0  0  0  0  0
  -11.3780  -20.8800   -3.1810 O   0  0  0  0  0
  -14.0100  -21.0380   -3.8220 C   0  0  0  0  0
  -15.1510  -22.2320    0.8830 C   0  0  0  0  0
  -14.1690  -21.7800    0.0020 C   0  0  0  0  0
  -15.9259  -22.1957   -3.0158 H   0  0  0  0  0
  -10.4857  -20.8932   -2.8272 H   0  0  0  0  0
  -13.7105  -20.0230   -4.0833 H   0  0  0  0  0
  -13.5471  -21.7437   -4.5117 H   0  0  0  0  0
  -15.0947  -21.1255   -3.8843 H   0  0  0  0  0
  -14.9649  -22.2271    1.9570 H   0  0  0  0  0
  -13.1969  -21.4525    0.3706 H   0  0  0  0  0
  1  2  2  0  0  0
  2  3  1  0  0  0
  2 11  1  0  0  0
  3  4  2  0  0  0
  3  5  1  0  0  0
  5  6  2  0  0  0
  6  7  1  0  0  0
  6 12  1  0  0  0
  7  8  2  0  0  0
  7 10  1  0  0  0
  8  9  1  0  0  0
 11 12  2  0  0  0
  5 13  1  0  0  0
  9 14  1  0  0  0
 10 15  1  0  0  0
 10 16  1  0  0  0
 10 17  1  0  0  0
 11 18  1  0  0  0
 12 19  1  0  0  0
M  END
$$$$
