4x47_ligand
  -I-interpret- 

 37 37  0  0  0  0  0  0  0  0999 V2000
   -9.2150   41.3280  -18.2110 C   0  0  0  0  0
   -9.7940   41.3520  -16.8620 C   0  0  0  0  0
  -10.8770   40.6580  -16.5140 C   0  0  0  0  0
  -11.4220   40.7570  -15.1310 C   0  0  0  0  0
  -11.0240   42.0640  -14.4670 C   0  0  0  0  0
   -9.5170   42.3580  -14.5910 C   0  0  0  0  0
   -9.2660   43.8380  -14.1960 C   0  0  0  0  0
   -7.9970   44.6100  -14.4400 C   0  0  0  0  0
   -7.1230   44.7990  -13.1800 C   0  0  0  0  0
  -12.0160   43.0370  -12.4510 C   0  0  0  0  0
  -12.3100   42.8150  -11.0080 C   0  0  0  0  0
  -11.4200   42.0380  -13.0670 N   0  0  0  0  0
   -9.9050   40.8690  -19.2060 O   0  0  0  0  0
   -8.0240   41.7640  -18.2660 O   0  0  0  0  0
  -12.8440   40.6110  -15.1550 O   0  0  0  0  0
   -9.1540   42.2450  -15.9490 O   0  0  0  0  0
  -10.0790   44.5960  -15.0870 O   0  0  0  0  0
   -7.3390   44.0440  -15.6130 O   0  0  0  0  0
   -7.5650   45.7810  -12.1810 O   0  0  0  0  0
  -12.2790   44.0660  -13.0200 O   0  0  0  0  0
  -11.3667   40.0146  -17.2450 H   0  0  0  0  0
  -10.9936   39.9491  -14.5378 H   0  0  0  0  0
  -11.5438   42.8685  -14.9872 H   0  0  0  0  0
   -8.9542   41.6711  -13.9589 H   0  0  0  0  0
   -9.3806   43.7432  -13.1162 H   0  0  0  0  0
   -8.2288   45.6495  -14.6720 H   0  0  0  0  0
   -6.1634   45.1660  -13.5440 H   0  0  0  0  0
   -7.1381   43.8366  -12.6684 H   0  0  0  0  0
  -11.7784   43.5567  -10.4119 H   0  0  0  0  0
  -13.3824   42.9112  -10.8380 H   0  0  0  0  0
  -11.9837   41.8152  -10.7217 H   0  0  0  0  0
  -11.2236   41.1935  -12.5298 H   0  0  0  0  0
  -10.7744   40.6049  -18.8962 H   0  0  0  0  0
  -13.0721   39.7800  -15.5781 H   0  0  0  0  0
  -10.9732   44.2468  -15.0780 H   0  0  0  0  0
   -6.5257   44.5242  -15.7852 H   0  0  0  0  0
   -6.9384   45.8004  -11.4540 H   0  0  0  0  0
  2  1  1  0  0  0
  1 13  1  0  0  0
  1 14  2  0  0  0
  3  2  2  0  0  0
 16  2  1  0  0  0
  4  3  1  0  0  0
  5  4  1  0  0  0
  4 15  1  0  0  0
  5  6  1  0  0  0
 12  5  1  0  0  0
  6  7  1  0  0  0
  6 16  1  0  0  0
  7  8  1  0  0  0
  7 17  1  0  0  0
  8  9  1  0  0  0
  8 18  1  0  0  0
  9 19  1  0  0  0
 10 11  1  0  0  0
 10 12  1  0  0  0
 10 20  2  0  0  0
  3 21  1  0  0  0
  4 22  1  0  0  0
  5 23  1  0  0  0
  6 24  1  0  0  0
  7 25  1  0  0  0
  8 26  1  0  0  0
  9 27  1  0  0  0
  9 28  1  0  0  0
 11 29  1  0  0  0
 11 30  1  0  0  0
 11 31  1  0  0  0
 12 32  1  0  0  0
 13 33  1  0  0  0
 15 34  1  0  0  0
 17 35  1  0  0  0
 18 36  1  0  0  0
 19 37  1  0  0  0
M  END
$$$$
