6g2b_ligand
  -I-interpret- 

 31 33  0  0  0  0  0  0  0  0999 V2000
   -3.4390    7.2170  -18.7500 N   0  0  0  0  0
   -4.5600    6.2050  -20.3790 N   0  0  0  0  0
   -4.1690    7.4560  -20.8410 C   0  0  0  0  0
   -3.4420    8.1110  -19.8690 C   0  0  0  0  0
   -4.5280    7.8770  -22.2130 C   0  0  0  0  0
   -2.8360    9.4600  -19.8500 C   0  0  0  0  0
   -5.8380    7.7340  -22.6810 C   0  0  0  0  0
   -5.2060    8.6550  -24.8080 C   0  0  0  0  0
   -2.8390    7.4270  -17.4350 C   0  0  0  0  0
   -2.9670   11.8200  -20.2200 C   0  0  0  0  0
   -1.0080   10.9400  -19.4370 C   0  0  0  0  0
   -4.1050    6.1110  -19.1560 C   0  0  0  0  0
   -6.1700    8.1220  -23.9700 C   0  0  0  0  0
   -3.9040    8.7960  -24.3560 C   0  0  0  0  0
   -3.5630    8.4090  -23.0700 C   0  0  0  0  0
   -3.5730   10.5790  -20.2500 C   0  0  0  0  0
   -1.7120   12.0210  -19.8000 N   0  0  0  0  0
   -1.5220    9.6540  -19.4390 C   0  0  0  0  0
   -6.6033    7.3146  -22.0279 H   0  0  0  0  0
   -5.4702    8.9627  -25.8198 H   0  0  0  0  0
   -1.7661    7.5833  -17.5473 H   0  0  0  0  0
   -3.2882    8.3034  -16.9679 H   0  0  0  0  0
   -3.0165    6.5505  -16.8119 H   0  0  0  0  0
   -3.5421   12.6826  -20.5567 H   0  0  0  0  0
    0.0262   11.0807  -19.1228 H   0  0  0  0  0
   -4.2478    5.2316  -18.5281 H   0  0  0  0  0
   -7.1942    8.0068  -24.3248 H   0  0  0  0  0
   -3.1436    9.2137  -25.0158 H   0  0  0  0  0
   -2.5350    8.5206  -22.7254 H   0  0  0  0  0
   -4.6067   10.4740  -20.5794 H   0  0  0  0  0
   -0.9081    8.8100  -19.1244 H   0  0  0  0  0
  1  4  4  0  0  0
  1  9  1  0  0  0
 12  1  4  0  0  0
  2  3  4  0  0  0
  2 12  4  0  0  0
  3  4  4  0  0  0
  3  5  1  0  0  0
  4  6  1  0  0  0
  5  7  4  0  0  0
  5 15  4  0  0  0
  6 16  4  0  0  0
  6 18  4  0  0  0
  7 13  4  0  0  0
 13  8  4  0  0  0
  8 14  4  0  0  0
 16 10  4  0  0  0
 10 17  4  0  0  0
 17 11  4  0  0  0
 11 18  4  0  0  0
 14 15  4  0  0  0
  7 19  1  0  0  0
  8 20  1  0  0  0
  9 21  1  0  0  0
  9 22  1  0  0  0
  9 23  1  0  0  0
 10 24  1  0  0  0
 11 25  1  0  0  0
 12 26  1  0  0  0
 13 27  1  0  0  0
 14 28  1  0  0  0
 15 29  1  0  0  0
 16 30  1  0  0  0
 18 31  1  0  0  0
M  END
$$$$
