5l8a_ligand
  -I-interpret- 

 66 70  0  0  0  0  0  0  0  0999 V2000
    9.6510   17.0860    6.4580 C   0  0  0  0  0
   10.9380   17.0250    6.9980 O   0  0  0  0  0
   12.0890   17.1040    6.2660 C   0  0  0  0  0
   12.0920   17.2220    4.8560 C   0  0  0  0  0
   13.3450   17.2240    4.1930 C   0  0  0  0  0
   13.3090   16.9560    6.9340 C   0  0  0  0  0
   13.3070   16.8080    8.3470 C   0  0  0  0  0
   14.4490   16.6660    9.0990 C   0  0  0  0  0
   15.6560   16.7440    8.4300 C   0  0  0  0  0
   15.7040   16.8470    7.0080 C   0  0  0  0  0
   14.5500   16.9800    6.2420 C   0  0  0  0  0
   14.5820   17.1280    4.8220 C   0  0  0  0  0
   15.7690   17.0940    3.9930 C   0  0  0  0  0
   16.1420   15.6330    3.5840 N   0  3  0  0  0
   15.4530   15.0480    2.4570 C   0  0  0  0  0
   15.7740   13.7230    2.1400 C   0  0  0  0  0
   16.1900   14.5820    4.6450 C   0  0  0  0  0
   16.9770   13.2830    4.2020 C   0  0  0  0  0
   16.5060   12.8980    2.9590 C   0  0  0  0  0
   16.6130   11.6960    2.3960 N   0  0  0  0  0
   17.2830   10.4390    2.8370 C   0  0  0  0  0
   18.6210   10.1770    2.1260 C   0  0  0  0  0
   19.3190   11.4100    2.0130 O   0  0  0  0  0
   15.9620   11.7530    1.1800 N   0  0  0  0  0
   15.4620   12.9940    1.0190 C   0  0  0  0  0
   14.7090   13.3760   -0.0550 C   0  0  0  0  0
   14.1790   14.4900   -0.1530 O   0  0  0  0  0
   14.6080   12.4690   -1.0370 N   0  0  0  0  0
   13.7820   12.7080   -2.1710 C   0  0  0  0  0
   12.4760   12.0770   -2.0370 C   0  0  0  0  0
   11.7230   11.8150   -3.1740 C   0  0  0  0  0
   10.4370   11.2390   -3.1020 C   0  0  0  0  0
    9.9290   10.9230   -1.8510 C   0  0  0  0  0
   10.6540   11.2030   -0.7060 C   0  0  0  0  0
   11.9160   11.7780   -0.7910 C   0  0  0  0  0
    9.5186   18.0383    5.9446 H   0  0  0  0  0
    9.5163   16.2683    5.7500 H   0  0  0  0  0
    8.9175   16.9988    7.2596 H   0  0  0  0  0
   11.1602   17.3086    4.2972 H   0  0  0  0  0
   13.3387   17.3072    3.1062 H   0  0  0  0  0
   12.3470   16.8070    8.8633 H   0  0  0  0  0
   14.4046   16.4993   10.1753 H   0  0  0  0  0
   16.5861   16.7265    8.9981 H   0  0  0  0  0
   16.6719   16.8208    6.5074 H   0  0  0  0  0
   16.5984   17.5154    4.5611 H   0  0  0  0  0
   15.5728   17.6663    3.0864 H   0  0  0  0  0
   17.0961   15.8747    3.3163 H   0  0  0  0  0
   15.7406   15.6416    1.5892 H   0  0  0  0  0
   14.3955   15.0449    2.7213 H   0  0  0  0  0
   15.1637   14.2873    4.8641 H   0  0  0  0  0
   16.7091   15.0050    5.5051 H   0  0  0  0  0
   16.8213   12.4839    4.9268 H   0  0  0  0  0
   18.0459   13.4904    4.1510 H   0  0  0  0  0
   16.6164    9.6105    2.5976 H   0  0  0  0  0
   17.4909   10.5344    3.9027 H   0  0  0  0  0
   18.4411    9.7585    1.1357 H   0  0  0  0  0
   19.2141    9.4642    2.6989 H   0  0  0  0  0
   20.1579   11.2621    1.5703 H   0  0  0  0  0
   15.1304   11.5955   -0.9705 H   0  0  0  0  0
   14.2756   12.2874   -3.0471 H   0  0  0  0  0
   13.6330   13.7838   -2.2637 H   0  0  0  0  0
   12.1378   12.0617   -4.1513 H   0  0  0  0  0
    9.8583   11.0475   -4.0056 H   0  0  0  0  0
    8.9504   10.4501   -1.7688 H   0  0  0  0  0
   10.2312   10.9704    0.2714 H   0  0  0  0  0
   12.4733   11.9975    0.1197 H   0  0  0  0  0
  1  2  1  0  0  0
  2  3  1  0  0  0
  3  4  4  0  0  0
  3  6  4  0  0  0
  4  5  4  0  0  0
  5 12  4  0  0  0
  6  7  4  0  0  0
  6 11  4  0  0  0
  7  8  4  0  0  0
  8  9  4  0  0  0
  9 10  4  0  0  0
 10 11  4  0  0  0
 11 12  4  0  0  0
 12 13  1  0  0  0
 13 14  1  0  0  0
 14 15  1  0  0  0
 14 17  1  0  0  0
 15 16  1  0  0  0
 16 19  4  0  0  0
 16 25  4  0  0  0
 17 18  1  0  0  0
 18 19  1  0  0  0
 19 20  4  0  0  0
 20 21  1  0  0  0
 20 24  4  0  0  0
 21 22  1  0  0  0
 22 23  1  0  0  0
 24 25  4  0  0  0
 25 26  1  0  0  0
 26 27  2  0  0  0
 26 28  1  0  0  0
 28 29  1  0  0  0
 29 30  1  0  0  0
 30 31  4  0  0  0
 30 35  4  0  0  0
 31 32  4  0  0  0
 32 33  4  0  0  0
 33 34  4  0  0  0
 34 35  4  0  0  0
  1 36  1  0  0  0
  1 37  1  0  0  0
  1 38  1  0  0  0
  4 39  1  0  0  0
  5 40  1  0  0  0
  7 41  1  0  0  0
  8 42  1  0  0  0
  9 43  1  0  0  0
 10 44  1  0  0  0
 13 45  1  0  0  0
 13 46  1  0  0  0
 14 47  1  0  0  0
 15 48  1  0  0  0
 15 49  1  0  0  0
 17 50  1  0  0  0
 17 51  1  0  0  0
 18 52  1  0  0  0
 18 53  1  0  0  0
 21 54  1  0  0  0
 21 55  1  0  0  0
 22 56  1  0  0  0
 22 57  1  0  0  0
 23 58  1  0  0  0
 28 59  1  0  0  0
 29 60  1  0  0  0
 29 61  1  0  0  0
 31 62  1  0  0  0
 32 63  1  0  0  0
 33 64  1  0  0  0
 34 65  1  0  0  0
 35 66  1  0  0  0
M  END
$$$$
