3f80_ligand
  -I-interpret- 

 25 24  0  0  0  0  0  0  0  0999 V2000
   26.1020  -12.9610    6.5950 N   0  0  0  0  0
   21.7280  -17.3940    5.5470 N   0  3  0  0  0
   21.6480  -17.0990    7.0030 C   0  0  0  0  0
   20.5210  -16.0830    7.2700 C   0  0  0  0  0
   19.8270  -15.6440    6.3050 O   0  0  0  0  0
   20.2880  -15.6890    8.4520 O   0  0  0  0  0
   23.0210  -16.5850    7.4930 C   0  0  0  0  0
   23.2810  -15.1350    7.0830 C   0  0  0  0  0
   24.6350  -14.6870    7.5960 C   0  0  0  0  0
   24.8150  -13.2340    7.1880 C   0  0  0  0  0
   26.6880  -11.8060    6.8480 O   0  0  0  0  0
   26.6750  -13.8180    5.7770 O   0  0  0  0  0
   20.8235  -17.7335    5.2199 H   0  0  0  0  0
   21.9760  -16.5432    5.0420 H   0  0  0  0  0
   22.4392  -18.1068    5.3843 H   0  0  0  0  0
   21.4078  -18.0045    7.5602 H   0  0  0  0  0
   20.8993  -16.1159    9.0567 H   0  0  0  0  0
   23.7943  -17.2068    7.0419 H   0  0  0  0  0
   23.0305  -16.6344    8.5818 H   0  0  0  0  0
   22.5067  -14.4971    7.5092 H   0  0  0  0  0
   23.2669  -15.0614    5.9956 H   0  0  0  0  0
   25.4278  -15.3043    7.1736 H   0  0  0  0  0
   24.6868  -14.7895    8.6799 H   0  0  0  0  0
   24.0541  -13.0054    6.4418 H   0  0  0  0  0
   24.7329  -12.6268    8.0895 H   0  0  0  0  0
 10  1  1  0  0  0
  1 11  2  0  0  0
  1 12  2  0  0  0
  3  2  1  0  0  0
  3  4  1  0  0  0
  7  3  1  0  0  0
  4  5  2  0  0  0
  4  6  1  0  0  0
  8  7  1  0  0  0
  9  8  1  0  0  0
  9 10  1  0  0  0
  2 13  1  0  0  0
  2 14  1  0  0  0
  2 15  1  0  0  0
  3 16  1  0  0  0
  6 17  1  0  0  0
  7 18  1  0  0  0
  7 19  1  0  0  0
  8 20  1  0  0  0
  8 21  1  0  0  0
  9 22  1  0  0  0
  9 23  1  0  0  0
 10 24  1  0  0  0
 10 25  1  0  0  0
M  END
$$$$
