2no3_ligand
  -I-interpret- 

 39 41  0  0  0  0  0  0  0  0999 V2000
   17.7710  107.5350   51.0610 C   0  0  0  0  0
   18.8810  107.0790   50.4700 N   0  0  0  0  0
   18.8750  106.6660   49.1930 C   0  0  0  0  0
   17.6950  106.6990   48.4520 C   0  0  0  0  0
   16.5550  107.1920   49.1190 C   0  0  0  0  0
   16.5960  107.6020   50.4200 N   0  0  0  0  0
   20.0360  106.1830   48.6480 N   0  0  0  0  0
   21.3420  106.0370   49.1580 C   0  0  0  0  0
   22.3420  105.4330   48.3300 C   0  0  0  0  0
   23.6630  105.2640   48.8230 C   0  0  0  0  0
   24.0200  105.6940   50.1180 C   0  0  0  0  0
   23.0610  106.2830   50.9430 C   0  0  0  0  0
   21.7580  106.4510   50.4680 C   0  0  0  0  0
   17.8210  107.9340   52.3720 N   0  0  0  0  0
   18.9080  108.0340   53.2260 C   0  0  0  0  0
   18.9030  109.0960   54.1600 C   0  0  0  0  0
   19.9660  109.2770   55.0740 C   0  0  0  0  0
   21.0750  108.3880   55.0720 C   0  0  0  0  0
   21.1100  107.3220   54.1530 C   0  0  0  0  0
   20.0380  107.1510   53.2480 C   0  0  0  0  0
   22.1910  106.4510   54.1380 O   0  0  0  0  0
   22.0170  104.9470   46.9660 C   0  0  0  0  0
   23.0100  104.3640   46.2730 N   0  0  0  0  0
   20.9050  105.0460   46.4600 O   0  0  0  0  0
   17.6558  106.3628   47.4159 H   0  0  0  0  0
   15.6103  107.2475   48.5781 H   0  0  0  0  0
   19.9352  105.8669   47.6835 H   0  0  0  0  0
   24.4146  104.7935   48.1892 H   0  0  0  0  0
   25.0425  105.5665   50.4735 H   0  0  0  0  0
   23.3261  106.6090   51.9488 H   0  0  0  0  0
   21.0227  106.9184   51.1229 H   0  0  0  0  0
   16.9237  108.1966   52.7798 H   0  0  0  0  0
   18.0620  109.7893   54.1754 H   0  0  0  0  0
   19.9350  110.1031   55.7844 H   0  0  0  0  0
   21.8934  108.5307   55.7777 H   0  0  0  0  0
   20.0711  106.3202   52.5431 H   0  0  0  0  0
   22.0567  105.7878   53.4571 H   0  0  0  0  0
   22.8354  104.0079   45.3333 H   0  0  0  0  0
   23.9383  104.2776   46.6868 H   0  0  0  0  0
  1  2  4  0  0  0
  1  6  4  0  0  0
  1 14  1  0  0  0
  2  3  4  0  0  0
  3  4  4  0  0  0
  3  7  1  0  0  0
  4  5  4  0  0  0
  5  6  4  0  0  0
  7  8  1  0  0  0
  8  9  4  0  0  0
  8 13  4  0  0  0
  9 10  4  0  0  0
  9 22  1  0  0  0
 10 11  4  0  0  0
 11 12  4  0  0  0
 12 13  4  0  0  0
 14 15  1  0  0  0
 15 16  4  0  0  0
 15 20  4  0  0  0
 16 17  4  0  0  0
 17 18  4  0  0  0
 18 19  4  0  0  0
 19 20  4  0  0  0
 19 21  1  0  0  0
 22 23  1  0  0  0
 22 24  2  0  0  0
  4 25  1  0  0  0
  5 26  1  0  0  0
  7 27  1  0  0  0
 10 28  1  0  0  0
 11 29  1  0  0  0
 12 30  1  0  0  0
 13 31  1  0  0  0
 14 32  1  0  0  0
 16 33  1  0  0  0
 17 34  1  0  0  0
 18 35  1  0  0  0
 20 36  1  0  0  0
 21 37  1  0  0  0
 23 38  1  0  0  0
 23 39  1  0  0  0
M  END
$$$$
