4dr9_ligand
  -I-interpret- 

 62 62  0  0  0  0  0  0  0  0999 V2000
   36.2650   51.8780    4.4090 C   0  0  0  0  0
   35.4980   53.1490    4.6880 C   0  0  0  0  0
   34.5060   53.2580    5.3860 O   0  0  0  0  0
   35.8890   54.1890    4.0480 N   0  0  0  0  0
   35.1970   55.3280    4.3480 O   0  0  0  0  0
   35.5840   51.1860    3.2220 C   0  0  0  0  0
   35.9210   49.7340    3.2970 C   0  0  0  0  0
   37.0670   49.3540    3.2870 O   0  0  0  0  0
   36.0260   51.7780    1.8890 C   0  0  0  0  0
   35.5440   51.0470    0.6130 C   0  0  0  0  0
   34.0370   51.0680    0.4650 C   0  0  0  0  0
   33.6260   50.7650   -0.9840 C   0  0  0  0  0
   33.4270   49.2690   -1.1700 C   0  0  0  0  0
   34.8850   48.8980    3.3610 N   0  0  0  0  0
   34.9840   47.4520    3.3090 C   0  0  0  0  0
   34.5580   46.8490    4.6600 C   0  0  0  0  0
   35.0510   45.4250    4.8090 C   0  0  0  0  0
   35.1120   47.6630    5.8280 C   0  0  0  0  0
   34.1090   46.9480    2.1830 C   0  0  0  0  0
   32.9120   47.1520    2.2360 O   0  0  0  0  0
   34.5880   46.3080    1.1450 N   0  0  0  0  0
   33.6580   45.7500    0.1650 C   0  0  0  0  0
   35.9920   46.1150    0.8230 C   0  0  0  0  0
   35.9370   45.6390   -0.6180 C   0  0  0  0  0
   34.5490   45.1230   -0.9010 C   0  0  0  0  0
   32.7100   44.7040    0.7590 C   0  0  0  0  0
   33.4340   43.5300    1.1420 O   0  0  0  0  0
   36.2616   51.2286    5.2844 H   0  0  0  0  0
   37.3059   52.1021    4.1760 H   0  0  0  0  0
   36.6524   54.1677    3.3719 H   0  0  0  0  0
   35.5460   56.0584    3.8320 H   0  0  0  0  0
   34.5058   51.3356    3.2785 H   0  0  0  0  0
   37.1142   51.7168    1.8783 H   0  0  0  0  0
   35.5934   52.7775    1.8451 H   0  0  0  0  0
   35.8600   50.0062    0.6827 H   0  0  0  0  0
   35.9732   51.5579   -0.2489 H   0  0  0  0  0
   33.6715   52.0591    0.7338 H   0  0  0  0  0
   33.6094   50.3070    1.1178 H   0  0  0  0  0
   34.4118   51.1074   -1.6573 H   0  0  0  0  0
   32.6912   51.2800   -1.2054 H   0  0  0  0  0
   34.3586   48.7492   -0.9461 H   0  0  0  0  0
   32.6443   48.9213   -0.4958 H   0  0  0  0  0
   33.1360   49.0679   -2.2010 H   0  0  0  0  0
   33.9543   49.3050    3.4533 H   0  0  0  0  0
   36.0138   47.1485    3.1207 H   0  0  0  0  0
   33.4683   46.8669    4.6764 H   0  0  0  0  0
   34.6350   44.8123    4.0093 H   0  0  0  0  0
   36.1393   45.4107    4.7507 H   0  0  0  0  0
   34.7323   45.0306    5.7739 H   0  0  0  0  0
   36.2008   47.6722    5.7787 H   0  0  0  0  0
   34.7356   48.6842    5.7683 H   0  0  0  0  0
   34.7934   47.2113    6.7675 H   0  0  0  0  0
   33.0016   46.5272   -0.2265 H   0  0  0  0  0
   36.4890   45.4081    1.4873 H   0  0  0  0  0
   36.5875   47.0189    0.9515 H   0  0  0  0  0
   36.6674   44.8452   -0.7749 H   0  0  0  0  0
   36.1707   46.4642   -1.2908 H   0  0  0  0  0
   34.2199   45.3903   -1.9052 H   0  0  0  0  0
   34.5117   44.0343   -0.8637 H   0  0  0  0  0
   31.9675   44.4327    0.0085 H   0  0  0  0  0
   32.2265   45.1248    1.6406 H   0  0  0  0  0
   32.8252   42.8863    1.5116 H   0  0  0  0  0
  1  2  1  0  0  0
  1  6  1  0  0  0
  2  3  2  0  0  0
  2  4  1  0  0  0
  4  5  1  0  0  0
  6  7  1  0  0  0
  6  9  1  0  0  0
  7  8  2  0  0  0
  7 14  1  0  0  0
  9 10  1  0  0  0
 10 11  1  0  0  0
 11 12  1  0  0  0
 12 13  1  0  0  0
 14 15  1  0  0  0
 15 16  1  0  0  0
 15 19  1  0  0  0
 16 17  1  0  0  0
 16 18  1  0  0  0
 19 20  2  0  0  0
 19 21  1  0  0  0
 21 22  1  0  0  0
 21 23  1  0  0  0
 22 25  1  0  0  0
 22 26  1  0  0  0
 23 24  1  0  0  0
 24 25  1  0  0  0
 26 27  1  0  0  0
  1 28  1  0  0  0
  1 29  1  0  0  0
  4 30  1  0  0  0
  5 31  1  0  0  0
  6 32  1  0  0  0
  9 33  1  0  0  0
  9 34  1  0  0  0
 10 35  1  0  0  0
 10 36  1  0  0  0
 11 37  1  0  0  0
 11 38  1  0  0  0
 12 39  1  0  0  0
 12 40  1  0  0  0
 13 41  1  0  0  0
 13 42  1  0  0  0
 13 43  1  0  0  0
 14 44  1  0  0  0
 15 45  1  0  0  0
 16 46  1  0  0  0
 17 47  1  0  0  0
 17 48  1  0  0  0
 17 49  1  0  0  0
 18 50  1  0  0  0
 18 51  1  0  0  0
 18 52  1  0  0  0
 22 53  1  0  0  0
 23 54  1  0  0  0
 23 55  1  0  0  0
 24 56  1  0  0  0
 24 57  1  0  0  0
 25 58  1  0  0  0
 25 59  1  0  0  0
 26 60  1  0  0  0
 26 61  1  0  0  0
 27 62  1  0  0  0
M  END
$$$$
