5orj_ligand
  -I-interpret- 

 34 35  0  0  0  0  0  0  0  0999 V2000
   -5.4540  166.7130  399.6210 C   0  0  0  0  0
   -4.0080  166.5270  399.2980 C   0  0  0  0  0
    0.2070  166.0080  398.4790 C   0  0  0  0  0
   -1.2660  166.1940  398.7560 C   0  0  0  0  0
   -1.6930  166.9780  399.8150 C   0  0  0  0  0
   -3.0400  167.1450  400.0860 C   0  0  0  0  0
    0.5100  165.4240  397.1770 N   0  3  0  0  0
   -6.1190  165.9280  400.5750 C   0  0  0  0  0
   -7.4770  166.1350  400.7930 C   0  0  0  0  0
   -8.1710  167.1000  400.0880 C   0  0  0  0  0
   -7.5190  167.8740  399.1580 C   0  0  0  0  0
   -6.1690  167.6860  398.9230 C   0  0  0  0  0
   -5.3990  164.8630  401.3690 C   0  0  0  0  0
   -4.3880  165.3970  402.3450 C   0  0  0  0  0
   -4.7130  164.9530  397.2050 Cl  0  0  0  0  0
   -3.5670  165.7460  398.2340 C   0  0  0  0  0
   -2.2240  165.5780  397.9630 C   0  0  0  0  0
    0.5885  165.3199  399.2333 H   0  0  0  0  0
    0.6621  166.9983  398.4976 H   0  0  0  0  0
   -0.9548  167.4724  400.4464 H   0  0  0  0  0
   -3.3470  167.7677  400.9263 H   0  0  0  0  0
    1.5207  165.3341  397.0729 H   0  0  0  0  0
    0.0768  164.5030  397.1097 H   0  0  0  0  0
    0.1436  166.0280  396.4412 H   0  0  0  0  0
   -8.0014  165.5274  401.5305 H   0  0  0  0  0
   -9.2356  167.2473  400.2695 H   0  0  0  0  0
   -8.0666  168.6371  398.6049 H   0  0  0  0  0
   -5.6587  168.3046  398.1847 H   0  0  0  0  0
   -4.8586  164.2410  400.6554 H   0  0  0  0  0
   -6.1530  164.3295  401.9477 H   0  0  0  0  0
   -3.6279  165.9625  401.8059 H   0  0  0  0  0
   -4.8866  166.0485  403.0627 H   0  0  0  0  0
   -3.9190  164.5658  402.8716 H   0  0  0  0  0
   -1.9142  164.9582  397.1216 H   0  0  0  0  0
  2  1  1  0  0  0
  1  8  4  0  0  0
  1 12  4  0  0  0
  6  2  4  0  0  0
  2 16  4  0  0  0
  4  3  1  0  0  0
  3  7  1  0  0  0
  5  4  4  0  0  0
  4 17  4  0  0  0
  5  6  4  0  0  0
  8  9  4  0  0  0
  8 13  1  0  0  0
  9 10  4  0  0  0
 10 11  4  0  0  0
 11 12  4  0  0  0
 13 14  1  0  0  0
 16 15  1  0  0  0
 16 17  4  0  0  0
  3 18  1  0  0  0
  3 19  1  0  0  0
  5 20  1  0  0  0
  6 21  1  0  0  0
  7 22  1  0  0  0
  7 23  1  0  0  0
  7 24  1  0  0  0
  9 25  1  0  0  0
 10 26  1  0  0  0
 11 27  1  0  0  0
 12 28  1  0  0  0
 13 29  1  0  0  0
 13 30  1  0  0  0
 14 31  1  0  0  0
 14 32  1  0  0  0
 14 33  1  0  0  0
 17 34  1  0  0  0
M  END
$$$$
