5cf6_ligand
  -I-interpret- 

 55 59  0  0  0  0  0  0  0  0999 V2000
   -7.5530  -56.6650    0.9170 C   0  0  0  0  0
  -12.0490  -59.3760   -4.5190 C   0  0  0  0  0
  -10.0820  -62.0390    2.0480 C   0  0  0  0  0
  -10.5110  -55.7690   -2.0340 C   0  0  0  0  0
  -10.5500  -54.3120   -2.4140 C   0  0  0  0  0
   -9.0500  -56.2930    2.7350 C   0  0  0  0  0
  -11.5950  -62.5860    0.1110 C   0  0  0  0  0
   -9.3930  -57.2320    3.8330 C   0  0  0  0  0
   -9.8910  -58.6640   -1.0820 C   0  0  0  0  0
   -9.7470  -59.5100    0.0280 C   0  0  0  0  0
   -9.1640  -57.5090   -0.8480 N   0  0  0  0  0
  -10.6030  -58.8870   -2.2000 N   0  0  0  0  0
   -8.5390  -57.6380    0.3890 C   0  0  0  0  0
  -11.2800  -60.9510   -1.2090 C   0  0  0  0  0
  -10.4860  -60.7120   -0.0870 C   0  0  0  0  0
  -11.9730  -62.1430   -1.0670 N   0  0  0  0  0
   -8.8840  -58.8460    0.9450 C   0  0  0  0  0
  -11.3190  -60.0140   -2.2640 C   0  0  0  0  0
  -10.6910  -61.7890    0.7470 N   0  0  0  0  0
   -9.1240  -56.3290   -1.7330 C   0  0  0  0  0
  -12.0840  -60.2290   -3.3480 N   0  0  0  0  0
   -7.6720  -56.2410    2.1920 N   0  0  0  0  0
   -6.5460  -56.4790    0.2770 O   0  0  0  0  0
  -11.6800  -54.0750   -3.2550 O   0  0  0  0  0
  -11.1230  -56.5210   -3.0860 O   0  0  0  0  0
   -6.5790  -55.6420    3.0170 C   0  0  0  0  0
   -9.3170  -55.7650    4.0970 C   0  0  0  0  0
   -5.1560  -55.9830    2.7310 C   0  0  0  0  0
   -5.8170  -56.5040    3.9660 C   0  0  0  0  0
  -12.3244  -58.3602   -4.2354 H   0  0  0  0  0
  -11.0428  -59.3775   -4.9380 H   0  0  0  0  0
  -12.7536  -59.7510   -5.2613 H   0  0  0  0  0
  -10.8619  -62.1004    2.8070 H   0  0  0  0  0
   -9.5305  -62.9786    2.0150 H   0  0  0  0  0
   -9.4000  -61.2242    2.2911 H   0  0  0  0  0
  -11.0534  -55.8579   -1.0927 H   0  0  0  0  0
   -9.6363  -54.0488   -2.9469 H   0  0  0  0  0
  -10.6296  -53.7017   -1.5144 H   0  0  0  0  0
   -9.4508  -56.1064    1.7387 H   0  0  0  0  0
  -11.9727  -63.5128    0.5429 H   0  0  0  0  0
   -9.0193  -58.1617    4.2621 H   0  0  0  0  0
  -10.0740  -58.0630    4.0171 H   0  0  0  0  0
   -8.5565  -59.2268    1.9124 H   0  0  0  0  0
   -8.5524  -55.5511   -1.2268 H   0  0  0  0  0
   -8.6752  -56.6353   -2.6779 H   0  0  0  0  0
  -12.7176  -61.0284   -3.3464 H   0  0  0  0  0
  -11.7071  -53.1468   -3.4986 H   0  0  0  0  0
  -11.9945  -56.1624   -3.2690 H   0  0  0  0  0
   -7.1436  -54.7133    3.0997 H   0  0  0  0  0
   -9.9145  -54.9862    4.5708 H   0  0  0  0  0
   -8.8599  -55.0849    4.8158 H   0  0  0  0  0
   -4.2338  -55.4749    2.4491 H   0  0  0  0  0
   -4.5558  -56.3605    1.9031 H   0  0  0  0  0
   -5.9405  -57.4516    4.4903 H   0  0  0  0  0
   -5.6187  -56.5664    5.0360 H   0  0  0  0  0
 13  1  1  0  0  0
  1 22  1  0  0  0
  1 23  2  0  0  0
 21  2  1  0  0  0
 19  3  1  0  0  0
  4  5  1  0  0  0
 20  4  1  0  0  0
  4 25  1  0  0  0
  5 24  1  0  0  0
  6  8  1  0  0  0
 22  6  1  0  0  0
  6 27  1  0  0  0
 16  7  4  0  0  0
  7 19  4  0  0  0
 27  8  1  0  0  0
  9 10  4  0  0  0
  9 11  4  0  0  0
 12  9  4  0  0  0
 15 10  4  0  0  0
 10 17  4  0  0  0
 11 13  4  0  0  0
 11 20  1  0  0  0
 18 12  4  0  0  0
 17 13  4  0  0  0
 14 15  4  0  0  0
 14 16  4  0  0  0
 18 14  4  0  0  0
 15 19  4  0  0  0
 18 21  1  0  0  0
 22 26  1  0  0  0
 26 28  1  0  0  0
 26 29  1  0  0  0
 28 29  1  0  0  0
  2 30  1  0  0  0
  2 31  1  0  0  0
  2 32  1  0  0  0
  3 33  1  0  0  0
  3 34  1  0  0  0
  3 35  1  0  0  0
  4 36  1  0  0  0
  5 37  1  0  0  0
  5 38  1  0  0  0
  6 39  1  0  0  0
  7 40  1  0  0  0
  8 41  1  0  0  0
  8 42  1  0  0  0
 17 43  1  0  0  0
 20 44  1  0  0  0
 20 45  1  0  0  0
 21 46  1  0  0  0
 24 47  1  0  0  0
 25 48  1  0  0  0
 26 49  1  0  0  0
 27 50  1  0  0  0
 27 51  1  0  0  0
 28 52  1  0  0  0
 28 53  1  0  0  0
 29 54  1  0  0  0
 29 55  1  0  0  0
M  END
$$$$
