6ckr_ligand
  -I-interpret- 

 49 52  0  0  0  0  0  0  0  0999 V2000
   12.2080  -13.3290  -12.0920 C   0  0  0  0  0
   11.0630  -12.5790  -11.4500 N   0  0  0  0  0
   11.1070  -11.6960  -10.4380 C   0  0  0  0  0
    9.8020  -12.6930  -11.9290 N   0  0  0  0  0
    9.0680  -11.8900  -11.1480 C   0  0  0  0  0
    9.8490  -11.2720  -10.2270 C   0  0  0  0  0
    9.3990  -10.3770   -9.2650 C   0  0  0  0  0
    8.0260  -10.0760   -9.1310 C   0  0  0  0  0
    7.5290   -9.1520   -8.1640 C   0  0  0  0  0
   10.2720   -9.7080   -8.3860 C   0  0  0  0  0
    9.8590   -8.8270   -7.3700 C   0  0  0  0  0
    8.4640   -8.5210   -7.2670 C   0  0  0  0  0
    7.9780   -7.6200   -6.2610 C   0  0  0  0  0
    8.7240   -7.0230   -5.4810 O   0  0  0  0  0
    6.6360   -7.3470   -6.1510 N   0  0  0  0  0
    6.1240   -6.4620   -5.1330 C   0  0  0  0  0
    5.7300   -8.0030   -7.0130 C   0  0  0  0  0
    6.1340   -8.8680   -8.0050 C   0  0  0  0  0
    5.0880   -9.4290   -8.8450 C   0  0  0  0  0
    3.9820  -10.0900   -8.2780 C   0  0  0  0  0
    5.1880   -9.2970  -10.2720 C   0  0  0  0  0
    4.1720   -9.8310  -11.1190 C   0  0  0  0  0
    3.0430  -10.5020  -10.5740 C   0  0  0  0  0
    2.9290  -10.6230   -9.1520 C   0  0  0  0  0
    1.8180  -11.2870   -8.7260 N   0  0  0  0  0
    1.5110  -11.4720   -7.1450 S   0  0  0  0  0
    0.3640  -12.4680   -7.1050 O   0  0  0  0  0
    2.6760  -12.0220   -6.4280 O   0  0  0  0  0
    1.0350   -9.8710   -6.5070 C   0  0  0  0  0
   12.9195  -12.6160  -12.5085 H   0  0  0  0  0
   12.7047  -13.9434  -11.3410 H   0  0  0  0  0
   11.8224  -13.9664  -12.8877 H   0  0  0  0  0
   11.9960  -11.3824   -9.8909 H   0  0  0  0  0
    7.9907  -11.7519  -11.2398 H   0  0  0  0  0
    7.3160  -10.5702   -9.7941 H   0  0  0  0  0
   11.3414   -9.8849   -8.5006 H   0  0  0  0  0
   10.5809   -8.3895   -6.6804 H   0  0  0  0  0
    6.3777   -6.8567   -4.1491 H   0  0  0  0  0
    6.5683   -5.4742   -5.2552 H   0  0  0  0  0
    5.0406   -6.3889   -5.2283 H   0  0  0  0  0
    4.6635   -7.8162   -6.8874 H   0  0  0  0  0
    3.9076  -10.2055   -7.1967 H   0  0  0  0  0
    6.0452   -8.7858  -10.7101 H   0  0  0  0  0
    4.2624   -9.7231  -12.1999 H   0  0  0  0  0
    2.2767  -10.9176  -11.2283 H   0  0  0  0  0
    1.1698  -11.6735   -9.4122 H   0  0  0  0  0
    0.2167   -9.4713   -7.1059 H   0  0  0  0  0
    0.7116   -9.9755   -5.4713 H   0  0  0  0  0
    1.8875   -9.1936   -6.5561 H   0  0  0  0  0
  1  2  1  0  0  0
  2  3  4  0  0  0
  2  4  4  0  0  0
  3  6  4  0  0  0
  4  5  4  0  0  0
  5  6  4  0  0  0
  6  7  1  0  0  0
  7  8  4  0  0  0
  7 10  4  0  0  0
  8  9  4  0  0  0
  9 12  4  0  0  0
  9 18  1  0  0  0
 10 11  4  0  0  0
 11 12  4  0  0  0
 12 13  1  0  0  0
 13 14  2  0  0  0
 13 15  1  0  0  0
 15 16  1  0  0  0
 15 17  1  0  0  0
 17 18  2  0  0  0
 18 19  1  0  0  0
 19 20  4  0  0  0
 19 21  4  0  0  0
 20 24  4  0  0  0
 21 22  4  0  0  0
 22 23  4  0  0  0
 23 24  4  0  0  0
 24 25  1  0  0  0
 25 26  1  0  0  0
 26 27  2  0  0  0
 26 28  2  0  0  0
 26 29  1  0  0  0
  1 30  1  0  0  0
  1 31  1  0  0  0
  1 32  1  0  0  0
  3 33  1  0  0  0
  5 34  1  0  0  0
  8 35  1  0  0  0
 10 36  1  0  0  0
 11 37  1  0  0  0
 16 38  1  0  0  0
 16 39  1  0  0  0
 16 40  1  0  0  0
 17 41  1  0  0  0
 20 42  1  0  0  0
 21 43  1  0  0  0
 22 44  1  0  0  0
 23 45  1  0  0  0
 25 46  1  0  0  0
 29 47  1  0  0  0
 29 48  1  0  0  0
 29 49  1  0  0  0
M  END
$$$$
