2jal_ligand
  -I-interpret- 

 26 26  0  0  0  0  0  0  0  0999 V2000
   -1.3520    9.2260   10.5300 O   0  0  0  0  0
   -2.0250   10.4670   10.2590 C   0  0  0  0  0
   -2.4890   10.5100    8.7790 C   0  0  0  0  0
   -3.4260    9.3820    8.3660 C   0  0  0  0  0
   -2.8050    8.1110    8.5620 O   0  0  0  0  0
   -1.2460   10.6240    7.8600 C   0  0  0  0  0
   -1.6070   10.7580    6.4860 O   0  0  0  0  0
   -0.4860   11.8970    8.2990 C   0  0  0  0  0
    0.6820   12.1540    7.5180 O   0  0  0  0  0
    0.0140   11.8530    9.7370 C   0  0  0  0  0
    0.6110   13.1090   10.0230 O   0  0  0  0  0
   -1.1110   11.6290   10.6990 C   0  0  0  0  0
   -1.9116    8.4942   10.2601 H   0  0  0  0  0
   -2.9433   10.5662   10.8378 H   0  0  0  0  0
   -3.1103   11.3982    8.6641 H   0  0  0  0  0
   -3.6693    9.4956    7.3096 H   0  0  0  0  0
   -4.3271    9.4314    8.9773 H   0  0  0  0  0
   -3.4111    7.4156    8.2962 H   0  0  0  0  0
   -0.6428    9.7208    7.9522 H   0  0  0  0  0
   -2.0800    9.9722    6.2025 H   0  0  0  0  0
   -1.2409   12.6724    8.1682 H   0  0  0  0  0
    0.4419   12.1958    6.5895 H   0  0  0  0  0
    0.7227   11.0318    9.8446 H   0  0  0  0  0
    0.9361   13.1093   10.9263 H   0  0  0  0  0
   -0.6842   11.3780   11.6700 H   0  0  0  0  0
   -1.7110   12.5381   10.7393 H   0  0  0  0  0
  1  2  1  0  0  0
  2  3  1  0  0  0
  2 12  1  0  0  0
  3  4  1  0  0  0
  3  6  1  0  0  0
  4  5  1  0  0  0
  6  7  1  0  0  0
  6  8  1  0  0  0
  8  9  1  0  0  0
  8 10  1  0  0  0
 10 11  1  0  0  0
 10 12  1  0  0  0
  1 13  1  0  0  0
  2 14  1  0  0  0
  3 15  1  0  0  0
  4 16  1  0  0  0
  4 17  1  0  0  0
  5 18  1  0  0  0
  6 19  1  0  0  0
  7 20  1  0  0  0
  8 21  1  0  0  0
  9 22  1  0  0  0
 10 23  1  0  0  0
 11 24  1  0  0  0
 12 25  1  0  0  0
 12 26  1  0  0  0
M  END
$$$$
