4lmn_ligand
  -I-interpret- 

 52 55  0  0  0  0  0  0  0  0999 V2000
   31.0770   29.6450  -15.3670 O   0  0  0  0  0
   31.5660   30.1470  -14.3750 C   0  0  0  0  0
   33.0200   30.5610  -14.3070 C   0  0  0  0  0
   33.3750   31.5310  -13.3630 C   0  0  0  0  0
   34.6890   31.9550  -13.1910 C   0  0  0  0  0
   35.6640   31.4300  -14.0080 C   0  0  0  0  0
   36.9300   31.8790  -13.9030 F   0  0  0  0  0
   35.3220   30.5050  -14.9930 C   0  0  0  0  0
   36.3240   30.0440  -15.7480 F   0  0  0  0  0
   34.0150   30.0080  -15.1240 C   0  0  0  0  0
   33.6740   29.0820  -16.0710 N   0  0  0  0  0
   34.3230   27.9110  -16.4230 C   0  0  0  0  0
   35.4650   27.4330  -15.7580 C   0  0  0  0  0
   36.1250   26.3000  -16.1910 C   0  0  0  0  0
   35.6280   25.5730  -17.2810 C   0  0  0  0  0
   36.5990   23.7960  -17.8720 I   0  0  0  0  0
   33.8340   27.1870  -17.5190 C   0  0  0  0  0
   32.7190   27.5980  -18.1550 F   0  0  0  0  0
   34.4720   26.0160  -17.9340 C   0  0  0  0  0
   30.7180   30.3710  -13.2740 N   0  0  0  0  0
   30.9470   29.9010  -11.8810 C   0  0  0  0  0
   29.4700   29.6760  -11.6830 C   0  0  0  0  0
   29.3090   29.9030  -13.1670 C   0  0  0  0  0
   29.2240   28.3190  -11.3270 O   0  0  0  0  0
   28.7380   30.7080  -10.7950 C   0  0  0  0  0
   29.0730   32.2030  -11.0660 C   0  0  0  0  0
   28.2980   33.1320  -10.1330 C   0  0  0  0  0
   28.3950   32.7340   -8.6500 C   0  0  0  0  0
   28.1470   31.2380   -8.4060 C   0  0  0  0  0
   28.9000   30.4270   -9.3550 N   0  3  0  0  0
   32.5950   31.9697  -12.7407 H   0  0  0  0  0
   34.9410   32.6881  -12.4247 H   0  0  0  0  0
   32.8203   29.2827  -16.5918 H   0  0  0  0  0
   35.8370   27.9669  -14.8835 H   0  0  0  0  0
   37.0326   25.9711  -15.6849 H   0  0  0  0  0
   34.0680   25.4448  -18.7698 H   0  0  0  0  0
   31.4885   30.5401  -11.1835 H   0  0  0  0  0
   31.6415   29.0804  -11.7012 H   0  0  0  0  0
   28.9668   29.0844  -13.8002 H   0  0  0  0  0
   28.5032   30.5428  -13.5268 H   0  0  0  0  0
   28.2811   28.1876  -11.2036 H   0  0  0  0  0
   27.6975   30.5739  -11.0906 H   0  0  0  0  0
   28.7948   32.4371  -12.0936 H   0  0  0  0  0
   30.1388   32.3534  -10.8939 H   0  0  0  0  0
   27.2472   33.0798  -10.4179 H   0  0  0  0  0
   28.7272   34.1289  -10.2331 H   0  0  0  0  0
   27.6278   33.2880   -8.1090 H   0  0  0  0  0
   29.4069   32.9597   -8.3135 H   0  0  0  0  0
   27.0842   31.0325   -8.5337 H   0  0  0  0  0
   28.4708   30.9882   -7.3956 H   0  0  0  0  0
   29.8814   30.6175   -9.1524 H   0  0  0  0  0
   28.5574   29.4749   -9.2265 H   0  0  0  0  0
  1  2  2  0  0  0
  2  3  1  0  0  0
  2 20  1  0  0  0
  3  4  4  0  0  0
  3 10  4  0  0  0
  4  5  4  0  0  0
  5  6  4  0  0  0
  6  7  1  0  0  0
  6  8  4  0  0  0
  8  9  1  0  0  0
  8 10  4  0  0  0
 10 11  1  0  0  0
 11 12  1  0  0  0
 12 13  4  0  0  0
 12 17  4  0  0  0
 13 14  4  0  0  0
 14 15  4  0  0  0
 15 16  1  0  0  0
 15 19  4  0  0  0
 17 18  1  0  0  0
 17 19  4  0  0  0
 20 21  1  0  0  0
 20 23  1  0  0  0
 21 22  1  0  0  0
 22 23  1  0  0  0
 22 24  1  0  0  0
 22 25  1  0  0  0
 25 26  1  0  0  0
 25 30  1  0  0  0
 26 27  1  0  0  0
 27 28  1  0  0  0
 28 29  1  0  0  0
 29 30  1  0  0  0
  4 31  1  0  0  0
  5 32  1  0  0  0
 11 33  1  0  0  0
 13 34  1  0  0  0
 14 35  1  0  0  0
 19 36  1  0  0  0
 21 37  1  0  0  0
 21 38  1  0  0  0
 23 39  1  0  0  0
 23 40  1  0  0  0
 24 41  1  0  0  0
 25 42  1  0  0  0
 26 43  1  0  0  0
 26 44  1  0  0  0
 27 45  1  0  0  0
 27 46  1  0  0  0
 28 47  1  0  0  0
 28 48  1  0  0  0
 29 49  1  0  0  0
 29 50  1  0  0  0
 30 51  1  0  0  0
 30 52  1  0  0  0
M  END
$$$$
