5sz4_ligand
  -I-interpret- 

 27 28  0  0  0  0  0  0  0  0999 V2000
   17.9890    5.7380   15.5320 C   0  0  0  0  0
   17.3580    4.4940   16.1160 C   0  0  0  0  0
   16.0480    4.4340   16.2530 C   0  0  0  0  0
   15.3670    2.9370   16.9760 S   0  0  0  0  0
   15.7530    2.9280   18.3780 O   0  0  0  0  0
   13.8870    2.9640   16.8970 O   0  0  0  0  0
   16.0190    1.5840   16.2080 N   0  0  0  0  0
   15.1360    5.5830   15.8470 C   0  0  0  0  0
   15.7020    6.6560   15.3390 C   0  0  0  0  0
   17.2070    6.7220   15.1640 C   0  0  0  0  0
   17.8340    7.9800   14.6110 C   0  0  0  0  0
   18.9440    7.9420   13.9100 C   0  0  0  0  0
   19.5310    9.2530   13.4000 C   0  0  0  0  0
   18.9350   10.3940   13.6700 C   0  0  0  0  0
   17.6560   10.4230   14.4920 C   0  0  0  0  0
   17.1440    9.2950   14.9340 C   0  0  0  0  0
   19.0705    5.8140   15.4198 H   0  0  0  0  0
   17.9813    3.6535   16.4213 H   0  0  0  0  0
   16.5846    0.9203   16.7372 H   0  0  0  0  0
   15.8477    1.4296   15.2144 H   0  0  0  0  0
   14.0551    5.5190   15.9725 H   0  0  0  0  0
   15.0850    7.5039   15.0416 H   0  0  0  0  0
   19.4353    6.9925   13.6973 H   0  0  0  0  0
   20.4474    9.2449   12.8098 H   0  0  0  0  0
   19.3616   11.3269   13.3013 H   0  0  0  0  0
   17.1671   11.3717   14.7133 H   0  0  0  0  0
   16.2303    9.3033   15.5284 H   0  0  0  0  0
  1  2  4  0  0  0
  1 10  4  0  0  0
  2  3  4  0  0  0
  3  4  1  0  0  0
  3  8  4  0  0  0
  4  5  2  0  0  0
  4  6  2  0  0  0
  4  7  1  0  0  0
  8  9  4  0  0  0
  9 10  4  0  0  0
 10 11  1  0  0  0
 11 12  4  0  0  0
 11 16  4  0  0  0
 12 13  4  0  0  0
 13 14  4  0  0  0
 14 15  4  0  0  0
 15 16  4  0  0  0
  1 17  1  0  0  0
  2 18  1  0  0  0
  7 19  1  0  0  0
  7 20  1  0  0  0
  8 21  1  0  0  0
  9 22  1  0  0  0
 12 23  1  0  0  0
 13 24  1  0  0  0
 14 25  1  0  0  0
 15 26  1  0  0  0
 16 27  1  0  0  0
M  END
$$$$
