6c5q_ligand
  -I-interpret- 

 80 83  0  0  0  0  0  0  0  0999 V2000
   19.4980  -25.6530   17.4270 C   0  0  0  0  0
   25.0780  -24.1820   16.7660 C   0  0  0  0  0
   24.9260  -22.0040   17.7480 C   0  0  0  0  0
   26.8980  -22.6020   16.4830 C   0  0  0  0  0
   28.9630  -22.9610   15.0350 C   0  0  0  0  0
   29.3090  -24.3740   15.5350 C   0  0  0  0  0
   21.6980  -28.5060   21.9500 C   0  0  0  0  0
   22.4620  -29.2860   25.2160 C   0  0  0  0  0
   22.1820  -27.7780   20.6440 C   0  0  0  0  0
   23.5430  -27.7350   20.3200 C   0  0  0  0  0
   23.9750  -27.0960   19.1490 C   0  0  0  0  0
   23.0180  -26.5070   18.3020 C   0  0  0  0  0
   21.6810  -26.5580   18.6140 C   0  0  0  0  0
   21.2400  -27.1980   19.7920 C   0  0  0  0  0
   22.0080  -25.4610   16.6710 C   0  0  0  0  0
   21.0120  -25.8830   17.5650 C   0  0  0  0  0
   21.7630  -24.6840   15.3760 C   0  0  0  0  0
   24.4990  -25.6020   16.4760 C   0  0  0  0  0
   24.3730  -23.2550   17.5150 C   0  0  0  0  0
   26.1820  -21.6870   17.2340 C   0  0  0  0  0
   26.3320  -23.8580   16.2570 C   0  0  0  0  0
   22.1680  -30.0480   23.9290 C   0  0  0  0  0
   23.1270  -28.0700   25.2040 C   0  0  0  0  0
   23.3750  -27.4100   26.4070 C   0  0  0  0  0
   22.9570  -27.9700   27.6100 C   0  0  0  0  0
   22.2950  -29.1860   27.6160 C   0  0  0  0  0
   22.0470  -29.8430   26.4230 C   0  0  0  0  0
   22.8540  -31.4150   24.0000 C   0  0  0  0  0
   23.2270  -27.2460   28.9490 C   0  0  0  0  0
   24.7490  -27.3220   29.2940 C   0  0  0  0  0
   22.4190  -27.9150   30.0640 C   0  0  0  0  0
   22.8040  -25.7840   28.8260 C   0  0  0  0  0
   30.2940  -22.2100   14.8290 C   0  0  0  0  0
   28.2590  -23.0250   13.6550 C   0  0  0  0  0
   23.1920  -25.8430   17.1360 N   0  0  0  0  0
   22.6410  -29.3520   22.7320 N   0  0  0  0  0
   28.1930  -22.2010   15.9890 O   0  0  0  0  0
   29.3140  -24.6240   16.7690 O   0  0  0  0  0
   29.5950  -25.2890   14.7130 O   0  0  0  0  0
   20.5700  -28.3990   22.3070 O   0  0  0  0  0
   18.9873  -26.6153   17.3920 H   0  0  0  0  0
   19.1393  -25.0808   18.2825 H   0  0  0  0  0
   19.2979  -25.1004   16.5090 H   0  0  0  0  0
   24.3768  -21.2674   18.3344 H   0  0  0  0  0
   24.2721  -28.2015   20.9825 H   0  0  0  0  0
   25.0351  -27.0561   18.8988 H   0  0  0  0  0
   20.1779  -27.2390   20.0336 H   0  0  0  0  0
   21.1242  -25.2715   14.7166 H   0  0  0  0  0
   21.2748  -23.7376   15.6085 H   0  0  0  0  0
   22.7161  -24.4913   14.8836 H   0  0  0  0  0
   25.2066  -26.3342   16.8649 H   0  0  0  0  0
   24.3470  -25.6845   15.3998 H   0  0  0  0  0
   23.3919  -23.5059   17.9182 H   0  0  0  0  0
   26.6072  -20.7020   17.4268 H   0  0  0  0  0
   26.8809  -24.5965   15.6727 H   0  0  0  0  0
   21.0850  -30.1410   23.8474 H   0  0  0  0  0
   23.4539  -27.6326   24.2606 H   0  0  0  0  0
   23.8974  -26.4534   26.4049 H   0  0  0  0  0
   21.9695  -29.6255   28.5589 H   0  0  0  0  0
   21.5250  -30.7998   26.4284 H   0  0  0  0  0
   23.9293  -31.2752   24.1107 H   0  0  0  0  0
   22.4685  -31.9696   24.8555 H   0  0  0  0  0
   22.6509  -31.9700   23.0842 H   0  0  0  0  0
   25.0487  -28.3663   29.3813 H   0  0  0  0  0
   25.3242  -26.8426   28.5019 H   0  0  0  0  0
   24.9321  -26.8099   30.2386 H   0  0  0  0  0
   21.3568  -27.8562   29.8266 H   0  0  0  0  0
   22.7163  -28.9602   30.1494 H   0  0  0  0  0
   22.6107  -27.4032   31.0071 H   0  0  0  0  0
   23.3766  -25.3071   28.0305 H   0  0  0  0  0
   21.7409  -25.7332   28.5908 H   0  0  0  0  0
   22.9936  -25.2717   29.7692 H   0  0  0  0  0
   30.9072  -22.7510   14.1083 H   0  0  0  0  0
   30.0896  -21.2072   14.4538 H   0  0  0  0  0
   30.8227  -22.1428   15.7798 H   0  0  0  0  0
   28.0783  -22.0127   13.2934 H   0  0  0  0  0
   28.8959  -23.5565   12.9479 H   0  0  0  0  0
   27.3096  -23.5506   13.7569 H   0  0  0  0  0
   23.6122  -29.4460   22.4347 H   0  0  0  0  0
   29.5468  -24.9414   13.8194 H   0  0  0  0  0
 16  1  1  0  0  0
 18  2  1  0  0  0
  2 19  4  0  0  0
  2 21  4  0  0  0
 19  3  4  0  0  0
  3 20  4  0  0  0
  4 20  4  0  0  0
 21  4  4  0  0  0
  4 37  1  0  0  0
  5  6  1  0  0  0
  5 33  1  0  0  0
  5 34  1  0  0  0
 37  5  1  0  0  0
  6 38  2  0  0  0
  6 39  1  0  0  0
  7  9  1  0  0  0
 36  7  1  0  0  0
  7 40  2  0  0  0
 22  8  1  0  0  0
  8 23  4  0  0  0
  8 27  4  0  0  0
  9 10  4  0  0  0
  9 14  4  0  0  0
 10 11  4  0  0  0
 11 12  4  0  0  0
 13 12  4  0  0  0
 12 35  4  0  0  0
 14 13  4  0  0  0
 13 16  4  0  0  0
 16 15  4  0  0  0
 15 17  1  0  0  0
 15 35  4  0  0  0
 35 18  1  0  0  0
 22 28  1  0  0  0
 22 36  1  0  0  0
 23 24  4  0  0  0
 24 25  4  0  0  0
 25 26  4  0  0  0
 25 29  1  0  0  0
 26 27  4  0  0  0
 29 30  1  0  0  0
 29 31  1  0  0  0
 29 32  1  0  0  0
  1 41  1  0  0  0
  1 42  1  0  0  0
  1 43  1  0  0  0
  3 44  1  0  0  0
 10 45  1  0  0  0
 11 46  1  0  0  0
 14 47  1  0  0  0
 17 48  1  0  0  0
 17 49  1  0  0  0
 17 50  1  0  0  0
 18 51  1  0  0  0
 18 52  1  0  0  0
 19 53  1  0  0  0
 20 54  1  0  0  0
 21 55  1  0  0  0
 22 56  1  0  0  0
 23 57  1  0  0  0
 24 58  1  0  0  0
 26 59  1  0  0  0
 27 60  1  0  0  0
 28 61  1  0  0  0
 28 62  1  0  0  0
 28 63  1  0  0  0
 30 64  1  0  0  0
 30 65  1  0  0  0
 30 66  1  0  0  0
 31 67  1  0  0  0
 31 68  1  0  0  0
 31 69  1  0  0  0
 32 70  1  0  0  0
 32 71  1  0  0  0
 32 72  1  0  0  0
 33 73  1  0  0  0
 33 74  1  0  0  0
 33 75  1  0  0  0
 34 76  1  0  0  0
 34 77  1  0  0  0
 34 78  1  0  0  0
 36 79  1  0  0  0
 39 80  1  0  0  0
M  END
$$$$
