1zaf_ligand
  -I-interpret- 

 28 30  0  0  0  0  0  0  0  0999 V2000
   33.4620   36.3160   35.9540 C   0  0  0  0  0
   32.8160   35.6350   37.0420 C   0  0  0  0  0
   31.5420   36.1300   37.4560 C   0  0  0  0  0
   30.9330   37.2250   36.8510 C   0  0  0  0  0
   31.5830   37.9080   35.7580 C   0  0  0  0  0
   32.8600   37.4450   35.3080 C   0  0  0  0  0
   30.6610   35.7020   38.4680 C   0  0  0  0  0
   29.4350   36.5800   38.4850 C   0  0  0  0  0
   29.6390   37.5550   37.4390 C   0  0  0  0  0
   28.2420   36.4590   39.4200 C   0  0  0  0  0
   26.9150   36.7450   38.9340 C   0  0  0  0  0
   25.7710   36.6530   39.7820 C   0  0  0  0  0
   25.9560   36.2660   41.1380 C   0  0  0  0  0
   27.2570   35.9680   41.6570 C   0  0  0  0  0
   28.4020   36.0650   40.7970 C   0  0  0  0  0
   24.8490   36.1830   41.9420 O   0  0  0  0  0
   30.8640   34.7500   39.2200 O   0  0  0  0  0
   34.6920   35.8860   35.5140 O   0  0  0  0  0
   28.5450   38.9880   36.8620 Br  0  0  0  0  0
   33.2786   34.7773   37.5304 H   0  0  0  0  0
   31.1073   38.7653   35.2816 H   0  0  0  0  0
   33.3688   37.9449   34.4838 H   0  0  0  0  0
   26.7823   37.0388   37.8928 H   0  0  0  0  0
   24.7752   36.8749   39.3982 H   0  0  0  0  0
   27.3769   35.6694   42.6984 H   0  0  0  0  0
   29.3950   35.8401   41.1863 H   0  0  0  0  0
   25.1151   35.9137   42.8242 H   0  0  0  0  0
   34.9833   36.4423   34.7879 H   0  0  0  0  0
  1  2  4  0  0  0
  1  6  4  0  0  0
  1 18  1  0  0  0
  2  3  4  0  0  0
  3  4  4  0  0  0
  3  7  1  0  0  0
  4  5  4  0  0  0
  4  9  1  0  0  0
  5  6  4  0  0  0
  7  8  1  0  0  0
  7 17  2  0  0  0
  8  9  2  0  0  0
  8 10  1  0  0  0
  9 19  1  0  0  0
 10 11  4  0  0  0
 10 15  4  0  0  0
 11 12  4  0  0  0
 12 13  4  0  0  0
 13 14  4  0  0  0
 13 16  1  0  0  0
 14 15  4  0  0  0
  2 20  1  0  0  0
  5 21  1  0  0  0
  6 22  1  0  0  0
 11 23  1  0  0  0
 12 24  1  0  0  0
 14 25  1  0  0  0
 15 26  1  0  0  0
 16 27  1  0  0  0
 18 28  1  0  0  0
M  END
$$$$
