5jv0_ligand
  -I-interpret- 

 49 52  0  0  0  0  0  0  0  0999 V2000
    3.4450   68.4790   29.8440 C   0  0  0  0  0
    4.7060   68.6530   30.4150 C   0  0  0  0  0
    5.5460   67.7120   30.2850 F   0  0  0  0  0
    5.0570   69.8290   31.1030 C   0  0  0  0  0
    4.1220   70.8510   31.2270 C   0  0  0  0  0
    2.8570   70.6750   30.6630 C   0  0  0  0  0
    2.5100   69.5000   29.9600 C   0  0  0  0  0
    1.2630   69.3420   29.3880 C   0  0  0  0  0
    1.2610   69.9920   27.9580 C   0  0  0  0  0
   -0.5050   70.0990   27.2670 P   0  0  0  0  0
   -1.4000   70.4230   28.6420 O   0  0  0  0  0
   -0.6030   71.2050   26.2830 O   0  0  0  0  0
   -0.8470   68.7440   26.7590 O   0  0  0  0  0
    1.8990   71.3450   27.8960 N   0  0  0  0  0
    3.2120   71.5240   27.5840 C   0  0  0  0  0
    3.9830   70.4330   27.3400 N   0  0  0  0  0
    5.3410   70.5730   27.0360 C   0  0  0  0  0
    5.8530   71.8700   26.9900 N   0  0  0  0  0
    5.0440   72.9270   27.2370 C   0  0  0  0  0
    5.4210   74.5880   27.2310 S   0  0  0  0  0
    3.7200   72.7910   27.5470 C   0  0  0  0  0
    3.1080   74.0070   27.7630 C   0  0  0  0  0
    3.8920   75.1220   27.6520 C   0  0  0  0  0
    3.5490   76.4460   27.7660 C   0  0  0  0  0
    2.2060   76.8800   27.7340 C   0  0  0  0  0
    1.8910   78.2350   27.7950 C   0  0  0  0  0
    2.8880   79.2050   27.8880 C   0  0  0  0  0
    2.5430   80.5620   27.9530 C   0  0  0  0  0
    4.2160   78.8010   27.9020 C   0  0  0  0  0
    4.5440   77.4480   27.8320 C   0  0  0  0  0
    3.1977   67.5580   29.3161 H   0  0  0  0  0
    6.0520   69.9380   31.5346 H   0  0  0  0  0
    4.3719   71.7716   31.7543 H   0  0  0  0  0
    2.1157   71.4672   30.7682 H   0  0  0  0  0
    0.5119   69.8282   30.0106 H   0  0  0  0  0
    1.0312   68.2801   29.3062 H   0  0  0  0  0
    1.8709   69.3288   27.3447 H   0  0  0  0  0
   -1.3161   69.6907   29.2570 H   0  0  0  0  0
   -0.7525   68.1042   27.4685 H   0  0  0  0  0
    1.3270   72.1656   28.0955 H   0  0  0  0  0
    5.9725   69.7057   26.8432 H   0  0  0  0  0
    2.0488   74.0766   28.0107 H   0  0  0  0  0
    1.4049   76.1445   27.6606 H   0  0  0  0  0
    0.8457   78.5429   27.7696 H   0  0  0  0  0
    1.9893   80.8382   27.0557 H   0  0  0  0  0
    1.9228   80.7362   28.8323 H   0  0  0  0  0
    3.4496   81.1632   28.0214 H   0  0  0  0  0
    5.0079   79.5471   27.9682 H   0  0  0  0  0
    5.5940   77.1553   27.8281 H   0  0  0  0  0
  1  2  4  0  0  0
  1  7  4  0  0  0
  2  3  1  0  0  0
  2  4  4  0  0  0
  4  5  4  0  0  0
  5  6  4  0  0  0
  6  7  4  0  0  0
  7  8  1  0  0  0
  8  9  1  0  0  0
  9 10  1  0  0  0
  9 14  1  0  0  0
 10 11  1  0  0  0
 10 12  2  0  0  0
 10 13  1  0  0  0
 14 15  1  0  0  0
 15 16  4  0  0  0
 15 21  4  0  0  0
 16 17  4  0  0  0
 17 18  4  0  0  0
 18 19  4  0  0  0
 19 20  4  0  0  0
 19 21  4  0  0  0
 20 23  4  0  0  0
 21 22  4  0  0  0
 22 23  4  0  0  0
 23 24  1  0  0  0
 24 25  4  0  0  0
 24 30  4  0  0  0
 25 26  4  0  0  0
 26 27  4  0  0  0
 27 28  1  0  0  0
 27 29  4  0  0  0
 29 30  4  0  0  0
  1 31  1  0  0  0
  4 32  1  0  0  0
  5 33  1  0  0  0
  6 34  1  0  0  0
  8 35  1  0  0  0
  8 36  1  0  0  0
  9 37  1  0  0  0
 11 38  1  0  0  0
 13 39  1  0  0  0
 14 40  1  0  0  0
 17 41  1  0  0  0
 22 42  1  0  0  0
 25 43  1  0  0  0
 26 44  1  0  0  0
 28 45  1  0  0  0
 28 46  1  0  0  0
 28 47  1  0  0  0
 29 48  1  0  0  0
 30 49  1  0  0  0
M  END
$$$$
