### 
### Created by X-TOOL on Mon Sep 10 21:13:31 2018
### 

@<TRIPOS>MOLECULE
5jv0_ligand
   47    50     1     0     0
SMALL
GAST_HUCK


@<TRIPOS>ATOM
      1 CAY         3.4450   68.4790   29.8440 C.ar      1 YL5        -0.0269
      2 CAZ         4.7060   68.6530   30.4150 C.ar      1 YL5         0.1258
      3 FBD         5.5460   67.7120   30.2850 F         1 YL5        -0.1853
      4 CBA         5.0570   69.8290   31.1030 C.ar      1 YL5        -0.0352
      5 CBB         4.1220   70.8510   31.2270 C.ar      1 YL5        -0.0704
      6 CBC         2.8570   70.6750   30.6630 C.ar      1 YL5        -0.0642
      7 CAX         2.5100   69.5000   29.9600 C.ar      1 YL5        -0.0413
      8 CAV         1.2630   69.3420   29.3880 C.3       1 YL5         0.0193
      9 CAC         1.2610   69.9920   27.9580 C.3       1 YL5         0.1217
     10 PAA        -0.5050   70.0990   27.2670 P.3       1 YL5         0.0872
     11 OAD        -1.4000   70.4230   28.6420 O.co2     1 YL5        -0.5606
     12 OAU        -0.6030   71.2050   26.2830 O.co2     1 YL5        -0.5606
     13 OAE        -0.8470   68.7440   26.7590 O.co2     1 YL5        -0.5606
     14 NAB         1.8990   71.3450   27.8960 N.pl3     1 YL5        -0.2805
     15 C4          3.2120   71.5240   27.5840 C.ar      1 YL5         0.1295
     16 N3          3.9830   70.4330   27.3400 N.ar      1 YL5        -0.2639
     17 C2          5.3410   70.5730   27.0360 C.ar      1 YL5         0.0586
     18 N1          5.8530   71.8700   26.9900 N.ar      1 YL5        -0.2773
     19 C6          5.0440   72.9270   27.2370 C.ar      1 YL5         0.1085
     20 SAN         5.4210   74.5880   27.2310 S.3       1 YL5        -0.0140
     21 C5          3.7200   72.7910   27.5470 C.ar      1 YL5         0.0469
     22 CAL         3.1080   74.0070   27.7630 C.2       1 YL5        -0.0456
     23 CAM         3.8920   75.1220   27.6520 C.2       1 YL5         0.0373
     24 CAO         3.5490   76.4460   27.7660 C.ar      1 YL5        -0.0128
     25 CAP         2.2060   76.8800   27.7340 C.ar      1 YL5        -0.0592
     26 CAQ         1.8910   78.2350   27.7950 C.ar      1 YL5        -0.0593
     27 CAR         2.8880   79.2050   27.8880 C.ar      1 YL5        -0.0451
     28 CAW         2.5430   80.5620   27.9530 C.3       1 YL5        -0.0306
     29 CAS         4.2160   78.8010   27.9020 C.ar      1 YL5        -0.0593
     30 CAT         4.5440   77.4480   27.8320 C.ar      1 YL5        -0.0592
     31 H1          3.1990   67.5631   29.3190 H         1 YL5         0.0542
     32 H2          6.0465   69.9374   31.5322 H         1 YL5         0.0546
     33 H3          4.3706   71.7666   31.7514 H         1 YL5         0.0589
     34 H4          2.1198   71.4628   30.7676 H         1 YL5         0.0523
     35 H5          0.5057   69.8339   30.0161 H         1 YL5         0.0463
     36 H6          1.0302   68.2702   29.3046 H         1 YL5         0.0463
     37 H7          1.8420   69.3268   27.3023 H         1 YL5         0.0781
     38 H8          1.3214   72.1736   28.0975 H         1 YL5         0.1885
     39 H9          5.9690   69.7105   26.8443 H         1 YL5         0.1012
     40 H10         2.0498   74.0766   28.0104 H         1 YL5         0.0448
     41 H11         1.4093   76.1486   27.6610 H         1 YL5         0.0607
     42 H12         0.8515   78.5412   27.7697 H         1 YL5         0.0561
     43 H13         3.4572   81.1698   28.0221 H         1 YL5         0.0395
     44 H14         1.9170   80.7391   28.8400 H         1 YL5         0.0395
     45 H15         1.9841   80.8420   27.0479 H         1 YL5         0.0395
     46 H16         5.0036   79.5430   27.9678 H         1 YL5         0.0561
     47 H17         5.5882   77.1569   27.8281 H         1 YL5         0.0607
@<TRIPOS>BOND
     1    1    2 ar 
     2    1    7 ar 
     3    2    3 1  
     4    2    4 ar 
     5    4    5 ar 
     6    5    6 ar 
     7    6    7 ar 
     8    7    8 1  
     9    8    9 1  
    10    9   10 1  
    11    9   14 1  
    12   10   11 ar 
    13   10   12 ar 
    14   10   13 ar 
    15   14   15 1  
    16   15   16 ar 
    17   15   21 ar 
    18   16   17 ar 
    19   17   18 ar 
    20   18   19 ar 
    21   19   20 1  
    22   19   21 ar 
    23   20   23 1  
    24   21   22 1  
    25   22   23 2  
    26   23   24 1  
    27   24   25 ar 
    28   24   30 ar 
    29   25   26 ar 
    30   26   27 ar 
    31   27   28 1  
    32   27   29 ar 
    33   29   30 ar 
    34    1   31 1  
    35    4   32 1  
    36    5   33 1  
    37    6   34 1  
    38    8   35 1  
    39    8   36 1  
    40    9   37 1  
    41   14   38 1  
    42   17   39 1  
    43   22   40 1  
    44   25   41 1  
    45   26   42 1  
    46   28   43 1  
    47   28   44 1  
    48   28   45 1  
    49   29   46 1  
    50   30   47 1  
@<TRIPOS>SUBSTRUCTURE
     1 YL5         1

