4m3g_ligand
  -I-interpret- 

 35 36  0  0  0  0  0  0  0  0999 V2000
    5.2490   26.6810    3.6060 C   0  0  0  0  0
    6.5670   27.0120    4.2400 C   0  0  0  0  0
    7.7640   27.2870    3.6580 N   0  0  0  0  0
    8.8060   27.6130    4.4490 C   0  0  0  0  0
    8.5240   27.5320    5.8110 C   0  0  0  0  0
    6.8500   27.0970    5.9070 S   0  0  0  0  0
   10.0960   27.8760    3.9290 C   0  0  0  0  0
   10.3670   27.5450    2.5870 C   0  0  0  0  0
   11.6430   27.6940    2.0390 C   0  0  0  0  0
   12.6850   28.2240    2.8170 C   0  0  0  0  0
   12.4490   28.5440    4.1540 C   0  0  0  0  0
   11.1480   28.3530    4.7350 C   0  0  0  0  0
   14.2970   28.4420    2.0990 S   0  0  0  0  0
   15.0480   27.2570    2.3690 O   0  0  0  0  0
   14.1400   28.3850    0.6680 O   0  0  0  0  0
   14.9170   29.8810    2.7050 N   0  0  0  0  0
   16.2510   29.8480    3.2020 C   0  0  0  0  0
   17.3910   29.7230    2.1800 C   0  0  0  0  0
   17.4750   30.8780    1.2660 C   0  0  0  0  0
   17.0320   31.9150    1.9940 F   0  0  0  0  0
   16.6380   30.6310    0.2530 F   0  0  0  0  0
   18.7310   31.1130    0.8660 F   0  0  0  0  0
    4.9363   27.5077    2.9681 H   0  0  0  0  0
    5.3526   25.7767    3.0064 H   0  0  0  0  0
    4.5034   26.5189    4.3844 H   0  0  0  0  0
    9.2105   27.7054    6.6397 H   0  0  0  0  0
    9.5609   27.1631    1.9606 H   0  0  0  0  0
   11.8302   27.3987    1.0066 H   0  0  0  0  0
   13.2592   28.9429    4.7644 H   0  0  0  0  0
   10.9774   28.5750    5.7884 H   0  0  0  0  0
   14.3639   30.7380    2.7164 H   0  0  0  0  0
   16.3109   28.9501    3.8170 H   0  0  0  0  0
   16.4033   30.8094    3.6926 H   0  0  0  0  0
   17.2003   28.8354    1.5768 H   0  0  0  0  0
   18.3285   29.6686    2.7333 H   0  0  0  0  0
  1  2  1  0  0  0
  2  3  4  0  0  0
  2  6  4  0  0  0
  3  4  4  0  0  0
  4  5  4  0  0  0
  4  7  1  0  0  0
  5  6  4  0  0  0
  7  8  4  0  0  0
  7 12  4  0  0  0
  8  9  4  0  0  0
  9 10  4  0  0  0
 10 11  4  0  0  0
 10 13  1  0  0  0
 11 12  4  0  0  0
 13 14  2  0  0  0
 13 15  2  0  0  0
 13 16  1  0  0  0
 16 17  1  0  0  0
 17 18  1  0  0  0
 18 19  1  0  0  0
 19 20  1  0  0  0
 19 21  1  0  0  0
 19 22  1  0  0  0
  1 23  1  0  0  0
  1 24  1  0  0  0
  1 25  1  0  0  0
  5 26  1  0  0  0
  8 27  1  0  0  0
  9 28  1  0  0  0
 11 29  1  0  0  0
 12 30  1  0  0  0
 16 31  1  0  0  0
 17 32  1  0  0  0
 17 33  1  0  0  0
 18 34  1  0  0  0
 18 35  1  0  0  0
M  END
$$$$
