3wk7_ligand
  -I-interpret- 

 24 26  0  0  0  0  0  0  0  0999 V2000
  -18.6530  -11.6440   69.2250 C   0  0  0  0  0
  -17.4350  -12.2240   68.9590 C   0  0  0  0  0
  -19.1180  -10.5870   68.4740 C   0  0  0  0  0
  -16.6190  -11.7920   67.9240 C   0  0  0  0  0
  -16.1080   -7.7670   63.9850 C   0  0  0  0  0
  -18.3270   -7.5400   63.8670 C   0  0  0  0  0
  -17.3300   -8.1670   64.5910 C   0  0  0  0  0
  -18.3180  -10.1490   67.4260 C   0  0  0  0  0
  -17.0950  -10.7500   67.1570 C   0  0  0  0  0
  -17.4870   -9.1030   65.7040 C   0  0  0  0  0
  -18.2610   -5.9820   61.8570 C   0  0  0  0  0
  -16.3310   -6.9550   62.9430 N   0  0  0  0  0
  -18.5400   -9.1230   66.5090 N   0  0  0  0  0
  -16.5780  -10.0780   66.0560 N   0  0  0  0  0
  -17.6830   -6.8140   62.8920 N   0  0  0  0  0
  -19.2611  -12.0273   70.0444 H   0  0  0  0  0
  -17.0991  -13.0520   69.5832 H   0  0  0  0  0
  -20.0750  -10.1134   68.6931 H   0  0  0  0  0
  -15.6510  -12.2527   67.7271 H   0  0  0  0  0
  -15.1201   -8.0796   64.3233 H   0  0  0  0  0
  -19.4020   -7.6071   64.0343 H   0  0  0  0  0
  -18.9106   -6.5883   61.2257 H   0  0  0  0  0
  -18.8423   -5.1830   62.3173 H   0  0  0  0  0
  -17.4636   -5.5507   61.2518 H   0  0  0  0  0
  1  2  4  0  0  0
  3  1  4  0  0  0
  4  2  4  0  0  0
  8  3  4  0  0  0
  9  4  4  0  0  0
  7  5  4  0  0  0
  5 12  4  0  0  0
  7  6  4  0  0  0
  6 15  4  0  0  0
 10  7  1  0  0  0
  8  9  4  0  0  0
 13  8  4  0  0  0
  9 14  4  0  0  0
 10 13  4  0  0  0
 10 14  4  0  0  0
 15 11  1  0  0  0
 12 15  4  0  0  0
  1 16  1  0  0  0
  2 17  1  0  0  0
  3 18  1  0  0  0
  4 19  1  0  0  0
  5 20  1  0  0  0
  6 21  1  0  0  0
 11 22  1  0  0  0
 11 23  1  0  0  0
 11 24  1  0  0  0
M  END
$$$$
