4ehz_ligand
  -I-interpret- 

 36 39  0  0  0  0  0  0  0  0999 V2000
    9.0250   56.7440   -0.4570 C   0  0  0  0  0
    7.8940   57.7420   -0.2550 C   0  0  0  0  0
    7.9570   58.9710   -0.6380 N   0  0  0  0  0
    6.8210   59.6150   -0.3260 C   0  0  0  0  0
    6.4120   60.9300   -0.5330 C   0  0  0  0  0
    5.2400   61.3230   -0.1200 N   0  0  0  0  0
    4.3730   60.5150    0.4950 C   0  0  0  0  0
    4.7130   59.1670    0.7370 C   0  0  0  0  0
    5.9770   58.6880    0.3220 C   0  0  0  0  0
    6.6890   57.4990    0.3410 N   0  0  0  0  0
    6.3260   56.1840    0.9120 C   0  0  0  0  0
    6.0470   56.3520    2.4070 C   0  0  0  0  0
    5.8160   54.9740    3.0270 C   0  0  0  0  0
    4.7110   54.2700    2.3530 N   0  3  0  0  0
    4.9070   54.1420    0.9070 C   0  0  0  0  0
    5.1090   55.5140    0.2590 C   0  0  0  0  0
    3.5410   58.6020    1.4130 C   0  0  0  0  0
    2.6230   59.5770    1.5360 C   0  0  0  0  0
    3.1000   60.7340    0.9940 N   0  0  0  0  0
    9.2329   56.6431   -1.5222 H   0  0  0  0  0
    9.9180   57.1000    0.0566 H   0  0  0  0  0
    8.7313   55.7766   -0.0496 H   0  0  0  0  0
    7.0732   61.6318   -1.0413 H   0  0  0  0  0
    7.1756   55.5290    0.7192 H   0  0  0  0  0
    5.1620   56.9723    2.5487 H   0  0  0  0  0
    6.8980   56.8340    2.8882 H   0  0  0  0  0
    5.5590   55.1023    4.0785 H   0  0  0  0  0
    6.7257   54.3839    2.9162 H   0  0  0  0  0
    3.8607   54.8129    2.5033 H   0  0  0  0  0
    4.6599   53.3289    2.7430 H   0  0  0  0  0
    4.0218   53.6767    0.4733 H   0  0  0  0  0
    5.7942   53.5351    0.7261 H   0  0  0  0  0
    5.2763   55.3996   -0.8120 H   0  0  0  0  0
    4.2214   56.1296    0.4049 H   0  0  0  0  0
    3.4328   57.5729    1.7555 H   0  0  0  0  0
    1.6436   59.4600    1.9998 H   0  0  0  0  0
  1  2  1  0  0  0
  2  3  4  0  0  0
  2 10  4  0  0  0
  3  4  4  0  0  0
  4  5  4  0  0  0
  4  9  4  0  0  0
  5  6  4  0  0  0
  6  7  4  0  0  0
  7  8  4  0  0  0
  7 19  4  0  0  0
  8  9  4  0  0  0
  8 17  4  0  0  0
  9 10  4  0  0  0
 10 11  1  0  0  0
 11 12  1  0  0  0
 11 16  1  0  0  0
 12 13  1  0  0  0
 13 14  1  0  0  0
 14 15  1  0  0  0
 15 16  1  0  0  0
 17 18  4  0  0  0
 18 19  4  0  0  0
  1 20  1  0  0  0
  1 21  1  0  0  0
  1 22  1  0  0  0
  5 23  1  0  0  0
 11 24  1  0  0  0
 12 25  1  0  0  0
 12 26  1  0  0  0
 13 27  1  0  0  0
 13 28  1  0  0  0
 14 29  1  0  0  0
 14 30  1  0  0  0
 15 31  1  0  0  0
 15 32  1  0  0  0
 16 33  1  0  0  0
 16 34  1  0  0  0
 17 35  1  0  0  0
 18 36  1  0  0  0
M  END
$$$$
