4ofl_ligand
  -I-interpret- 

 20 20  0  0  0  0  0  0  0  0999 V2000
   17.1100   23.2300   39.9290 N   0  3  0  0  0
   17.7010   24.5660   39.9280 C   0  0  0  0  0
   16.8570   25.5500   39.1250 C   0  0  0  0  0
   17.0130   26.7660   39.2400 O   0  0  0  0  0
   19.1270   24.5230   39.3710 C   0  0  0  0  0
   19.2420   23.8470   38.0400 C   0  0  0  0  0
   18.2250   23.0910   37.4930 N   0  0  0  0  0
   20.2570   23.8100   37.1440 C   0  0  0  0  0
   18.6080   22.6210   36.3220 C   0  0  0  0  0
   19.8410   23.0440   36.0850 N   0  0  0  0  0
   15.9890   25.1470   38.3510 O   0  0  0  0  0
   16.1622   23.2791   40.3027 H   0  0  0  0  0
   17.0823   22.8711   38.9746 H   0  0  0  0  0
   17.6743   22.6103   40.5104 H   0  0  0  0  0
   17.7323   24.9114   40.9614 H   0  0  0  0  0
   17.7162   26.9391   39.8702 H   0  0  0  0  0
   19.7320   23.9529   40.0760 H   0  0  0  0  0
   19.4532   25.5546   39.2385 H   0  0  0  0  0
   21.2259   24.2989   37.2457 H   0  0  0  0  0
   18.0117   21.9916   35.6614 H   0  0  0  0  0
  1  2  1  0  0  0
  2  3  1  0  0  0
  2  5  1  0  0  0
  3  4  1  0  0  0
  3 11  2  0  0  0
  5  6  1  0  0  0
  6  7  4  0  0  0
  6  8  4  0  0  0
  7  9  4  0  0  0
  8 10  4  0  0  0
  9 10  4  0  0  0
  1 12  1  0  0  0
  1 13  1  0  0  0
  1 14  1  0  0  0
  2 15  1  0  0  0
  4 16  1  0  0  0
  5 17  1  0  0  0
  5 18  1  0  0  0
  8 19  1  0  0  0
  9 20  1  0  0  0
M  END
$$$$
