4aj2_ligand
  -I-interpret- 

 16 17  0  0  0  0  0  0  0  0999 V2000
   21.9880   -7.4010   -1.6390 C   0  0  0  0  0
   21.2130   -6.8870   -0.6230 C   0  0  0  0  0
   21.7390   -5.9360    0.2390 C   0  0  0  0  0
   23.0510   -5.5100    0.0680 C   0  0  0  0  0
   23.8560   -6.0200   -0.9520 C   0  0  0  0  0
   23.3050   -6.9740   -1.8100 C   0  0  0  0  0
   25.2520   -5.6040   -1.1760 C   0  0  0  0  0
   26.1390   -5.2520   -0.2570 N   0  0  0  0  0
   27.2870   -4.9630   -0.9280 N   0  0  0  0  0
   27.1230   -5.1230   -2.2000 N   0  0  0  0  0
   25.8490   -5.5280   -2.3730 N   0  0  0  0  0
   23.6430   -4.3140    1.1810 Cl  0  0  0  0  0
   21.5692   -8.1470   -2.3144 H   0  0  0  0  0
   20.1854   -7.2278   -0.4962 H   0  0  0  0  0
   21.1286   -5.5262    1.0437 H   0  0  0  0  0
   23.9078   -7.3877   -2.6185 H   0  0  0  0  0
  1  2  4  0  0  0
  1  6  4  0  0  0
  2  3  4  0  0  0
  3  4  4  0  0  0
  4  5  4  0  0  0
  4 12  1  0  0  0
  5  6  4  0  0  0
  5  7  1  0  0  0
  7  8  4  0  0  0
  7 11  4  0  0  0
  8  9  4  0  0  0
  9 10  4  0  0  0
 10 11  4  0  0  0
  1 13  1  0  0  0
  2 14  1  0  0  0
  3 15  1  0  0  0
  6 16  1  0  0  0
M  END
$$$$
