### 
### Created by X-TOOL on Mon Sep 10 21:12:48 2018
### 

@<TRIPOS>MOLECULE
1iem_ligand
   36    36     1     0     0
SMALL
GAST_HUCK


@<TRIPOS>ATOM
      1 B          26.8700    4.8590   16.6090 B         1 CB4         0.7128
      2 OB1        25.7470    3.9010   16.7440 O.3       1 CB4        -0.4968
      3 OB2        27.0640    5.5810   17.8780 O.3       1 CB4        -0.4968
      4 C7         26.5620    5.8740   15.4630 C.3       1 CB4         0.0411
      5 N10        25.1340    5.8180   15.1380 N.am      1 CB4        -0.2959
      6 C11        24.6530    6.2390   13.9650 C.2       1 CB4         0.2154
      7 O12        25.4040    6.6990   13.0920 O.2       1 CB4        -0.3864
      8 C13        23.2340    6.1520   13.7160 C.2       1 CB4         0.1483
      9 N16        22.2660    6.7310   14.4930 N.2       1 CB4        -0.1296
     10 O17        22.7790    7.5640   15.6060 O.3       1 CB4        -0.2177
     11 C18        21.9520    8.7390   15.8120 C.3       1 CB4         0.1563
     12 C14        22.6420    5.4120   12.5650 C.2       1 CB4         0.0260
     13 C15        23.3890    4.6380   11.6080 C.2       1 CB4         0.0081
     14 S16        22.4270    3.9240   10.4270 S.3       1 CB4         0.0150
     15 C17        21.0380    4.5790   11.1120 C.2       1 CB4         0.1779
     16 N18        19.7460    4.3870   10.6240 N.pl3     1 CB4        -0.2979
     17 N19        21.3200    5.3110   12.1890 N.2       1 CB4        -0.3138
     18 C19        21.7250    9.4830   14.4600 C.3       1 CB4        -0.0232
     19 C20        22.7070    9.7110   16.7580 C.3       1 CB4        -0.0232
     20 C21        20.6070    8.3520   16.4700 C.2       1 CB4         0.0845
     21 O2A        19.5230    8.7950   15.9660 O.co2     1 CB4        -0.5445
     22 O2B        20.6300    7.6050   17.5080 O.co2     1 CB4        -0.5445
     23 H1         25.6264    3.4384   15.9230 H         1 CB4         0.1667
     24 H2         27.7846    6.1933   17.7858 H         1 CB4         0.1667
     25 H3         27.1522    5.6128   14.5722 H         1 CB4         0.0395
     26 H4         26.8245    6.8904   15.7918 H         1 CB4         0.0395
     27 H5         24.4980    5.4522   15.8175 H         1 CB4         0.1828
     28 H6         24.4716    4.5257   11.6451 H         1 CB4         0.0635
     29 H7         18.9448    4.8237   11.1018 H         1 CB4         0.1863
     30 H8         19.5928    3.8085    9.7857 H         1 CB4         0.1863
     31 H9         21.0975   10.3702   14.6306 H         1 CB4         0.0256
     32 H10        21.2222    8.8093   13.7506 H         1 CB4         0.0256
     33 H11        22.6951    9.7943   14.0454 H         1 CB4         0.0256
     34 H12        22.0943   10.6090   16.9259 H         1 CB4         0.0256
     35 H13        23.6637   10.0005   16.2988 H         1 CB4         0.0256
     36 H14        22.8979    9.2124   17.7197 H         1 CB4         0.0256
@<TRIPOS>BOND
     1    1    2 1  
     2    1    3 1  
     3    1    4 1  
     4    4    5 1  
     5    5    6 am 
     6    6    7 2  
     7    6    8 1  
     8    8    9 2  
     9    8   12 1  
    10    9   10 1  
    11   10   11 1  
    12   11   18 1  
    13   11   19 1  
    14   11   20 1  
    15   12   13 2  
    16   12   17 1  
    17   13   14 1  
    18   14   15 1  
    19   15   16 1  
    20   15   17 2  
    21   20   21 ar 
    22   20   22 ar 
    23    2   23 1  
    24    3   24 1  
    25    4   25 1  
    26    4   26 1  
    27    5   27 1  
    28   13   28 1  
    29   16   29 1  
    30   16   30 1  
    31   18   31 1  
    32   18   32 1  
    33   18   33 1  
    34   19   34 1  
    35   19   35 1  
    36   19   36 1  
@<TRIPOS>SUBSTRUCTURE
     1 CB4         1

