1iem_ligand
  -I-interpret- 

 37 37  0  0  0  0  0  0  0  0999 V2000
   26.8700    4.8590   16.6090 B   0  0  0  0  0
   25.7470    3.9010   16.7440 O   0  0  0  0  0
   27.0640    5.5810   17.8780 O   0  0  0  0  0
   26.5620    5.8740   15.4630 C   0  0  0  0  0
   25.1340    5.8180   15.1380 N   0  0  0  0  0
   24.6530    6.2390   13.9650 C   0  0  0  0  0
   25.4040    6.6990   13.0920 O   0  0  0  0  0
   23.2340    6.1520   13.7160 C   0  0  0  0  0
   22.2660    6.7310   14.4930 N   0  0  0  0  0
   22.7790    7.5640   15.6060 O   0  0  0  0  0
   21.9520    8.7390   15.8120 C   0  0  0  0  0
   22.6420    5.4120   12.5650 C   0  0  0  0  0
   23.3890    4.6380   11.6080 C   0  0  0  0  0
   22.4270    3.9240   10.4270 S   0  0  0  0  0
   21.0380    4.5790   11.1120 C   0  0  0  0  0
   19.7460    4.3870   10.6240 N   0  0  0  0  0
   21.3200    5.3110   12.1890 N   0  0  0  0  0
   21.7250    9.4830   14.4600 C   0  0  0  0  0
   22.7070    9.7110   16.7580 C   0  0  0  0  0
   20.6070    8.3520   16.4700 C   0  0  0  0  0
   19.5230    8.7950   15.9660 O   0  0  0  0  0
   20.6300    7.6050   17.5080 O   0  0  0  0  0
   25.9411    3.2795   17.4494 H   0  0  0  0  0
   27.2528    4.9512   18.5775 H   0  0  0  0  0
   27.1477    5.6169   14.5804 H   0  0  0  0  0
   26.8234    6.8813   15.7874 H   0  0  0  0  0
   24.4853    5.4449   15.8311 H   0  0  0  0  0
   24.4726    4.5256   11.6451 H   0  0  0  0  0
   19.5943    3.8141    9.7938 H   0  0  0  0  0
   18.9526    4.8195   11.0972 H   0  0  0  0  0
   22.6870    9.7909   14.0502 H   0  0  0  0  0
   21.2268    8.8144   13.7580 H   0  0  0  0  0
   21.1032   10.3619   14.6303 H   0  0  0  0  0
   22.8956    9.2157   17.7105 H   0  0  0  0  0
   23.6547    9.9970   16.3018 H   0  0  0  0  0
   22.0990   10.6004   16.9236 H   0  0  0  0  0
   21.5394    7.3837   17.7215 H   0  0  0  0  0
  1  2  1  0  0  0
  1  3  1  0  0  0
  1  4  1  0  0  0
  4  5  1  0  0  0
  5  6  1  0  0  0
  6  7  2  0  0  0
  6  8  1  0  0  0
  8  9  2  0  0  0
  8 12  1  0  0  0
  9 10  1  0  0  0
 10 11  1  0  0  0
 11 18  1  0  0  0
 11 19  1  0  0  0
 11 20  1  0  0  0
 12 13  4  0  0  0
 12 17  4  0  0  0
 13 14  4  0  0  0
 14 15  4  0  0  0
 15 16  1  0  0  0
 15 17  4  0  0  0
 20 21  2  0  0  0
 20 22  1  0  0  0
  2 23  1  0  0  0
  3 24  1  0  0  0
  4 25  1  0  0  0
  4 26  1  0  0  0
  5 27  1  0  0  0
 13 28  1  0  0  0
 16 29  1  0  0  0
 16 30  1  0  0  0
 18 31  1  0  0  0
 18 32  1  0  0  0
 18 33  1  0  0  0
 19 34  1  0  0  0
 19 35  1  0  0  0
 19 36  1  0  0  0
 22 37  1  0  0  0
M  END
$$$$
