### 
### Created by X-TOOL on Mon Sep 10 21:13:05 2018
### 

@<TRIPOS>MOLECULE
2xrw_ligand
  198   201     1     0     0
SMALL
GAST_HUCK


@<TRIPOS>ATOM
      1 N         -19.4790    1.0980   21.5580 N.4       1 ARG         0.2377
      2 CA        -19.4530    2.2790   20.7020 C.3       1 ARG         0.0623
      3 C         -18.8920    3.4800   21.4630 C.2       1 ARG         0.2289
      4 O         -19.6190    4.4270   21.7680 O.2       1 ARG        -0.3905
      5 CB        -20.8590    2.5900   20.1870 C.3       1 ARG        -0.0040
      6 N         -17.5840    3.4460   21.7600 N.am      1 PRO        -0.2471
      7 CA        -16.9200    4.4470   22.6060 C.3       1 PRO         0.1339
      8 C         -16.6650    5.8050   21.9510 C.2       1 PRO         0.2042
      9 O         -16.4090    5.8950   20.7500 O.2       1 PRO        -0.3944
     10 CB        -15.5850    3.7720   22.9470 C.3       1 PRO        -0.0104
     11 CG        -15.3170    2.8700   21.7870 C.3       1 PRO        -0.0281
     12 CD        -16.6640    2.3660   21.3550 C.3       1 PRO         0.0371
     13 N         -16.7190    6.8770   22.7410 N.am      1 SER        -0.2616
     14 CA        -16.1830    8.1460   22.2860 C.3       1 SER         0.1539
     15 C         -14.6510    8.0510   22.3170 C.2       1 SER         0.2062
     16 O         -14.0850    7.1530   22.9630 O.2       1 SER        -0.3943
     17 CB        -16.7080    9.3280   23.1180 C.3       1 SER         0.0843
     18 OG        -16.6140    9.0810   24.5090 O.3       1 SER        -0.3903
     19 N         -13.9740    8.9310   21.5870 N.am      1 ARG        -0.2637
     20 CA        -12.5280    8.8200   21.4300 C.3       1 ARG         0.1311
     21 C         -11.8290    8.8940   22.7670 C.2       1 ARG         0.2040
     22 O         -10.7600    8.3120   22.9490 O.2       1 ARG        -0.3944
     23 CB        -11.9890    9.9490   20.5440 C.3       1 ARG        -0.0092
     24 CG        -12.0250    9.6340   19.0530 C.3       1 ARG        -0.0156
     25 CD        -11.4700   10.7380   18.1790 C.3       1 ARG         0.0627
     26 NE        -11.6800   12.0910   18.7060 N.pl3     1 ARG        -0.2723
     27 CZ        -11.2090   13.1790   18.1060 C.cat     1 ARG         0.2882
     28 NH1       -10.5630   13.0680   16.9570 N.pl3     1 ARG        -0.2849
     29 NH2       -11.4010   14.3790   18.6330 N.pl3     1 ARG        -0.2849
     30 N         -12.4160    9.6220   23.7080 N.am      1 ASP        -0.2622
     31 CA        -11.7860    9.7910   25.0030 C.3       1 ASP         0.1423
     32 C         -11.9340    8.5370   25.8570 C.2       1 ASP         0.2057
     33 O         -11.4250    8.4790   26.9770 O.2       1 ASP        -0.3943
     34 CB        -12.3290   11.0270   25.7310 C.3       1 ASP         0.0406
     35 CG        -13.7440   10.8400   26.2380 C.2       1 ASP         0.0393
     36 OD1       -14.4450    9.9050   25.7820 O.co2     1 ASP        -0.5688
     37 OD2       -14.1420   11.6280   27.1210 O.co2     1 ASP        -0.5688
     38 N         -12.5720    7.5030   25.3060 N.am      1 HIS        -0.2624
     39 CA        -12.7300    6.2470   26.0410 C.3       1 HIS         0.1369
     40 C         -11.8750    5.1250   25.4400 C.2       1 HIS         0.2054
     41 O         -11.9710    3.9800   25.8580 O.2       1 HIS        -0.3942
     42 CB        -14.1990    5.8130   26.1340 C.3       1 HIS         0.0145
     43 CG        -14.9150    6.3880   27.3130 C.2       1 HIS        -0.0027
     44 ND1       -15.2140    7.7280   27.4210 N.2       1 HIS        -0.3252
     45 CD2       -15.3610    5.8090   28.4510 C.2       1 HIS         0.0291
     46 CE1       -15.8270    7.9480   28.5700 C.2       1 HIS         0.0907
     47 NE2       -15.9280    6.8020   29.2150 N.pl3     1 HIS        -0.2752
     48 N         -11.0360    5.4550   24.4670 N.am      1 LEU        -0.2636
     49 CA        -10.0830    4.5070   23.9080 C.3       1 LEU         0.1312
     50 C          -8.8700    4.6320   24.8160 C.2       1 LEU         0.2040
     51 O          -8.3820    5.7420   25.0960 O.2       1 LEU        -0.3944
     52 CB         -9.7540    4.8620   22.4640 C.3       1 LEU        -0.0101
     53 CG        -10.9600    4.9890   21.5380 C.3       1 LEU        -0.0425
     54 CD1       -10.5330    5.5190   20.1590 C.3       1 LEU        -0.0625
     55 CD2       -11.6860    3.6690   21.4030 C.3       1 LEU        -0.0625
     56 N          -8.4310    3.5100   25.3430 N.am      1 TYR        -0.2621
     57 CA         -7.3550    3.4780   26.3220 C.3       1 TYR         0.1390
     58 C          -6.4800    2.3180   25.9510 C.2       1 TYR         0.2057
     59 O          -6.9790    1.2150   25.7430 O.2       1 TYR        -0.3942
     60 CB         -7.8810    3.2310   27.7420 C.3       1 TYR         0.0163
     61 CG         -6.7810    3.2120   28.7980 C.ar      1 TYR        -0.0493
     62 CD1        -6.0540    4.3640   29.0830 C.ar      1 TYR        -0.0685
     63 CD2        -6.4620    2.0460   29.4980 C.ar      1 TYR        -0.0685
     64 CE1        -5.0460    4.3630   30.0270 C.ar      1 TYR        -0.0398
     65 CE2        -5.4520    2.0360   30.4550 C.ar      1 TYR        -0.0398
     66 CZ         -4.7450    3.2040   30.7090 C.ar      1 TYR         0.0805
     67 OH         -3.7370    3.2320   31.6500 O.3       1 TYR        -0.3376
     68 N          -5.1810    2.5620   25.9070 N.am      1 LEU        -0.2636
     69 CA         -4.1700    1.5300   25.7130 C.3       1 LEU         0.1314
     70 C          -3.4650    1.2940   27.0610 C.2       1 LEU         0.2064
     71 O          -2.8340    2.2150   27.5930 O.2       1 LEU        -0.3942
     72 CB         -3.1320    1.9660   24.6780 C.3       1 LEU        -0.0101
     73 CG         -3.6240    2.1920   23.2470 C.3       1 LEU        -0.0425
     74 CD1        -2.5150    2.7860   22.4250 C.3       1 LEU        -0.0625
     75 CD2        -4.1200    0.8540   22.6550 C.3       1 LEU        -0.0625
     76 N          -3.5010    0.0720   27.5970 N.am      1 PRO        -0.2498
     77 CA         -2.8690   -0.1960   28.9040 C.3       1 PRO         0.1338
     78 C          -1.3810   -0.4830   28.7130 C.2       1 PRO         0.2041
     79 O          -0.9010   -1.6130   28.8880 O.2       1 PRO        -0.3944
     80 CB         -3.6330   -1.4130   29.4320 C.3       1 PRO        -0.0104
     81 CG         -4.0420   -2.1130   28.1970 C.3       1 PRO        -0.0281
     82 CD         -4.3730   -1.0500   27.1860 C.3       1 PRO         0.0369
     83 N          -0.6550    0.5810   28.4070 N.am      1 LEU        -0.2637
     84 CA          0.7690    0.4940   28.1070 C.3       1 LEU         0.1312
     85 C           1.5710    0.1850   29.3660 C.2       1 LEU         0.2034
     86 O           1.1980    0.5830   30.4840 O.2       1 LEU        -0.3944
     87 CB          1.2410    1.8230   27.5160 C.3       1 LEU        -0.0101
     88 CG          0.5420    2.2500   26.2250 C.3       1 LEU        -0.0425
     89 CD1         0.9370    3.6930   25.8720 C.3       1 LEU        -0.0625
     90 CD2         0.8750    1.3370   25.0670 C.3       1 LEU        -0.0625
     91 N           2.7110   -0.4830   29.1870 N.am      1 GLU        -0.2694
     92 CA          3.6040   -0.7760   30.3030 C.3       1 GLU         0.0959
     93 C           5.0620   -0.4550   29.9320 C.2       1 GLU         0.0602
     94 O           5.3620   -0.1170   28.7870 O.co2     1 GLU        -0.5666
     95 CB          3.4420   -2.2370   30.7560 C.3       1 GLU        -0.0064
     96 CG          4.0810   -3.2350   29.8160 C.3       1 GLU         0.0038
     97 CD          3.7420   -4.6780   30.1400 C.2       1 GLU         0.0350
     98 OE1         2.9320   -4.9310   31.0590 O.co2     1 GLU        -0.5690
     99 OE2         4.2950   -5.5750   29.4650 O.co2     1 GLU        -0.5690
    100 OXT         5.9680   -0.4930   30.7690 O.co2     1 GLU        -0.5666
    101 H         -18.5360    0.9023   21.8940 H         1 ARG         0.2015
    102 H         -20.0957    1.2688   22.3523 H         1 ARG         0.2015
    103 H         -19.8234    0.3001   21.0241 H         1 ARG         0.2015
    104 H         -18.8039    2.0746   19.8505 H         1 ARG         0.1095
    105 H         -21.5118    2.8155   21.0303 H         1 ARG         0.0310
    106 H         -20.8176    3.4495   19.5179 H         1 ARG         0.0310
    107 H         -21.2462    1.7259   19.6470 H         1 ARG         0.0310
    108 H         -17.5551    4.7001   23.4549 H         1 PRO         0.0802
    109 H         -15.6319    3.2248   23.8885 H         1 PRO         0.0313
    110 H         -14.7853    4.4979   23.0942 H         1 PRO         0.0313
    111 H         -14.6522    2.0511   22.0617 H         1 PRO         0.0287
    112 H         -14.8085    3.3965   20.9794 H         1 PRO         0.0287
    113 H         -16.7087    2.1591   20.2857 H         1 PRO         0.0524
    114 H         -16.9174    1.4092   21.8115 H         1 PRO         0.0524
    115 H         -17.1383    6.8050   23.6680 H         1 SER         0.1884
    116 H         -16.5173    8.3416   21.2671 H         1 SER         0.0823
    117 H         -17.7583    9.4800   22.8691 H         1 SER         0.0606
    118 H         -16.1022   10.2039   22.8857 H         1 SER         0.0606
    119 H         -15.6954    8.9322   24.7451 H         1 SER         0.2097
    120 H         -14.4723    9.6947   21.1301 H         1 ARG         0.1883
    121 H         -12.3297    7.8543   20.9650 H         1 ARG         0.0800
    122 H         -10.9455   10.1058   20.8173 H         1 ARG         0.0313
    123 H         -12.6235   10.8202   20.7069 H         1 ARG         0.0313
    124 H         -13.0702    9.4960   18.7761 H         1 ARG         0.0301
    125 H         -11.4053    8.7517   18.8932 H         1 ARG         0.0301
    126 H         -11.9913   10.6823   17.2234 H         1 ARG         0.0689
    127 H         -10.3930   10.5836   18.1137 H         1 ARG         0.0689
    128 H         -12.2104   12.2012   19.5702 H         1 ARG         0.2642
    129 H         -10.4279   12.1495   16.5346 H         1 ARG         0.2615
    130 H         -10.2000   13.9009   16.4935 H         1 ARG         0.2615
    131 H         -11.9152   14.4751   19.5086 H         1 ARG         0.2615
    132 H         -11.0347   15.2069   18.1632 H         1 ARG         0.2615
    133 H         -13.3152   10.0651   23.5195 H         1 ASP         0.1884
    134 H         -10.7214    9.9513   24.8326 H         1 ASP         0.0819
    135 H         -12.3369   11.8541   25.0211 H         1 ASP         0.0478
    136 H         -11.6888   11.2128   26.5934 H         1 ASP         0.0478
    137 H         -12.9532    7.5884   24.3638 H         1 HIS         0.1885
    138 H         -12.3754    6.4372   27.0540 H         1 HIS         0.0817
    139 H         -14.2149    4.7280   26.2374 H         1 HIS         0.0420
    140 H         -14.7043    6.1703   25.2367 H         1 HIS         0.0420
    141 H         -15.2853    4.7537   28.7133 H         1 HIS         0.0729
    142 H         -16.1882    8.9132   28.9251 H         1 HIS         0.1199
    143 H         -16.3569    6.6732   30.1314 H         1 HIS         0.2361
    144 H         -11.0594    6.4056   24.0978 H         1 LEU         0.1883
    145 H         -10.4626    3.4858   23.8731 H         1 LEU         0.0800
    146 H          -9.1420    4.0494   22.0726 H         1 LEU         0.0315
    147 H          -9.2690    5.8380   22.4834 H         1 LEU         0.0315
    148 H         -11.6499    5.7062   21.9827 H         1 LEU         0.0298
    149 H         -10.0722    6.5000   20.2750 H         1 LEU         0.0232
    150 H          -9.8161    4.8300   19.7124 H         1 LEU         0.0232
    151 H         -11.4090    5.6014   19.5157 H         1 LEU         0.0232
    152 H         -11.0068    2.9228   20.9907 H         1 LEU         0.0232
    153 H         -12.0324    3.3443   22.3842 H         1 LEU         0.0232
    154 H         -12.5402    3.7920   20.7371 H         1 LEU         0.0232
    155 H          -8.8602    2.6306   25.0552 H         1 TYR         0.1885
    156 H          -6.8322    4.4344   26.3165 H         1 TYR         0.0821
    157 H          -8.3619    2.2528   27.7496 H         1 TYR         0.0453
    158 H          -8.5601    4.0473   27.9884 H         1 TYR         0.0453
    159 H          -6.2850    5.2863   28.5500 H         1 TYR         0.0530
    160 H          -7.0134    1.1288   29.2911 H         1 TYR         0.0530
    161 H          -4.4894    5.2774   30.2323 H         1 TYR         0.0525
    162 H          -5.2182    1.1212   30.9995 H         1 TYR         0.0525
    163 H          -3.0533    2.6048   31.4036 H         1 TYR         0.2458
    164 H          -4.8688    3.5270   26.0149 H         1 LEU         0.1883
    165 H          -4.6502    0.6200   25.3533 H         1 LEU         0.0800
    166 H          -2.4125    1.1494   24.6182 H         1 LEU         0.0315
    167 H          -2.7611    2.9324   25.0196 H         1 LEU         0.0315
    168 H          -4.4596    2.8919   23.2412 H         1 LEU         0.0298
    169 H          -2.2115    3.7380   22.8605 H         1 LEU         0.0232
    170 H          -1.6660    2.1025   22.4147 H         1 LEU         0.0232
    171 H          -2.8660    2.9468   21.4057 H         1 LEU         0.0232
    172 H          -3.3008    0.1350   22.6487 H         1 LEU         0.0232
    173 H          -4.9379    0.4695   23.2644 H         1 LEU         0.0232
    174 H          -4.4701    1.0167   21.6357 H         1 LEU         0.0232
    175 H          -2.9182    0.6417   29.5997 H         1 PRO         0.0802
    176 H          -4.4797   -1.1387   30.0612 H         1 PRO         0.0313
    177 H          -3.0285   -2.0373   30.0899 H         1 PRO         0.0313
    178 H          -4.9036   -2.7545   28.3818 H         1 PRO         0.0287
    179 H          -3.2422   -2.7584   27.8338 H         1 PRO         0.0287
    180 H          -4.1980   -1.3705   26.1590 H         1 PRO         0.0524
    181 H          -5.4304   -0.7858   27.1774 H         1 PRO         0.0524
    182 H          -1.1082    1.4944   28.3802 H         1 LEU         0.1883
    183 H           0.9267   -0.3122   27.3906 H         1 LEU         0.0800
    184 H           2.2962    1.6988   27.2728 H         1 LEU         0.0315
    185 H           1.0205    2.5901   28.2583 H         1 LEU         0.0315
    186 H          -0.5321    2.1862   26.3989 H         1 LEU         0.0298
    187 H           0.6380    4.3586   26.6817 H         1 LEU         0.0232
    188 H           2.0167    3.7493   25.7337 H         1 LEU         0.0232
    189 H           0.4354    3.9907   24.9512 H         1 LEU         0.0232
    190 H           1.9507    1.3523   24.8916 H         1 LEU         0.0232
    191 H           0.5587    0.3212   25.3042 H         1 LEU         0.0232
    192 H           0.3549    1.6815   24.1732 H         1 LEU         0.0232
    193 H           2.9642   -0.7959   28.2498 H         1 GLU         0.1875
    194 H           3.3318   -0.1377   31.1436 H         1 GLU         0.0727
    195 H           2.3742   -2.4537   30.7871 H         1 GLU         0.0323
    196 H           3.9345   -2.3364   31.7233 H         1 GLU         0.0323
    197 H           5.1615   -3.1247   29.9076 H         1 GLU         0.0432
    198 H           3.7045   -3.0279   28.8143 H         1 GLU         0.0432
@<TRIPOS>BOND
     1    1    2 1  
     2    2    3 1  
     3    2    5 1  
     4    3    4 2  
     5    3    6 am 
     6    6    7 1  
     7    6   12 1  
     8    7    8 1  
     9    7   10 1  
    10    8    9 2  
    11    8   13 am 
    12   10   11 1  
    13   11   12 1  
    14   13   14 1  
    15   14   15 1  
    16   14   17 1  
    17   15   16 2  
    18   15   19 am 
    19   17   18 1  
    20   19   20 1  
    21   20   21 1  
    22   20   23 1  
    23   21   22 2  
    24   21   30 am 
    25   23   24 1  
    26   24   25 1  
    27   25   26 1  
    28   26   27 ar 
    29   27   28 ar 
    30   27   29 ar 
    31   30   31 1  
    32   31   32 1  
    33   31   34 1  
    34   32   33 2  
    35   32   38 am 
    36   34   35 1  
    37   35   36 ar 
    38   35   37 ar 
    39   38   39 1  
    40   39   40 1  
    41   39   42 1  
    42   40   41 2  
    43   40   48 am 
    44   42   43 1  
    45   43   44 1  
    46   43   45 2  
    47   44   46 2  
    48   45   47 1  
    49   46   47 1  
    50   48   49 1  
    51   49   50 1  
    52   49   52 1  
    53   50   51 2  
    54   50   56 am 
    55   52   53 1  
    56   53   54 1  
    57   53   55 1  
    58   56   57 1  
    59   57   58 1  
    60   57   60 1  
    61   58   59 2  
    62   58   68 am 
    63   60   61 1  
    64   61   62 ar 
    65   61   63 ar 
    66   62   64 ar 
    67   63   65 ar 
    68   64   66 ar 
    69   65   66 ar 
    70   66   67 1  
    71   68   69 1  
    72   69   70 1  
    73   69   72 1  
    74   70   71 2  
    75   70   76 am 
    76   72   73 1  
    77   73   74 1  
    78   73   75 1  
    79   76   77 1  
    80   76   82 1  
    81   77   78 1  
    82   77   80 1  
    83   78   79 2  
    84   78   83 am 
    85   80   81 1  
    86   81   82 1  
    87   83   84 1  
    88   84   85 1  
    89   84   87 1  
    90   85   86 2  
    91   85   91 am 
    92   87   88 1  
    93   88   89 1  
    94   88   90 1  
    95   91   92 1  
    96   92   93 1  
    97   92   95 1  
    98   93   94 ar 
    99   93  100 ar 
   100   95   96 1  
   101   96   97 1  
   102   97   98 ar 
   103   97   99 ar 
   104    1  101 1  
   105    1  102 1  
   106    1  103 1  
   107    2  104 1  
   108    5  105 1  
   109    5  106 1  
   110    5  107 1  
   111    7  108 1  
   112   10  109 1  
   113   10  110 1  
   114   11  111 1  
   115   11  112 1  
   116   12  113 1  
   117   12  114 1  
   118   13  115 1  
   119   14  116 1  
   120   17  117 1  
   121   17  118 1  
   122   18  119 1  
   123   19  120 1  
   124   20  121 1  
   125   23  122 1  
   126   23  123 1  
   127   24  124 1  
   128   24  125 1  
   129   25  126 1  
   130   25  127 1  
   131   26  128 1  
   132   28  129 1  
   133   28  130 1  
   134   29  131 1  
   135   29  132 1  
   136   30  133 1  
   137   31  134 1  
   138   34  135 1  
   139   34  136 1  
   140   38  137 1  
   141   39  138 1  
   142   42  139 1  
   143   42  140 1  
   144   45  141 1  
   145   46  142 1  
   146   47  143 1  
   147   48  144 1  
   148   49  145 1  
   149   52  146 1  
   150   52  147 1  
   151   53  148 1  
   152   54  149 1  
   153   54  150 1  
   154   54  151 1  
   155   55  152 1  
   156   55  153 1  
   157   55  154 1  
   158   56  155 1  
   159   57  156 1  
   160   60  157 1  
   161   60  158 1  
   162   62  159 1  
   163   63  160 1  
   164   64  161 1  
   165   65  162 1  
   166   67  163 1  
   167   68  164 1  
   168   69  165 1  
   169   72  166 1  
   170   72  167 1  
   171   73  168 1  
   172   74  169 1  
   173   74  170 1  
   174   74  171 1  
   175   75  172 1  
   176   75  173 1  
   177   75  174 1  
   178   77  175 1  
   179   80  176 1  
   180   80  177 1  
   181   81  178 1  
   182   81  179 1  
   183   82  180 1  
   184   82  181 1  
   185   83  182 1  
   186   84  183 1  
   187   87  184 1  
   188   87  185 1  
   189   88  186 1  
   190   89  187 1  
   191   89  188 1  
   192   89  189 1  
   193   90  190 1  
   194   90  191 1  
   195   90  192 1  
   196   91  193 1  
   197   92  194 1  
   198   95  195 1  
   199   95  196 1  
   200   96  197 1  
   201   96  198 1  
@<TRIPOS>SUBSTRUCTURE
     1 ARG         1

