2xrw_ligand
  -I-interpret- 

199202  0  0  0  0  0  0  0  0999 V2000
  -19.4790    1.0980   21.5580 N   0  3  0  0  0
  -19.4530    2.2790   20.7020 C   0  0  0  0  0
  -18.8920    3.4800   21.4630 C   0  0  0  0  0
  -19.6190    4.4270   21.7680 O   0  0  0  0  0
  -20.8590    2.5900   20.1870 C   0  0  0  0  0
  -17.5840    3.4460   21.7600 N   0  0  0  0  0
  -16.9200    4.4470   22.6060 C   0  0  0  0  0
  -16.6650    5.8050   21.9510 C   0  0  0  0  0
  -16.4090    5.8950   20.7500 O   0  0  0  0  0
  -15.5850    3.7720   22.9470 C   0  0  0  0  0
  -15.3170    2.8700   21.7870 C   0  0  0  0  0
  -16.6640    2.3660   21.3550 C   0  0  0  0  0
  -16.7190    6.8770   22.7410 N   0  0  0  0  0
  -16.1830    8.1460   22.2860 C   0  0  0  0  0
  -14.6510    8.0510   22.3170 C   0  0  0  0  0
  -14.0850    7.1530   22.9630 O   0  0  0  0  0
  -16.7080    9.3280   23.1180 C   0  0  0  0  0
  -16.6140    9.0810   24.5090 O   0  0  0  0  0
  -13.9740    8.9310   21.5870 N   0  0  0  0  0
  -12.5280    8.8200   21.4300 C   0  0  0  0  0
  -11.8290    8.8940   22.7670 C   0  0  0  0  0
  -10.7600    8.3120   22.9490 O   0  0  0  0  0
  -11.9890    9.9490   20.5440 C   0  0  0  0  0
  -12.0250    9.6340   19.0530 C   0  0  0  0  0
  -11.4700   10.7380   18.1790 C   0  0  0  0  0
  -11.6800   12.0910   18.7060 N   0  0  0  0  0
  -11.2090   13.1790   18.1060 C   0  0  0  0  0
  -10.5630   13.0680   16.9570 N   0  0  0  0  0
  -11.4010   14.3790   18.6330 N   0  0  0  0  0
  -12.4160    9.6220   23.7080 N   0  0  0  0  0
  -11.7860    9.7910   25.0030 C   0  0  0  0  0
  -11.9340    8.5370   25.8570 C   0  0  0  0  0
  -11.4250    8.4790   26.9770 O   0  0  0  0  0
  -12.3290   11.0270   25.7310 C   0  0  0  0  0
  -13.7440   10.8400   26.2380 C   0  0  0  0  0
  -14.4450    9.9050   25.7820 O   0  0  0  0  0
  -14.1420   11.6280   27.1210 O   0  0  0  0  0
  -12.5720    7.5030   25.3060 N   0  0  0  0  0
  -12.7300    6.2470   26.0410 C   0  0  0  0  0
  -11.8750    5.1250   25.4400 C   0  0  0  0  0
  -11.9710    3.9800   25.8580 O   0  0  0  0  0
  -14.1990    5.8130   26.1340 C   0  0  0  0  0
  -14.9150    6.3880   27.3130 C   0  0  0  0  0
  -15.2140    7.7280   27.4210 N   0  0  0  0  0
  -15.3610    5.8090   28.4510 C   0  0  0  0  0
  -15.8270    7.9480   28.5700 C   0  0  0  0  0
  -15.9280    6.8020   29.2150 N   0  0  0  0  0
  -11.0360    5.4550   24.4670 N   0  0  0  0  0
  -10.0830    4.5070   23.9080 C   0  0  0  0  0
   -8.8700    4.6320   24.8160 C   0  0  0  0  0
   -8.3820    5.7420   25.0960 O   0  0  0  0  0
   -9.7540    4.8620   22.4640 C   0  0  0  0  0
  -10.9600    4.9890   21.5380 C   0  0  0  0  0
  -10.5330    5.5190   20.1590 C   0  0  0  0  0
  -11.6860    3.6690   21.4030 C   0  0  0  0  0
   -8.4310    3.5100   25.3430 N   0  0  0  0  0
   -7.3550    3.4780   26.3220 C   0  0  0  0  0
   -6.4800    2.3180   25.9510 C   0  0  0  0  0
   -6.9790    1.2150   25.7430 O   0  0  0  0  0
   -7.8810    3.2310   27.7420 C   0  0  0  0  0
   -6.7810    3.2120   28.7980 C   0  0  0  0  0
   -6.0540    4.3640   29.0830 C   0  0  0  0  0
   -6.4620    2.0460   29.4980 C   0  0  0  0  0
   -5.0460    4.3630   30.0270 C   0  0  0  0  0
   -5.4520    2.0360   30.4550 C   0  0  0  0  0
   -4.7450    3.2040   30.7090 C   0  0  0  0  0
   -3.7370    3.2320   31.6500 O   0  0  0  0  0
   -5.1810    2.5620   25.9070 N   0  0  0  0  0
   -4.1700    1.5300   25.7130 C   0  0  0  0  0
   -3.4650    1.2940   27.0610 C   0  0  0  0  0
   -2.8340    2.2150   27.5930 O   0  0  0  0  0
   -3.1320    1.9660   24.6780 C   0  0  0  0  0
   -3.6240    2.1920   23.2470 C   0  0  0  0  0
   -2.5150    2.7860   22.4250 C   0  0  0  0  0
   -4.1200    0.8540   22.6550 C   0  0  0  0  0
   -3.5010    0.0720   27.5970 N   0  0  0  0  0
   -2.8690   -0.1960   28.9040 C   0  0  0  0  0
   -1.3810   -0.4830   28.7130 C   0  0  0  0  0
   -0.9010   -1.6130   28.8880 O   0  0  0  0  0
   -3.6330   -1.4130   29.4320 C   0  0  0  0  0
   -4.0420   -2.1130   28.1970 C   0  0  0  0  0
   -4.3730   -1.0500   27.1860 C   0  0  0  0  0
   -0.6550    0.5810   28.4070 N   0  0  0  0  0
    0.7690    0.4940   28.1070 C   0  0  0  0  0
    1.5710    0.1850   29.3660 C   0  0  0  0  0
    1.1980    0.5830   30.4840 O   0  0  0  0  0
    1.2410    1.8230   27.5160 C   0  0  0  0  0
    0.5420    2.2500   26.2250 C   0  0  0  0  0
    0.9370    3.6930   25.8720 C   0  0  0  0  0
    0.8750    1.3370   25.0670 C   0  0  0  0  0
    2.7110   -0.4830   29.1870 N   0  0  0  0  0
    3.6040   -0.7760   30.3030 C   0  0  0  0  0
    5.0620   -0.4550   29.9320 C   0  0  0  0  0
    5.3620   -0.1170   28.7870 O   0  0  0  0  0
    3.4420   -2.2370   30.7560 C   0  0  0  0  0
    4.0810   -3.2350   29.8160 C   0  0  0  0  0
    3.7420   -4.6780   30.1400 C   0  0  0  0  0
    2.9320   -4.9310   31.0590 O   0  0  0  0  0
    4.2950   -5.5750   29.4650 O   0  0  0  0  0
    5.9680   -0.4930   30.7690 O   0  0  0  0  0
  -18.5360    0.9023   21.8940 H   0  0  0  0  0
  -20.0957    1.2688   22.3523 H   0  0  0  0  0
  -19.8234    0.3001   21.0241 H   0  0  0  0  0
  -18.8039    2.0746   19.8505 H   0  0  0  0  0
  -21.5118    2.8155   21.0303 H   0  0  0  0  0
  -20.8176    3.4495   19.5179 H   0  0  0  0  0
  -21.2462    1.7259   19.6470 H   0  0  0  0  0
  -17.5551    4.7001   23.4549 H   0  0  0  0  0
  -15.6319    3.2248   23.8885 H   0  0  0  0  0
  -14.7853    4.4979   23.0942 H   0  0  0  0  0
  -14.6522    2.0511   22.0617 H   0  0  0  0  0
  -14.8085    3.3965   20.9794 H   0  0  0  0  0
  -16.7087    2.1591   20.2857 H   0  0  0  0  0
  -16.9174    1.4092   21.8115 H   0  0  0  0  0
  -17.1383    6.8050   23.6680 H   0  0  0  0  0
  -16.5173    8.3416   21.2671 H   0  0  0  0  0
  -17.7583    9.4800   22.8691 H   0  0  0  0  0
  -16.1022   10.2039   22.8857 H   0  0  0  0  0
  -16.9506    9.8399   24.9911 H   0  0  0  0  0
  -14.4723    9.6947   21.1301 H   0  0  0  0  0
  -12.3297    7.8543   20.9650 H   0  0  0  0  0
  -10.9455   10.1058   20.8173 H   0  0  0  0  0
  -12.6235   10.8202   20.7069 H   0  0  0  0  0
  -13.0702    9.4960   18.7761 H   0  0  0  0  0
  -11.4053    8.7517   18.8932 H   0  0  0  0  0
  -11.9913   10.6823   17.2234 H   0  0  0  0  0
  -10.3930   10.5836   18.1137 H   0  0  0  0  0
  -12.2104   12.2012   19.5702 H   0  0  0  0  0
  -10.4279   12.1495   16.5346 H   0  0  0  0  0
  -11.0517   15.2086   18.1532 H   0  0  0  0  0
  -11.8981   14.4735   19.5186 H   0  0  0  0  0
  -13.3152   10.0651   23.5195 H   0  0  0  0  0
  -10.7214    9.9513   24.8326 H   0  0  0  0  0
  -12.3369   11.8541   25.0211 H   0  0  0  0  0
  -11.6888   11.2128   26.5934 H   0  0  0  0  0
  -13.9451    9.4271   25.1161 H   0  0  0  0  0
  -12.9532    7.5884   24.3638 H   0  0  0  0  0
  -12.3754    6.4372   27.0540 H   0  0  0  0  0
  -14.2149    4.7280   26.2374 H   0  0  0  0  0
  -14.7043    6.1703   25.2367 H   0  0  0  0  0
  -15.2853    4.7537   28.7133 H   0  0  0  0  0
  -16.1882    8.9132   28.9251 H   0  0  0  0  0
  -11.0594    6.4056   24.0978 H   0  0  0  0  0
  -10.4626    3.4858   23.8731 H   0  0  0  0  0
   -9.1420    4.0494   22.0726 H   0  0  0  0  0
   -9.2690    5.8380   22.4834 H   0  0  0  0  0
  -11.6499    5.7062   21.9827 H   0  0  0  0  0
  -10.0722    6.5000   20.2750 H   0  0  0  0  0
   -9.8161    4.8300   19.7124 H   0  0  0  0  0
  -11.4090    5.6014   19.5157 H   0  0  0  0  0
  -11.0068    2.9228   20.9907 H   0  0  0  0  0
  -12.0324    3.3443   22.3842 H   0  0  0  0  0
  -12.5402    3.7920   20.7371 H   0  0  0  0  0
   -8.8602    2.6306   25.0552 H   0  0  0  0  0
   -6.8322    4.4344   26.3165 H   0  0  0  0  0
   -8.3619    2.2528   27.7496 H   0  0  0  0  0
   -8.5601    4.0473   27.9884 H   0  0  0  0  0
   -6.2850    5.2863   28.5500 H   0  0  0  0  0
   -7.0134    1.1288   29.2911 H   0  0  0  0  0
   -4.4894    5.2774   30.2323 H   0  0  0  0  0
   -5.2182    1.1212   30.9995 H   0  0  0  0  0
   -3.6408    2.3602   32.0402 H   0  0  0  0  0
   -4.8688    3.5270   26.0149 H   0  0  0  0  0
   -4.6502    0.6200   25.3533 H   0  0  0  0  0
   -2.4125    1.1494   24.6182 H   0  0  0  0  0
   -2.7611    2.9324   25.0196 H   0  0  0  0  0
   -4.4596    2.8919   23.2412 H   0  0  0  0  0
   -2.2115    3.7380   22.8605 H   0  0  0  0  0
   -1.6660    2.1025   22.4147 H   0  0  0  0  0
   -2.8660    2.9468   21.4057 H   0  0  0  0  0
   -3.3008    0.1350   22.6487 H   0  0  0  0  0
   -4.9379    0.4695   23.2644 H   0  0  0  0  0
   -4.4701    1.0167   21.6357 H   0  0  0  0  0
   -2.9182    0.6417   29.5997 H   0  0  0  0  0
   -4.4797   -1.1387   30.0612 H   0  0  0  0  0
   -3.0285   -2.0373   30.0899 H   0  0  0  0  0
   -4.9036   -2.7545   28.3818 H   0  0  0  0  0
   -3.2422   -2.7584   27.8338 H   0  0  0  0  0
   -4.1980   -1.3705   26.1590 H   0  0  0  0  0
   -5.4304   -0.7858   27.1774 H   0  0  0  0  0
   -1.1082    1.4944   28.3802 H   0  0  0  0  0
    0.9267   -0.3122   27.3906 H   0  0  0  0  0
    2.2962    1.6988   27.2728 H   0  0  0  0  0
    1.0205    2.5901   28.2583 H   0  0  0  0  0
   -0.5321    2.1862   26.3989 H   0  0  0  0  0
    0.6380    4.3586   26.6817 H   0  0  0  0  0
    2.0167    3.7493   25.7337 H   0  0  0  0  0
    0.4354    3.9907   24.9512 H   0  0  0  0  0
    1.9507    1.3523   24.8916 H   0  0  0  0  0
    0.5587    0.3212   25.3042 H   0  0  0  0  0
    0.3549    1.6815   24.1732 H   0  0  0  0  0
    2.9642   -0.7959   28.2498 H   0  0  0  0  0
    3.3318   -0.1377   31.1436 H   0  0  0  0  0
    2.3742   -2.4537   30.7871 H   0  0  0  0  0
    3.9345   -2.3364   31.7233 H   0  0  0  0  0
    5.1615   -3.1247   29.9076 H   0  0  0  0  0
    3.7045   -3.0279   28.8143 H   0  0  0  0  0
    4.8762   -5.1727   28.8154 H   0  0  0  0  0
    5.6087   -0.7684   31.6155 H   0  0  0  0  0
  1  2  1  0  0  0
  2  3  1  0  0  0
  2  5  1  0  0  0
  3  4  2  0  0  0
  3  6  1  0  0  0
  6  7  1  0  0  0
  6 12  1  0  0  0
  7  8  1  0  0  0
  7 10  1  0  0  0
  8  9  2  0  0  0
  8 13  1  0  0  0
 10 11  1  0  0  0
 11 12  1  0  0  0
 13 14  1  0  0  0
 14 15  1  0  0  0
 14 17  1  0  0  0
 15 16  2  0  0  0
 15 19  1  0  0  0
 17 18  1  0  0  0
 19 20  1  0  0  0
 20 21  1  0  0  0
 20 23  1  0  0  0
 21 22  2  0  0  0
 21 30  1  0  0  0
 23 24  1  0  0  0
 24 25  1  0  0  0
 25 26  1  0  0  0
 26 27  1  0  0  0
 27 28  2  0  0  0
 27 29  1  0  0  0
 30 31  1  0  0  0
 31 32  1  0  0  0
 31 34  1  0  0  0
 32 33  2  0  0  0
 32 38  1  0  0  0
 34 35  1  0  0  0
 35 36  1  0  0  0
 35 37  2  0  0  0
 38 39  1  0  0  0
 39 40  1  0  0  0
 39 42  1  0  0  0
 40 41  2  0  0  0
 40 48  1  0  0  0
 42 43  1  0  0  0
 43 44  4  0  0  0
 43 45  4  0  0  0
 44 46  4  0  0  0
 45 47  4  0  0  0
 46 47  4  0  0  0
 48 49  1  0  0  0
 49 50  1  0  0  0
 49 52  1  0  0  0
 50 51  2  0  0  0
 50 56  1  0  0  0
 52 53  1  0  0  0
 53 54  1  0  0  0
 53 55  1  0  0  0
 56 57  1  0  0  0
 57 58  1  0  0  0
 57 60  1  0  0  0
 58 59  2  0  0  0
 58 68  1  0  0  0
 60 61  1  0  0  0
 61 62  4  0  0  0
 61 63  4  0  0  0
 62 64  4  0  0  0
 63 65  4  0  0  0
 64 66  4  0  0  0
 65 66  4  0  0  0
 66 67  1  0  0  0
 68 69  1  0  0  0
 69 70  1  0  0  0
 69 72  1  0  0  0
 70 71  2  0  0  0
 70 76  1  0  0  0
 72 73  1  0  0  0
 73 74  1  0  0  0
 73 75  1  0  0  0
 76 77  1  0  0  0
 76 82  1  0  0  0
 77 78  1  0  0  0
 77 80  1  0  0  0
 78 79  2  0  0  0
 78 83  1  0  0  0
 80 81  1  0  0  0
 81 82  1  0  0  0
 83 84  1  0  0  0
 84 85  1  0  0  0
 84 87  1  0  0  0
 85 86  2  0  0  0
 85 91  1  0  0  0
 87 88  1  0  0  0
 88 89  1  0  0  0
 88 90  1  0  0  0
 91 92  1  0  0  0
 92 93  1  0  0  0
 92 95  1  0  0  0
 93 94  2  0  0  0
 93100  1  0  0  0
 95 96  1  0  0  0
 96 97  1  0  0  0
 97 98  2  0  0  0
 97 99  1  0  0  0
  1101  1  0  0  0
  1102  1  0  0  0
  1103  1  0  0  0
  2104  1  0  0  0
  5105  1  0  0  0
  5106  1  0  0  0
  5107  1  0  0  0
  7108  1  0  0  0
 10109  1  0  0  0
 10110  1  0  0  0
 11111  1  0  0  0
 11112  1  0  0  0
 12113  1  0  0  0
 12114  1  0  0  0
 13115  1  0  0  0
 14116  1  0  0  0
 17117  1  0  0  0
 17118  1  0  0  0
 18119  1  0  0  0
 19120  1  0  0  0
 20121  1  0  0  0
 23122  1  0  0  0
 23123  1  0  0  0
 24124  1  0  0  0
 24125  1  0  0  0
 25126  1  0  0  0
 25127  1  0  0  0
 26128  1  0  0  0
 28129  1  0  0  0
 29130  1  0  0  0
 29131  1  0  0  0
 30132  1  0  0  0
 31133  1  0  0  0
 34134  1  0  0  0
 34135  1  0  0  0
 36136  1  0  0  0
 38137  1  0  0  0
 39138  1  0  0  0
 42139  1  0  0  0
 42140  1  0  0  0
 45141  1  0  0  0
 46142  1  0  0  0
 48143  1  0  0  0
 49144  1  0  0  0
 52145  1  0  0  0
 52146  1  0  0  0
 53147  1  0  0  0
 54148  1  0  0  0
 54149  1  0  0  0
 54150  1  0  0  0
 55151  1  0  0  0
 55152  1  0  0  0
 55153  1  0  0  0
 56154  1  0  0  0
 57155  1  0  0  0
 60156  1  0  0  0
 60157  1  0  0  0
 62158  1  0  0  0
 63159  1  0  0  0
 64160  1  0  0  0
 65161  1  0  0  0
 67162  1  0  0  0
 68163  1  0  0  0
 69164  1  0  0  0
 72165  1  0  0  0
 72166  1  0  0  0
 73167  1  0  0  0
 74168  1  0  0  0
 74169  1  0  0  0
 74170  1  0  0  0
 75171  1  0  0  0
 75172  1  0  0  0
 75173  1  0  0  0
 77174  1  0  0  0
 80175  1  0  0  0
 80176  1  0  0  0
 81177  1  0  0  0
 81178  1  0  0  0
 82179  1  0  0  0
 82180  1  0  0  0
 83181  1  0  0  0
 84182  1  0  0  0
 87183  1  0  0  0
 87184  1  0  0  0
 88185  1  0  0  0
 89186  1  0  0  0
 89187  1  0  0  0
 89188  1  0  0  0
 90189  1  0  0  0
 90190  1  0  0  0
 90191  1  0  0  0
 91192  1  0  0  0
 92193  1  0  0  0
 95194  1  0  0  0
 95195  1  0  0  0
 96196  1  0  0  0
 96197  1  0  0  0
 99198  1  0  0  0
100199  1  0  0  0
M  END
$$$$
