5hvs_ligand
  -I-interpret- 

 48 52  0  0  0  0  0  0  0  0999 V2000
  -12.0170   -7.2840   -6.3530 C   0  0  0  0  0
  -13.3810   -7.3670   -6.5460 C   0  0  0  0  0
  -13.9080   -8.4660   -7.1760 C   0  0  0  0  0
  -13.1540   -9.5090   -7.6470 C   0  0  0  0  0
  -11.7880   -9.4230   -7.4590 C   0  0  0  0  0
  -11.2220   -8.3260   -6.8120 C   0  0  0  0  0
  -13.7320  -10.5990   -8.2560 O   0  0  0  0  0
  -15.2290   -8.5430   -7.3280 F   0  0  0  0  0
  -11.4350   -6.1730   -5.7050 N   0  0  0  0  0
  -10.3210   -6.1910   -4.9910 C   0  0  0  0  0
  -10.1680   -4.9180   -4.5180 C   0  0  0  0  0
  -11.2070   -4.1990   -5.0080 N   0  0  0  0  0
  -12.0860   -4.9660   -5.7520 N   0  0  0  0  0
   -9.1050   -4.3200   -3.7040 C   0  0  0  0  0
   -8.1510   -5.1260   -3.0980 C   0  0  0  0  0
   -7.1440   -4.5290   -2.3560 C   0  0  0  0  0
   -7.1450   -3.1370   -2.2320 C   0  0  0  0  0
   -8.1550   -2.3780   -2.8600 C   0  0  0  0  0
   -9.1200   -2.9840   -3.5960 N   0  0  0  0  0
   -6.1640   -2.4700   -1.4950 C   0  0  0  0  0
   -6.1830   -1.0800   -1.3970 C   0  0  0  0  0
   -7.1780   -0.3410   -2.0360 C   0  0  0  0  0
   -8.1650   -0.9880   -2.7610 C   0  0  0  0  0
   -5.2130   -3.2760   -0.9190 O   0  0  0  0  0
   -4.1310   -2.7000   -0.2870 C   0  0  0  0  0
   -2.9810   -2.2810   -0.9660 C   0  0  0  0  0
   -1.9170   -1.7150   -0.2640 C   0  0  0  0  0
   -2.0080   -1.5630    1.1190 C   0  0  0  0  0
   -3.1670   -1.9760    1.7920 C   0  0  0  0  0
   -4.2180   -2.5460    1.0860 C   0  0  0  0  0
   -3.3070   -1.8510    3.2790 C   0  0  0  0  0
   -2.3080   -1.4950    3.9450 O   0  0  0  0  0
   -4.4060   -2.1260    3.8150 O   0  0  0  0  0
  -14.0344   -6.5658   -6.2007 H   0  0  0  0  0
  -11.1440  -10.2242   -7.8217 H   0  0  0  0  0
  -10.1428   -8.2854   -6.6645 H   0  0  0  0  0
  -13.0471  -11.2194   -8.5160 H   0  0  0  0  0
   -9.6633   -7.0426   -4.8167 H   0  0  0  0  0
   -8.1931   -6.2100   -3.2039 H   0  0  0  0  0
   -6.3696   -5.1309   -1.8805 H   0  0  0  0  0
   -5.4154   -0.5673   -0.8173 H   0  0  0  0  0
   -7.1790    0.7467   -1.9649 H   0  0  0  0  0
   -8.9480   -0.4111   -3.2531 H   0  0  0  0  0
   -2.9167   -2.3975   -2.0478 H   0  0  0  0  0
   -1.0200   -1.3935   -0.7932 H   0  0  0  0  0
   -1.1801   -1.1241    1.6759 H   0  0  0  0  0
   -5.1137   -2.8730    1.6141 H   0  0  0  0  0
   -5.0382   -2.3749    3.1367 H   0  0  0  0  0
  1  2  4  0  0  0
  1  6  4  0  0  0
  1  9  1  0  0  0
  2  3  4  0  0  0
  3  4  4  0  0  0
  3  8  1  0  0  0
  4  5  4  0  0  0
  4  7  1  0  0  0
  5  6  4  0  0  0
  9 10  4  0  0  0
  9 13  4  0  0  0
 10 11  4  0  0  0
 11 12  4  0  0  0
 11 14  1  0  0  0
 12 13  4  0  0  0
 14 15  4  0  0  0
 14 19  4  0  0  0
 15 16  4  0  0  0
 16 17  4  0  0  0
 17 18  4  0  0  0
 17 20  4  0  0  0
 18 19  4  0  0  0
 18 23  4  0  0  0
 20 21  4  0  0  0
 20 24  1  0  0  0
 21 22  4  0  0  0
 22 23  4  0  0  0
 24 25  1  0  0  0
 25 26  4  0  0  0
 25 30  4  0  0  0
 26 27  4  0  0  0
 27 28  4  0  0  0
 28 29  4  0  0  0
 29 30  4  0  0  0
 29 31  1  0  0  0
 31 32  2  0  0  0
 31 33  1  0  0  0
  2 34  1  0  0  0
  5 35  1  0  0  0
  6 36  1  0  0  0
  7 37  1  0  0  0
 10 38  1  0  0  0
 15 39  1  0  0  0
 16 40  1  0  0  0
 21 41  1  0  0  0
 22 42  1  0  0  0
 23 43  1  0  0  0
 26 44  1  0  0  0
 27 45  1  0  0  0
 28 46  1  0  0  0
 30 47  1  0  0  0
 33 48  1  0  0  0
M  END
$$$$
