3s4q_ligand
  -I-interpret- 

 53 57  0  0  0  0  0  0  0  0999 V2000
   -0.2190   -6.9990   13.4740 C   0  0  0  0  0
    1.7650   -4.2270   17.7170 N   0  0  0  0  0
    1.6890   -8.8790   17.3370 O   0  0  0  0  0
    0.6020   -7.6320   12.5690 C   0  0  0  0  0
    2.2390   -2.4740   19.7900 N   0  0  0  0  0
    0.2400   -1.7610   24.4560 O   0  0  0  0  0
    1.6630   -8.3880   13.0200 C   0  0  0  0  0
    1.6080   -2.8720   17.4770 N   0  0  0  0  0
    1.9130   -8.5020   14.3790 C   0  0  0  0  0
    3.1060   -4.2310   21.1510 N   0  0  0  0  0
    1.1030   -7.8450   15.3040 C   0  0  0  0  0
    1.5970   -0.3150   25.5270 N   0  0  0  0  0
    0.0150   -7.1170   14.8350 C   0  0  0  0  0
    1.4790   -7.8180   16.7490 C   0  0  0  0  0
    1.6700   -6.4710   17.4820 C   0  0  0  0  0
    1.4900   -5.2170   16.8390 C   0  0  0  0  0
    2.1630   -4.8030   18.9740 C   0  0  0  0  0
    2.0770   -6.2030   18.8380 C   0  0  0  0  0
    2.2610   -7.1960   19.9070 C   0  0  0  0  0
    2.4540   -3.8250   20.0100 C   0  0  0  0  0
    1.8400   -2.0900   18.5740 C   0  0  0  0  0
    3.3830   -3.3760   22.2260 C   0  0  0  0  0
    2.3300   -2.8510   22.9750 C   0  0  0  0  0
    2.5470   -1.8280   23.8940 C   0  0  0  0  0
    3.8400   -1.3470   24.0760 C   0  0  0  0  0
    4.8970   -1.8960   23.3700 C   0  0  0  0  0
    4.7110   -2.9240   22.4450 C   0  0  0  0  0
    5.8980   -3.5790   21.7830 C   0  0  0  0  0
    1.3660   -1.3050   24.6490 C   0  0  0  0  0
    0.5210    0.4050   26.2080 C   0  0  0  0  0
    0.7960    1.0190   27.5140 C   0  0  0  0  0
   -0.0780   -0.1640   27.4240 C   0  0  0  0  0
   -1.0583   -6.4013   13.1184 H   0  0  0  0  0
    0.4141   -7.5360   11.4996 H   0  0  0  0  0
    2.3082   -8.8984   12.3050 H   0  0  0  0  0
    2.7486   -9.1095   14.7265 H   0  0  0  0  0
    3.4031   -5.2045   21.2180 H   0  0  0  0  0
    2.5626   -0.0545   25.7272 H   0  0  0  0  0
   -0.6591   -6.6354   15.5433 H   0  0  0  0  0
    1.1799   -5.0759   15.8036 H   0  0  0  0  0
    1.3205   -7.7186   20.0815 H   0  0  0  0  0
    3.0261   -7.9124   19.6079 H   0  0  0  0  0
    2.5723   -6.6904   20.8211 H   0  0  0  0  0
    1.6795   -1.0202   18.4401 H   0  0  0  0  0
    1.3236   -3.2470   22.8390 H   0  0  0  0  0
    4.0217   -0.5335   24.7783 H   0  0  0  0  0
    5.9034   -1.5142   23.5417 H   0  0  0  0  0
    5.9450   -4.6270   22.0790 H   0  0  0  0  0
    5.7923   -3.5103   20.7003 H   0  0  0  0  0
    6.8113   -3.0712   22.0931 H   0  0  0  0  0
    0.1280    0.7568   25.2541 H   0  0  0  0  0
    1.2869    1.7870   28.1117 H   0  0  0  0  0
   -0.7073   -0.9123   27.9058 H   0  0  0  0  0
  1  4  4  0  0  0
 13  1  4  0  0  0
  2  8  4  0  0  0
  2 16  4  0  0  0
 17  2  4  0  0  0
 14  3  2  0  0  0
  7  4  4  0  0  0
 20  5  4  0  0  0
  5 21  4  0  0  0
 29  6  2  0  0  0
  9  7  4  0  0  0
 21  8  4  0  0  0
 11  9  4  0  0  0
 10 20  1  0  0  0
 22 10  1  0  0  0
 11 13  4  0  0  0
 14 11  1  0  0  0
 29 12  1  0  0  0
 12 30  1  0  0  0
 15 14  1  0  0  0
 15 16  4  0  0  0
 18 15  4  0  0  0
 17 18  4  0  0  0
 20 17  4  0  0  0
 18 19  1  0  0  0
 23 22  4  0  0  0
 22 27  4  0  0  0
 24 23  4  0  0  0
 24 25  4  0  0  0
 24 29  1  0  0  0
 25 26  4  0  0  0
 26 27  4  0  0  0
 27 28  1  0  0  0
 30 31  1  0  0  0
 30 32  1  0  0  0
 31 32  2  0  0  0
  1 33  1  0  0  0
  4 34  1  0  0  0
  7 35  1  0  0  0
  9 36  1  0  0  0
 10 37  1  0  0  0
 12 38  1  0  0  0
 13 39  1  0  0  0
 16 40  1  0  0  0
 19 41  1  0  0  0
 19 42  1  0  0  0
 19 43  1  0  0  0
 21 44  1  0  0  0
 23 45  1  0  0  0
 25 46  1  0  0  0
 26 47  1  0  0  0
 28 48  1  0  0  0
 28 49  1  0  0  0
 28 50  1  0  0  0
 30 51  1  0  0  0
 31 52  1  0  0  0
 32 53  1  0  0  0
M  END
$$$$
