3t0x_ligand
  -I-interpret- 

 62 65  0  0  0  0  0  0  0  0999 V2000
   20.6780   -2.8900   -8.6810 C   0  0  0  0  0
   22.9360   -2.7410   -9.4870 C   0  0  0  0  0
   22.0430   -2.7250   -8.4300 C   0  0  0  0  0
   22.7530   -2.5440   -7.2810 N   0  3  0  0  0
   24.0670   -2.4440   -7.5680 C   0  0  0  0  0
   24.3520   -2.5420   -9.0310 C   0  0  0  0  0
   25.1130   -2.2260   -6.5090 C   0  0  0  0  0
   26.4020   -2.1360   -6.8420 C   0  0  0  0  0
   27.1670   -1.9260   -5.7450 C   0  0  0  0  0
   28.6580   -1.8210   -5.6620 C   0  0  0  0  0
   29.3110   -1.7270   -4.4220 C   0  0  0  0  0
   30.7100   -1.6800   -4.3550 C   0  0  0  0  0
   31.4510   -1.7220   -5.4860 N   0  0  0  0  0
   30.8360   -1.8530   -6.6740 C   0  0  0  0  0
   29.4500   -1.9070   -6.7960 C   0  0  0  0  0
   31.3300   -1.5580   -3.1120 C   0  0  0  0  0
   30.5880   -1.4800   -1.9360 C   0  0  0  0  0
   29.1990   -1.5330   -2.0010 C   0  0  0  0  0
   28.5710   -1.6520   -3.2420 C   0  0  0  0  0
   32.9310   -1.7200   -5.4720 C   0  0  0  0  0
   33.6480   -0.5740   -4.7680 C   0  0  0  0  0
   34.7900   -1.0630   -3.8620 C   0  0  0  0  0
   36.1950   -1.4810   -4.6710 S   0  0  0  0  0
   25.3080   -3.6800   -9.3840 C   0  0  0  0  0
   24.8500   -1.1730   -9.5160 C   0  0  0  0  0
   22.1680   -2.4660   -5.9160 C   0  0  0  0  0
   20.1930   -3.0700   -9.9800 C   0  0  0  0  0
   37.1570   -2.0320   -3.6990 O   0  0  0  0  0
   21.0940   -3.0840  -11.0440 C   0  0  0  0  0
   36.8000   -0.2980   -5.3190 O   0  0  0  0  0
   22.4640   -2.9200  -10.7990 C   0  0  0  0  0
   35.9400   -2.5080   -5.6970 O   0  0  0  0  0
   19.9768   -2.8781   -7.8466 H   0  0  0  0  0
   24.8162   -2.1411   -5.4636 H   0  0  0  0  0
   26.7865   -2.2201   -7.8585 H   0  0  0  0  0
   26.9924   -2.8479   -5.1902 H   0  0  0  0  0
   26.8720   -0.9115   -5.4770 H   0  0  0  0  0
   31.4450   -1.9194   -7.5755 H   0  0  0  0  0
   28.9903   -2.0163   -7.7783 H   0  0  0  0  0
   32.4182   -1.5229   -3.0596 H   0  0  0  0  0
   31.0904   -1.3784   -0.9740 H   0  0  0  0  0
   28.6050   -1.4819   -1.0885 H   0  0  0  0  0
   27.4826   -1.6869   -3.2898 H   0  0  0  0  0
   33.2265   -1.6421   -6.5183 H   0  0  0  0  0
   33.2127   -2.6160   -4.9189 H   0  0  0  0  0
   32.9210   -0.0555   -4.1429 H   0  0  0  0  0
   34.0782    0.0737   -5.5319 H   0  0  0  0  0
   34.4336   -1.9624   -3.3598 H   0  0  0  0  0
   35.0413   -0.2382   -3.1952 H   0  0  0  0  0
   25.4246   -3.7323  -10.4665 H   0  0  0  0  0
   26.2775   -3.4951   -8.9213 H   0  0  0  0  0
   24.9017   -4.6218   -9.0152 H   0  0  0  0  0
   25.8132   -0.9540   -9.0551 H   0  0  0  0  0
   24.9603   -1.1912  -10.6002 H   0  0  0  0  0
   24.1288   -0.4053   -9.2357 H   0  0  0  0  0
   22.5817   -3.2634   -5.2987 H   0  0  0  0  0
   22.4094   -1.4996   -5.4733 H   0  0  0  0  0
   21.0856   -2.5780   -5.9790 H   0  0  0  0  0
   19.1253   -3.1976  -10.1584 H   0  0  0  0  0
   20.7338   -3.2221  -12.0634 H   0  0  0  0  0
   36.1811    0.0689   -5.9546 H   0  0  0  0  0
   23.1681   -2.9313  -11.6310 H   0  0  0  0  0
  1  3  4  0  0  0
  1 27  4  0  0  0
  3  2  4  0  0  0
  2  6  1  0  0  0
  2 31  4  0  0  0
  3  4  1  0  0  0
  4  5  2  0  0  0
  4 26  1  0  0  0
  5  6  1  0  0  0
  5  7  1  0  0  0
  6 24  1  0  0  0
  6 25  1  0  0  0
  7  8  2  0  0  0
  8  9  1  0  0  0
  9 10  1  0  0  0
 10 11  4  0  0  0
 10 15  4  0  0  0
 11 12  4  0  0  0
 11 19  4  0  0  0
 12 13  4  0  0  0
 12 16  4  0  0  0
 13 14  4  0  0  0
 13 20  1  0  0  0
 14 15  4  0  0  0
 16 17  4  0  0  0
 17 18  4  0  0  0
 18 19  4  0  0  0
 20 21  1  0  0  0
 21 22  1  0  0  0
 22 23  1  0  0  0
 23 28  2  0  0  0
 23 30  1  0  0  0
 23 32  2  0  0  0
 27 29  4  0  0  0
 29 31  4  0  0  0
  1 33  1  0  0  0
  7 34  1  0  0  0
  8 35  1  0  0  0
  9 36  1  0  0  0
  9 37  1  0  0  0
 14 38  1  0  0  0
 15 39  1  0  0  0
 16 40  1  0  0  0
 17 41  1  0  0  0
 18 42  1  0  0  0
 19 43  1  0  0  0
 20 44  1  0  0  0
 20 45  1  0  0  0
 21 46  1  0  0  0
 21 47  1  0  0  0
 22 48  1  0  0  0
 22 49  1  0  0  0
 24 50  1  0  0  0
 24 51  1  0  0  0
 24 52  1  0  0  0
 25 53  1  0  0  0
 25 54  1  0  0  0
 25 55  1  0  0  0
 26 56  1  0  0  0
 26 57  1  0  0  0
 26 58  1  0  0  0
 27 59  1  0  0  0
 29 60  1  0  0  0
 30 61  1  0  0  0
 31 62  1  0  0  0
M  END
$$$$
