2QL5_LIGAND
  -I-interpret- 

 63 62  0  0  0  0  0  0  0  0999 V2000
   47.5250  -11.6620   30.7800 N   0  3  0  0  0
   47.1790  -13.0850   30.8760 C   0  0  0  0  0
   48.1380  -13.8090   31.8110 C   0  0  0  0  0
   49.3010  -13.4170   31.9380 O   0  0  0  0  0
   47.2860  -13.5950   29.4330 C   0  0  0  0  0
   46.2160  -13.0110   28.5090 C   0  0  0  0  0
   45.0140  -13.0630   28.8560 O   0  0  0  0  0
   46.5800  -12.5110   27.4240 O   0  0  0  0  0
   47.6350  -14.8550   32.4660 N   0  0  0  0  0
   48.4090  -15.6540   33.4150 C   0  0  0  0  0
   48.5540  -17.0910   32.9120 C   0  0  0  0  0
   47.8960  -17.4840   31.9480 O   0  0  0  0  0
   47.7030  -15.6630   34.7700 C   0  0  0  0  0
   47.5420  -14.2930   35.4070 C   0  0  0  0  0
   49.0700  -13.7100   36.1710 S   0  0  0  0  0
   49.8820  -12.8740   34.7690 C   0  0  0  0  0
   49.4100  -17.8710   33.5710 N   0  0  0  0  0
   49.6200  -19.2640   33.1790 C   0  0  0  0  0
   49.1440  -20.2490   34.2560 C   0  0  0  0  0
   49.1350  -19.9270   35.4450 O   0  0  0  0  0
   51.1000  -19.5240   32.8660 C   0  0  0  0  0
   51.6970  -18.6560   31.7550 C   0  0  0  0  0
   52.3150  -17.3650   32.2810 C   0  0  0  0  0
   53.1510  -17.3940   33.1870 O   0  0  0  0  0
   51.9140  -16.2300   31.7120 N   0  0  0  0  0
   48.7540  -21.4480   33.8270 N   0  0  0  0  0
   48.2760  -22.4940   34.7270 C   0  0  0  0  0
   49.1180  -23.7350   34.6330 C   0  0  0  0  0
   49.8000  -23.9860   35.8610 O   0  0  0  0  0
   46.8420  -22.8960   34.3820 C   0  0  0  0  0
   45.8170  -21.9440   34.9490 C   0  0  0  0  0
   44.7730  -21.7370   34.2970 O   0  0  0  0  0
   46.0520  -21.4010   36.0450 O   0  0  0  0  0
   47.4785  -11.2387   31.7069 H   0  0  0  0  0
   48.4703  -11.5675   30.4088 H   0  0  0  0  0
   46.8658  -11.1943   30.1579 H   0  0  0  0  0
   46.1862  -13.2566   31.2919 H   0  0  0  0  0
   47.1516  -14.6765   29.4532 H   0  0  0  0  0
   48.2589  -13.2920   29.0460 H   0  0  0  0  0
   44.9486  -13.4821   29.7172 H   0  0  0  0  0
   46.6622  -15.1108   32.2970 H   0  0  0  0  0
   49.4006  -15.2127   33.5157 H   0  0  0  0  0
   48.3175  -16.2582   35.4455 H   0  0  0  0  0
   46.7003  -16.0571   34.6042 H   0  0  0  0  0
   46.7821  -14.3686   36.1848 H   0  0  0  0  0
   47.2637  -13.5867   34.6249 H   0  0  0  0  0
   50.0479  -13.5922   33.9660 H   0  0  0  0  0
   49.2438  -12.0666   34.4100 H   0  0  0  0  0
   50.8381  -12.4652   35.0957 H   0  0  0  0  0
   49.9278  -17.4897   34.3628 H   0  0  0  0  0
   49.0224  -19.4298   32.2827 H   0  0  0  0  0
   51.1699  -20.5572   32.5260 H   0  0  0  0  0
   51.6561  -19.2933   33.7747 H   0  0  0  0  0
   50.8909  -18.3863   31.0727 H   0  0  0  0  0
   52.4864  -19.2306   31.2704 H   0  0  0  0  0
   52.3011  -15.3390   32.0230 H   0  0  0  0  0
   51.2197  -16.2515   30.9651 H   0  0  0  0  0
   48.7908  -21.6441   32.8267 H   0  0  0  0  0
   48.3320  -22.0794   35.7335 H   0  0  0  0  0
   49.1973  -24.3609   33.7441 H   0  0  0  0  0
   46.6580  -23.8805   34.8121 H   0  0  0  0  0
   46.7437  -22.8856   33.2965 H   0  0  0  0  0
   44.7950  -22.2527   33.4876 H   0  0  0  0  0
  1  2  1  0  0  0
  2  3  1  0  0  0
  2  5  1  0  0  0
  3  4  2  0  0  0
  3  9  1  0  0  0
  5  6  1  0  0  0
  6  7  1  0  0  0
  6  8  2  0  0  0
  9 10  1  0  0  0
 10 11  1  0  0  0
 10 13  1  0  0  0
 11 12  2  0  0  0
 11 17  1  0  0  0
 13 14  1  0  0  0
 14 15  1  0  0  0
 15 16  1  0  0  0
 17 18  1  0  0  0
 18 19  1  0  0  0
 18 21  1  0  0  0
 19 20  2  0  0  0
 19 26  1  0  0  0
 21 22  1  0  0  0
 22 23  1  0  0  0
 23 24  2  0  0  0
 23 25  1  0  0  0
 26 27  1  0  0  0
 27 28  1  0  0  0
 27 30  1  0  0  0
 28 29  2  0  0  0
 30 31  1  0  0  0
 31 32  1  0  0  0
 31 33  2  0  0  0
  1 34  1  0  0  0
  1 35  1  0  0  0
  1 36  1  0  0  0
  2 37  1  0  0  0
  5 38  1  0  0  0
  5 39  1  0  0  0
  7 40  1  0  0  0
  9 41  1  0  0  0
 10 42  1  0  0  0
 13 43  1  0  0  0
 13 44  1  0  0  0
 14 45  1  0  0  0
 14 46  1  0  0  0
 16 47  1  0  0  0
 16 48  1  0  0  0
 16 49  1  0  0  0
 17 50  1  0  0  0
 18 51  1  0  0  0
 21 52  1  0  0  0
 21 53  1  0  0  0
 22 54  1  0  0  0
 22 55  1  0  0  0
 25 56  1  0  0  0
 25 57  1  0  0  0
 26 58  1  0  0  0
 27 59  1  0  0  0
 28 60  1  0  0  0
 30 61  1  0  0  0
 30 62  1  0  0  0
 32 63  1  0  0  0
M  END
$$$$
