5nn6_ligand
  -I-interpret- 

 32 32  0  0  0  0  0  0  0  0999 V2000
  -17.2770  -34.7580   94.0600 O   0  0  0  0  0
  -16.5440  -30.1440   96.3220 O   0  0  0  0  0
  -11.3190  -32.3980   94.3060 O   0  0  0  0  0
  -11.3330  -30.7800   96.7230 O   0  0  0  0  0
  -13.6130  -31.0370   98.3700 O   0  0  0  0  0
  -16.3070  -34.1640   94.9240 C   0  0  0  0  0
  -16.2270  -31.3520   97.0260 C   0  0  0  0  0
  -16.1050  -32.7150   94.4660 C   0  0  0  0  0
  -13.6850  -32.6960   94.5510 C   0  0  0  0  0
  -12.4960  -31.8180   94.8750 C   0  0  0  0  0
  -12.4010  -31.6600   96.3870 C   0  0  0  0  0
  -13.7040  -31.1150   96.9550 C   0  0  0  0  0
  -14.9160  -31.9560   96.5260 C   0  0  0  0  0
  -14.9140  -32.0510   95.0540 N   0  3  0  0  0
  -17.4240  -35.6691   94.3243 H   0  0  0  0  0
  -17.3704  -29.7877   96.6562 H   0  0  0  0  0
  -10.5610  -31.8448   94.5085 H   0  0  0  0  0
  -11.2834  -30.6886   97.6774 H   0  0  0  0  0
  -14.4364  -30.6930   98.7240 H   0  0  0  0  0
  -15.3667  -34.7132   94.8749 H   0  0  0  0  0
  -16.6507  -34.1918   95.9580 H   0  0  0  0  0
  -17.0278  -32.0723   96.8585 H   0  0  0  0  0
  -16.1207  -31.1192   98.0855 H   0  0  0  0  0
  -16.9799  -32.1508   94.7889 H   0  0  0  0  0
  -15.9607  -32.7364   93.3858 H   0  0  0  0  0
  -13.5616  -33.6696   95.0254 H   0  0  0  0  0
  -13.7574  -32.8311   93.4718 H   0  0  0  0  0
  -12.6083  -30.8226   94.4454 H   0  0  0  0  0
  -12.2114  -32.6426   96.8191 H   0  0  0  0  0
  -13.8582  -30.1147   96.5503 H   0  0  0  0  0
  -14.8392  -32.9492   96.9685 H   0  0  0  0  0
  -14.9485  -31.0797   94.7444 H   0  0  0  0  0
  6  1  1  0  0  0
  7  2  1  0  0  0
 10  3  1  0  0  0
 11  4  1  0  0  0
 12  5  1  0  0  0
  8  6  1  0  0  0
 13  7  1  0  0  0
 14  8  1  0  0  0
 10  9  1  0  0  0
  9 14  1  0  0  0
 11 10  1  0  0  0
 12 11  1  0  0  0
 12 13  1  0  0  0
 13 14  1  0  0  0
  1 15  1  0  0  0
  2 16  1  0  0  0
  3 17  1  0  0  0
  4 18  1  0  0  0
  5 19  1  0  0  0
  6 20  1  0  0  0
  6 21  1  0  0  0
  7 22  1  0  0  0
  7 23  1  0  0  0
  8 24  1  0  0  0
  8 25  1  0  0  0
  9 26  1  0  0  0
  9 27  1  0  0  0
 10 28  1  0  0  0
 11 29  1  0  0  0
 12 30  1  0  0  0
 13 31  1  0  0  0
 14 32  1  0  0  0
M  END
$$$$
