### 
### Created by X-TOOL on Mon Sep 10 21:13:26 2018
### 

@<TRIPOS>MOLECULE
5jic_ligand
   55    54     1     0     0
SMALL
GAST_HUCK


@<TRIPOS>ATOM
      1 O01       -10.2030  -14.6750   -4.0580 O.co2     1 N7E        -0.5537
      2 P02       -10.7210  -16.0660   -4.6520 P.3       1 N7E         0.2007
      3 O03       -11.3520  -16.9970   -3.5940 O.co2     1 N7E        -0.5537
      4 O04        -9.6270  -16.8120   -5.4050 O.co2     1 N7E        -0.5537
      5 O05       -11.8970  -15.7220   -5.7120 O.3       1 N7E        -0.2753
      6 C06       -11.6930  -15.0540   -6.9160 C.3       1 N7E         0.0880
      7 C07       -12.5050  -13.7630   -6.9800 C.3       1 N7E         0.0360
      8 C08       -14.0180  -14.1650   -7.0230 C.3       1 N7E        -0.0529
      9 C09       -12.1160  -13.1170   -8.3010 C.3       1 N7E        -0.0529
     10 C10       -12.1980  -12.8420   -5.7670 C.3       1 N7E         0.1510
     11 O11       -10.7730  -12.6610   -5.6210 O.3       1 N7E        -0.3708
     12 C12       -12.8810  -11.4740   -5.9290 C.2       1 N7E         0.2057
     13 O13       -14.1150  -11.3520   -5.9290 O.2       1 N7E        -0.3942
     14 N14       -12.0410  -10.4630   -6.1000 N.am      1 N7E        -0.2826
     15 C15       -12.5650   -9.0820   -6.2430 C.3       1 N7E         0.0477
     16 C16       -13.0380   -8.8100   -7.6790 C.3       1 N7E         0.0574
     17 C17       -13.7940   -7.4960   -7.6650 C.2       1 N7E         0.1779
     18 O18       -14.9720   -7.4570   -7.3290 O.2       1 N7E        -0.3970
     19 N19       -13.1040   -6.3920   -7.9940 N.am      1 N7E        -0.2869
     20 C20       -13.7290   -5.1000   -7.9420 C.3       1 N7E         0.0309
     21 C21       -12.8130   -3.9650   -8.3040 C.3       1 N7E        -0.0327
     22 C22       -12.5330   -3.9110   -9.7970 C.3       1 N7E        -0.0492
     23 C23       -11.8580   -2.6130  -10.1890 C.3       1 N7E        -0.0294
     24 C24       -11.6450   -2.3930  -11.6490 C.3       1 N7E         0.0473
     25 O25       -10.9190   -3.4650  -12.2820 O.3       1 N7E        -0.3830
     26 C26       -10.5830   -3.1760  -13.6320 C.3       1 N7E         0.0364
     27 H1        -11.9970  -15.7096   -7.7453 H         1 N7E         0.0620
     28 H2        -10.6248  -14.8103   -7.0138 H         1 N7E         0.0620
     29 H3        -14.6374  -13.2572   -7.0697 H         1 N7E         0.0238
     30 H4        -14.2717  -14.7357   -6.1175 H         1 N7E         0.0238
     31 H5        -14.2077  -14.7844   -7.9120 H         1 N7E         0.0238
     32 H6        -11.0534  -12.8342   -8.2719 H         1 N7E         0.0238
     33 H7        -12.7300  -12.2192   -8.4650 H         1 N7E         0.0238
     34 H8        -12.2832  -13.8304   -9.1214 H         1 N7E         0.0238
     35 H9        -12.5874  -13.3227   -4.8574 H         1 N7E         0.0844
     36 H10       -10.3603  -13.5053   -5.4816 H         1 N7E         0.2133
     37 H11       -11.0557  -10.6306   -6.1326 H         1 N7E         0.1853
     38 H12       -11.7682   -8.3682   -5.9871 H         1 N7E         0.0545
     39 H13       -13.4127   -8.9474   -5.5551 H         1 N7E         0.0545
     40 H14       -13.6997   -9.6210   -8.0171 H         1 N7E         0.0522
     41 H15       -12.1718   -8.7384   -8.3532 H         1 N7E         0.0522
     42 H16       -12.1481   -6.4700   -8.2772 H         1 N7E         0.1850
     43 H17       -14.0976   -4.9346   -6.9189 H         1 N7E         0.0520
     44 H18       -14.5772   -5.0972   -8.6423 H         1 N7E         0.0520
     45 H19       -11.8606   -4.0932   -7.7688 H         1 N7E         0.0285
     46 H20       -13.2819   -3.0187   -7.9965 H         1 N7E         0.0285
     47 H21       -13.4843   -3.9979  -10.3424 H         1 N7E         0.0267
     48 H22       -11.8767   -4.7511  -10.0681 H         1 N7E         0.0267
     49 H23       -10.8735   -2.5860   -9.6990 H         1 N7E         0.0287
     50 H24       -12.4779   -1.7859   -9.8125 H         1 N7E         0.0287
     51 H25       -11.0789   -1.4595  -11.7835 H         1 N7E         0.0560
     52 H26       -12.6269   -2.2998  -12.1360 H         1 N7E         0.0560
     53 H27       -10.0325   -4.0254  -14.0627 H         1 N7E         0.0523
     54 H28        -9.9534   -2.2748  -13.6683 H         1 N7E         0.0523
     55 H29       -11.5029   -3.0042  -14.2101 H         1 N7E         0.0523
@<TRIPOS>BOND
     1    1    2 ar 
     2    2    3 ar 
     3    2    4 ar 
     4    2    5 1  
     5    5    6 1  
     6    6    7 1  
     7    7    8 1  
     8    7    9 1  
     9    7   10 1  
    10   10   11 1  
    11   10   12 1  
    12   12   13 2  
    13   12   14 am 
    14   14   15 1  
    15   15   16 1  
    16   16   17 1  
    17   17   18 2  
    18   17   19 am 
    19   19   20 1  
    20   20   21 1  
    21   21   22 1  
    22   22   23 1  
    23   23   24 1  
    24   24   25 1  
    25   25   26 1  
    26    6   27 1  
    27    6   28 1  
    28    8   29 1  
    29    8   30 1  
    30    8   31 1  
    31    9   32 1  
    32    9   33 1  
    33    9   34 1  
    34   10   35 1  
    35   11   36 1  
    36   14   37 1  
    37   15   38 1  
    38   15   39 1  
    39   16   40 1  
    40   16   41 1  
    41   19   42 1  
    42   20   43 1  
    43   20   44 1  
    44   21   45 1  
    45   21   46 1  
    46   22   47 1  
    47   22   48 1  
    48   23   49 1  
    49   23   50 1  
    50   24   51 1  
    51   24   52 1  
    52   26   53 1  
    53   26   54 1  
    54   26   55 1  
@<TRIPOS>SUBSTRUCTURE
     1 N7E         1

