5jic_ligand
  -I-interpret- 

 57 56  0  0  0  0  0  0  0  0999 V2000
  -10.2030  -14.6750   -4.0580 O   0  0  0  0  0
  -10.7210  -16.0660   -4.6520 P   0  0  0  0  0
  -11.3520  -16.9970   -3.5940 O   0  0  0  0  0
   -9.6270  -16.8120   -5.4050 O   0  0  0  0  0
  -11.8970  -15.7220   -5.7120 O   0  0  0  0  0
  -11.6930  -15.0540   -6.9160 C   0  0  0  0  0
  -12.5050  -13.7630   -6.9800 C   0  0  0  0  0
  -14.0180  -14.1650   -7.0230 C   0  0  0  0  0
  -12.1160  -13.1170   -8.3010 C   0  0  0  0  0
  -12.1980  -12.8420   -5.7670 C   0  0  0  0  0
  -10.7730  -12.6610   -5.6210 O   0  0  0  0  0
  -12.8810  -11.4740   -5.9290 C   0  0  0  0  0
  -14.1150  -11.3520   -5.9290 O   0  0  0  0  0
  -12.0410  -10.4630   -6.1000 N   0  0  0  0  0
  -12.5650   -9.0820   -6.2430 C   0  0  0  0  0
  -13.0380   -8.8100   -7.6790 C   0  0  0  0  0
  -13.7940   -7.4960   -7.6650 C   0  0  0  0  0
  -14.9720   -7.4570   -7.3290 O   0  0  0  0  0
  -13.1040   -6.3920   -7.9940 N   0  0  0  0  0
  -13.7290   -5.1000   -7.9420 C   0  0  0  0  0
  -12.8130   -3.9650   -8.3040 C   0  0  0  0  0
  -12.5330   -3.9110   -9.7970 C   0  0  0  0  0
  -11.8580   -2.6130  -10.1890 C   0  0  0  0  0
  -11.6450   -2.3930  -11.6490 C   0  0  0  0  0
  -10.9190   -3.4650  -12.2820 O   0  0  0  0  0
  -10.5830   -3.1760  -13.6320 C   0  0  0  0  0
  -10.9213  -14.2395   -3.5932 H   0  0  0  0  0
  -12.0406  -16.5229   -3.1221 H   0  0  0  0  0
  -12.0109  -15.7041   -7.7311 H   0  0  0  0  0
  -10.6355  -14.8027   -6.9980 H   0  0  0  0  0
  -14.6248  -13.2743   -7.1859 H   0  0  0  0  0
  -14.1819  -14.8716   -7.8366 H   0  0  0  0  0
  -14.2967  -14.6279   -6.0763 H   0  0  0  0  0
  -12.2822  -13.8249   -9.1130 H   0  0  0  0  0
  -12.7251  -12.2276   -8.4623 H   0  0  0  0  0
  -11.0629  -12.8372   -8.2710 H   0  0  0  0  0
  -12.5916  -13.3235   -4.8718 H   0  0  0  0  0
  -10.5994  -12.0906   -4.8686 H   0  0  0  0  0
  -11.0360  -10.6340   -6.1332 H   0  0  0  0  0
  -11.7656   -8.3811   -6.0025 H   0  0  0  0  0
  -13.4136   -8.9616   -5.5696 H   0  0  0  0  0
  -13.6811   -9.6174   -8.0292 H   0  0  0  0  0
  -12.1870   -8.7543   -8.3578 H   0  0  0  0  0
  -12.1290   -6.4716   -8.2829 H   0  0  0  0  0
  -14.0544   -4.9386   -6.9143 H   0  0  0  0  0
  -14.5423   -5.1041   -8.6677 H   0  0  0  0  0
  -11.8659   -4.1135   -7.7854 H   0  0  0  0  0
  -13.2965   -3.0320   -8.0146 H   0  0  0  0  0
  -13.4819   -3.9809  -10.3288 H   0  0  0  0  0
  -11.8691   -4.7365  -10.0537 H   0  0  0  0  0
  -10.8659   -2.6387   -9.7381 H   0  0  0  0  0
  -12.5199   -1.8139   -9.8552 H   0  0  0  0  0
  -11.0580   -1.4818  -11.7646 H   0  0  0  0  0
  -12.6254   -2.3326  -12.1214 H   0  0  0  0  0
  -11.4953   -3.0060  -14.2037 H   0  0  0  0  0
   -9.9592   -2.2828  -13.6666 H   0  0  0  0  0
  -10.0376   -4.0183  -14.0576 H   0  0  0  0  0
  1  2  1  0  0  0
  2  3  1  0  0  0
  2  4  2  0  0  0
  2  5  1  0  0  0
  5  6  1  0  0  0
  6  7  1  0  0  0
  7  8  1  0  0  0
  7  9  1  0  0  0
  7 10  1  0  0  0
 10 11  1  0  0  0
 10 12  1  0  0  0
 12 13  2  0  0  0
 12 14  1  0  0  0
 14 15  1  0  0  0
 15 16  1  0  0  0
 16 17  1  0  0  0
 17 18  2  0  0  0
 17 19  1  0  0  0
 19 20  1  0  0  0
 20 21  1  0  0  0
 21 22  1  0  0  0
 22 23  1  0  0  0
 23 24  1  0  0  0
 24 25  1  0  0  0
 25 26  1  0  0  0
  1 27  1  0  0  0
  3 28  1  0  0  0
  6 29  1  0  0  0
  6 30  1  0  0  0
  8 31  1  0  0  0
  8 32  1  0  0  0
  8 33  1  0  0  0
  9 34  1  0  0  0
  9 35  1  0  0  0
  9 36  1  0  0  0
 10 37  1  0  0  0
 11 38  1  0  0  0
 14 39  1  0  0  0
 15 40  1  0  0  0
 15 41  1  0  0  0
 16 42  1  0  0  0
 16 43  1  0  0  0
 19 44  1  0  0  0
 20 45  1  0  0  0
 20 46  1  0  0  0
 21 47  1  0  0  0
 21 48  1  0  0  0
 22 49  1  0  0  0
 22 50  1  0  0  0
 23 51  1  0  0  0
 23 52  1  0  0  0
 24 53  1  0  0  0
 24 54  1  0  0  0
 26 55  1  0  0  0
 26 56  1  0  0  0
 26 57  1  0  0  0
M  END
$$$$
