1qbq_ligand
  -I-interpret- 

 47 46  0  0  0  0  0  0  0  0999 V2000
  197.7660  126.0930   32.6320 P   0  0  0  0  0
  198.9400  126.9520   32.6260 O   0  0  0  0  0
  198.0850  124.6460   33.1350 O   0  0  0  0  0
  196.6260  126.6790   33.4890 O   0  0  0  0  0
  197.1530  125.9630   30.9050 C   0  0  0  0  0
  197.3570  127.2210   30.2330 O   0  0  0  0  0
  195.6740  125.6470   30.9190 C   0  0  0  0  0
  195.1050  124.7900   30.0580 C   0  0  0  0  0
  195.9350  124.0970   29.0060 C   0  0  0  0  0
  193.6120  124.5120   30.1220 C   0  0  0  0  0
  193.1310  124.2850   31.5860 C   0  0  0  0  0
  191.9070  123.3810   31.6060 C   0  0  0  0  0
  191.0900  123.3030   32.6730 C   0  0  0  0  0
  191.3850  124.1140   33.9120 C   0  0  0  0  0
  189.8710  122.3880   32.6710 C   0  0  0  0  0
  188.7720  122.9300   31.7860 C   0  0  0  0  0
  187.5110  122.0950   31.9720 C   0  0  0  0  0
  186.3380  122.3820   31.3550 C   0  0  0  0  0
  186.2070  123.5610   30.4170 C   0  0  0  0  0
  185.1120  121.5150   31.5740 C   0  0  0  0  0
  197.2825  124.1194   33.1209 H   0  0  0  0  0
  195.8725  126.0845   33.4670 H   0  0  0  0  0
  197.6939  125.1721   30.3854 H   0  0  0  0  0
  198.2944  127.4276   30.2207 H   0  0  0  0  0
  195.0432  126.1368   31.6608 H   0  0  0  0  0
  196.3982  124.8433   28.3606 H   0  0  0  0  0
  196.7096  123.5021   29.4899 H   0  0  0  0  0
  195.2947  123.4466   28.4101 H   0  0  0  0  0
  193.4059  123.6082   29.5486 H   0  0  0  0  0
  193.0841  125.3753   29.7168 H   0  0  0  0  0
  192.8702  125.2467   32.0279 H   0  0  0  0  0
  193.9319  123.8120   32.1543 H   0  0  0  0  0
  191.6844  122.7764   30.7268 H   0  0  0  0  0
  192.3611  123.8310   34.3060 H   0  0  0  0  0
  191.3874  125.1742   33.6587 H   0  0  0  0  0
  190.6187  123.9202   34.6625 H   0  0  0  0  0
  189.4904  122.3181   33.6900 H   0  0  0  0  0
  190.1723  121.4127   32.2887 H   0  0  0  0  0
  189.0884  122.8828   30.7440 H   0  0  0  0  0
  188.5651  123.9654   32.0568 H   0  0  0  0  0
  187.5538  121.2277   32.6308 H   0  0  0  0  0
  186.4365  124.4800   30.9563 H   0  0  0  0  0
  186.9030  123.4421   29.5866 H   0  0  0  0  0
  185.1874  123.6077   30.0344 H   0  0  0  0  0
  185.3273  120.4958   31.2532 H   0  0  0  0  0
  184.8517  121.5168   32.6325 H   0  0  0  0  0
  184.2794  121.9119   30.9931 H   0  0  0  0  0
  5  1  1  0  0  0
  1  4  1  0  0  0
  1  3  1  0  0  0
  1  2  2  0  0  0
  5  7  1  0  0  0
  5  6  1  0  0  0
  7  8  2  0  0  0
  8 10  1  0  0  0
  8  9  1  0  0  0
 10 11  1  0  0  0
 11 12  1  0  0  0
 12 13  2  0  0  0
 13 15  1  0  0  0
 13 14  1  0  0  0
 15 16  1  0  0  0
 16 17  1  0  0  0
 17 18  2  0  0  0
 18 20  1  0  0  0
 18 19  1  0  0  0
  3 21  1  0  0  0
  4 22  1  0  0  0
  5 23  1  0  0  0
  6 24  1  0  0  0
  7 25  1  0  0  0
  9 26  1  0  0  0
  9 27  1  0  0  0
  9 28  1  0  0  0
 10 29  1  0  0  0
 10 30  1  0  0  0
 11 31  1  0  0  0
 11 32  1  0  0  0
 12 33  1  0  0  0
 14 34  1  0  0  0
 14 35  1  0  0  0
 14 36  1  0  0  0
 15 37  1  0  0  0
 15 38  1  0  0  0
 16 39  1  0  0  0
 16 40  1  0  0  0
 17 41  1  0  0  0
 19 42  1  0  0  0
 19 43  1  0  0  0
 19 44  1  0  0  0
 20 45  1  0  0  0
 20 46  1  0  0  0
 20 47  1  0  0  0
M  END
$$$$
