3cfn_ligand
  -I-interpret- 

 34 36  0  0  0  0  0  0  0  0999 V2000
  -24.2300   -0.6460   -4.1920 C   0  0  0  0  0
  -24.2910   -1.8480   -4.9040 C   0  0  0  0  0
  -25.3210   -2.7580   -4.7090 C   0  0  0  0  0
  -26.3120   -2.4640   -3.7810 C   0  0  0  0  0
  -26.2710   -1.2750   -3.0600 C   0  0  0  0  0
  -27.2990   -1.0470   -2.1480 C   0  0  0  0  0
  -27.3170    0.1200   -1.3970 C   0  0  0  0  0
  -26.3000    1.0510   -1.5650 C   0  0  0  0  0
  -23.1900    0.1950   -4.4310 N   0  0  0  0  0
  -24.1580    2.0180   -2.5410 S   0  0  0  0  0
  -25.2570    0.8450   -2.4730 C   0  0  0  0  0
  -25.2310   -0.3410   -3.2450 C   0  0  0  0  0
  -22.5030    0.2340   -5.6030 C   0  0  0  0  0
  -21.4820   -0.6870   -5.8620 C   0  0  0  0  0
  -20.7760   -0.6430   -7.0640 C   0  0  0  0  0
  -21.0830    0.3350   -8.0110 C   0  0  0  0  0
  -22.0980    1.2590   -7.7550 C   0  0  0  0  0
  -22.8050    1.2110   -6.5530 C   0  0  0  0  0
  -24.3570    2.9120   -1.3860 O   0  0  0  0  0
  -24.3060    2.7870   -3.7970 O   0  0  0  0  0
  -22.7940    1.4610   -2.4570 O   0  0  0  0  0
  -23.5106   -2.0760   -5.6300 H   0  0  0  0  0
  -25.3517   -3.6888   -5.2753 H   0  0  0  0  0
  -27.1267   -3.1692   -3.6168 H   0  0  0  0  0
  -28.0904   -1.7862   -2.0240 H   0  0  0  0  0
  -28.1202    0.3039   -0.6834 H   0  0  0  0  0
  -26.3155    1.9663   -0.9734 H   0  0  0  0  0
  -22.9085    0.8342   -3.6877 H   0  0  0  0  0
  -21.2364   -1.4451   -5.1183 H   0  0  0  0  0
  -19.9879   -1.3693   -7.2629 H   0  0  0  0  0
  -20.5308    0.3775   -8.9498 H   0  0  0  0  0
  -22.3389    2.0205   -8.4967 H   0  0  0  0  0
  -23.5937    1.9370   -6.3558 H   0  0  0  0  0
  -24.1757    2.2015   -4.5466 H   0  0  0  0  0
  1  2  4  0  0  0
  1  9  1  0  0  0
  1 12  4  0  0  0
  2  3  4  0  0  0
  3  4  4  0  0  0
  4  5  4  0  0  0
  5  6  4  0  0  0
  5 12  4  0  0  0
  6  7  4  0  0  0
  7  8  4  0  0  0
  8 11  4  0  0  0
  9 13  1  0  0  0
 11 10  1  0  0  0
 10 19  2  0  0  0
 10 20  1  0  0  0
 10 21  2  0  0  0
 11 12  4  0  0  0
 13 14  4  0  0  0
 13 18  4  0  0  0
 14 15  4  0  0  0
 15 16  4  0  0  0
 16 17  4  0  0  0
 17 18  4  0  0  0
  2 22  1  0  0  0
  3 23  1  0  0  0
  4 24  1  0  0  0
  6 25  1  0  0  0
  7 26  1  0  0  0
  8 27  1  0  0  0
  9 28  1  0  0  0
 14 29  1  0  0  0
 15 30  1  0  0  0
 16 31  1  0  0  0
 17 32  1  0  0  0
 18 33  1  0  0  0
 20 34  1  0  0  0
M  END
$$$$
