5i5z_ligand
  -I-interpret- 

 42 45  0  0  0  0  0  0  0  0999 V2000
   36.8380   57.9070   55.3620 C   0  0  0  0  0
   38.8830   59.0990   55.9990 C   0  0  0  0  0
   40.1200   59.8280   55.6090 C   0  0  0  0  0
   41.7280   60.2360   53.9660 C   0  0  0  0  0
   42.4180   61.1120   54.8500 C   0  0  0  0  0
   43.5900   61.7400   54.4010 C   0  0  0  0  0
   41.6350   59.1410   51.6960 C   0  0  0  0  0
   41.5400   57.7890   52.0170 C   0  0  0  0  0
   40.9470   56.8920   51.1460 C   0  0  0  0  0
   40.7810   55.4100   51.4000 C   0  0  0  0  0
   38.5900   54.5270   50.1820 O   0  0  0  0  0
   39.8470   56.3250   49.1040 N   0  0  0  0  0
   39.2480   56.5160   47.7770 C   0  0  0  0  0
   40.4310   57.3060   49.9280 C   0  0  0  0  0
   38.0530   58.6450   55.0330 N   0  0  0  0  0
   38.6460   58.8830   57.1780 O   0  0  0  0  0
   40.6200   59.6370   54.3870 N   0  0  0  0  0
   41.9100   61.3260   56.1500 C   0  0  0  0  0
   40.7630   60.6820   56.5280 C   0  0  0  0  0
   44.0510   61.5230   53.1850 N   0  0  0  0  0
   43.4400   60.7120   52.3280 C   0  0  0  0  0
   42.2740   60.0460   52.6630 C   0  0  0  0  0
   39.9350   54.8680   49.8900 S   0  0  0  0  0
   40.8210   54.0840   49.1130 O   0  0  0  0  0
   40.5450   58.6900   49.6060 C   0  0  0  0  0
   41.1350   59.5880   50.4730 C   0  0  0  0  0
   37.1010   57.0034   55.9119 H   0  0  0  0  0
   36.1899   58.5320   55.9763 H   0  0  0  0  0
   36.3187   57.6362   54.4427 H   0  0  0  0  0
   44.1264   62.4163   55.0666 H   0  0  0  0  0
   41.9381   57.4327   52.9671 H   0  0  0  0  0
   40.2274   55.1855   52.3117 H   0  0  0  0  0
   41.7234   54.8923   51.5788 H   0  0  0  0  0
   39.7801   55.9046   47.0482 H   0  0  0  0  0
   38.1998   56.2184   47.8067 H   0  0  0  0  0
   39.3210   57.5663   47.4946 H   0  0  0  0  0
   38.2808   58.8220   54.0546 H   0  0  0  0  0
   42.4234   61.9938   56.8418 H   0  0  0  0  0
   40.3519   60.8276   57.5270 H   0  0  0  0  0
   43.8680   60.5676   51.3360 H   0  0  0  0  0
   40.1570   59.0479   48.6523 H   0  0  0  0  0
   41.2097   60.6414   50.2030 H   0  0  0  0  0
 15  1  1  0  0  0
  3  2  1  0  0  0
  2 15  1  0  0  0
  2 16  2  0  0  0
 17  3  4  0  0  0
  3 19  4  0  0  0
  4  5  4  0  0  0
  4 17  4  0  0  0
 22  4  4  0  0  0
  5  6  4  0  0  0
  5 18  4  0  0  0
  6 20  4  0  0  0
  8  7  4  0  0  0
  7 22  1  0  0  0
  7 26  4  0  0  0
  9  8  4  0  0  0
  9 10  1  0  0  0
 14  9  4  0  0  0
 10 23  1  0  0  0
 23 11  2  0  0  0
 12 13  1  0  0  0
 12 14  1  0  0  0
 12 23  1  0  0  0
 14 25  4  0  0  0
 18 19  4  0  0  0
 20 21  4  0  0  0
 21 22  4  0  0  0
 23 24  2  0  0  0
 25 26  4  0  0  0
  1 27  1  0  0  0
  1 28  1  0  0  0
  1 29  1  0  0  0
  6 30  1  0  0  0
  8 31  1  0  0  0
 10 32  1  0  0  0
 10 33  1  0  0  0
 13 34  1  0  0  0
 13 35  1  0  0  0
 13 36  1  0  0  0
 15 37  1  0  0  0
 18 38  1  0  0  0
 19 39  1  0  0  0
 21 40  1  0  0  0
 25 41  1  0  0  0
 26 42  1  0  0  0
M  END
$$$$
