5khd_ligand
  -I-interpret- 

 70 76  0  0  0  0  0  0  0  0999 V2000
  -23.2480   -5.0580    5.8290 P   0  0  0  0  0
  -24.3510   -5.2040    4.7940 O   0  0  0  0  0
  -22.2310   -4.0590    5.3950 O   0  0  0  0  0
  -22.5870   -6.4010    6.1600 O   0  0  0  0  0
  -23.3810   -7.4820    6.3930 C   0  0  0  0  0
  -22.6820   -8.5580    7.1800 C   0  0  0  0  0
  -21.5480   -9.0620    6.4900 O   0  0  0  0  0
  -22.1260   -8.0640    8.5230 C   0  0  0  0  0
  -23.1240   -8.1030    9.5340 O   0  0  0  0  0
  -21.2370   -9.1640    8.6430 C   0  0  0  0  0
  -21.6010  -10.4250    9.1830 O   0  0  0  0  0
  -20.5490   -9.3780    7.4110 C   0  0  0  0  0
  -19.4230   -8.5020    6.9460 N   0  0  0  0  0
  -19.4050   -7.4560    6.1160 C   0  0  0  0  0
  -18.2640   -7.0250    5.9350 N   0  0  0  0  0
  -17.3620   -7.7390    6.6120 C   0  0  0  0  0
  -15.9870   -7.7700    6.8030 C   0  0  0  0  0
  -15.1760   -6.8790    6.2410 O   0  0  0  0  0
  -15.4500   -8.7140    7.6190 N   0  0  0  0  0
  -16.2200   -9.6600    8.2320 C   0  0  0  0  0
  -15.5540  -10.6430    9.0860 N   0  0  0  0  0
  -17.5470   -9.6920    8.1300 N   0  0  0  0  0
  -18.1040   -8.7830    7.3100 C   0  0  0  0  0
  -22.8170   -7.2850   10.8950 P   0  0  0  0  0
  -23.9960   -7.7220   11.7210 O   0  0  0  0  0
  -21.4730   -7.6620   11.3540 O   0  0  0  0  0
  -22.8990   -5.7870   10.5620 O   0  0  0  0  0
  -24.1490   -5.2930   10.1490 C   0  0  0  0  0
  -24.0670   -3.9940    9.3910 C   0  0  0  0  0
  -23.4490   -2.9630   10.2710 O   0  0  0  0  0
  -23.2060   -4.0290    8.1740 C   0  0  0  0  0
  -23.9940   -4.4760    7.1310 O   0  0  0  0  0
  -22.7550   -2.6130    8.0630 C   0  0  0  0  0
  -23.6950   -1.7620    7.5430 O   0  0  0  0  0
  -22.5810   -2.1980    9.5120 C   0  0  0  0  0
  -21.2340   -2.3890   10.0120 N   0  0  0  0  0
  -20.7450   -3.3290   10.7780 C   0  0  0  0  0
  -19.5140   -3.1870   11.0130 N   0  0  0  0  0
  -18.9900   -2.1190   10.4300 C   0  0  0  0  0
  -17.7570   -1.4310   10.3080 C   0  0  0  0  0
  -16.6430   -1.8330   10.8780 O   0  0  0  0  0
  -17.7000   -0.3030    9.5540 N   0  0  0  0  0
  -18.7960    0.1640    8.9540 C   0  0  0  0  0
  -18.7570    1.3410    8.1580 N   0  0  0  0  0
  -20.0020   -0.4130    9.0140 N   0  0  0  0  0
  -20.1150   -1.5360    9.7400 C   0  0  0  0  0
  -24.9905   -5.8520    5.0987 H   0  0  0  0  0
  -23.6639   -7.9034    5.4284 H   0  0  0  0  0
  -24.2400   -7.1470    6.9743 H   0  0  0  0  0
  -23.4537   -9.3133    7.3285 H   0  0  0  0  0
  -21.7311   -7.0506    8.5941 H   0  0  0  0  0
  -20.6490   -8.7774    9.4754 H   0  0  0  0  0
  -20.8412  -11.0114    9.1638 H   0  0  0  0  0
  -20.0907  -10.3609    7.5204 H   0  0  0  0  0
  -20.2958   -7.0323    5.6522 H   0  0  0  0  0
  -14.4425   -8.7160    7.7783 H   0  0  0  0  0
  -16.1054  -11.3370    9.5906 H   0  0  0  0  0
  -14.5381  -10.6345    9.1770 H   0  0  0  0  0
  -24.8060   -7.4109   11.3102 H   0  0  0  0  0
  -24.7394   -5.1096   11.0467 H   0  0  0  0  0
  -24.5869   -6.0335    9.4797 H   0  0  0  0  0
  -25.0922   -3.7821    9.0873 H   0  0  0  0  0
  -22.3421   -4.6935    8.1876 H   0  0  0  0  0
  -21.8816   -2.5573    7.4133 H   0  0  0  0  0
  -23.3334   -0.8736    7.5028 H   0  0  0  0  0
  -22.7898   -1.1304    9.5806 H   0  0  0  0  0
  -21.3407   -4.1518   11.1733 H   0  0  0  0  0
  -16.8137    0.1901    9.4458 H   0  0  0  0  0
  -19.6036    1.6721    7.6954 H   0  0  0  0  0
  -17.8824    1.8545    8.0494 H   0  0  0  0  0
  1  2  1  0  0  0
  1  3  2  0  0  0
  1  4  1  0  0  0
  1 32  1  0  0  0
  4  5  1  0  0  0
  5  6  1  0  0  0
  6  7  1  0  0  0
  6  8  1  0  0  0
  7 12  1  0  0  0
  8  9  1  0  0  0
  8 10  1  0  0  0
  9 24  1  0  0  0
 10 11  1  0  0  0
 10 12  1  0  0  0
 12 13  1  0  0  0
 13 14  4  0  0  0
 13 23  4  0  0  0
 14 15  4  0  0  0
 15 16  4  0  0  0
 16 17  1  0  0  0
 16 23  4  0  0  0
 17 18  2  0  0  0
 17 19  1  0  0  0
 19 20  1  0  0  0
 20 21  1  0  0  0
 20 22  2  0  0  0
 22 23  1  0  0  0
 24 25  1  0  0  0
 24 26  2  0  0  0
 24 27  1  0  0  0
 27 28  1  0  0  0
 28 29  1  0  0  0
 29 30  1  0  0  0
 29 31  1  0  0  0
 30 35  1  0  0  0
 31 32  1  0  0  0
 31 33  1  0  0  0
 33 34  1  0  0  0
 33 35  1  0  0  0
 35 36  1  0  0  0
 36 37  4  0  0  0
 36 46  4  0  0  0
 37 38  4  0  0  0
 38 39  4  0  0  0
 39 40  1  0  0  0
 39 46  4  0  0  0
 40 41  2  0  0  0
 40 42  1  0  0  0
 42 43  1  0  0  0
 43 44  1  0  0  0
 43 45  2  0  0  0
 45 46  1  0  0  0
  2 47  1  0  0  0
  5 48  1  0  0  0
  5 49  1  0  0  0
  6 50  1  0  0  0
  8 51  1  0  0  0
 10 52  1  0  0  0
 11 53  1  0  0  0
 12 54  1  0  0  0
 14 55  1  0  0  0
 19 56  1  0  0  0
 21 57  1  0  0  0
 21 58  1  0  0  0
 25 59  1  0  0  0
 28 60  1  0  0  0
 28 61  1  0  0  0
 29 62  1  0  0  0
 31 63  1  0  0  0
 33 64  1  0  0  0
 34 65  1  0  0  0
 35 66  1  0  0  0
 37 67  1  0  0  0
 42 68  1  0  0  0
 44 69  1  0  0  0
 44 70  1  0  0  0
M  END
$$$$
