### 
### Created by X-TOOL on Mon Sep 10 21:13:27 2018
### 

@<TRIPOS>MOLECULE
5khd_ligand
   68    74     1     0     0
SMALL
GAST_HUCK


@<TRIPOS>ATOM
      1 P1        -23.2480   -5.0580    5.8290 P.3       1 C2E         0.2557
      2 O2P       -24.3510   -5.2040    4.7940 O.co2     1 C2E        -0.6177
      3 O1P       -22.2310   -4.0590    5.3950 O.co2     1 C2E        -0.6177
      4 O5'       -22.5870   -6.4010    6.1600 O.3       1 C2E        -0.2514
      5 C5'       -23.3810   -7.4820    6.3930 C.3       1 C2E         0.1128
      6 C4'       -22.6820   -8.5580    7.1800 C.3       1 C2E         0.1242
      7 O4'       -21.5480   -9.0620    6.4900 O.3       1 C2E        -0.3359
      8 C3'       -22.1260   -8.0640    8.5230 C.3       1 C2E         0.1540
      9 O3'       -23.1240   -8.1030    9.5340 O.3       1 C2E        -0.2453
     10 C2'       -21.2370   -9.1640    8.6430 C.3       1 C2E         0.1440
     11 O2'       -21.6010  -10.4250    9.1830 O.3       1 C2E        -0.3832
     12 C1'       -20.5490   -9.3780    7.4110 C.3       1 C2E         0.1996
     13 N9        -19.4230   -8.5020    6.9460 N.pl3     1 C2E        -0.2101
     14 C8        -19.4050   -7.4560    6.1160 C.2       1 C2E         0.0957
     15 N7        -18.2640   -7.0250    5.9350 N.2       1 C2E        -0.3235
     16 C5        -17.3620   -7.7390    6.6120 C.2       1 C2E         0.0926
     17 C6        -15.9870   -7.7700    6.8030 C.2       1 C2E         0.2135
     18 O6        -15.1760   -6.8790    6.2410 O.2       1 C2E        -0.4091
     19 N1        -15.4500   -8.7140    7.6190 N.am      1 C2E        -0.1839
     20 C2        -16.2200   -9.6600    8.2320 C.2       1 C2E         0.2340
     21 N2        -15.5540  -10.6430    9.0860 N.pl3     1 C2E        -0.2807
     22 N3        -17.5470   -9.6920    8.1300 N.2       1 C2E        -0.2765
     23 C4        -18.1040   -8.7830    7.3100 C.2       1 C2E         0.1159
     24 P11       -22.8170   -7.2850   10.8950 P.3       1 C2E         0.2557
     25 O21       -23.9960   -7.7220   11.7210 O.co2     1 C2E        -0.6177
     26 O11       -21.4730   -7.6620   11.3540 O.co2     1 C2E        -0.6177
     27 O5A       -22.8990   -5.7870   10.5620 O.3       1 C2E        -0.2514
     28 C5A       -24.1490   -5.2930   10.1490 C.3       1 C2E         0.1128
     29 C4A       -24.0670   -3.9940    9.3910 C.3       1 C2E         0.1242
     30 O4A       -23.4490   -2.9630   10.2710 O.3       1 C2E        -0.3359
     31 C3A       -23.2060   -4.0290    8.1740 C.3       1 C2E         0.1540
     32 O3A       -23.9940   -4.4760    7.1310 O.3       1 C2E        -0.2453
     33 C2A       -22.7550   -2.6130    8.0630 C.3       1 C2E         0.1440
     34 O2A       -23.6950   -1.7620    7.5430 O.3       1 C2E        -0.3832
     35 C1A       -22.5810   -2.1980    9.5120 C.3       1 C2E         0.1996
     36 N91       -21.2340   -2.3890   10.0120 N.pl3     1 C2E        -0.2101
     37 C81       -20.7450   -3.3290   10.7780 C.2       1 C2E         0.0957
     38 N71       -19.5140   -3.1870   11.0130 N.2       1 C2E        -0.3235
     39 C51       -18.9900   -2.1190   10.4300 C.2       1 C2E         0.0926
     40 C61       -17.7570   -1.4310   10.3080 C.2       1 C2E         0.2135
     41 O61       -16.6430   -1.8330   10.8780 O.2       1 C2E        -0.4091
     42 N11       -17.7000   -0.3030    9.5540 N.am      1 C2E        -0.1839
     43 C21       -18.7960    0.1640    8.9540 C.2       1 C2E         0.2340
     44 N21       -18.7570    1.3410    8.1580 N.pl3     1 C2E        -0.2807
     45 N31       -20.0020   -0.4130    9.0140 N.2       1 C2E        -0.2765
     46 C41       -20.1150   -1.5360    9.7400 C.2       1 C2E         0.1159
     47 H1        -23.6964   -7.9018    5.4264 H         1 C2E         0.0647
     48 H2        -24.2666   -7.1531    6.9565 H         1 C2E         0.0647
     49 H3        -23.4009   -9.3712    7.3582 H         1 C2E         0.0655
     50 H4        -21.6374   -7.0793    8.4846 H         1 C2E         0.0712
     51 H5        -20.4818   -8.7945    9.3524 H         1 C2E         0.0681
     52 H6        -21.8925  -10.3119   10.0801 H         1 C2E         0.2102
     53 H7        -20.2248  -10.4280    7.3617 H         1 C2E         0.0998
     54 H8        -20.2950   -7.0327    5.6527 H         1 C2E         0.1179
     55 H9        -14.4623   -8.7160    7.7751 H         1 C2E         0.2515
     56 H10       -16.1068  -11.3697    9.5626 H         1 C2E         0.1897
     57 H11       -14.5322  -10.6085    9.2108 H         1 C2E         0.1897
     58 H12       -24.7721   -5.1353   11.0416 H         1 C2E         0.0647
     59 H13       -24.6220   -6.0445    9.4997 H         1 C2E         0.0647
     60 H14       -25.0856   -3.6937    9.1042 H         1 C2E         0.0655
     61 H15       -22.3423   -4.6992    8.2962 H         1 C2E         0.0712
     62 H16       -21.8195   -2.5446    7.4884 H         1 C2E         0.0681
     63 H17       -23.9311   -2.0489    6.6687 H         1 C2E         0.2102
     64 H18       -22.8419   -1.1338    9.6089 H         1 C2E         0.0998
     65 H19       -21.3401   -4.1510   11.1730 H         1 C2E         0.1179
     66 H20       -16.8311    0.1805    9.4479 H         1 C2E         0.2515
     67 H21       -19.6153    1.6841    7.7036 H         1 C2E         0.1897
     68 H22       -17.8704    1.8508    8.0356 H         1 C2E         0.1897
@<TRIPOS>BOND
     1    1    2 ar 
     2    1    3 ar 
     3    1    4 1  
     4    1   32 1  
     5    4    5 1  
     6    5    6 1  
     7    6    7 1  
     8    6    8 1  
     9    7   12 1  
    10    8    9 1  
    11    8   10 1  
    12    9   24 1  
    13   10   11 1  
    14   10   12 1  
    15   12   13 1  
    16   13   14 1  
    17   13   23 1  
    18   14   15 2  
    19   15   16 1  
    20   16   17 1  
    21   16   23 2  
    22   17   18 2  
    23   17   19 am 
    24   19   20 am 
    25   20   21 1  
    26   20   22 2  
    27   22   23 1  
    28   24   25 ar 
    29   24   26 ar 
    30   24   27 1  
    31   27   28 1  
    32   28   29 1  
    33   29   30 1  
    34   29   31 1  
    35   30   35 1  
    36   31   32 1  
    37   31   33 1  
    38   33   34 1  
    39   33   35 1  
    40   35   36 1  
    41   36   37 1  
    42   36   46 1  
    43   37   38 2  
    44   38   39 1  
    45   39   40 1  
    46   39   46 2  
    47   40   41 2  
    48   40   42 am 
    49   42   43 am 
    50   43   44 1  
    51   43   45 2  
    52   45   46 1  
    53    5   47 1  
    54    5   48 1  
    55    6   49 1  
    56    8   50 1  
    57   10   51 1  
    58   11   52 1  
    59   12   53 1  
    60   14   54 1  
    61   19   55 1  
    62   21   56 1  
    63   21   57 1  
    64   28   58 1  
    65   28   59 1  
    66   29   60 1  
    67   31   61 1  
    68   33   62 1  
    69   34   63 1  
    70   35   64 1  
    71   37   65 1  
    72   42   66 1  
    73   44   67 1  
    74   44   68 1  
@<TRIPOS>SUBSTRUCTURE
     1 C2E         1

