### 
### Created by X-TOOL on Mon Sep 10 21:12:59 2018
### 

@<TRIPOS>MOLECULE
3i06_ligand
   34    36     1     0     0
SMALL
GAST_HUCK


@<TRIPOS>ATOM
      1 N1         -5.4360  -35.1470    1.8850 N.ar      1 QL2        -0.2519
      2 C2         -6.4800  -34.2970    1.7580 C.ar      1 QL2         0.1242
      3 N2         -7.0230  -32.0840    0.9880 N.2       1 QL2        -0.3350
      4 N3         -7.7120  -34.5110    2.1720 N.ar      1 QL2        -0.2525
      5 C4         -7.8550  -35.7160    2.7680 C.ar      1 QL2         0.1682
      6 C5         -6.8820  -36.6780    2.9520 C.ar      1 QL2         0.1151
      7 C6         -5.5900  -36.3140    2.5120 C.ar      1 QL2         0.1568
      8 N6         -4.5510  -37.1740    2.6870 N.pl3     1 QL2        -0.2549
      9 N7         -7.4020  -37.7750    3.5810 N.2       1 QL2        -0.2895
     10 C8         -8.6930  -37.4620    3.7570 C.2       1 QL2         0.1133
     11 N9         -9.0060  -36.2400    3.2720 N.pl3     1 QL2        -0.2186
     12 CAA       -11.1980  -36.2890    2.3640 C.3       1 QL2        -0.0373
     13 FAE        -1.1410  -35.4060   -0.1660 F         1 QL2        -0.1875
     14 FAF        -0.0640  -38.6240    3.0450 F         1 QL2        -0.1875
     15 CAI        -0.5610  -36.9960    1.4400 C.ar      1 QL2        -0.0064
     16 CAJ        -2.8190  -36.2160    1.2210 C.ar      1 QL2        -0.0090
     17 CAK        -2.2730  -37.8560    2.8830 C.ar      1 QL2        -0.0090
     18 CAL       -10.3640  -35.5780    3.3470 C.3       1 QL2         0.0585
     19 CAS        -6.1790  -33.0410    1.0800 C.2       1 QL2         0.0483
     20 CAT        -1.5250  -36.2280    0.8130 C.ar      1 QL2         0.1216
     21 CAU        -0.9740  -37.8040    2.4420 C.ar      1 QL2         0.1216
     22 CAV        -3.2260  -37.0680    2.2440 C.ar      1 QL2         0.0608
     23 H1         -6.7704  -31.2335    0.5096 H         1 QL2         0.1353
     24 H2         -4.7698  -38.0262    3.2225 H         1 QL2         0.2170
     25 H3         -9.4129  -38.1217    4.2392 H         1 QL2         0.1374
     26 H4        -12.2102  -35.8583    2.3621 H         1 QL2         0.0256
     27 H5        -11.2534  -37.3543    2.6323 H         1 QL2         0.0256
     28 H6        -10.7537  -36.1856    1.3631 H         1 QL2         0.0256
     29 H7          0.4801  -36.9520    1.1412 H         1 QL2         0.0495
     30 H8         -3.5319  -35.5468    0.7530 H         1 QL2         0.0489
     31 H9         -2.5508  -38.4974    3.7116 H         1 QL2         0.0489
     32 H10       -10.2876  -34.5117    3.0878 H         1 QL2         0.0612
     33 H11       -10.7873  -35.6805    4.3571 H         1 QL2         0.0612
     34 H12        -5.1942  -32.9125    0.6333 H         1 QL2         0.1144
@<TRIPOS>BOND
     1    1    2 ar 
     2    7    1 ar 
     3    2    4 ar 
     4    2   19 1  
     5   19    3 2  
     6    5    4 ar 
     7    6    5 ar 
     8    5   11 1  
     9    7    6 ar 
    10    6    9 1  
    11    8    7 1  
    12   22    8 1  
    13    9   10 2  
    14   10   11 1  
    15   11   18 1  
    16   18   12 1  
    17   20   13 1  
    18   21   14 1  
    19   20   15 ar 
    20   15   21 ar 
    21   16   20 ar 
    22   16   22 ar 
    23   21   17 ar 
    24   17   22 ar 
    25    3   23 1  
    26    8   24 1  
    27   10   25 1  
    28   12   26 1  
    29   12   27 1  
    30   12   28 1  
    31   15   29 1  
    32   16   30 1  
    33   17   31 1  
    34   18   32 1  
    35   18   33 1  
    36   19   34 1  
@<TRIPOS>SUBSTRUCTURE
     1 QL2         1

