3i06_ligand
  -I-interpret- 

 34 36  0  0  0  0  0  0  0  0999 V2000
   -5.4360  -35.1470    1.8850 N   0  0  0  0  0
   -6.4800  -34.2970    1.7580 C   0  0  0  0  0
   -7.0230  -32.0840    0.9880 N   0  0  0  0  0
   -7.7120  -34.5110    2.1720 N   0  0  0  0  0
   -7.8550  -35.7160    2.7680 C   0  0  0  0  0
   -6.8820  -36.6780    2.9520 C   0  0  0  0  0
   -5.5900  -36.3140    2.5120 C   0  0  0  0  0
   -4.5510  -37.1740    2.6870 N   0  0  0  0  0
   -7.4020  -37.7750    3.5810 N   0  0  0  0  0
   -8.6930  -37.4620    3.7570 C   0  0  0  0  0
   -9.0060  -36.2400    3.2720 N   0  0  0  0  0
  -11.1980  -36.2890    2.3640 C   0  0  0  0  0
   -1.1410  -35.4060   -0.1660 F   0  0  0  0  0
   -0.0640  -38.6240    3.0450 F   0  0  0  0  0
   -0.5610  -36.9960    1.4400 C   0  0  0  0  0
   -2.8190  -36.2160    1.2210 C   0  0  0  0  0
   -2.2730  -37.8560    2.8830 C   0  0  0  0  0
  -10.3640  -35.5780    3.3470 C   0  0  0  0  0
   -6.1790  -33.0410    1.0800 C   0  0  0  0  0
   -1.5250  -36.2280    0.8130 C   0  0  0  0  0
   -0.9740  -37.8040    2.4420 C   0  0  0  0  0
   -3.2260  -37.0680    2.2440 C   0  0  0  0  0
   -7.9515  -32.1816    1.3988 H   0  0  0  0  0
   -4.7676  -38.0180    3.2173 H   0  0  0  0  0
   -9.4135  -38.1223    4.2397 H   0  0  0  0  0
  -10.7567  -36.1858    1.3727 H   0  0  0  0  0
  -11.2520  -37.3444    2.6310 H   0  0  0  0  0
  -12.2006  -35.8614    2.3631 H   0  0  0  0  0
    0.4858  -36.9518    1.1395 H   0  0  0  0  0
   -3.5358  -35.5431    0.7504 H   0  0  0  0  0
   -2.5523  -38.5009    3.7162 H   0  0  0  0  0
  -10.3035  -34.5124    3.1256 H   0  0  0  0  0
  -10.7856  -35.6401    4.3502 H   0  0  0  0  0
   -5.1933  -32.9124    0.6328 H   0  0  0  0  0
  1  2  4  0  0  0
  7  1  4  0  0  0
  2  4  4  0  0  0
  2 19  1  0  0  0
 19  3  2  0  0  0
  5  4  4  0  0  0
  6  5  4  0  0  0
  5 11  4  0  0  0
  7  6  4  0  0  0
  6  9  4  0  0  0
  8  7  1  0  0  0
 22  8  1  0  0  0
  9 10  4  0  0  0
 10 11  4  0  0  0
 11 18  1  0  0  0
 18 12  1  0  0  0
 20 13  1  0  0  0
 21 14  1  0  0  0
 20 15  4  0  0  0
 15 21  4  0  0  0
 16 20  4  0  0  0
 16 22  4  0  0  0
 21 17  4  0  0  0
 17 22  4  0  0  0
  3 23  1  0  0  0
  8 24  1  0  0  0
 10 25  1  0  0  0
 12 26  1  0  0  0
 12 27  1  0  0  0
 12 28  1  0  0  0
 15 29  1  0  0  0
 16 30  1  0  0  0
 17 31  1  0  0  0
 18 32  1  0  0  0
 18 33  1  0  0  0
 19 34  1  0  0  0
M  END
$$$$
