4lno_ligand
  -I-interpret- 

 21 20  0  0  0  0  0  0  0  0999 V2000
  -29.4320   30.3370   30.2690 N   0  3  0  0  0
  -29.1920   31.5660   29.5240 C   0  0  0  0  0
  -29.0750   31.2940   28.0330 C   0  0  0  0  0
  -30.0965   31.2899   27.2953 O   0  0  0  0  0
  -27.9140   32.2160   30.0070 C   0  0  0  0  0
  -27.5050   33.3830   29.2130 C   0  0  0  0  0
  -26.2340   33.9500   29.7330 C   0  0  0  0  0
  -26.1650   34.3510   30.8890 O   0  0  0  0  0
  -25.2080   33.9870   28.8920 N   0  0  0  0  0
  -27.9424   31.0699   27.5285 O   0  0  0  0  0
  -30.2944   29.9037   29.9390 H   0  0  0  0  0
  -28.6516   29.6960   30.1257 H   0  0  0  0  0
  -29.5174   30.5539   31.2620 H   0  0  0  0  0
  -30.0399   32.2300   29.6924 H   0  0  0  0  0
  -30.8742   31.4757   27.8265 H   0  0  0  0  0
  -27.1206   31.4731   29.9252 H   0  0  0  0  0
  -28.0901   32.5616   31.0257 H   0  0  0  0  0
  -28.2831   34.1436   29.2766 H   0  0  0  0  0
  -27.3560   33.0720   28.1790 H   0  0  0  0  0
  -24.3104   34.3620   29.1987 H   0  0  0  0  0
  -25.3171   33.6404   27.9389 H   0  0  0  0  0
  1  2  1  0  0  0
  2  3  1  0  0  0
  2  5  1  0  0  0
  3  4  1  0  0  0
  5  6  1  0  0  0
  6  7  1  0  0  0
  7  8  2  0  0  0
  7  9  1  0  0  0
  3 10  2  0  0  0
  1 11  1  0  0  0
  1 12  1  0  0  0
  1 13  1  0  0  0
  2 14  1  0  0  0
  4 15  1  0  0  0
  5 16  1  0  0  0
  5 17  1  0  0  0
  6 18  1  0  0  0
  6 19  1  0  0  0
  9 20  1  0  0  0
  9 21  1  0  0  0
M  END
$$$$
