4ayu_ligand
  -I-interpret- 

 22 22  0  0  0  0  0  0  0  0999 V2000
  -93.6140    9.5810  -19.7850 C   0  0  0  0  0
  -92.4320    9.7500  -20.1180 O   0  0  0  0  0
  -94.5090   10.7260  -19.4990 C   0  0  0  0  0
  -94.1290    8.2620  -19.6640 N   0  0  0  0  0
  -95.4680    7.9410  -19.2570 C   0  0  0  0  0
  -95.4690    6.4590  -19.0160 C   0  0  0  0  0
  -94.3850    5.9310  -19.8630 C   0  0  0  0  0
  -93.3650    7.0460  -19.8910 C   0  0  0  0  0
  -96.5340    8.3130  -20.2610 C   0  0  0  0  0
  -96.2030    8.6260  -21.4360 O   0  0  0  0  0
  -97.7410    8.2870  -19.9100 O   0  0  0  0  0
  -94.0989   11.3090  -18.6743 H   0  0  0  0  0
  -94.5876   11.3545  -20.3861 H   0  0  0  0  0
  -95.4968   10.3542  -19.2268 H   0  0  0  0  0
  -95.7226    8.5229  -18.3712 H   0  0  0  0  0
  -96.4305    6.0108  -19.2665 H   0  0  0  0  0
  -95.3101    6.2219  -17.9640 H   0  0  0  0  0
  -94.7333    5.6652  -20.8610 H   0  0  0  0  0
  -93.9704    5.0021  -19.4713 H   0  0  0  0  0
  -92.5938    6.9066  -19.1335 H   0  0  0  0  0
  -92.8279    7.0779  -20.8389 H   0  0  0  0  0
  -95.2472    8.5910  -21.5181 H   0  0  0  0  0
  1  2  2  0  0  0
  1  3  1  0  0  0
  1  4  1  0  0  0
  4  5  1  0  0  0
  4  8  1  0  0  0
  5  6  1  0  0  0
  5  9  1  0  0  0
  6  7  1  0  0  0
  7  8  1  0  0  0
  9 10  1  0  0  0
  9 11  2  0  0  0
  3 12  1  0  0  0
  3 13  1  0  0  0
  3 14  1  0  0  0
  5 15  1  0  0  0
  6 16  1  0  0  0
  6 17  1  0  0  0
  7 18  1  0  0  0
  7 19  1  0  0  0
  8 20  1  0  0  0
  8 21  1  0  0  0
 10 22  1  0  0  0
M  END
$$$$
