4xo8_ligand
  -I-interpret- 

 45 45  0  0  0  0  0  0  0  0999 V2000
  -22.2160   -4.3380  -10.7620 O   0  0  0  0  0
  -22.5280   -4.9240  -12.0060 C   0  0  0  0  0
  -21.3320   -5.6830  -12.5430 C   0  0  0  0  0
  -20.9580   -5.5310  -18.9700 C   0  0  0  0  0
  -20.2300   -4.8260  -12.6590 O   0  0  0  0  0
  -20.9840   -6.8290  -11.6110 C   0  0  0  0  0
  -22.0380   -7.7460  -11.5850 O   0  0  0  0  0
  -19.7140   -7.5180  -12.1130 C   0  0  0  0  0
  -19.3200   -8.5040  -11.2000 O   0  0  0  0  0
  -18.6020   -6.4950  -12.2690 C   0  0  0  0  0
  -18.2590   -5.9540  -11.0180 O   0  0  0  0  0
  -19.0620   -5.3720  -13.1670 C   0  0  0  0  0
  -19.2970   -5.9050  -14.4620 O   0  0  0  0  0
  -19.5660   -4.9570  -15.4730 C   0  0  0  0  0
  -20.0720   -5.7090  -16.6870 C   0  0  0  0  0
  -20.6800   -4.7590  -17.6970 C   0  0  0  0  0
  -22.1000   -4.5240  -22.4590 C   0  0  0  0  0
  -21.6630   -5.4220  -21.3230 C   0  0  0  0  0
  -21.3670   -4.5980  -20.0880 C   0  0  0  0  0
  -22.9814   -3.8608  -10.4334 H   0  0  0  0  0
  -22.7979   -4.1387  -12.7121 H   0  0  0  0  0
  -23.3598   -5.6162  -11.8752 H   0  0  0  0  0
  -21.5835   -6.0801  -13.5265 H   0  0  0  0  0
  -21.7708   -6.2330  -18.7840 H   0  0  0  0  0
  -20.0505   -6.0570  -19.2665 H   0  0  0  0  0
  -20.8169   -6.4459  -10.6043 H   0  0  0  0  0
  -22.8327   -7.3095  -11.2695 H   0  0  0  0  0
  -19.9157   -7.9803  -13.0793 H   0  0  0  0  0
  -20.0245   -9.1490  -11.1034 H   0  0  0  0  0
  -17.7354   -6.9928  -12.7041 H   0  0  0  0  0
  -17.5562   -5.3099  -11.1310 H   0  0  0  0  0
  -18.3039   -4.5906  -13.2202 H   0  0  0  0  0
  -18.6623   -4.4004  -15.7212 H   0  0  0  0  0
  -20.3134   -4.2406  -15.1320 H   0  0  0  0  0
  -20.8368   -6.4166  -16.3671 H   0  0  0  0  0
  -19.2335   -6.2263  -17.1532 H   0  0  0  0  0
  -21.6064   -4.3395  -17.3047 H   0  0  0  0  0
  -19.9913   -3.9390  -17.9003 H   0  0  0  0  0
  -22.9998   -3.9826  -22.1669 H   0  0  0  0  0
  -21.3047   -3.8140  -22.6857 H   0  0  0  0  0
  -22.3093   -5.1306  -23.3401 H   0  0  0  0  0
  -20.7609   -5.9575  -21.6188 H   0  0  0  0  0
  -22.4633   -6.1269  -21.0978 H   0  0  0  0  0
  -20.5613   -3.8941  -20.2966 H   0  0  0  0  0
  -22.2543   -4.0363  -19.7959 H   0  0  0  0  0
  2  1  1  0  0  0
  3  2  1  0  0  0
  5  3  1  0  0  0
  3  6  1  0  0  0
  4 16  1  0  0  0
 19  4  1  0  0  0
 12  5  1  0  0  0
  6  7  1  0  0  0
  8  6  1  0  0  0
  8  9  1  0  0  0
 10  8  1  0  0  0
 10 11  1  0  0  0
 12 10  1  0  0  0
 13 12  1  0  0  0
 14 13  1  0  0  0
 15 14  1  0  0  0
 16 15  1  0  0  0
 18 17  1  0  0  0
 18 19  1  0  0  0
  1 20  1  0  0  0
  2 21  1  0  0  0
  2 22  1  0  0  0
  3 23  1  0  0  0
  4 24  1  0  0  0
  4 25  1  0  0  0
  6 26  1  0  0  0
  7 27  1  0  0  0
  8 28  1  0  0  0
  9 29  1  0  0  0
 10 30  1  0  0  0
 11 31  1  0  0  0
 12 32  1  0  0  0
 14 33  1  0  0  0
 14 34  1  0  0  0
 15 35  1  0  0  0
 15 36  1  0  0  0
 16 37  1  0  0  0
 16 38  1  0  0  0
 17 39  1  0  0  0
 17 40  1  0  0  0
 17 41  1  0  0  0
 18 42  1  0  0  0
 18 43  1  0  0  0
 19 44  1  0  0  0
 19 45  1  0  0  0
M  END
$$$$
