2oqi_ligand
  -I-interpret- 

 48 51  0  0  0  0  0  0  0  0999 V2000
   36.0190    4.9470   63.8040 C   0  0  0  0  0
   36.7930    3.7360   63.1500 C   0  0  0  0  0
   38.2660    3.5840   63.6100 C   0  0  0  0  0
   38.6440    2.7550   64.7590 C   0  0  0  0  0
   40.9510    3.3700   64.3700 C   0  0  0  0  0
   39.2530    4.2700   62.9180 C   0  0  0  0  0
   30.4630    6.3970   62.5960 C   0  0  0  0  0
   30.2460    7.6920   63.1090 C   0  0  0  0  0
   28.9460    8.1770   63.1790 C   0  0  0  0  0
   27.8480    7.4260   62.7390 C   0  0  0  0  0
   28.0050    6.1380   62.2260 C   0  0  0  0  0
   31.1100    4.1880   64.1890 N   0  3  0  0  0
   32.1800    5.0560   63.8270 C   0  0  0  0  0
   33.5170    4.3210   63.7240 C   0  0  0  0  0
   34.6320    5.1740   63.2450 N   0  0  0  0  0
   39.9980    2.6420   65.1280 C   0  0  0  0  0
   42.2860    3.3800   64.5610 O   0  0  0  0  0
   42.7350    4.2780   63.5300 C   0  0  0  0  0
   41.6550    4.7680   62.7430 O   0  0  0  0  0
   40.5830    4.1490   63.3080 C   0  0  0  0  0
   34.4480    6.1560   62.2600 C   0  0  0  0  0
   35.3270    6.5710   61.5370 O   0  0  0  0  0
   32.9980    6.7410   62.0970 C   0  0  0  0  0
   31.8550    5.7840   62.5080 C   0  0  0  0  0
   28.7790    9.3890   63.6880 F   0  0  0  0  0
   26.6130    7.8980   62.8320 F   0  0  0  0  0
   29.3160    5.6470   62.1760 C   0  0  0  0  0
   29.4760    4.4030   61.6940 F   0  0  0  0  0
   36.5988    5.8468   63.5985 H   0  0  0  0  0
   35.9044    4.7196   64.8638 H   0  0  0  0  0
   36.8133    3.9158   62.0751 H   0  0  0  0  0
   36.2716    2.8271   63.4501 H   0  0  0  0  0
   37.8778    2.2270   65.3266 H   0  0  0  0  0
   38.9874    4.9023   62.0708 H   0  0  0  0  0
   31.0841    8.3025   63.4451 H   0  0  0  0  0
   27.1555    5.5472   61.8835 H   0  0  0  0  0
   30.2435    4.7232   64.2444 H   0  0  0  0  0
   31.0145    3.4561   63.4850 H   0  0  0  0  0
   31.3086    3.7653   65.0958 H   0  0  0  0  0
   32.2845    5.7919   64.6242 H   0  0  0  0  0
   33.3904    3.5146   63.0017 H   0  0  0  0  0
   33.7772    3.9767   64.7249 H   0  0  0  0  0
   40.3035    2.0168   65.9670 H   0  0  0  0  0
   43.4144    3.7327   62.8749 H   0  0  0  0  0
   43.2227    5.1282   64.0069 H   0  0  0  0  0
   32.8629    6.9543   61.0367 H   0  0  0  0  0
   32.9334    7.6079   62.7546 H   0  0  0  0  0
   31.8084    5.0800   61.6771 H   0  0  0  0  0
  1  2  1  0  0  0
 15  1  1  0  0  0
  2  3  1  0  0  0
  3  4  4  0  0  0
  3  6  4  0  0  0
  4 16  4  0  0  0
 16  5  4  0  0  0
  5 17  1  0  0  0
 20  5  4  0  0  0
  6 20  4  0  0  0
  7  8  4  0  0  0
 24  7  1  0  0  0
  7 27  4  0  0  0
  8  9  4  0  0  0
  9 10  4  0  0  0
  9 25  1  0  0  0
 11 10  4  0  0  0
 10 26  1  0  0  0
 27 11  4  0  0  0
 13 12  1  0  0  0
 14 13  1  0  0  0
 13 24  1  0  0  0
 14 15  1  0  0  0
 15 21  1  0  0  0
 17 18  1  0  0  0
 18 19  1  0  0  0
 19 20  1  0  0  0
 21 22  2  0  0  0
 21 23  1  0  0  0
 23 24  1  0  0  0
 27 28  1  0  0  0
  1 29  1  0  0  0
  1 30  1  0  0  0
  2 31  1  0  0  0
  2 32  1  0  0  0
  4 33  1  0  0  0
  6 34  1  0  0  0
  8 35  1  0  0  0
 11 36  1  0  0  0
 12 37  1  0  0  0
 12 38  1  0  0  0
 12 39  1  0  0  0
 13 40  1  0  0  0
 14 41  1  0  0  0
 14 42  1  0  0  0
 16 43  1  0  0  0
 18 44  1  0  0  0
 18 45  1  0  0  0
 23 46  1  0  0  0
 23 47  1  0  0  0
 24 48  1  0  0  0
M  END
$$$$
