### 
### Created by X-TOOL on Mon Sep 10 21:13:08 2018
### 

@<TRIPOS>MOLECULE
2y8q_ligand
   39    41     1     0     0
SMALL
GAST_HUCK


@<TRIPOS>ATOM
      1 PB         26.9930   67.2870   25.4890 P.3       1 ADP         0.2069
      2 O1B        26.3690   65.9120   25.6990 O.co2     1 ADP        -0.5891
      3 O2B        28.4830   67.3380   25.6740 O.co2     1 ADP        -0.5891
      4 O3B        26.4450   68.0090   24.2730 O.co2     1 ADP        -0.5891
      5 PA         27.0640   69.6510   27.0740 P.3       1 ADP         0.3276
      6 O1A        26.0650   70.2110   28.0580 O.co2     1 ADP        -0.5556
      7 O2A        27.3660   70.4050   25.8130 O.co2     1 ADP        -0.5556
      8 O3A        26.5390   68.1570   26.7660 O.3       1 ADP        -0.1548
      9 O5'        28.4550   69.4780   27.8440 O.3       1 ADP        -0.2436
     10 C5'        29.2190   70.6660   28.0540 C.3       1 ADP         0.1132
     11 C4'        30.1050   70.5580   29.2970 C.3       1 ADP         0.1189
     12 O4'        29.4300   71.0770   30.4520 O.3       1 ADP        -0.3364
     13 C3'        30.4810   69.1220   29.6400 C.3       1 ADP         0.1149
     14 O3'        31.8440   69.1370   30.0790 O.3       1 ADP        -0.3864
     15 C2'        29.5370   68.7210   30.7630 C.3       1 ADP         0.1385
     16 O2'        30.1120   67.7750   31.6700 O.3       1 ADP        -0.3836
     17 C1'        29.2100   70.0480   31.4370 C.3       1 ADP         0.2010
     18 N9         27.7980   70.0530   31.9010 N.pl3     1 ADP        -0.1919
     19 C8         26.7510   69.5440   31.2230 C.2       1 ADP         0.1123
     20 N7         25.6000   69.7020   31.9300 N.2       1 ADP        -0.2958
     21 C5         25.9050   70.3360   33.0790 C.ar      1 ADP         0.1045
     22 C6         25.1470   70.8180   34.2630 C.ar      1 ADP         0.1298
     23 N6         23.8070   70.6310   34.3500 N.pl3     1 ADP        -0.3152
     24 N1         25.8470   71.4390   35.2440 N.ar      1 ADP        -0.2698
     25 C2         27.1850   71.6090   35.1510 C.ar      1 ADP         0.0533
     26 N3         27.9300   71.2000   34.1010 N.ar      1 ADP        -0.2714
     27 C4         27.3580   70.5670   33.0530 C.ar      1 ADP         0.1613
     28 H          28.5285   71.4973   28.1961 H         1 ADP         0.0648
     29 H          29.8616   70.8184   27.1869 H         1 ADP         0.0648
     30 H          31.0016   71.1281   29.0537 H         1 ADP         0.0651
     31 H          30.3955   68.4227   28.8083 H         1 ADP         0.0648
     32 H          32.1162   68.2445   30.3046 H         1 ADP         0.2100
     33 H          28.6524   68.2025   30.3933 H         1 ADP         0.0676
     34 H          30.3497   66.9778   31.1910 H         1 ADP         0.2101
     35 H          29.8374   70.2133   32.3128 H         1 ADP         0.0996
     36 H          26.8172   69.0709   30.2432 H         1 ADP         0.1349
     37 H          23.3086   70.1552   33.5980 H         1 ADP         0.1820
     38 H          23.2973   70.9662   35.1675 H         1 ADP         0.1820
     39 H          27.6948   72.1076   35.9754 H         1 ADP         0.0996
@<TRIPOS>BOND
     1    1    2 ar 
     2    1    3 ar 
     3    1    4 ar 
     4    8    1 1  
     5    5    6 ar 
     6    5    7 ar 
     7    5    8 1  
     8    5    9 1  
     9    9   10 1  
    10   10   11 1  
    11   11   12 1  
    12   11   13 1  
    13   12   17 1  
    14   13   14 1  
    15   13   15 1  
    16   15   16 1  
    17   15   17 1  
    18   17   18 1  
    19   18   19 1  
    20   18   27 1  
    21   19   20 2  
    22   20   21 1  
    23   21   22 ar 
    24   21   27 ar 
    25   22   23 1  
    26   22   24 ar 
    27   24   25 ar 
    28   25   26 ar 
    29   26   27 ar 
    30   10   28 1  
    31   10   29 1  
    32   11   30 1  
    33   13   31 1  
    34   14   32 1  
    35   15   33 1  
    36   16   34 1  
    37   17   35 1  
    38   19   36 1  
    39   23   37 1  
    40   23   38 1  
    41   25   39 1  
@<TRIPOS>SUBSTRUCTURE
     1 ADP         1

