2y8q_ligand
  -I-interpret- 

 42 44  0  0  0  0  0  0  0  0999 V2000
   26.9930   67.2870   25.4890 P   0  0  0  0  0
   26.3690   65.9120   25.6990 O   0  0  0  0  0
   28.4830   67.3380   25.6740 O   0  0  0  0  0
   26.4450   68.0090   24.2730 O   0  0  0  0  0
   27.0640   69.6510   27.0740 P   0  0  0  0  0
   26.0650   70.2110   28.0580 O   0  0  0  0  0
   27.3660   70.4050   25.8130 O   0  0  0  0  0
   26.5390   68.1570   26.7660 O   0  0  0  0  0
   28.4550   69.4780   27.8440 O   0  0  0  0  0
   29.2190   70.6660   28.0540 C   0  0  0  0  0
   30.1050   70.5580   29.2970 C   0  0  0  0  0
   29.4300   71.0770   30.4520 O   0  0  0  0  0
   30.4810   69.1220   29.6400 C   0  0  0  0  0
   31.8440   69.1370   30.0790 O   0  0  0  0  0
   29.5370   68.7210   30.7630 C   0  0  0  0  0
   30.1120   67.7750   31.6700 O   0  0  0  0  0
   29.2100   70.0480   31.4370 C   0  0  0  0  0
   27.7980   70.0530   31.9010 N   0  0  0  0  0
   26.7510   69.5440   31.2230 C   0  0  0  0  0
   25.6000   69.7020   31.9300 N   0  0  0  0  0
   25.9050   70.3360   33.0790 C   0  0  0  0  0
   25.1470   70.8180   34.2630 C   0  0  0  0  0
   23.8070   70.6310   34.3500 N   0  0  0  0  0
   25.8470   71.4390   35.2440 N   0  0  0  0  0
   27.1850   71.6090   35.1510 C   0  0  0  0  0
   27.9300   71.2000   34.1010 N   0  0  0  0  0
   27.3580   70.5670   33.0530 C   0  0  0  0  0
   25.4204   65.9681   25.5624 H   0  0  0  0  0
   25.4899   67.9148   24.2498 H   0  0  0  0  0
   25.9852   69.6144   28.8059 H   0  0  0  0  0
   28.5285   71.4973   28.1961 H   0  0  0  0  0
   29.8616   70.8184   27.1869 H   0  0  0  0  0
   31.0016   71.1281   29.0537 H   0  0  0  0  0
   30.3955   68.4227   28.8083 H   0  0  0  0  0
   32.1162   68.2445   30.3046 H   0  0  0  0  0
   28.6524   68.2025   30.3933 H   0  0  0  0  0
   29.4735   67.5603   32.3540 H   0  0  0  0  0
   29.8374   70.2133   32.3128 H   0  0  0  0  0
   26.8172   69.0709   30.2432 H   0  0  0  0  0
   23.3086   70.1552   33.5980 H   0  0  0  0  0
   23.2973   70.9662   35.1675 H   0  0  0  0  0
   27.6948   72.1076   35.9754 H   0  0  0  0  0
  1  2  1  0  0  0
  1  3  2  0  0  0
  1  4  1  0  0  0
  8  1  1  0  0  0
  5  6  1  0  0  0
  5  7  2  0  0  0
  5  8  1  0  0  0
  5  9  1  0  0  0
  9 10  1  0  0  0
 10 11  1  0  0  0
 11 12  1  0  0  0
 11 13  1  0  0  0
 12 17  1  0  0  0
 13 14  1  0  0  0
 13 15  1  0  0  0
 15 16  1  0  0  0
 15 17  1  0  0  0
 17 18  1  0  0  0
 18 19  4  0  0  0
 18 27  4  0  0  0
 19 20  4  0  0  0
 20 21  4  0  0  0
 21 22  4  0  0  0
 21 27  4  0  0  0
 22 23  1  0  0  0
 22 24  4  0  0  0
 24 25  4  0  0  0
 25 26  4  0  0  0
 26 27  4  0  0  0
  2 28  1  0  0  0
  4 29  1  0  0  0
  6 30  1  0  0  0
 10 31  1  0  0  0
 10 32  1  0  0  0
 11 33  1  0  0  0
 13 34  1  0  0  0
 14 35  1  0  0  0
 15 36  1  0  0  0
 16 37  1  0  0  0
 17 38  1  0  0  0
 19 39  1  0  0  0
 23 40  1  0  0  0
 23 41  1  0  0  0
 25 42  1  0  0  0
M  END
$$$$
