### 
### Created by X-TOOL on Mon Sep 10 21:13:20 2018
### 

@<TRIPOS>MOLECULE
4mex_ligand
  142   146     1     0     0
SMALL
GAST_HUCK


@<TRIPOS>ATOM
      1 CCB        20.1400  111.5360    2.3180 C.3       1 28H        -0.0602
      2 CCA        19.8110  110.1450    2.8620 C.3       1 28H        -0.0182
      3 CCC        19.3410  109.2460    1.7170 C.3       1 28H        -0.0602
      4 CBZ        21.0600  109.5390    3.5060 C.3       1 28H         0.0767
      5 OCF        20.7550  108.2350    4.0070 O.3       1 28H        -0.3889
      6 CBY        22.1750  109.4380    2.4630 C.3       1 28H         0.0720
      7 CCE        23.5320  109.6140    3.1460 C.3       1 28H        -0.0429
      8 CBX        22.1180  108.0670    1.7860 C.2       1 28H         0.1836
      9 OCD        21.5210  107.9100    0.7220 O.2       1 28H        -0.3965
     10 N          22.7560  107.0860    2.4390 N.am      1 THR        -0.2627
     11 CA         22.7990  105.7090    1.9280 C.3       1 THR         0.1611
     12 C          21.5030  105.2490    1.7220 C.2       1 THR         0.2068
     13 O          21.2060  104.6480    0.6910 O.2       1 THR        -0.3943
     14 CB         23.5000  104.8140    2.9370 C.3       1 THR         0.1247
     15 OG1        22.5760  103.8360    3.4350 O.3       1 THR        -0.2672
     16 CG2        24.0190  105.6640    4.0990 C.3       1 THR        -0.0298
     17 N          20.5260  105.4740    2.6990 N.am      1 28J        -0.2634
     18 CA         19.1440  104.9880    2.4870 C.3       1 28J         0.1336
     19 CB         18.3180  106.0090    1.7030 C.3       1 28J        -0.0037
     20 CG2        18.1620  105.5370    0.2560 C.3       1 28J        -0.0582
     21 CG1        16.9370  106.1510    2.3450 C.3       1 28J        -0.0491
     22 CD1        16.7260  107.6010    2.7880 C.3       1 28J        -0.0648
     23 C          18.5420  104.7510    3.7180 C.2       1 28J         0.2057
     24 O          18.3820  105.6650    4.5260 O.2       1 28J        -0.3942
     25 N          18.1120  103.4590    4.0400 N.am      1 D4P        -0.2545
     26 CA         17.4700  103.1970    5.3480 C.3       1 D4P         0.1596
     27 C          18.4370  102.8240    6.2740 C.2       1 D4P         0.2163
     28 O          19.3430  102.0530    5.9610 O.2       1 D4P        -0.3916
     29 C1         16.5400  102.1730    5.2110 C.ar      1 D4P        -0.0097
     30 C2         16.7480  100.9560    5.8500 C.ar      1 D4P        -0.0642
     31 C3         15.8180   99.9320    5.7130 C.ar      1 D4P        -0.0391
     32 C4         14.6800  100.1240    4.9380 C.ar      1 D4P         0.0836
     33 O4         13.7710   99.1220    4.8040 O.3       1 D4P        -0.3270
     34 C5         14.4730  101.3420    4.2990 C.ar      1 D4P        -0.0391
     35 C6         15.4030  102.3660    4.4360 C.ar      1 D4P        -0.0642
     36 C1         17.2970  104.2400    7.9060 C.3       1 MEA         0.0257
     37 N          18.3830  103.3110    7.5210 N.am      1 MEA        -0.2497
     38 CA         19.4090  102.9190    8.5130 C.3       1 MEA         0.1430
     39 C          20.6490  103.4050    8.1150 C.2       1 MEA         0.2062
     40 O          21.6530  102.6980    8.1830 O.2       1 MEA        -0.3942
     41 CB         19.4790  101.3980    8.6580 C.3       1 MEA         0.0216
     42 CG         18.9790  101.0260    9.9010 C.ar      1 MEA        -0.0385
     43 CD1        19.6300  100.0520   10.6480 C.ar      1 MEA        -0.0601
     44 CE1        19.1310   99.6800   11.8910 C.ar      1 MEA        -0.0686
     45 CZ         17.9800  100.2820   12.3860 C.ar      1 MEA        -0.0687
     46 CE2        17.3290  101.2570   11.6390 C.ar      1 MEA        -0.0686
     47 CD2        17.8290  101.6290   10.3960 C.ar      1 MEA        -0.0601
     48 N          20.7560  104.7140    7.6300 N.am      1 2TL        -0.2612
     49 CA         22.0730  105.2390    7.2040 C.3       1 2TL         0.1565
     50 CB         21.9110  106.5010    6.3540 C.3       1 2TL         0.0924
     51 OG1        23.1280  107.2510    6.3760 O.3       1 2TL        -0.3874
     52 CG2        20.7740  107.3550    6.9190 C.3       1 2TL        -0.0346
     53 C          22.7430  104.2670    6.4690 C.2       1 2TL         0.2066
     54 O          23.9670  104.3010    6.3520 O.2       1 2TL        -0.3943
     55 N          22.0160  103.2390    5.8560 N.am      1 SER        -0.2600
     56 CA         22.7200  102.2000    5.0730 C.3       1 SER         0.1700
     57 C          23.2630  102.7710    3.9270 C.2       1 SER         0.2627
     58 O          24.2900  102.3220    3.4210 O.2       1 SER        -0.3677
     59 CB         21.7730  101.0780    4.6800 C.3       1 SER         0.1182
     60 OG         20.8780  101.5430    3.6590 O.3       1 SER        -0.2704
     61 N          18.8060  100.1380    1.2910 N.am      1 GLY        -0.2546
     62 CA         20.0780  100.8290    1.6030 C.3       1 GLY         0.1321
     63 C          20.4850  100.4930    2.8890 C.2       1 GLY         0.2567
     64 O          20.4780   99.3240    3.2710 O.2       1 GLY        -0.3681
     65 CAH        13.1640   99.1970    3.5060 C.3       1 28K         0.0803
     66 CBP        12.1580   98.0550    3.3460 C.3       1 28K        -0.0412
     67 CAG        14.2400   99.0820    2.4330 C.3       1 28K         0.1012
     68 OBO        14.3030   97.8590    1.6800 O.3       1 28K        -0.4183
     69 CBN        13.7940   99.0410    1.0030 C.3       1 28K         0.0386
     70 CAF        15.4340   99.7300    2.7250 C.2       1 28K        -0.0279
     71 CAE        16.5190   99.6110    1.8650 C.2       1 28K         0.0713
     72 CAD        17.7140  100.2590    2.1580 C.2       1 28K         0.2636
     73 OBM        17.8100  100.9380    3.1780 O.2       1 28K        -0.3436
     74 H          19.2416  111.9707    1.8554 H         1 28H         0.0233
     75 H          20.9379  111.4560    1.5651 H         1 28H         0.0233
     76 H          20.4769  112.1818    3.1422 H         1 28H         0.0233
     77 H          19.0133  110.2259    3.6151 H         1 28H         0.0322
     78 H          19.1047  108.2459    2.1094 H         1 28H         0.0233
     79 H          20.1381  109.1652    0.9633 H         1 28H         0.0233
     80 H          18.4422  109.6804    1.2550 H         1 28H         0.0233
     81 H          21.3920  110.1809    4.3353 H         1 28H         0.0624
     82 H          21.5316  107.8607    4.4063 H         1 28H         0.2100
     83 H          22.0411  110.2255    1.7068 H         1 28H         0.0561
     84 H          24.3326  109.5412    2.3951 H         1 28H         0.0257
     85 H          23.6664  108.8271    3.9028 H         1 28H         0.0257
     86 H          23.5731  110.6003    3.6313 H         1 28H         0.0257
     87 H          23.2171  107.2976    3.3007 H         1 THR         0.1884
     88 H          23.3501  105.6891    0.9762 H         1 THR         0.0830
     89 H          24.3447  104.3048    2.4499 H         1 THR         0.0696
     90 H          24.5263  105.0162    4.8291 H         1 THR         0.0260
     91 H          23.1748  106.1742    4.5858 H         1 THR         0.0260
     92 H          24.7290  106.4124    3.7173 H         1 THR         0.0260
     93 H          20.7615  105.9625    3.5392 H         1 28J         0.1883
     94 H          19.1814  104.0481    1.9167 H         1 28J         0.0803
     95 H          18.8300  106.9824    1.7174 H         1 28J         0.0345
     96 H          17.5679  106.2717   -0.3073 H         1 28J         0.0235
     97 H          17.6507  104.5632    0.2410 H         1 28J         0.0235
     98 H          19.1552  105.4369   -0.2061 H         1 28J         0.0235
     99 H          16.8693  105.4871    3.2194 H         1 28J         0.0267
    100 H          16.1628  105.8748    1.6140 H         1 28J         0.0267
    101 H          15.7327  107.7025    3.2496 H         1 28J         0.0230
    102 H          16.7935  108.2651    1.9137 H         1 28J         0.0230
    103 H          17.5000  107.8774    3.5191 H         1 28J         0.0230
    104 H          18.2383  102.7126    3.3866 H         1 D4P         0.1906
    105 H          16.9623  104.1087    5.6959 H         1 D4P         0.0939
    106 H          17.6350  100.8057    6.4548 H         1 D4P         0.0535
    107 H          15.9803   98.9829    6.2109 H         1 D4P         0.0526
    108 H          13.5862  101.4927    3.6940 H         1 D4P         0.0526
    109 H          15.2412  103.3152    3.9382 H         1 D4P         0.0535
    110 H          16.6375  104.4110    7.0424 H         1 MEA         0.0488
    111 H          17.7311  105.1970    8.2310 H         1 MEA         0.0488
    112 H          16.7152  103.8024    8.7306 H         1 MEA         0.0488
    113 H          19.1462  103.3566    9.4874 H         1 MEA         0.0825
    114 H          20.5251  101.0694    8.5706 H         1 MEA         0.0474
    115 H          18.8791  100.9264    7.8657 H         1 MEA         0.0474
    116 H          20.5271   99.5821   10.2615 H         1 MEA         0.0557
    117 H          19.6393   98.9206   12.4741 H         1 MEA         0.0599
    118 H          17.5900   99.9911   13.3547 H         1 MEA         0.0559
    119 H          16.4319  101.7271   12.0254 H         1 MEA         0.0599
    120 H          17.3218  102.3893    9.8131 H         1 MEA         0.0557
    121 H          19.9434  105.2939    7.5714 H         1 2TL         0.1884
    122 H          22.6636  105.4863    8.0984 H         1 2TL         0.0826
    123 H          21.6750  106.2167    5.3179 H         1 2TL         0.0639
    124 H          23.8324  106.7198    6.0236 H         1 2TL         0.2101
    125 H          20.6580  108.2620    6.3076 H         1 2TL         0.0257
    126 H          21.0089  107.6390    7.9554 H         1 2TL         0.0257
    127 H          19.8377  106.7779    6.9001 H         1 2TL         0.0257
    128 H          21.0207  103.2073    5.9476 H         1 SER         0.1885
    129 H          23.5312  101.7814    5.6867 H         1 SER         0.0844
    130 H          21.1932  100.7625    5.5599 H         1 SER         0.0664
    131 H          22.3534  100.2252    4.2982 H         1 SER         0.0664
    132 H          18.7273   99.5853    0.4614 H         1 GLY         0.1889
    133 H          19.9297  101.9170    1.5380 H         1 GLY         0.0780
    134 H          20.8493  100.5203    0.8820 H         1 GLY         0.0780
    135 H          12.6438  100.1604    3.4004 H         1 28K         0.0553
    136 H          11.6929   98.1128    2.3508 H         1 28K         0.0249
    137 H          11.3806   98.1401    4.1195 H         1 28K         0.0249
    138 H          12.6773   97.0912    3.4525 H         1 28K         0.0249
    139 H          14.3913   99.5329    0.2212 H         1 28K         0.0456
    140 H          12.7258   99.1200    0.7525 H         1 28K         0.0456
    141 H          15.5195  100.3317    3.6287 H         1 28K         0.0686
    142 H          16.4334   99.0099    0.9610 H         1 28K         0.1476
@<TRIPOS>BOND
     1    2    1 1  
     2    2    3 1  
     3    4    2 1  
     4    4    5 1  
     5    6    4 1  
     6    6    7 1  
     7    8    6 1  
     8    8    9 2  
     9   10    8 am 
    10   11   10 1  
    11   11   12 1  
    12   14   11 1  
    13   12   13 2  
    14   12   17 am 
    15   15   14 1  
    16   14   16 1  
    17   57   15 1  
    18   17   18 1  
    19   18   19 1  
    20   18   23 1  
    21   19   20 1  
    22   19   21 1  
    23   21   22 1  
    24   23   24 2  
    25   23   25 am 
    26   25   26 1  
    27   27   26 1  
    28   26   29 1  
    29   27   28 2  
    30   37   27 am 
    31   29   30 ar 
    32   29   35 ar 
    33   30   31 ar 
    34   31   32 ar 
    35   32   33 1  
    36   34   32 ar 
    37   33   65 1  
    38   35   34 ar 
    39   37   36 1  
    40   38   37 1  
    41   39   38 1  
    42   38   41 1  
    43   39   40 2  
    44   48   39 am 
    45   41   42 1  
    46   42   43 ar 
    47   42   47 ar 
    48   43   44 ar 
    49   44   45 ar 
    50   46   45 ar 
    51   47   46 ar 
    52   49   48 1  
    53   49   50 1  
    54   53   49 1  
    55   50   51 1  
    56   50   52 1  
    57   53   54 2  
    58   55   53 am 
    59   56   55 1  
    60   56   57 1  
    61   59   56 1  
    62   57   58 2  
    63   60   59 1  
    64   63   60 1  
    65   62   61 1  
    66   61   72 am 
    67   62   63 1  
    68   63   64 2  
    69   65   66 1  
    70   65   67 1  
    71   67   68 1  
    72   67   69 1  
    73   67   70 1  
    74   68   69 1  
    75   70   71 2  
    76   71   72 1  
    77   72   73 2  
    78    1   74 1  
    79    1   75 1  
    80    1   76 1  
    81    2   77 1  
    82    3   78 1  
    83    3   79 1  
    84    3   80 1  
    85    4   81 1  
    86    5   82 1  
    87    6   83 1  
    88    7   84 1  
    89    7   85 1  
    90    7   86 1  
    91   10   87 1  
    92   11   88 1  
    93   14   89 1  
    94   16   90 1  
    95   16   91 1  
    96   16   92 1  
    97   17   93 1  
    98   18   94 1  
    99   19   95 1  
   100   20   96 1  
   101   20   97 1  
   102   20   98 1  
   103   21   99 1  
   104   21  100 1  
   105   22  101 1  
   106   22  102 1  
   107   22  103 1  
   108   25  104 1  
   109   26  105 1  
   110   30  106 1  
   111   31  107 1  
   112   34  108 1  
   113   35  109 1  
   114   36  110 1  
   115   36  111 1  
   116   36  112 1  
   117   38  113 1  
   118   41  114 1  
   119   41  115 1  
   120   43  116 1  
   121   44  117 1  
   122   45  118 1  
   123   46  119 1  
   124   47  120 1  
   125   48  121 1  
   126   49  122 1  
   127   50  123 1  
   128   51  124 1  
   129   52  125 1  
   130   52  126 1  
   131   52  127 1  
   132   55  128 1  
   133   56  129 1  
   134   59  130 1  
   135   59  131 1  
   136   61  132 1  
   137   62  133 1  
   138   62  134 1  
   139   65  135 1  
   140   66  136 1  
   141   66  137 1  
   142   66  138 1  
   143   69  139 1  
   144   69  140 1  
   145   70  141 1  
   146   71  142 1  
@<TRIPOS>SUBSTRUCTURE
     1 28H         1

