4mex_ligand
  -I-interpret- 

142146  0  0  0  0  0  0  0  0999 V2000
   20.1400  111.5360    2.3180 C   0  0  0  0  0
   19.8110  110.1450    2.8620 C   0  0  0  0  0
   19.3410  109.2460    1.7170 C   0  0  0  0  0
   21.0600  109.5390    3.5060 C   0  0  0  0  0
   20.7550  108.2350    4.0070 O   0  0  0  0  0
   22.1750  109.4380    2.4630 C   0  0  0  0  0
   23.5320  109.6140    3.1460 C   0  0  0  0  0
   22.1180  108.0670    1.7860 C   0  0  0  0  0
   21.5210  107.9100    0.7220 O   0  0  0  0  0
   22.7560  107.0860    2.4390 N   0  0  0  0  0
   22.7990  105.7090    1.9280 C   0  0  0  0  0
   21.5030  105.2490    1.7220 C   0  0  0  0  0
   21.2060  104.6480    0.6910 O   0  0  0  0  0
   23.5000  104.8140    2.9370 C   0  0  0  0  0
   22.5760  103.8360    3.4350 O   0  0  0  0  0
   24.0190  105.6640    4.0990 C   0  0  0  0  0
   20.5260  105.4740    2.6990 N   0  0  0  0  0
   19.1440  104.9880    2.4870 C   0  0  0  0  0
   18.3180  106.0090    1.7030 C   0  0  0  0  0
   18.1620  105.5370    0.2560 C   0  0  0  0  0
   16.9370  106.1510    2.3450 C   0  0  0  0  0
   16.7260  107.6010    2.7880 C   0  0  0  0  0
   18.5420  104.7510    3.7180 C   0  0  0  0  0
   18.3820  105.6650    4.5260 O   0  0  0  0  0
   18.1120  103.4590    4.0400 N   0  0  0  0  0
   17.4700  103.1970    5.3480 C   0  0  0  0  0
   18.4370  102.8240    6.2740 C   0  0  0  0  0
   19.3430  102.0530    5.9610 O   0  0  0  0  0
   16.5400  102.1730    5.2110 C   0  0  0  0  0
   16.7480  100.9560    5.8500 C   0  0  0  0  0
   15.8180   99.9320    5.7130 C   0  0  0  0  0
   14.6800  100.1240    4.9380 C   0  0  0  0  0
   13.7710   99.1220    4.8040 O   0  0  0  0  0
   14.4730  101.3420    4.2990 C   0  0  0  0  0
   15.4030  102.3660    4.4360 C   0  0  0  0  0
   17.2970  104.2400    7.9060 C   0  0  0  0  0
   18.3830  103.3110    7.5210 N   0  0  0  0  0
   19.4090  102.9190    8.5130 C   0  0  0  0  0
   20.6490  103.4050    8.1150 C   0  0  0  0  0
   21.6530  102.6980    8.1830 O   0  0  0  0  0
   19.4790  101.3980    8.6580 C   0  0  0  0  0
   18.9790  101.0260    9.9010 C   0  0  0  0  0
   19.6300  100.0520   10.6480 C   0  0  0  0  0
   19.1310   99.6800   11.8910 C   0  0  0  0  0
   17.9800  100.2820   12.3860 C   0  0  0  0  0
   17.3290  101.2570   11.6390 C   0  0  0  0  0
   17.8290  101.6290   10.3960 C   0  0  0  0  0
   20.7560  104.7140    7.6300 N   0  0  0  0  0
   22.0730  105.2390    7.2040 C   0  0  0  0  0
   21.9110  106.5010    6.3540 C   0  0  0  0  0
   23.1280  107.2510    6.3760 O   0  0  0  0  0
   20.7740  107.3550    6.9190 C   0  0  0  0  0
   22.7430  104.2670    6.4690 C   0  0  0  0  0
   23.9670  104.3010    6.3520 O   0  0  0  0  0
   22.0160  103.2390    5.8560 N   0  0  0  0  0
   22.7200  102.2000    5.0730 C   0  0  0  0  0
   23.2630  102.7710    3.9270 C   0  0  0  0  0
   24.2900  102.3220    3.4210 O   0  0  0  0  0
   21.7730  101.0780    4.6800 C   0  0  0  0  0
   20.8780  101.5430    3.6590 O   0  0  0  0  0
   18.8060  100.1380    1.2910 N   0  0  0  0  0
   20.0780  100.8290    1.6030 C   0  0  0  0  0
   20.4850  100.4930    2.8890 C   0  0  0  0  0
   20.4780   99.3240    3.2710 O   0  0  0  0  0
   13.1640   99.1970    3.5060 C   0  0  0  0  0
   12.1580   98.0550    3.3460 C   0  0  0  0  0
   14.2400   99.0820    2.4330 C   0  0  0  0  0
   14.3030   97.8590    1.6800 O   0  0  0  0  0
   13.7940   99.0410    1.0030 C   0  0  0  0  0
   15.4340   99.7300    2.7250 C   0  0  0  0  0
   16.5190   99.6110    1.8650 C   0  0  0  0  0
   17.7140  100.2590    2.1580 C   0  0  0  0  0
   17.8100  100.9380    3.1780 O   0  0  0  0  0
   20.4737  112.1749    3.1356 H   0  0  0  0  0
   20.9308  111.4554    1.5722 H   0  0  0  0  0
   19.2491  111.9656    1.8599 H   0  0  0  0  0
   19.0205  110.2260    3.6081 H   0  0  0  0  0
   20.1323  109.1654    0.9717 H   0  0  0  0  0
   19.1055  108.2559    2.1073 H   0  0  0  0  0
   18.4514  109.6784    1.2589 H   0  0  0  0  0
   21.3887  110.1750    4.3279 H   0  0  0  0  0
   20.0554  108.3003    4.6611 H   0  0  0  0  0
   22.0425  110.2188    1.7141 H   0  0  0  0  0
   23.6646  108.8329    3.8946 H   0  0  0  0  0
   24.3243  109.5431    2.4008 H   0  0  0  0  0
   23.5709  110.5910    3.6277 H   0  0  0  0  0
   23.2263  107.3019    3.3180 H   0  0  0  0  0
   23.3452  105.6899    0.9849 H   0  0  0  0  0
   24.3364  104.3090    2.4538 H   0  0  0  0  0
   24.7224  106.4052    3.7195 H   0  0  0  0  0
   23.1816  106.1690    4.5805 H   0  0  0  0  0
   24.5214  105.0211    4.8217 H   0  0  0  0  0
   20.7662  105.9723    3.5560 H   0  0  0  0  0
   19.1880  104.0644    1.9098 H   0  0  0  0  0
   18.8256  106.9735    1.7177 H   0  0  0  0  0
   19.1467  105.4382   -0.2007 H   0  0  0  0  0
   17.6553  104.5720    0.2426 H   0  0  0  0  0
   17.5732  106.2658   -0.3011 H   0  0  0  0  0
   16.8701  105.4932    3.2116 H   0  0  0  0  0
   16.1700  105.8775    1.6205 H   0  0  0  0  0
   17.4936  107.8736    3.5123 H   0  0  0  0  0
   16.7932  108.2579    1.9208 H   0  0  0  0  0
   15.7415  107.7003    3.2452 H   0  0  0  0  0
   18.2409  102.6977    3.3735 H   0  0  0  0  0
   16.9675  104.1008    5.6927 H   0  0  0  0  0
   17.6399  100.8048    6.4581 H   0  0  0  0  0
   15.9812   98.9776    6.2137 H   0  0  0  0  0
   13.5813  101.4936    3.6907 H   0  0  0  0  0
   15.2403  103.3205    3.9354 H   0  0  0  0  0
   17.3409  105.1290    7.2768 H   0  0  0  0  0
   16.3343  103.7465    7.7731 H   0  0  0  0  0
   17.4188  104.5263    8.9506 H   0  0  0  0  0
   19.1350  103.3446    9.4783 H   0  0  0  0  0
   20.5157  101.0727    8.5718 H   0  0  0  0  0
   18.8841  100.9310    7.8731 H   0  0  0  0  0
   20.5321   99.5795   10.2593 H   0  0  0  0  0
   19.6422   98.9164   12.4773 H   0  0  0  0  0
   17.5878   99.9895   13.3600 H   0  0  0  0  0
   16.4269  101.7297   12.0275 H   0  0  0  0  0
   17.3190  102.3935    9.8099 H   0  0  0  0  0
   19.9272  105.3055    7.5702 H   0  0  0  0  0
   22.6474  105.4949    8.0943 H   0  0  0  0  0
   21.6773  106.2193    5.3273 H   0  0  0  0  0
   23.0246  108.0423    5.8423 H   0  0  0  0  0
   19.8469  106.7821    6.8998 H   0  0  0  0  0
   21.0079  107.6357    7.9459 H   0  0  0  0  0
   20.6601  108.2534    6.3124 H   0  0  0  0  0
   21.0008  103.2067    5.9494 H   0  0  0  0  0
   23.5130  101.7806    5.6922 H   0  0  0  0  0
   21.1985  100.7653    5.5519 H   0  0  0  0  0
   22.3481  100.2329    4.3017 H   0  0  0  0  0
   18.7257   99.5742    0.4448 H   0  0  0  0  0
   19.9309  101.9071    1.5387 H   0  0  0  0  0
   20.8423  100.5230    0.8886 H   0  0  0  0  0
   12.6487  100.1518    3.4012 H   0  0  0  0  0
   12.6738   97.1006    3.4518 H   0  0  0  0  0
   11.3883   98.1404    4.1130 H   0  0  0  0  0
   11.6979   98.1134    2.3596 H   0  0  0  0  0
   13.9329   99.5910    0.0723 H   0  0  0  0  0
   12.9491   99.3471    0.3861 H   0  0  0  0  0
   15.5196  100.3322    3.6295 H   0  0  0  0  0
   16.4333   99.0093    0.9601 H   0  0  0  0  0
  2  1  1  0  0  0
  2  3  1  0  0  0
  4  2  1  0  0  0
  4  5  1  0  0  0
  6  4  1  0  0  0
  6  7  1  0  0  0
  8  6  1  0  0  0
  8  9  2  0  0  0
 10  8  1  0  0  0
 11 10  1  0  0  0
 11 12  1  0  0  0
 14 11  1  0  0  0
 12 13  2  0  0  0
 12 17  1  0  0  0
 15 14  1  0  0  0
 14 16  1  0  0  0
 57 15  1  0  0  0
 17 18  1  0  0  0
 18 19  1  0  0  0
 18 23  1  0  0  0
 19 20  1  0  0  0
 19 21  1  0  0  0
 21 22  1  0  0  0
 23 24  2  0  0  0
 23 25  1  0  0  0
 25 26  1  0  0  0
 27 26  1  0  0  0
 26 29  1  0  0  0
 27 28  2  0  0  0
 37 27  1  0  0  0
 29 30  4  0  0  0
 29 35  4  0  0  0
 30 31  4  0  0  0
 31 32  4  0  0  0
 32 33  1  0  0  0
 34 32  4  0  0  0
 33 65  1  0  0  0
 35 34  4  0  0  0
 37 36  1  0  0  0
 38 37  1  0  0  0
 39 38  1  0  0  0
 38 41  1  0  0  0
 39 40  2  0  0  0
 48 39  1  0  0  0
 41 42  1  0  0  0
 42 43  4  0  0  0
 42 47  4  0  0  0
 43 44  4  0  0  0
 44 45  4  0  0  0
 46 45  4  0  0  0
 47 46  4  0  0  0
 49 48  1  0  0  0
 49 50  1  0  0  0
 53 49  1  0  0  0
 50 51  1  0  0  0
 50 52  1  0  0  0
 53 54  2  0  0  0
 55 53  1  0  0  0
 56 55  1  0  0  0
 56 57  1  0  0  0
 59 56  1  0  0  0
 57 58  2  0  0  0
 60 59  1  0  0  0
 63 60  1  0  0  0
 62 61  1  0  0  0
 61 72  1  0  0  0
 62 63  1  0  0  0
 63 64  2  0  0  0
 65 66  1  0  0  0
 65 67  1  0  0  0
 67 68  1  0  0  0
 67 69  1  0  0  0
 67 70  1  0  0  0
 68 69  1  0  0  0
 70 71  2  0  0  0
 71 72  1  0  0  0
 72 73  2  0  0  0
  1 74  1  0  0  0
  1 75  1  0  0  0
  1 76  1  0  0  0
  2 77  1  0  0  0
  3 78  1  0  0  0
  3 79  1  0  0  0
  3 80  1  0  0  0
  4 81  1  0  0  0
  5 82  1  0  0  0
  6 83  1  0  0  0
  7 84  1  0  0  0
  7 85  1  0  0  0
  7 86  1  0  0  0
 10 87  1  0  0  0
 11 88  1  0  0  0
 14 89  1  0  0  0
 16 90  1  0  0  0
 16 91  1  0  0  0
 16 92  1  0  0  0
 17 93  1  0  0  0
 18 94  1  0  0  0
 19 95  1  0  0  0
 20 96  1  0  0  0
 20 97  1  0  0  0
 20 98  1  0  0  0
 21 99  1  0  0  0
 21100  1  0  0  0
 22101  1  0  0  0
 22102  1  0  0  0
 22103  1  0  0  0
 25104  1  0  0  0
 26105  1  0  0  0
 30106  1  0  0  0
 31107  1  0  0  0
 34108  1  0  0  0
 35109  1  0  0  0
 36110  1  0  0  0
 36111  1  0  0  0
 36112  1  0  0  0
 38113  1  0  0  0
 41114  1  0  0  0
 41115  1  0  0  0
 43116  1  0  0  0
 44117  1  0  0  0
 45118  1  0  0  0
 46119  1  0  0  0
 47120  1  0  0  0
 48121  1  0  0  0
 49122  1  0  0  0
 50123  1  0  0  0
 51124  1  0  0  0
 52125  1  0  0  0
 52126  1  0  0  0
 52127  1  0  0  0
 55128  1  0  0  0
 56129  1  0  0  0
 59130  1  0  0  0
 59131  1  0  0  0
 61132  1  0  0  0
 62133  1  0  0  0
 62134  1  0  0  0
 65135  1  0  0  0
 66136  1  0  0  0
 66137  1  0  0  0
 66138  1  0  0  0
 69139  1  0  0  0
 69140  1  0  0  0
 70141  1  0  0  0
 71142  1  0  0  0
M  END
$$$$
