6rj5_ligand
  -I-interpret- 

 52 54  0  0  0  0  0  0  0  0999 V2000
   20.6880   -6.1100   -1.8880 N   0  0  0  0  0
   21.5700   -6.8920    0.2530 C   0  0  0  0  0
   22.3850   -7.8440   -0.3850 C   0  0  0  0  0
   23.0680   -8.8010    0.3510 C   0  0  0  0  0
   22.9690   -8.8060    1.7370 C   0  0  0  0  0
   23.7020   -9.8640    2.5330 C   0  0  0  0  0
   24.7540   -9.1810    3.4100 C   0  0  0  0  0
   19.2590  -12.5150    5.2310 C   0  0  0  0  0
   20.3160  -14.1050    2.2490 C   0  0  0  0  0
   17.4680  -13.5060    6.6690 C   0  0  0  0  0
   17.8500  -11.5100    8.6000 C   0  0  0  0  0
   16.8880  -12.4990    8.7920 C   0  0  0  0  0
   16.6970  -13.4850    7.8290 C   0  0  0  0  0
   18.6010  -11.5020    7.4330 C   0  0  0  0  0
   21.4610   -6.9140    1.6520 C   0  0  0  0  0
   22.1550   -7.8680    2.3790 C   0  0  0  0  0
   20.2470  -11.5720    4.8460 C   0  0  0  0  0
   18.4190  -12.4990    6.4650 C   0  0  0  0  0
   20.7720  -12.0550    3.6580 C   0  0  0  0  0
   20.8280   -5.8940   -0.5580 C   0  0  0  0  0
   21.8170  -11.4260    2.8200 C   0  0  0  0  0
   20.7630   -3.4920   -2.7580 C   0  0  0  0  0
   19.2440  -13.4630    4.3270 N   0  0  0  0  0
   20.0950  -13.2220    3.3950 N   0  0  0  0  0
   22.7000  -10.5510    3.3590 N   0  0  0  0  0
   20.3630   -4.8940   -0.0320 O   0  0  0  0  0
   21.8810  -11.6990    1.6340 O   0  0  0  0  0
   19.9950   -5.6200   -4.1930 O   0  0  0  0  0
   18.5970   -4.9670   -2.2620 O   0  0  0  0  0
   19.8770   -5.0680   -2.8860 S   0  0  0  0  0
   21.1002   -6.9511   -2.2918 H   0  0  0  0  0
   22.4811   -7.8297   -1.4707 H   0  0  0  0  0
   23.6803   -9.5466   -0.1562 H   0  0  0  0  0
   24.2091  -10.5815    1.8879 H   0  0  0  0  0
   24.2678   -8.4490    4.0549 H   0  0  0  0  0
   25.2563   -9.9298    4.0224 H   0  0  0  0  0
   25.4844   -8.6795    2.7751 H   0  0  0  0  0
   20.1354  -13.5531    1.3266 H   0  0  0  0  0
   21.3446  -14.4655    2.2628 H   0  0  0  0  0
   19.6320  -14.9517    2.3071 H   0  0  0  0  0
   17.3327  -14.2958    5.9301 H   0  0  0  0  0
   18.0119  -10.7472    9.3616 H   0  0  0  0  0
   16.2833  -12.5005    9.6989 H   0  0  0  0  0
   15.9356  -14.2495    7.9840 H   0  0  0  0  0
   19.3372  -10.7152    7.2682 H   0  0  0  0  0
   20.8337   -6.1844    2.1641 H   0  0  0  0  0
   22.0651   -7.8873    3.4651 H   0  0  0  0  0
   20.5323  -10.6614    5.3727 H   0  0  0  0  0
   21.8192   -3.6518   -2.9747 H   0  0  0  0  0
   20.3470   -2.7835   -3.4743 H   0  0  0  0  0
   20.6538   -3.0962   -1.7483 H   0  0  0  0  0
   22.6683  -10.3650    4.3614 H   0  0  0  0  0
 20  1  1  0  0  0
  1 30  1  0  0  0
  3  2  4  0  0  0
 15  2  4  0  0  0
  2 20  1  0  0  0
  4  3  4  0  0  0
  5  4  4  0  0  0
  6  5  1  0  0  0
  5 16  4  0  0  0
  6  7  1  0  0  0
 25  6  1  0  0  0
 17  8  4  0  0  0
  8 18  1  0  0  0
  8 23  4  0  0  0
 24  9  1  0  0  0
 10 13  4  0  0  0
 18 10  4  0  0  0
 11 12  4  0  0  0
 14 11  4  0  0  0
 13 12  4  0  0  0
 18 14  4  0  0  0
 16 15  4  0  0  0
 19 17  4  0  0  0
 21 19  1  0  0  0
 19 24  4  0  0  0
 20 26  2  0  0  0
 21 25  1  0  0  0
 21 27  2  0  0  0
 30 22  1  0  0  0
 23 24  4  0  0  0
 30 28  2  0  0  0
 30 29  2  0  0  0
  1 31  1  0  0  0
  3 32  1  0  0  0
  4 33  1  0  0  0
  6 34  1  0  0  0
  7 35  1  0  0  0
  7 36  1  0  0  0
  7 37  1  0  0  0
  9 38  1  0  0  0
  9 39  1  0  0  0
  9 40  1  0  0  0
 10 41  1  0  0  0
 11 42  1  0  0  0
 12 43  1  0  0  0
 13 44  1  0  0  0
 14 45  1  0  0  0
 15 46  1  0  0  0
 16 47  1  0  0  0
 17 48  1  0  0  0
 22 49  1  0  0  0
 22 50  1  0  0  0
 22 51  1  0  0  0
 25 52  1  0  0  0
M  END
$$$$
