4zt6_ligand
  -I-interpret- 

 45 48  0  0  0  0  0  0  0  0999 V2000
  -43.6250   17.7310   15.8730 C   0  0  0  0  0
  -42.6430   17.0480   15.1820 C   0  0  0  0  0
  -43.0030   15.9610   14.3890 C   0  0  0  0  0
  -43.1830   14.3840   12.9760 C   0  0  0  0  0
  -43.9200   12.6290   11.4090 C   0  0  0  0  0
  -43.3070   11.6780   10.4050 C   0  0  0  0  0
  -42.7380   12.3570    9.1820 C   0  0  0  0  0
  -41.3180   11.9390    7.1450 C   0  0  0  0  0
  -40.4230   10.8540    6.5550 C   0  0  0  0  0
  -39.0120   10.9120    7.0950 C   0  0  0  0  0
  -39.1920   13.3560    7.0820 C   0  0  0  0  0
  -41.3260   14.4620    7.0830 C   0  0  0  0  0
  -40.5930   13.2750    7.1060 C   0  0  0  0  0
  -41.6180   17.1340    7.0300 Cl  0  0  0  0  0
  -40.6770   15.6790    7.0590 C   0  0  0  0  0
  -39.3040   15.7730    7.0480 C   0  0  0  0  0
  -38.5650   14.6100    7.0520 C   0  0  0  0  0
  -36.8210   14.7300    7.0190 Cl  0  0  0  0  0
  -38.4140   12.2280    7.0560 O   0  0  0  0  0
  -41.7470   11.5240    8.4890 N   0  3  0  0  0
  -42.9110   13.4610   12.0490 N   0  0  0  0  0
  -42.2660   15.1650   13.5180 N   0  0  0  0  0
  -44.4440   14.6000   13.4140 N   0  0  0  0  0
  -44.3580   15.6150   14.3280 C   0  0  0  0  0
  -45.3550   16.2200   14.9820 N   0  0  0  0  0
  -44.9150   17.2830   15.7440 C   0  0  0  0  0
  -45.8980   17.9050   16.4350 F   0  0  0  0  0
  -43.3842   18.5922   16.4963 H   0  0  0  0  0
  -41.6000   17.3557   15.2564 H   0  0  0  0  0
  -44.4186   12.0405   12.1792 H   0  0  0  0  0
  -44.6185   13.2799   10.8831 H   0  0  0  0  0
  -44.1001   11.0121   10.0650 H   0  0  0  0  0
  -42.4828   11.1685   10.9043 H   0  0  0  0  0
  -42.2423   13.2726    9.5047 H   0  0  0  0  0
  -43.5586   12.5499    8.4910 H   0  0  0  0  0
  -42.2250   12.0741    6.5558 H   0  0  0  0  0
  -40.3772   11.0049    5.4765 H   0  0  0  0  0
  -40.8464    9.8859    6.8226 H   0  0  0  0  0
  -38.4012   10.2633    6.4672 H   0  0  0  0  0
  -39.0563   10.6106    8.1416 H   0  0  0  0  0
  -42.4155   14.4275    7.0840 H   0  0  0  0  0
  -38.8122   16.7457    7.0364 H   0  0  0  0  0
  -42.1960   10.6169    8.3624 H   0  0  0  0  0
  -40.9072   11.5646    9.0664 H   0  0  0  0  0
  -41.9376   13.3314   11.7730 H   0  0  0  0  0
  2  1  4  0  0  0
  1 26  4  0  0  0
  3  2  4  0  0  0
 22  3  4  0  0  0
  3 24  4  0  0  0
 21  4  1  0  0  0
  4 22  4  0  0  0
  4 23  4  0  0  0
  6  5  1  0  0  0
  5 21  1  0  0  0
  7  6  1  0  0  0
 20  7  1  0  0  0
  8  9  1  0  0  0
  8 13  1  0  0  0
  8 20  1  0  0  0
  9 10  1  0  0  0
 10 19  1  0  0  0
 13 11  4  0  0  0
 11 17  4  0  0  0
 11 19  1  0  0  0
 13 12  4  0  0  0
 12 15  4  0  0  0
 15 14  1  0  0  0
 15 16  4  0  0  0
 16 17  4  0  0  0
 17 18  1  0  0  0
 23 24  4  0  0  0
 24 25  4  0  0  0
 25 26  4  0  0  0
 26 27  1  0  0  0
  1 28  1  0  0  0
  2 29  1  0  0  0
  5 30  1  0  0  0
  5 31  1  0  0  0
  6 32  1  0  0  0
  6 33  1  0  0  0
  7 34  1  0  0  0
  7 35  1  0  0  0
  8 36  1  0  0  0
  9 37  1  0  0  0
  9 38  1  0  0  0
 10 39  1  0  0  0
 10 40  1  0  0  0
 12 41  1  0  0  0
 16 42  1  0  0  0
 20 43  1  0  0  0
 20 44  1  0  0  0
 21 45  1  0  0  0
M  END
$$$$
