2a5s_ligand
  -I-interpret- 

 20 19  0  0  0  0  0  0  0  0999 V2000
   15.8290   24.1380   38.9810 N   0  3  0  0  0
   15.9350   25.1370   37.8670 C   0  0  0  0  0
   14.7680   26.1190   37.8810 C   0  0  0  0  0
   14.7400   27.0040   37.0020 O   0  0  0  0  0
   15.9890   24.4160   36.5130 C   0  0  0  0  0
   17.3860   23.9070   36.0960 C   0  0  0  0  0
   18.4170   25.0200   35.8650 C   0  0  0  0  0
   19.5470   24.9040   36.3950 O   0  0  0  0  0
   18.1110   26.0040   35.1500 O   0  0  0  0  0
   13.8990   25.9880   38.7700 O   0  0  0  0  0
   15.7940   24.6291   39.8743 H   0  0  0  0  0
   14.9795   23.5861   38.8615 H   0  0  0  0  0
   16.6417   23.5219   38.9620 H   0  0  0  0  0
   16.8549   25.7022   38.0167 H   0  0  0  0  0
   15.6817   25.1410   35.7593 H   0  0  0  0  0
   15.3485   23.5383   36.5995 H   0  0  0  0  0
   17.2667   23.3775   35.1508 H   0  0  0  0  0
   17.7591   23.2867   36.9110 H   0  0  0  0  0
   17.2074   25.9051   34.8412 H   0  0  0  0  0
   14.1271   25.2436   39.3316 H   0  0  0  0  0
  1  2  1  0  0  0
  2  3  1  0  0  0
  2  5  1  0  0  0
  3  4  2  0  0  0
  3 10  1  0  0  0
  5  6  1  0  0  0
  6  7  1  0  0  0
  7  8  2  0  0  0
  7  9  1  0  0  0
  1 11  1  0  0  0
  1 12  1  0  0  0
  1 13  1  0  0  0
  2 14  1  0  0  0
  5 15  1  0  0  0
  5 16  1  0  0  0
  6 17  1  0  0  0
  6 18  1  0  0  0
  9 19  1  0  0  0
 10 20  1  0  0  0
M  END
$$$$
