1sgu_ligand
  -I-interpret- 

 94 98  0  0  0  0  0  0  0  0999 V2000
   17.9230    4.5360   12.1150 N   0  3  0  0  0
   17.5320    3.3370   12.9090 C   0  0  0  0  0
   18.5960    2.2350   13.0340 C   0  0  0  0  0
   17.9940    1.1050   13.8700 C   0  0  0  0  0
   17.2770    0.2430   13.3260 O   0  0  0  0  0
   18.2900    1.0990   15.1870 N   0  0  0  0  0
   17.8190    0.0520   16.2420 C   0  0  0  0  0
   18.3720    0.4010   17.6570 C   0  0  0  0  0
   18.4610   -1.3480   16.0670 C   0  0  0  0  0
   16.1950   -0.0290   16.2900 C   0  0  0  0  0
   19.0070    1.8220   11.6580 N   0  3  0  0  0
   19.3480    2.9580   10.7450 C   0  0  0  0  0
   18.2670    4.0750   10.7290 C   0  0  0  0  0
   20.0700    0.7890   11.6700 C   0  0  0  0  0
   19.9600   -0.1980   10.5230 C   0  0  0  0  0
   21.2710   -0.5680   10.0810 O   0  0  0  0  0
   19.2510   -1.5270   10.8420 C   0  0  0  0  0
   19.1360   -2.5230    9.6920 C   0  0  0  0  0
   18.4900   -3.7730   10.3260 C   0  0  0  0  0
   18.3250   -4.9130    9.3600 C   0  0  0  0  0
   19.4430   -5.5650    8.7560 C   0  0  0  0  0
   19.2260   -6.6360    7.8420 C   0  0  0  0  0
   17.8960   -7.0520    7.5330 C   0  0  0  0  0
   16.7910   -6.4030    8.1340 C   0  0  0  0  0
   16.9980   -5.3380    9.0440 C   0  0  0  0  0
   18.2820   -1.9630    8.5230 C   0  0  0  0  0
   17.4400   -1.0840    8.6810 O   0  0  0  0  0
   18.5250   -2.5170    7.3410 N   0  0  0  0  0
   17.8660   -2.1680    6.0730 C   0  0  0  0  0
   18.3830   -3.0890    4.9370 C   0  0  0  0  0
   19.7470   -3.4540    5.1540 O   0  0  0  0  0
   18.0330   -2.3210    3.6800 C   0  0  0  0  0
   18.2740   -0.8610    3.9180 C   0  0  0  0  0
   18.5400    0.2510    3.1050 C   0  0  0  0  0
   18.7160    1.5090    3.7300 C   0  0  0  0  0
   18.6290    1.6590    5.1500 C   0  0  0  0  0
   18.3590    0.5460    6.0020 C   0  0  0  0  0
   18.1640   -0.7630    5.4840 C   0  0  0  0  0
   16.9040    5.6260   12.1760 C   0  0  0  0  0
   16.4360    6.2820   13.5430 C   0  0  0  0  0
   17.2750    7.1070   14.3030 C   0  0  0  0  0
   16.8580    7.7290   15.5870 N   0  0  0  0  0
   15.5180    7.4200   15.9950 C   0  0  0  0  0
   14.6610    6.6010   15.2550 C   0  0  0  0  0
   15.1220    6.0330   14.0320 C   0  0  0  0  0
   18.7492    4.9770   12.5191 H   0  0  0  0  0
   16.6861    2.8879   12.3886 H   0  0  0  0  0
   17.3374    3.6907   13.9215 H   0  0  0  0  0
   19.5009    2.5679   13.5423 H   0  0  0  0  0
   18.8823    1.8568   15.5267 H   0  0  0  0  0
   18.0287   -0.3448   18.3740 H   0  0  0  0  0
   19.4616    0.4054   17.6289 H   0  0  0  0  0
   18.0110    1.3856   17.9541 H   0  0  0  0  0
   19.5461   -1.2575   16.1169 H   0  0  0  0  0
   18.1132   -2.0077   16.8619 H   0  0  0  0  0
   18.1736   -1.7598   15.0996 H   0  0  0  0  0
   15.8918   -0.8013   16.9968 H   0  0  0  0  0
   15.7937    0.9335   16.6073 H   0  0  0  0  0
   15.8152   -0.2732   15.2979 H   0  0  0  0  0
   18.1691    1.3987   11.2591 H   0  0  0  0  0
   19.4252    2.5580    9.7340 H   0  0  0  0  0
   20.2771    3.4020   11.1024 H   0  0  0  0  0
   18.6608    4.9255   10.1725 H   0  0  0  0  0
   17.3651    3.6729   10.2675 H   0  0  0  0  0
   19.9730    0.2270   12.5989 H   0  0  0  0  0
   21.0277    1.3005   11.5740 H   0  0  0  0  0
   19.3633    0.3348    9.7826 H   0  0  0  0  0
   21.1985   -1.1924    9.3554 H   0  0  0  0  0
   18.2303   -1.2674   11.1227 H   0  0  0  0  0
   19.8520   -2.0159   11.6088 H   0  0  0  0  0
   20.1055   -2.7440    9.2455 H   0  0  0  0  0
   17.4965   -3.4896   10.6734 H   0  0  0  0  0
   19.1469   -4.1126   11.1268 H   0  0  0  0  0
   20.4575   -5.2447    8.9932 H   0  0  0  0  0
   20.0755   -7.1377    7.3787 H   0  0  0  0  0
   17.7310   -7.8710    6.8329 H   0  0  0  0  0
   15.7771   -6.7242    7.8955 H   0  0  0  0  0
   16.1436   -4.8416    9.5041 H   0  0  0  0  0
   19.2326   -3.2509    7.3094 H   0  0  0  0  0
   16.8131   -2.2481    6.3433 H   0  0  0  0  0
   17.9269   -4.0770    4.8738 H   0  0  0  0  0
   20.0426   -4.0225    4.4392 H   0  0  0  0  0
   16.9850   -2.4846    3.4288 H   0  0  0  0  0
   18.6537   -2.6663    2.8532 H   0  0  0  0  0
   18.6092    0.1492    2.0220 H   0  0  0  0  0
   18.9228    2.3844    3.1144 H   0  0  0  0  0
   18.7721    2.6454    5.5913 H   0  0  0  0  0
   18.3008    0.7043    7.0789 H   0  0  0  0  0
   15.9989    5.1455   11.8045 H   0  0  0  0  0
   17.3868    6.4515   11.6530 H   0  0  0  0  0
   18.2823    7.3023   13.9351 H   0  0  0  0  0
   15.1499    7.8452   16.9287 H   0  0  0  0  0
   13.6503    6.3987   15.6096 H   0  0  0  0  0
   14.4529    5.3927   13.4572 H   0  0  0  0  0
  1  2  1  0  0  0
  1 13  1  0  0  0
  1 39  1  0  0  0
  2  3  1  0  0  0
  3  4  1  0  0  0
  3 11  1  0  0  0
  4  5  2  0  0  0
  4  6  1  0  0  0
  6  7  1  0  0  0
  7  8  1  0  0  0
  7  9  1  0  0  0
  7 10  1  0  0  0
 11 12  1  0  0  0
 11 14  1  0  0  0
 12 13  1  0  0  0
 14 15  1  0  0  0
 15 16  1  0  0  0
 15 17  1  0  0  0
 17 18  1  0  0  0
 18 19  1  0  0  0
 18 26  1  0  0  0
 19 20  1  0  0  0
 20 21  4  0  0  0
 20 25  4  0  0  0
 21 22  4  0  0  0
 22 23  4  0  0  0
 23 24  4  0  0  0
 24 25  4  0  0  0
 26 27  2  0  0  0
 26 28  1  0  0  0
 28 29  1  0  0  0
 29 30  1  0  0  0
 29 38  1  0  0  0
 30 31  1  0  0  0
 30 32  1  0  0  0
 32 33  1  0  0  0
 33 34  4  0  0  0
 33 38  4  0  0  0
 34 35  4  0  0  0
 35 36  4  0  0  0
 36 37  4  0  0  0
 37 38  4  0  0  0
 39 40  1  0  0  0
 40 41  4  0  0  0
 40 45  4  0  0  0
 41 42  4  0  0  0
 42 43  4  0  0  0
 43 44  4  0  0  0
 44 45  4  0  0  0
  1 46  1  0  0  0
  2 47  1  0  0  0
  2 48  1  0  0  0
  3 49  1  0  0  0
  6 50  1  0  0  0
  8 51  1  0  0  0
  8 52  1  0  0  0
  8 53  1  0  0  0
  9 54  1  0  0  0
  9 55  1  0  0  0
  9 56  1  0  0  0
 10 57  1  0  0  0
 10 58  1  0  0  0
 10 59  1  0  0  0
 11 60  1  0  0  0
 12 61  1  0  0  0
 12 62  1  0  0  0
 13 63  1  0  0  0
 13 64  1  0  0  0
 14 65  1  0  0  0
 14 66  1  0  0  0
 15 67  1  0  0  0
 16 68  1  0  0  0
 17 69  1  0  0  0
 17 70  1  0  0  0
 18 71  1  0  0  0
 19 72  1  0  0  0
 19 73  1  0  0  0
 21 74  1  0  0  0
 22 75  1  0  0  0
 23 76  1  0  0  0
 24 77  1  0  0  0
 25 78  1  0  0  0
 28 79  1  0  0  0
 29 80  1  0  0  0
 30 81  1  0  0  0
 31 82  1  0  0  0
 32 83  1  0  0  0
 32 84  1  0  0  0
 34 85  1  0  0  0
 35 86  1  0  0  0
 36 87  1  0  0  0
 37 88  1  0  0  0
 39 89  1  0  0  0
 39 90  1  0  0  0
 41 91  1  0  0  0
 43 92  1  0  0  0
 44 93  1  0  0  0
 45 94  1  0  0  0
M  END
$$$$
