2wi2_ligand
  -I-interpret- 

 18 18  0  0  0  0  0  0  0  0999 V2000
   61.4660   11.3450   48.3580 N   0  0  0  0  0
   62.4980   10.8030   49.0480 C   0  0  0  0  0
   62.2610   10.1050   50.1800 N   0  0  0  0  0
   63.7640   10.9600   48.6050 N   0  0  0  0  0
   64.7920   10.4200   49.2930 C   0  0  0  0  0
   66.2040   10.5950   48.7980 C   0  0  0  0  0
   64.5550    9.7220   50.4240 N   0  0  0  0  0
   63.2900    9.5650   50.8680 C   0  0  0  0  0
   62.9920    8.6900   52.2880 S   0  0  0  0  0
   64.4120    7.7290   52.6940 C   0  0  0  0  0
   60.5100   11.2261   48.6932 H   0  0  0  0  0
   61.6449   11.8721   47.5032 H   0  0  0  0  0
   66.2951   10.1605   47.8025 H   0  0  0  0  0
   66.4437   11.6575   48.7555 H   0  0  0  0  0
   66.8913   10.0932   49.4791 H   0  0  0  0  0
   64.6267    7.0380   51.8788 H   0  0  0  0  0
   65.2652    8.3901   52.8459 H   0  0  0  0  0
   64.2194    7.1665   53.6076 H   0  0  0  0  0
  1  2  1  0  0  0
  2  3  4  0  0  0
  2  4  4  0  0  0
  3  8  4  0  0  0
  4  5  4  0  0  0
  5  6  1  0  0  0
  5  7  4  0  0  0
  7  8  4  0  0  0
  8  9  1  0  0  0
  9 10  1  0  0  0
  1 11  1  0  0  0
  1 12  1  0  0  0
  6 13  1  0  0  0
  6 14  1  0  0  0
  6 15  1  0  0  0
 10 16  1  0  0  0
 10 17  1  0  0  0
 10 18  1  0  0  0
M  END
$$$$
