4oak_ligand
  -I-interpret- 

 24 23  0  0  0  0  0  0  0  0999 V2000
  -45.9150    1.6440  -32.6350 N   0  3  0  0  0
  -46.0530    3.0630  -32.9380 C   0  0  0  0  0
  -45.4750    3.3720  -34.3100 C   0  0  0  0  0
  -45.3680    3.9020  -31.8680 C   0  0  0  0  0
  -44.4600    3.4280  -31.1860 O   0  0  0  0  0
  -46.0030    4.9880  -31.5120 N   0  0  0  0  0
  -45.3020    5.8330  -30.5460 C   0  0  0  0  0
  -46.2960    6.9310  -30.2060 C   0  0  0  0  0
  -43.9990    6.4310  -31.0640 C   0  0  0  0  0
  -43.8210    6.6180  -32.2690 O   0  0  0  0  0
  -43.0960    6.7430  -30.2900 O   0  0  0  0  0
  -46.3784    1.0961  -33.3599 H   0  0  0  0  0
  -44.9254    1.3992  -32.6025 H   0  0  0  0  0
  -46.3450    1.4471  -31.7313 H   0  0  0  0  0
  -47.1135    3.3145  -32.9476 H   0  0  0  0  0
  -45.6257    4.4274  -34.5371 H   0  0  0  0  0
  -44.4084    3.1472  -34.3125 H   0  0  0  0  0
  -45.9779    2.7621  -35.0605 H   0  0  0  0  0
  -46.9225    5.2289  -31.8820 H   0  0  0  0  0
  -44.9934    5.2384  -29.6861 H   0  0  0  0  0
  -45.8728    7.5771  -29.4369 H   0  0  0  0  0
  -46.5068    7.5181  -31.0999 H   0  0  0  0  0
  -47.2189    6.4827  -29.8382 H   0  0  0  0  0
  -44.5986    6.3326  -32.7543 H   0  0  0  0  0
  1  2  1  0  0  0
  2  3  1  0  0  0
  2  4  1  0  0  0
  4  5  2  0  0  0
  4  6  1  0  0  0
  6  7  1  0  0  0
  7  8  1  0  0  0
  7  9  1  0  0  0
  9 10  1  0  0  0
  9 11  2  0  0  0
  1 12  1  0  0  0
  1 13  1  0  0  0
  1 14  1  0  0  0
  2 15  1  0  0  0
  3 16  1  0  0  0
  3 17  1  0  0  0
  3 18  1  0  0  0
  6 19  1  0  0  0
  7 20  1  0  0  0
  8 21  1  0  0  0
  8 22  1  0  0  0
  8 23  1  0  0  0
 10 24  1  0  0  0
M  END
$$$$
