6ob0_ligand
  -I-interpret- 

 61 65  0  0  0  0  0  0  0  0999 V2000
    5.1350   -0.6480  101.8240 C   0  0  0  0  0
    3.8510   -0.5660  102.2480 C   0  0  0  0  0
    6.0960    1.5320  102.6060 C   0  0  0  0  0
    5.2150    1.5670  103.6390 O   0  0  0  0  0
    2.6000   -2.3200  103.2680 O   0  0  0  0  0
   -0.8330    7.7240  105.6230 O   0  0  0  0  0
    3.2350    2.8440  103.8830 C   0  0  0  0  0
    1.8360    3.0160  103.7900 C   0  0  0  0  0
    1.1020    1.9840  103.1590 C   0  0  0  0  0
    1.7580    0.8340  102.6430 C   0  0  0  0  0
    3.1350   -1.8490  102.2670 C   0  0  0  0  0
    1.1720    4.2430  104.2880 C   0  0  0  0  0
   -0.2400    4.2850  104.4510 C   0  0  0  0  0
   -0.9000    5.4430  104.9490 C   0  0  0  0  0
   -0.1700    6.6300  105.1580 C   0  0  0  0  0
    1.2370    6.6390  104.9580 C   0  0  0  0  0
    1.8970    5.4410  104.5740 C   0  0  0  0  0
    2.6070   -3.8230  100.8350 C   0  0  0  0  0
    1.1480   -3.7330  100.3930 C   0  0  0  0  0
    1.1550   -5.8540   99.1630 C   0  0  0  0  0
    0.7150   -7.3190   99.3310 C   0  0  0  0  0
   -1.2360   -6.5950  100.5390 C   0  0  0  0  0
   -0.8700   -5.1340  100.2290 C   0  0  0  0  0
    2.0300    7.8610  105.1820 C   0  0  0  0  0
    3.8850    1.6930  103.3820 C   0  0  0  0  0
    6.1030    0.4410  101.7010 C   0  0  0  0  0
    7.0390    0.4300  100.6340 C   0  0  0  0  0
    7.9530    1.5010  100.4930 C   0  0  0  0  0
    7.9470    2.5660  101.4090 C   0  0  0  0  0
    7.0330    2.5770  102.4830 C   0  0  0  0  0
    3.1670    0.6620  102.7470 C   0  0  0  0  0
    3.1650   -2.5190  101.1020 N   0  0  0  0  0
    0.5830   -5.0630  100.2620 N   0  3  0  0  0
    2.6580    8.8430  105.3200 N   0  0  0  0  0
   -0.7180   -7.3590   99.4600 O   0  0  0  0  0
    5.4872   -1.6402  101.5420 H   0  0  0  0  0
   -0.2168    8.4540  105.7174 H   0  0  0  0  0
    3.8322    3.6235  104.3561 H   0  0  0  0  0
    0.0194    2.0723  103.0675 H   0  0  0  0  0
    1.1651    0.0614  102.1535 H   0  0  0  0  0
   -0.8316    3.4081  104.1879 H   0  0  0  0  0
   -1.9673    5.4120  105.1682 H   0  0  0  0  0
    2.9842    5.4354  104.4955 H   0  0  0  0  0
    3.1814   -4.2846  100.0318 H   0  0  0  0  0
    2.6525   -4.4105  101.7520 H   0  0  0  0  0
    1.0971   -3.2265   99.4292 H   0  0  0  0  0
    0.5820   -3.1761  101.1398 H   0  0  0  0  0
    0.8030   -5.4684   98.2062 H   0  0  0  0  0
    2.2428   -5.7885   99.1859 H   0  0  0  0  0
    1.1787   -7.7450  100.2207 H   0  0  0  0  0
    1.0248   -7.9004   98.4626 H   0  0  0  0  0
   -2.3143   -6.7227  100.6345 H   0  0  0  0  0
   -0.8148   -6.9165  101.4915 H   0  0  0  0  0
   -1.3130   -4.4551  100.9577 H   0  0  0  0  0
   -1.2560   -4.8305   99.2559 H   0  0  0  0  0
    7.0537   -0.3993   99.9268 H   0  0  0  0  0
    8.6661    1.4996   99.6686 H   0  0  0  0  0
    8.6525    3.3882  101.2891 H   0  0  0  0  0
    7.0513    3.3872  103.2119 H   0  0  0  0  0
    3.6325   -2.0559  100.3227 H   0  0  0  0  0
    0.8681   -5.4903  101.1432 H   0  0  0  0  0
  2  1  2  0  0  0
  1 26  1  0  0  0
 11  2  1  0  0  0
  2 31  1  0  0  0
  3  4  1  0  0  0
 26  3  4  0  0  0
  3 30  4  0  0  0
  4 25  1  0  0  0
 11  5  2  0  0  0
 15  6  1  0  0  0
  8  7  4  0  0  0
  7 25  4  0  0  0
  9  8  4  0  0  0
  8 12  1  0  0  0
 10  9  4  0  0  0
 31 10  4  0  0  0
 32 11  1  0  0  0
 12 13  4  0  0  0
 12 17  4  0  0  0
 13 14  4  0  0  0
 14 15  4  0  0  0
 16 15  4  0  0  0
 17 16  4  0  0  0
 16 24  1  0  0  0
 19 18  1  0  0  0
 18 32  1  0  0  0
 33 19  1  0  0  0
 21 20  1  0  0  0
 20 33  1  0  0  0
 35 21  1  0  0  0
 22 23  1  0  0  0
 22 35  1  0  0  0
 23 33  1  0  0  0
 24 34  3  0  0  0
 25 31  4  0  0  0
 26 27  4  0  0  0
 27 28  4  0  0  0
 28 29  4  0  0  0
 29 30  4  0  0  0
  1 36  1  0  0  0
  6 37  1  0  0  0
  7 38  1  0  0  0
  9 39  1  0  0  0
 10 40  1  0  0  0
 13 41  1  0  0  0
 14 42  1  0  0  0
 17 43  1  0  0  0
 18 44  1  0  0  0
 18 45  1  0  0  0
 19 46  1  0  0  0
 19 47  1  0  0  0
 20 48  1  0  0  0
 20 49  1  0  0  0
 21 50  1  0  0  0
 21 51  1  0  0  0
 22 52  1  0  0  0
 22 53  1  0  0  0
 23 54  1  0  0  0
 23 55  1  0  0  0
 27 56  1  0  0  0
 28 57  1  0  0  0
 29 58  1  0  0  0
 30 59  1  0  0  0
 32 60  1  0  0  0
 33 61  1  0  0  0
M  END
$$$$
