4uma_ligand
  -I-interpret- 

 19 18  0  0  0  0  0  0  0  0999 V2000
   -5.2090  -84.8430    0.4120 C   0  0  0  0  0
   -4.6600  -85.5600   -0.4430 O   0  0  0  0  0
   -4.5850  -83.9800    0.9960 O   0  0  0  0  0
   -6.6830  -84.9990    0.7740 C   0  0  0  0  0
   -7.3630  -83.9210    1.6140 C   0  0  0  0  0
   -7.2600  -86.3130    0.4820 C   0  0  0  0  0
   -8.9860  -86.7260    0.7840 P   0  0  0  0  0
   -9.0490  -88.2980    0.6640 O   0  0  0  0  0
   -9.2940  -86.4360    2.2710 O   0  0  0  0  0
   -9.9360  -86.0380   -0.1660 O   0  0  0  0  0
   -5.3005  -86.1812   -0.7971 H   0  0  0  0  0
   -7.4020  -84.4947    0.1284 H   0  0  0  0  0
   -8.3101  -83.6446    1.1506 H   0  0  0  0  0
   -7.5466  -84.3058    2.6172 H   0  0  0  0  0
   -6.7162  -83.0455    1.6720 H   0  0  0  0  0
   -6.7267  -86.9726    1.1666 H   0  0  0  0  0
   -7.1777  -86.3813   -0.6027 H   0  0  0  0  0
   -8.4304  -88.6902    1.2846 H   0  0  0  0  0
   -8.6599  -86.8983    2.8240 H   0  0  0  0  0
  1  2  1  0  0  0
  1  3  2  0  0  0
  1  4  1  0  0  0
  4  5  1  0  0  0
  4  6  1  0  0  0
  6  7  1  0  0  0
  7  8  1  0  0  0
  7  9  1  0  0  0
  7 10  2  0  0  0
  2 11  1  0  0  0
  4 12  1  0  0  0
  5 13  1  0  0  0
  5 14  1  0  0  0
  5 15  1  0  0  0
  6 16  1  0  0  0
  6 17  1  0  0  0
  8 18  1  0  0  0
  9 19  1  0  0  0
M  END
$$$$
