186l_ligand
  -I-interpret- 

 24 24  0  0  0  0  0  0  0  0999 V2000
   27.5330    7.0610    3.9520 C   0  0  0  0  0
   26.9940    7.0690    5.2570 C   0  0  0  0  0
   26.1900    6.0370    5.6740 C   0  0  0  0  0
   25.8970    5.0000    4.8010 C   0  0  0  0  0
   26.4420    4.9870    3.5500 C   0  0  0  0  0
   27.2550    6.0160    3.1200 C   0  0  0  0  0
   28.3470    8.2100    3.4230 C   0  0  0  0  0
   27.4170    9.3750    3.0960 C   0  0  0  0  0
   26.6450    9.1420    1.8090 C   0  0  0  0  0
   27.5330    9.0850    0.6020 C   0  0  0  0  0
   27.2161    7.8944    5.9334 H   0  0  0  0  0
   25.7842    6.0328    6.6857 H   0  0  0  0  0
   25.2315    4.1955    5.1140 H   0  0  0  0  0
   26.2323    4.1523    2.8811 H   0  0  0  0  0
   27.6755    5.9938    2.1146 H   0  0  0  0  0
   28.8755    7.8996    2.5216 H   0  0  0  0  0
   29.0726    8.5209    4.1746 H   0  0  0  0  0
   28.0242   10.2717    2.9719 H   0  0  0  0  0
   26.6996    9.4776    3.9102 H   0  0  0  0  0
   25.9554    9.9758    1.6774 H   0  0  0  0  0
   26.1351    8.1824    1.8943 H   0  0  0  0  0
   28.0704   10.0282    0.5030 H   0  0  0  0  0
   28.2466    8.2690    0.7157 H   0  0  0  0  0
   26.9252    8.9166   -0.2870 H   0  0  0  0  0
  1  2  4  0  0  0
  1  6  4  0  0  0
  1  7  1  0  0  0
  2  3  4  0  0  0
  3  4  4  0  0  0
  4  5  4  0  0  0
  5  6  4  0  0  0
  7  8  1  0  0  0
  8  9  1  0  0  0
  9 10  1  0  0  0
  2 11  1  0  0  0
  3 12  1  0  0  0
  4 13  1  0  0  0
  5 14  1  0  0  0
  6 15  1  0  0  0
  7 16  1  0  0  0
  7 17  1  0  0  0
  8 18  1  0  0  0
  8 19  1  0  0  0
  9 20  1  0  0  0
  9 21  1  0  0  0
 10 22  1  0  0  0
 10 23  1  0  0  0
 10 24  1  0  0  0
M  END
$$$$
