5f41_ligand
  -I-interpret- 

 29 30  0  0  0  0  0  0  0  0999 V2000
   17.4640   65.1220   12.4020 C   0  0  0  0  0
   17.7330   63.7680   11.7610 C   0  0  0  0  0
   17.9890   63.6850   10.3830 C   0  0  0  0  0
   18.6320   67.1880   12.5470 O   0  0  0  0  0
   18.2960   59.9840   10.0160 O   0  0  0  0  0
   17.8530   61.3450   11.9840 C   0  0  0  0  0
   17.6480   62.6080   12.5450 C   0  0  0  0  0
   18.7170   65.9420   12.5560 C   0  0  0  0  0
   19.7980   65.3500   12.7030 O   0  0  0  0  0
   18.2030   62.4430    9.7600 C   0  0  0  0  0
   18.1240   61.2180   10.6000 C   0  0  0  0  0
   18.0980   58.7750   10.7550 C   0  0  0  0  0
   18.4410   62.3650    8.2840 C   0  0  0  0  0
   17.8180   63.2360    7.3810 C   0  0  0  0  0
   18.3590   62.7680    5.8040 S   0  0  0  0  0
   19.3330   61.4300    6.2700 C   0  0  0  0  0
   19.2550   61.3970    7.6570 C   0  0  0  0  0
   17.0496   64.9490   13.3952 H   0  0  0  0  0
   16.7785   65.6710   11.7564 H   0  0  0  0  0
   18.0223   64.5972    9.7873 H   0  0  0  0  0
   17.7153   67.4442   12.4218 H   0  0  0  0  0
   17.8042   60.4559   12.6127 H   0  0  0  0  0
   17.4187   62.6932   13.6072 H   0  0  0  0  0
   18.7866   58.7500   11.5996 H   0  0  0  0  0
   17.0717   58.7378   11.1202 H   0  0  0  0  0
   18.2854   57.9193   10.1063 H   0  0  0  0  0
   17.1302   64.0463    7.6227 H   0  0  0  0  0
   19.8898   60.7553    5.6198 H   0  0  0  0  0
   19.8006   60.6533    8.2377 H   0  0  0  0  0
  2  1  1  0  0  0
  1  8  1  0  0  0
  2  3  4  0  0  0
  7  2  4  0  0  0
  3 10  4  0  0  0
  8  4  1  0  0  0
 11  5  1  0  0  0
  5 12  1  0  0  0
  6  7  4  0  0  0
  6 11  4  0  0  0
  8  9  2  0  0  0
 10 11  4  0  0  0
 10 13  1  0  0  0
 13 14  4  0  0  0
 13 17  4  0  0  0
 14 15  4  0  0  0
 15 16  4  0  0  0
 16 17  4  0  0  0
  1 18  1  0  0  0
  1 19  1  0  0  0
  3 20  1  0  0  0
  4 21  1  0  0  0
  6 22  1  0  0  0
  7 23  1  0  0  0
 12 24  1  0  0  0
 12 25  1  0  0  0
 12 26  1  0  0  0
 14 27  1  0  0  0
 16 28  1  0  0  0
 17 29  1  0  0  0
M  END
$$$$
