2jdt_ligand
  -I-interpret- 

 51 53  0  0  0  0  0  0  0  0999 V2000
   13.2310   14.5970   -0.2260 Cl  0  0  0  0  0
   13.6970   13.3090    0.7800 C   0  0  0  0  0
   13.0560   13.1470    1.9910 C   0  0  0  0  0
   13.4400   12.1090    2.8110 C   0  0  0  0  0
   14.4570   11.2710    2.4130 C   0  0  0  0  0
   14.8320   10.1160    3.3140 C   0  0  0  0  0
   13.9830    9.0340    2.7510 O   0  0  0  0  0
   14.2990    7.6970    3.1980 C   0  0  0  0  0
   13.0100    6.7910    3.3550 C   0  0  0  0  0
   11.6830    7.3230    2.8470 N   0  3  0  0  0
   11.0070    7.9290    3.8850 C   0  0  0  0  0
    9.5550    8.0250    3.5140 C   0  0  0  0  0
    9.0510    9.0620    4.3610 N   0  0  0  0  0
    8.8330   10.5260    3.6980 S   0  0  0  0  0
    8.6970   11.3800    4.8170 O   0  0  0  0  0
    9.8540   10.7370    2.7460 O   0  0  0  0  0
    7.3160   10.3780    2.8450 C   0  0  0  0  0
    7.3180   10.2840    1.4770 C   0  0  0  0  0
    6.1460   10.1500    0.7510 C   0  0  0  0  0
    4.9440   10.0720    1.3880 C   0  0  0  0  0
    4.8970   10.1480    2.7960 C   0  0  0  0  0
    3.6650   10.0830    3.4860 C   0  0  0  0  0
    3.6290   10.1700    4.8120 N   0  0  0  0  0
    4.7420   10.3040    5.5250 C   0  0  0  0  0
    5.9800   10.3920    4.9460 C   0  0  0  0  0
    6.0960   10.3200    3.5370 C   0  0  0  0  0
   15.0880   11.4220    1.1800 C   0  0  0  0  0
   14.7010   12.4640    0.3530 C   0  0  0  0  0
   12.2603   13.8279    2.2933 H   0  0  0  0  0
   12.9423   11.9523    3.7680 H   0  0  0  0  0
   14.6597   10.3074    4.3731 H   0  0  0  0  0
   15.8974    9.8856    3.3173 H   0  0  0  0  0
   14.7783    7.7727    4.1740 H   0  0  0  0  0
   14.9455    7.2362    2.4511 H   0  0  0  0  0
   12.8757    6.6714    4.4301 H   0  0  0  0  0
   13.2103    5.9047    2.7530 H   0  0  0  0  0
   11.1245    6.5526    2.4797 H   0  0  0  0  0
   11.8494    8.0029    2.1050 H   0  0  0  0  0
   11.4128    8.9248    4.0631 H   0  0  0  0  0
   11.1208    7.3425    4.7967 H   0  0  0  0  0
    9.0282    7.0815    3.6567 H   0  0  0  0  0
    9.4119    8.2481    2.4567 H   0  0  0  0  0
    8.8372    8.8875    5.3430 H   0  0  0  0  0
    8.2692   10.3156    0.9456 H   0  0  0  0  0
    6.1855   10.1066   -0.3374 H   0  0  0  0  0
    4.0253    9.9517    0.8138 H   0  0  0  0  0
    2.7375    9.9606    2.9266 H   0  0  0  0  0
    4.6670   10.3455    6.6116 H   0  0  0  0  0
    6.8686   10.5164    5.5649 H   0  0  0  0  0
   15.8731   10.7318    0.8712 H   0  0  0  0  0
   15.1796   12.6133   -0.6149 H   0  0  0  0  0
  1  2  1  0  0  0
  2  3  4  0  0  0
  2 28  4  0  0  0
  3  4  4  0  0  0
  4  5  4  0  0  0
  5  6  1  0  0  0
  5 27  4  0  0  0
  6  7  1  0  0  0
  7  8  1  0  0  0
  8  9  1  0  0  0
  9 10  1  0  0  0
 10 11  1  0  0  0
 11 12  1  0  0  0
 12 13  1  0  0  0
 13 14  1  0  0  0
 14 15  2  0  0  0
 14 16  2  0  0  0
 14 17  1  0  0  0
 17 18  4  0  0  0
 17 26  4  0  0  0
 18 19  4  0  0  0
 19 20  4  0  0  0
 20 21  4  0  0  0
 21 22  4  0  0  0
 21 26  4  0  0  0
 22 23  4  0  0  0
 23 24  4  0  0  0
 24 25  4  0  0  0
 25 26  4  0  0  0
 27 28  4  0  0  0
  3 29  1  0  0  0
  4 30  1  0  0  0
  6 31  1  0  0  0
  6 32  1  0  0  0
  8 33  1  0  0  0
  8 34  1  0  0  0
  9 35  1  0  0  0
  9 36  1  0  0  0
 10 37  1  0  0  0
 10 38  1  0  0  0
 11 39  1  0  0  0
 11 40  1  0  0  0
 12 41  1  0  0  0
 12 42  1  0  0  0
 13 43  1  0  0  0
 18 44  1  0  0  0
 19 45  1  0  0  0
 20 46  1  0  0  0
 22 47  1  0  0  0
 24 48  1  0  0  0
 25 49  1  0  0  0
 27 50  1  0  0  0
 28 51  1  0  0  0
M  END
$$$$
