5wgq_ligand
  -I-interpret- 

188191  0  0  0  0  0  0  0  0999 V2000
  -12.1610   -8.6480    1.6880 C   0  0  0  0  0
  -11.4380   -9.6080    1.4400 O   0  0  0  0  0
  -12.9210   -7.9250    0.5690 C   0  0  0  0  0
  -12.3170   -8.1710    2.9230 N   0  0  0  0  0
  -13.1480   -7.0260    3.2690 C   0  0  0  0  0
  -12.2220   -5.8730    3.6960 C   0  0  0  0  0
  -11.0930   -5.8450    3.2400 O   0  0  0  0  0
  -14.1280   -7.4720    4.3420 C   0  0  0  0  0
  -13.5220   -7.3750    5.7300 C   0  0  0  0  0
  -14.1190   -6.8370    6.7650 N   0  0  0  0  0
  -12.3010   -7.7810    6.0200 C   0  0  0  0  0
  -13.2360   -6.9430    7.7510 C   0  0  0  0  0
  -12.1320   -7.5160    7.2900 N   0  0  0  0  0
  -12.7270   -5.0200    4.6110 N   0  0  0  0  0
  -12.0400   -3.8400    5.1360 C   0  0  0  0  0
  -12.8550   -3.2850    6.2850 C   0  0  0  0  0
  -13.9520   -3.7310    6.5060 O   0  0  0  0  0
  -12.0040   -2.7780    4.0410 C   0  0  0  0  0
  -10.8060   -2.9440    3.1150 C   0  0  0  0  0
  -11.2630   -3.1710    1.6860 C   0  0  0  0  0
  -10.7160   -2.0650    0.7950 C   0  0  0  0  0
  -10.8130   -2.3460   -0.6440 N   0  3  0  0  0
  -14.1360   -0.9360    7.5870 C   0  0  0  0  0
  -12.3280   -2.3030    7.0140 N   0  0  0  0  0
  -15.1900   -0.7830    8.1770 O   0  0  0  0  0
  -13.0680   -1.6700    8.0910 C   0  0  0  0  0
  -12.1390   -0.7620    8.8240 C   0  0  0  0  0
  -13.3760    1.3130    9.3970 C   0  0  0  0  0
  -13.8820    2.0030   10.4610 C   0  0  0  0  0
  -12.8310    0.0190    9.9380 C   0  0  0  0  0
  -13.5480   -2.7590    9.0020 C   0  0  0  0  0
  -13.9780   -0.3570    6.3680 N   0  0  0  0  0
  -15.0010    0.4320    5.7220 C   0  0  0  0  0
  -16.0480   -0.3870    5.3440 C   0  0  0  0  0
  -17.1870   -0.0150    5.4870 O   0  0  0  0  0
  -14.3260    1.1290    4.5550 C   0  0  0  0  0
  -14.9180    2.4240    4.0500 C   0  0  0  0  0
  -15.2990    2.1570    2.6410 C   0  0  0  0  0
  -16.1620    2.8510    4.7570 C   0  0  0  0  0
  -15.8580   -1.6500    4.8910 N   0  0  0  0  0
  -16.9490   -2.5530    4.5450 C   0  0  0  0  0
  -17.7800   -2.7830    5.6010 C   0  0  0  0  0
  -18.9550   -2.8990    5.3780 O   0  0  0  0  0
  -16.3790   -3.8890    4.0620 C   0  0  0  0  0
  -17.4030   -4.8390    3.4540 C   0  0  0  0  0
  -17.9770   -5.8210    4.1000 N   0  0  0  0  0
  -17.8170   -4.8250    2.2140 C   0  0  0  0  0
  -18.7600   -6.4130    3.2440 C   0  0  0  0  0
  -18.6760   -5.8070    2.0890 N   0  0  0  0  0
  -17.3510   -2.8970    6.9140 N   0  0  0  0  0
  -18.3060   -3.1750    7.9790 C   0  0  0  0  0
  -18.9150   -2.0600    8.3570 C   0  0  0  0  0
  -20.0540   -2.1380    8.7400 O   0  0  0  0  0
  -17.7340   -3.8010    9.1780 C   0  0  0  0  0
  -18.8600   -4.5620    9.8080 C   0  0  0  0  0
  -18.8360   -4.3920   11.2580 C   0  0  0  0  0
  -20.0080   -3.6150   11.6710 C   0  0  0  0  0
  -21.1490   -4.3770   11.3180 N   0  0  0  0  0
  -20.0300    0.6520    7.9160 C   0  0  0  0  0
  -18.2620   -0.8560    8.3260 N   0  0  0  0  0
  -20.9840    1.2860    8.2970 O   0  0  0  0  0
  -18.9890    0.3480    8.7710 C   0  0  0  0  0
  -18.1480    1.5390    8.8130 C   0  0  0  0  0
  -16.0160    2.3930    9.4720 C   0  0  0  0  0
  -15.1740    2.4790   10.5460 C   0  0  0  0  0
  -16.9370    1.2530    9.5920 C   0  0  0  0  0
  -19.4710    0.0760   10.1770 C   0  0  0  0  0
  -19.9420    0.3150    6.6050 N   0  0  0  0  0
  -20.9990    0.6220    5.6820 C   0  0  0  0  0
  -22.0030   -0.2900    5.8360 C   0  0  0  0  0
  -23.1500    0.0220    5.6480 O   0  0  0  0  0
  -20.4530    0.5460    4.2840 C   0  0  0  0  0
  -19.8420    1.8450    3.8420 C   0  0  0  0  0
  -19.1170    1.6220    2.5380 C   0  0  0  0  0
  -20.9350    2.8470    3.5950 C   0  0  0  0  0
  -21.7330   -1.5810    6.1380 N   0  0  0  0  0
  -22.7550   -2.6220    6.3030 C   0  0  0  0  0
  -23.4440   -2.4820    7.5010 C   0  0  0  0  0
  -24.5570   -2.9830    7.5980 O   0  0  0  0  0
  -22.1180   -4.0170    6.2910 C   0  0  0  0  0
  -23.0900   -5.1480    6.5780 C   0  0  0  0  0
  -22.4360   -6.5100    6.6700 C   0  0  0  0  0
  -23.0020   -7.3940    7.4940 O   0  0  0  0  0
  -21.3950   -6.7480    5.9140 N   0  0  0  0  0
  -22.8370   -1.9660    8.6130 N   0  0  0  0  0
  -23.5120   -1.9900    9.8770 C   0  0  0  0  0
  -24.0820   -0.7600   10.0820 C   0  0  0  0  0
  -25.2950   -0.6760   10.1820 O   0  0  0  0  0
  -22.4970   -2.4120   10.9560 C   0  0  0  0  0
  -22.3160   -3.7810   10.9690 C   0  0  0  0  0
  -23.2220   -4.5430   10.7090 O   0  0  0  0  0
  -23.3630    0.2230   10.1600 O   0  0  0  0  0
  -12.2089   -7.5282   -0.1545 H   0  0  0  0  0
  -13.5908   -8.6278    0.0735 H   0  0  0  0  0
  -13.5015   -7.1070    0.9956 H   0  0  0  0  0
  -11.8192   -8.6411    3.6791 H   0  0  0  0  0
  -13.7399   -6.6552    2.4322 H   0  0  0  0  0
  -14.3927   -8.5126    4.1545 H   0  0  0  0  0
  -15.0012   -6.8209    4.3020 H   0  0  0  0  0
  -11.5821   -8.2416    5.3424 H   0  0  0  0  0
  -13.3935   -6.6115    8.7773 H   0  0  0  0  0
  -13.6637   -5.2135    4.9655 H   0  0  0  0  0
  -11.0330   -4.1018    5.4610 H   0  0  0  0  0
  -11.9295   -1.8013    4.5191 H   0  0  0  0  0
  -12.9101   -2.8773    3.4433 H   0  0  0  0  0
  -10.2244   -3.8063    3.4410 H   0  0  0  0  0
  -10.2020   -2.0374    3.1529 H   0  0  0  0  0
  -12.3523   -3.1623    1.6478 H   0  0  0  0  0
  -10.8937   -4.1349    1.3358 H   0  0  0  0  0
   -9.6573   -1.9569    1.0305 H   0  0  0  0  0
  -11.3110   -1.1726    0.9888 H   0  0  0  0  0
  -10.4275   -1.5612   -1.1692 H   0  0  0  0  0
  -10.2867   -3.1926   -0.8601 H   0  0  0  0  0
  -11.7919   -2.4787   -0.8981 H   0  0  0  0  0
  -11.3797   -1.9873    6.8104 H   0  0  0  0  0
  -11.7424   -0.0419    8.1083 H   0  0  0  0  0
  -11.3625   -1.3763    9.2798 H   0  0  0  0  0
  -12.5930    1.8860    8.9003 H   0  0  0  0  0
  -14.1499    1.1266    8.6524 H   0  0  0  0  0
  -13.2172    2.1913   11.3040 H   0  0  0  0  0
  -12.1096    0.2352   10.7260 H   0  0  0  0  0
  -13.6517   -0.5768   10.3374 H   0  0  0  0  0
  -14.0951   -2.3188    9.8357 H   0  0  0  0  0
  -14.2047   -3.4305    8.4489 H   0  0  0  0  0
  -12.6921   -3.3170    9.3816 H   0  0  0  0  0
  -13.0899   -0.4864    5.8834 H   0  0  0  0  0
  -15.4380    1.1832    6.3799 H   0  0  0  0  0
  -14.4086    0.4328    3.7203 H   0  0  0  0  0
  -13.3315    1.3914    4.9159 H   0  0  0  0  0
  -14.1830    3.2149    4.1994 H   0  0  0  0  0
  -14.4124    1.8740    2.0736 H   0  0  0  0  0
  -16.0261    1.3455    2.6101 H   0  0  0  0  0
  -15.7374    3.0561    2.2079 H   0  0  0  0  0
  -16.9271    2.0837    4.6389 H   0  0  0  0  0
  -15.9465    2.9911    5.8163 H   0  0  0  0  0
  -16.5173    3.7889    4.3301 H   0  0  0  0  0
  -14.9009   -1.9867    4.7866 H   0  0  0  0  0
  -17.5285   -2.0745    3.7555 H   0  0  0  0  0
  -15.9631   -4.3898    4.9362 H   0  0  0  0  0
  -15.6563   -3.6598    3.2789 H   0  0  0  0  0
  -17.5072   -4.1299    1.4337 H   0  0  0  0  0
  -19.3873   -7.2785    3.4574 H   0  0  0  0  0
  -16.3617   -2.7857    7.1360 H   0  0  0  0  0
  -18.9993   -3.8923    7.5399 H   0  0  0  0  0
  -17.3241   -3.0564    9.8604 H   0  0  0  0  0
  -16.9000   -4.4565    8.9271 H   0  0  0  0  0
  -18.7511   -5.6204    9.5715 H   0  0  0  0  0
  -19.8062   -4.1842    9.4205 H   0  0  0  0  0
  -17.9269   -3.8662   11.5499 H   0  0  0  0  0
  -18.8555   -5.3688   11.7414 H   0  0  0  0  0
  -20.0227   -2.6434   11.1771 H   0  0  0  0  0
  -19.9871   -3.4224   12.7436 H   0  0  0  0  0
  -21.0915   -5.3953   11.3265 H   0  0  0  0  0
  -17.2965   -0.7936    8.0030 H   0  0  0  0  0
  -18.6972    2.3563    9.2805 H   0  0  0  0  0
  -17.8695    1.8241    7.7985 H   0  0  0  0  0
  -15.4138    2.2546    8.5740 H   0  0  0  0  0
  -16.6067    3.3079    9.4249 H   0  0  0  0  0
  -15.5260    2.9266   11.4754 H   0  0  0  0  0
  -16.4585    0.3501    9.2127 H   0  0  0  0  0
  -17.1991    1.0985   10.6387 H   0  0  0  0  0
  -19.9812    0.9589   10.5620 H   0  0  0  0  0
  -20.1606   -0.7680   10.1664 H   0  0  0  0  0
  -18.6176   -0.1584   10.8133 H   0  0  0  0  0
  -19.1083   -0.1662    6.2677 H   0  0  0  0  0
  -21.3892    1.6223    5.8697 H   0  0  0  0  0
  -21.2774    0.3124    3.6102 H   0  0  0  0  0
  -19.6760   -0.2182    4.2645 H   0  0  0  0  0
  -19.1587    2.2070    4.6102 H   0  0  0  0  0
  -18.3359    0.8754    2.6811 H   0  0  0  0  0
  -19.8238    1.2707    1.7862 H   0  0  0  0  0
  -18.6693    2.5593    2.2078 H   0  0  0  0  0
  -21.6009    2.4722    2.8177 H   0  0  0  0  0
  -21.4990    3.0017    4.5148 H   0  0  0  0  0
  -20.4949    3.7911    3.2740 H   0  0  0  0  0
  -20.7561   -1.8483    6.2589 H   0  0  0  0  0
  -23.4471   -2.5098    5.4684 H   0  0  0  0  0
  -21.3645   -4.0331    7.0784 H   0  0  0  0  0
  -21.7212   -4.1806    5.2891 H   0  0  0  0  0
  -23.7990   -5.1840    5.7509 H   0  0  0  0  0
  -23.5496   -4.9430    7.5449 H   0  0  0  0  0
  -20.9543   -7.6678    5.9277 H   0  0  0  0  0
  -21.0241   -6.0137    5.3109 H   0  0  0  0  0
  -21.9024   -1.5635    8.5424 H   0  0  0  0  0
  -24.3234   -2.7169    9.9133 H   0  0  0  0  0
  -22.8782   -2.1038   11.9295 H   0  0  0  0  0
  -21.5404   -1.9383   10.7358 H   0  0  0  0  0
  -22.4464   -0.0434   10.0575 H   0  0  0  0  0
  1  2  2  0  0  0
  1  3  1  0  0  0
  4  1  1  0  0  0
  5  4  1  0  0  0
  6  5  1  0  0  0
  5  8  1  0  0  0
  6  7  2  0  0  0
 14  6  1  0  0  0
  8  9  1  0  0  0
  9 10  4  0  0  0
  9 11  4  0  0  0
 10 12  4  0  0  0
 11 13  4  0  0  0
 13 12  4  0  0  0
 15 14  1  0  0  0
 16 15  1  0  0  0
 15 18  1  0  0  0
 16 17  2  0  0  0
 24 16  1  0  0  0
 18 19  1  0  0  0
 19 20  1  0  0  0
 20 21  1  0  0  0
 21 22  1  0  0  0
 23 25  2  0  0  0
 23 26  1  0  0  0
 32 23  1  0  0  0
 26 24  1  0  0  0
 26 27  1  0  0  0
 26 31  1  0  0  0
 27 30  1  0  0  0
 28 29  1  0  0  0
 30 28  1  0  0  0
 29 65  2  0  0  0
 33 32  1  0  0  0
 34 33  1  0  0  0
 33 36  1  0  0  0
 34 35  2  0  0  0
 40 34  1  0  0  0
 36 37  1  0  0  0
 37 38  1  0  0  0
 37 39  1  0  0  0
 41 40  1  0  0  0
 42 41  1  0  0  0
 41 44  1  0  0  0
 42 43  2  0  0  0
 50 42  1  0  0  0
 44 45  1  0  0  0
 45 46  4  0  0  0
 45 47  4  0  0  0
 46 48  4  0  0  0
 47 49  4  0  0  0
 49 48  4  0  0  0
 51 50  1  0  0  0
 52 51  1  0  0  0
 51 54  1  0  0  0
 52 53  2  0  0  0
 60 52  1  0  0  0
 54 55  1  0  0  0
 55 56  1  0  0  0
 56 57  1  0  0  0
 57 58  1  0  0  0
 58 90  1  0  0  0
 59 61  2  0  0  0
 62 59  1  0  0  0
 59 68  1  0  0  0
 60 62  1  0  0  0
 62 63  1  0  0  0
 62 67  1  0  0  0
 63 66  1  0  0  0
 65 64  1  0  0  0
 64 66  1  0  0  0
 68 69  1  0  0  0
 69 70  1  0  0  0
 69 72  1  0  0  0
 70 71  2  0  0  0
 70 76  1  0  0  0
 72 73  1  0  0  0
 73 74  1  0  0  0
 73 75  1  0  0  0
 76 77  1  0  0  0
 77 78  1  0  0  0
 77 80  1  0  0  0
 78 79  2  0  0  0
 78 85  1  0  0  0
 80 81  1  0  0  0
 81 82  1  0  0  0
 82 83  2  0  0  0
 82 84  1  0  0  0
 85 86  1  0  0  0
 86 87  1  0  0  0
 86 89  1  0  0  0
 87 88  2  0  0  0
 87 92  1  0  0  0
 89 90  1  0  0  0
 90 91  2  0  0  0
  3 93  1  0  0  0
  3 94  1  0  0  0
  3 95  1  0  0  0
  4 96  1  0  0  0
  5 97  1  0  0  0
  8 98  1  0  0  0
  8 99  1  0  0  0
 11100  1  0  0  0
 12101  1  0  0  0
 14102  1  0  0  0
 15103  1  0  0  0
 18104  1  0  0  0
 18105  1  0  0  0
 19106  1  0  0  0
 19107  1  0  0  0
 20108  1  0  0  0
 20109  1  0  0  0
 21110  1  0  0  0
 21111  1  0  0  0
 22112  1  0  0  0
 22113  1  0  0  0
 22114  1  0  0  0
 24115  1  0  0  0
 27116  1  0  0  0
 27117  1  0  0  0
 28118  1  0  0  0
 28119  1  0  0  0
 29120  1  0  0  0
 30121  1  0  0  0
 30122  1  0  0  0
 31123  1  0  0  0
 31124  1  0  0  0
 31125  1  0  0  0
 32126  1  0  0  0
 33127  1  0  0  0
 36128  1  0  0  0
 36129  1  0  0  0
 37130  1  0  0  0
 38131  1  0  0  0
 38132  1  0  0  0
 38133  1  0  0  0
 39134  1  0  0  0
 39135  1  0  0  0
 39136  1  0  0  0
 40137  1  0  0  0
 41138  1  0  0  0
 44139  1  0  0  0
 44140  1  0  0  0
 47141  1  0  0  0
 48142  1  0  0  0
 50143  1  0  0  0
 51144  1  0  0  0
 54145  1  0  0  0
 54146  1  0  0  0
 55147  1  0  0  0
 55148  1  0  0  0
 56149  1  0  0  0
 56150  1  0  0  0
 57151  1  0  0  0
 57152  1  0  0  0
 58153  1  0  0  0
 60154  1  0  0  0
 63155  1  0  0  0
 63156  1  0  0  0
 64157  1  0  0  0
 64158  1  0  0  0
 65159  1  0  0  0
 66160  1  0  0  0
 66161  1  0  0  0
 67162  1  0  0  0
 67163  1  0  0  0
 67164  1  0  0  0
 68165  1  0  0  0
 69166  1  0  0  0
 72167  1  0  0  0
 72168  1  0  0  0
 73169  1  0  0  0
 74170  1  0  0  0
 74171  1  0  0  0
 74172  1  0  0  0
 75173  1  0  0  0
 75174  1  0  0  0
 75175  1  0  0  0
 76176  1  0  0  0
 77177  1  0  0  0
 80178  1  0  0  0
 80179  1  0  0  0
 81180  1  0  0  0
 81181  1  0  0  0
 84182  1  0  0  0
 84183  1  0  0  0
 85184  1  0  0  0
 86185  1  0  0  0
 89186  1  0  0  0
 89187  1  0  0  0
 92188  1  0  0  0
M  END
$$$$
