### 
### Created by X-TOOL on Wed Jan  1 15:39:37 2020
### 

@<TRIPOS>MOLECULE
5wgq_ligand
  189   192     1     0     0
SMALL
GAST_HUCK


@<TRIPOS>ATOM
      1 C         -12.1610   -8.6480    1.6880 C.2       1 ACE         0.1752
      2 O         -11.4380   -9.6080    1.4400 O.2       1 ACE        -0.3972
      3 CH3       -12.9210   -7.9250    0.5690 C.3       1 ACE         0.0258
      4 N         -12.3170   -8.1710    2.9230 N.am      1 HIS        -0.2640
      5 CA        -13.1480   -7.0260    3.2690 C.3       1 HIS         0.1420
      6 C         -12.2220   -5.8730    3.6960 C.2       1 HIS         0.2060
      7 O         -11.0930   -5.8450    3.2400 O.2       1 HIS        -0.3942
      8 CB        -14.1280   -7.4720    4.3420 C.3       1 HIS         0.0427
      9 CG        -13.5220   -7.3750    5.7300 C.2       1 HIS         0.0561
     10 ND1       -14.1190   -6.8370    6.7650 N.pl3     1 HIS        -0.2623
     11 CD2       -12.3010   -7.7810    6.0200 C.2       1 HIS        -0.0276
     12 CE1       -13.2360   -6.9430    7.7510 C.2       1 HIS         0.0875
     13 NE2       -12.1320   -7.5160    7.2900 N.2       1 HIS        -0.3437
     14 N         -12.7270   -5.0200    4.6110 N.am      1 LYS        -0.2636
     15 CA        -12.0400   -3.8400    5.1360 C.3       1 LYS         0.1307
     16 C         -12.8550   -3.2850    6.2850 C.2       1 LYS         0.2010
     17 O         -13.9520   -3.7310    6.5060 O.2       1 LYS        -0.3947
     18 CB        -12.0040   -2.7780    4.0410 C.3       1 LYS        -0.0122
     19 CG        -10.8060   -2.9440    3.1150 C.3       1 LYS        -0.0440
     20 CD        -11.2630   -3.1710    1.6860 C.3       1 LYS        -0.0124
     21 CE        -10.7160   -2.0650    0.7950 C.3       1 LYS        -0.0354
     22 NZ        -10.8130   -2.3460   -0.6440 N.4       1 LYS         0.2185
     23 C         -14.1360   -0.9360    7.5870 C.2       1 MK8         0.2263
     24 N         -12.3280   -2.3030    7.0140 N.am      1 MK8        -0.2743
     25 O         -15.1900   -0.7830    8.1770 O.2       1 MK8        -0.3419
     26 CA        -13.0680   -1.6700    8.0910 C.3       1 MK8         0.1304
     27 CB        -12.1390   -0.7620    8.8240 C.3       1 MK8        -0.0186
     28 CD        -13.3760    1.3130    9.3970 C.3       1 MK8        -0.0365
     29 CE        -13.8820    2.0030   10.4610 C.2       1 MK8        -0.0987
     30 CG        -12.8310    0.0190    9.9380 C.3       1 MK8        -0.0449
     31 CB1       -13.5480   -2.7590    9.0020 C.3       1 MK8        -0.0320
     32 N         -13.9780   -0.3570    6.3680 N.am      1 LEU        -0.2629
     33 CA        -15.0010    0.4320    5.7220 C.3       1 LEU         0.1314
     34 C         -16.0480   -0.3870    5.3440 C.2       1 LEU         0.2042
     35 O         -17.1870   -0.0150    5.4870 O.2       1 LEU        -0.3944
     36 CB        -14.3260    1.1290    4.5550 C.3       1 LEU        -0.0099
     37 CG        -14.9180    2.4240    4.0500 C.3       1 LEU        -0.0425
     38 CD1       -15.2990    2.1570    2.6410 C.3       1 LEU        -0.0625
     39 CD2       -16.1620    2.8510    4.7570 C.3       1 LEU        -0.0625
     40 N         -15.8580   -1.6500    4.8910 N.am      1 HIS        -0.2619
     41 CA        -16.9490   -2.5530    4.5450 C.3       1 HIS         0.1421
     42 C         -17.7800   -2.7830    5.6010 C.2       1 HIS         0.2060
     43 O         -18.9550   -2.8990    5.3780 O.2       1 HIS        -0.3942
     44 CB        -16.3790   -3.8890    4.0620 C.3       1 HIS         0.0427
     45 CG        -17.4030   -4.8390    3.4540 C.2       1 HIS         0.0561
     46 ND1       -17.9770   -5.8210    4.1000 N.pl3     1 HIS        -0.2623
     47 CD2       -17.8170   -4.8250    2.2140 C.2       1 HIS        -0.0276
     48 CE1       -18.7600   -6.4130    3.2440 C.2       1 HIS         0.0875
     49 NE2       -18.6760   -5.8070    2.0890 N.2       1 HIS        -0.3437
     50 N         -17.3510   -2.8970    6.9140 N.am      1 LYS        -0.2636
     51 CA        -18.3060   -3.1750    7.9790 C.3       1 LYS         0.1307
     52 C         -18.9150   -2.0600    8.3570 C.2       1 LYS         0.2010
     53 O         -20.0540   -2.1380    8.7400 O.2       1 LYS        -0.3947
     54 CB        -17.7340   -3.8010    9.1780 C.3       1 LYS        -0.0123
     55 CG        -18.8600   -4.5620    9.8080 C.3       1 LYS        -0.0470
     56 CD        -18.8360   -4.3920   11.2580 C.3       1 LYS        -0.0325
     57 CE        -20.0080   -3.6150   11.6710 C.3       1 LYS         0.0309
     58 NZ        -21.1490   -4.3770   11.3180 N.am      1 LYS        -0.2868
     59 C         -20.0300    0.6520    7.9160 C.2       1 MK8         0.2263
     60 N         -18.2620   -0.8560    8.3260 N.am      1 MK8        -0.2743
     61 O         -20.9840    1.2860    8.2970 O.2       1 MK8        -0.3419
     62 CA        -18.9890    0.3480    8.7710 C.3       1 MK8         0.1304
     63 CB        -18.1480    1.5390    8.8130 C.3       1 MK8        -0.0186
     64 CD        -16.0160    2.3930    9.4720 C.3       1 MK8        -0.0365
     65 CE        -15.1740    2.4790   10.5460 C.2       1 MK8        -0.0987
     66 CG        -16.9370    1.2530    9.5920 C.3       1 MK8        -0.0449
     67 CB1       -19.4710    0.0760   10.1770 C.3       1 MK8        -0.0320
     68 N         -19.9420    0.3150    6.6050 N.am      1 LEU        -0.2629
     69 CA        -20.9990    0.6220    5.6820 C.3       1 LEU         0.1314
     70 C         -22.0030   -0.2900    5.8360 C.2       1 LEU         0.2041
     71 O         -23.1500    0.0220    5.6480 O.2       1 LEU        -0.3944
     72 CB        -20.4530    0.5460    4.2840 C.3       1 LEU        -0.0099
     73 CG        -19.8420    1.8450    3.8420 C.3       1 LEU        -0.0425
     74 CD1       -19.1170    1.6220    2.5380 C.3       1 LEU        -0.0625
     75 CD2       -20.9350    2.8470    3.5950 C.3       1 LEU        -0.0625
     76 N         -21.7330   -1.5810    6.1380 N.am      1 GLN        -0.2636
     77 CA        -22.7550   -2.6220    6.3030 C.3       1 GLN         0.1330
     78 C         -23.4440   -2.4820    7.5010 C.2       1 GLN         0.2036
     79 O         -24.5570   -2.9830    7.5980 O.2       1 GLN        -0.3944
     80 CB        -22.1180   -4.0170    6.2910 C.3       1 GLN         0.0045
     81 CG        -23.0900   -5.1480    6.5780 C.3       1 GLN         0.0412
     82 CD        -22.4360   -6.5100    6.6700 C.2       1 GLN         0.1737
     83 OE1       -23.0020   -7.3940    7.4940 O.2       1 GLN        -0.3973
     84 NE2       -21.3950   -6.7480    5.9140 N.am      1 GLN        -0.3009
     85 N         -22.8370   -1.9660    8.6130 N.am      1 ASP        -0.2674
     86 CA        -23.5120   -1.9900    9.8770 C.3       1 ASP         0.1110
     87 C         -24.0820   -0.7600   10.0820 C.2       1 ASP         0.0624
     88 O         -25.2950   -0.6760   10.1820 O.co2     1 ASP        -0.5665
     89 CB        -22.4970   -2.4120   10.9560 C.3       1 ASP         0.0720
     90 CG        -22.3160   -3.7810   10.9690 C.2       1 ASP         0.1799
     91 OD1       -23.2220   -4.5430   10.7090 O.2       1 ASP        -0.3969
     92 OXT       -23.3630    0.2230   10.1600 O.co2     1 ASP        -0.5665
     93 H1        -13.5073   -7.0992    0.9982 H         1 ACE         0.0467
     94 H2        -13.5974   -8.6333    0.0682 H         1 ACE         0.0467
     95 H3        -12.2034   -7.5240   -0.1619 H         1 ACE         0.0467
     96 H4        -11.8290   -8.6319    3.6642 H         1 HIS         0.1884
     97 H5        -13.7204   -6.7029    2.3870 H         1 HIS         0.0824
     98 H6        -14.4154   -8.5164    4.1506 H         1 HIS         0.0491
     99 H7        -15.0213   -6.8318    4.2974 H         1 HIS         0.0491
    100 H8        -15.0619   -6.4244    6.8048 H         1 HIS         0.2386
    101 H9        -11.5828   -8.2412    5.3430 H         1 HIS         0.0324
    102 H10       -13.3933   -6.6118    8.7764 H         1 HIS         0.1149
    103 H11       -13.6453   -5.2097    4.9585 H         1 LYS         0.1883
    104 H12       -11.0226   -4.0970    5.4658 H         1 LYS         0.0800
    105 H13       -11.9521   -1.7854    4.5122 H         1 LYS         0.0312
    106 H14       -12.9253   -2.8531    3.4447 H         1 LYS         0.0312
    107 H15       -10.2105   -3.8077    3.4456 H         1 LYS         0.0269
    108 H16       -10.1881   -2.0350    3.1568 H         1 LYS         0.0269
    109 H17       -12.3623   -3.1627    1.6472 H         1 LYS         0.0317
    110 H18       -10.8909   -4.1439    1.3325 H         1 LYS         0.0317
    111 H19        -9.6559   -1.9128    1.0458 H         1 LYS         0.0813
    112 H20       -11.2784   -1.1433    1.0049 H         1 LYS         0.0813
    113 H21       -10.4323   -1.5710   -1.1641 H         1 LYS         0.1994
    114 H22       -11.7800   -2.4773   -0.8963 H         1 LYS         0.1994
    115 H23       -10.2931   -3.1824   -0.8588 H         1 LYS         0.1994
    116 H24       -11.3983   -1.9935    6.8144 H         1 MK8         0.1839
    117 H25       -11.7093   -0.0462    8.1078 H         1 MK8         0.0279
    118 H26       -11.3335   -1.3663    9.2666 H         1 MK8         0.0279
    119 H27       -12.5724    1.8915    8.9179 H         1 MK8         0.0388
    120 H28       -14.1706    1.1120    8.6634 H         1 MK8         0.0388
    121 H29       -13.2178    2.1911   11.3032 H         1 MK8         0.0450
    122 H30       -12.1058    0.2347   10.7365 H         1 MK8         0.0284
    123 H31       -13.6571   -0.5822   10.3455 H         1 MK8         0.0284
    124 H32       -14.1156   -2.3172    9.8343 H         1 MK8         0.0242
    125 H33       -12.6841   -3.3116    9.3999 H         1 MK8         0.0242
    126 H34       -14.1967   -3.4475    8.4405 H         1 MK8         0.0242
    127 H35       -13.1073   -0.4838    5.8929 H         1 LEU         0.1889
    128 H36       -15.3862    1.1899    6.4200 H         1 LEU         0.0802
    129 H37       -14.3233    0.4224    3.7119 H         1 LEU         0.0315
    130 H38       -13.2903    1.3418    4.8585 H         1 LEU         0.0315
    131 H39       -14.1670    3.2251    4.1155 H         1 LEU         0.0298
    132 H40       -15.7416    3.0637    2.2028 H         1 LEU         0.0232
    133 H41       -16.0328    1.3382    2.6084 H         1 LEU         0.0232
    134 H42       -14.4050    1.8713    2.0672 H         1 LEU         0.0232
    135 H43       -15.9304    3.0618    5.8115 H         1 LEU         0.0232
    136 H44       -16.9107    2.0472    4.6996 H         1 LEU         0.0232
    137 H45       -16.5612    3.7586    4.2808 H         1 LEU         0.0232
    138 H46       -14.9196   -1.9801    4.7886 H         1 HIS         0.1885
    139 H47       -17.5333   -2.0969    3.7323 H         1 HIS         0.0824
    140 H48       -15.9131   -4.3929    4.9216 H         1 HIS         0.0491
    141 H49       -15.6131   -3.6790    3.3009 H         1 HIS         0.0491
    142 H50       -17.8376   -6.0753    5.0883 H         1 HIS         0.2386
    143 H51       -17.5075   -4.1305    1.4344 H         1 HIS         0.0324
    144 H52       -19.3867   -7.2777    3.4573 H         1 HIS         0.1149
    145 H53       -16.3811   -2.7879    7.1316 H         1 LYS         0.1883
    146 H54       -19.0585   -3.8644    7.5687 H         1 LYS         0.0800
    147 H55       -17.3549   -3.0335    9.8688 H         1 LYS         0.0312
    148 H56       -16.9159   -4.4828    8.9026 H         1 LYS         0.0312
    149 H57       -18.7567   -5.6300    9.5659 H         1 LYS         0.0268
    150 H58       -19.8164   -4.1876    9.4143 H         1 LYS         0.0268
    151 H59       -17.9194   -3.8591   11.5510 H         1 LYS         0.0285
    152 H60       -18.8583   -5.3783   11.7446 H         1 LYS         0.0285
    153 H61       -20.0233   -2.6465   11.1497 H         1 LYS         0.0520
    154 H62       -19.9868   -3.4462   12.7577 H         1 LYS         0.0520
    155 H63       -21.0926   -5.3754   11.3264 H         1 LYS         0.1851
    156 H64       -17.3154   -0.7948    8.0094 H         1 MK8         0.1839
    157 H65       -18.7023    2.3633    9.2856 H         1 MK8         0.0279
    158 H66       -17.8665    1.8259    7.7891 H         1 MK8         0.0279
    159 H67       -15.4163    2.2719    8.5578 H         1 MK8         0.0388
    160 H68       -16.6038    3.3204    9.4048 H         1 MK8         0.0388
    161 H69       -15.5257    2.9262   11.4746 H         1 MK8         0.0450
    162 H70       -16.4534    0.3446    9.2034 H         1 MK8         0.0284
    163 H71       -17.2039    1.1030   10.6485 H         1 MK8         0.0284
    164 H72       -20.0216    0.9515   10.5517 H         1 MK8         0.0242
    165 H73       -18.6073   -0.1206   10.8292 H         1 MK8         0.0242
    166 H74       -20.1351   -0.8009   10.1738 H         1 MK8         0.0242
    167 H75       -19.1246   -0.1568    6.2743 H         1 LEU         0.1889
    168 H76       -21.3843    1.6338    5.8764 H         1 LEU         0.0802
    169 H77       -21.2726    0.2883    3.5971 H         1 LEU         0.0315
    170 H78       -19.6828   -0.2385    4.2466 H         1 LEU         0.0315
    171 H79       -19.1473    2.2178    4.6091 H         1 LEU         0.0298
    172 H80       -18.6647    2.5673    2.2036 H         1 LEU         0.0232
    173 H81       -19.8293    1.2675    1.7784 H         1 LEU         0.0232
    174 H82       -18.3283    0.8687    2.6811 H         1 LEU         0.0232
    175 H83       -21.4828    3.0303    4.5311 H         1 LEU         0.0232
    176 H84       -21.6275    2.4546    2.8358 H         1 LEU         0.0232
    177 H85       -20.4946    3.7894    3.2374 H         1 LEU         0.0232
    178 H86       -20.7752   -1.8430    6.2565 H         1 GLN         0.1883
    179 H87       -23.4679   -2.5433    5.4690 H         1 GLN         0.0801
    180 H88       -21.3259   -4.0411    7.0539 H         1 GLN         0.0337
    181 H89       -21.6760   -4.1858    5.2980 H         1 GLN         0.0337
    182 H90       -23.8367   -5.1762    5.7708 H         1 GLN         0.0504
    183 H91       -23.5916   -4.9393    7.5345 H         1 GLN         0.0504
    184 H92       -20.9419   -7.6386    5.9530 H         1 GLN         0.1814
    185 H93       -21.0525   -6.0393    5.2972 H         1 GLN         0.1814
    186 H94       -21.9208   -1.5714    8.5438 H         1 ASP         0.1877
    187 H95       -24.3157   -2.7405    9.8492 H         1 ASP         0.0752
    188 H96       -22.8669   -2.0905   11.9408 H         1 ASP         0.0544
    189 H97       -21.5323   -1.9254   10.7499 H         1 ASP         0.0544
@<TRIPOS>BOND
     1    1    2 2  
     2    1    3 1  
     3    4    1 am 
     4    5    4 1  
     5    6    5 1  
     6    5    8 1  
     7    6    7 2  
     8   14    6 am 
     9    8    9 1  
    10    9   10 1  
    11    9   11 2  
    12   10   12 1  
    13   11   13 1  
    14   13   12 2  
    15   15   14 1  
    16   16   15 1  
    17   15   18 1  
    18   16   17 2  
    19   24   16 am 
    20   18   19 1  
    21   19   20 1  
    22   20   21 1  
    23   21   22 1  
    24   23   25 2  
    25   23   26 1  
    26   32   23 am 
    27   26   24 1  
    28   26   27 1  
    29   26   31 1  
    30   27   30 1  
    31   28   29 1  
    32   30   28 1  
    33   29   65 2  
    34   33   32 1  
    35   34   33 1  
    36   33   36 1  
    37   34   35 2  
    38   40   34 am 
    39   36   37 1  
    40   37   38 1  
    41   37   39 1  
    42   41   40 1  
    43   42   41 1  
    44   41   44 1  
    45   42   43 2  
    46   50   42 am 
    47   44   45 1  
    48   45   46 1  
    49   45   47 2  
    50   46   48 1  
    51   47   49 1  
    52   49   48 2  
    53   51   50 1  
    54   52   51 1  
    55   51   54 1  
    56   52   53 2  
    57   60   52 am 
    58   54   55 1  
    59   55   56 1  
    60   56   57 1  
    61   57   58 1  
    62   58   90 am 
    63   59   61 2  
    64   62   59 1  
    65   59   68 am 
    66   60   62 1  
    67   62   63 1  
    68   62   67 1  
    69   63   66 1  
    70   65   64 1  
    71   64   66 1  
    72   68   69 1  
    73   69   70 1  
    74   69   72 1  
    75   70   71 2  
    76   70   76 am 
    77   72   73 1  
    78   73   74 1  
    79   73   75 1  
    80   76   77 1  
    81   77   78 1  
    82   77   80 1  
    83   78   79 2  
    84   78   85 am 
    85   80   81 1  
    86   81   82 1  
    87   82   83 2  
    88   82   84 am 
    89   85   86 1  
    90   86   87 1  
    91   86   89 1  
    92   87   88 ar 
    93   87   92 ar 
    94   89   90 1  
    95   90   91 2  
    96    3   93 1  
    97    3   94 1  
    98    3   95 1  
    99    4   96 1  
   100    5   97 1  
   101    8   98 1  
   102    8   99 1  
   103   10  100 1  
   104   11  101 1  
   105   12  102 1  
   106   14  103 1  
   107   15  104 1  
   108   18  105 1  
   109   18  106 1  
   110   19  107 1  
   111   19  108 1  
   112   20  109 1  
   113   20  110 1  
   114   21  111 1  
   115   21  112 1  
   116   22  113 1  
   117   22  114 1  
   118   22  115 1  
   119   24  116 1  
   120   27  117 1  
   121   27  118 1  
   122   28  119 1  
   123   28  120 1  
   124   29  121 1  
   125   30  122 1  
   126   30  123 1  
   127   31  124 1  
   128   31  125 1  
   129   31  126 1  
   130   32  127 1  
   131   33  128 1  
   132   36  129 1  
   133   36  130 1  
   134   37  131 1  
   135   38  132 1  
   136   38  133 1  
   137   38  134 1  
   138   39  135 1  
   139   39  136 1  
   140   39  137 1  
   141   40  138 1  
   142   41  139 1  
   143   44  140 1  
   144   44  141 1  
   145   46  142 1  
   146   47  143 1  
   147   48  144 1  
   148   50  145 1  
   149   51  146 1  
   150   54  147 1  
   151   54  148 1  
   152   55  149 1  
   153   55  150 1  
   154   56  151 1  
   155   56  152 1  
   156   57  153 1  
   157   57  154 1  
   158   58  155 1  
   159   60  156 1  
   160   63  157 1  
   161   63  158 1  
   162   64  159 1  
   163   64  160 1  
   164   65  161 1  
   165   66  162 1  
   166   66  163 1  
   167   67  164 1  
   168   67  165 1  
   169   67  166 1  
   170   68  167 1  
   171   69  168 1  
   172   72  169 1  
   173   72  170 1  
   174   73  171 1  
   175   74  172 1  
   176   74  173 1  
   177   74  174 1  
   178   75  175 1  
   179   75  176 1  
   180   75  177 1  
   181   76  178 1  
   182   77  179 1  
   183   80  180 1  
   184   80  181 1  
   185   81  182 1  
   186   81  183 1  
   187   84  184 1  
   188   84  185 1  
   189   85  186 1  
   190   86  187 1  
   191   89  188 1  
   192   89  189 1  
@<TRIPOS>SUBSTRUCTURE
     1 ACE         1

