4q18_ligand
  -I-interpret- 

 61 63  0  0  0  0  0  0  0  0999 V2000
  -37.4260    7.9800    0.6970 C   0  0  0  0  0
  -37.5840    7.8320   -0.8130 C   0  0  0  0  0
  -39.0670    8.0580   -1.1900 C   0  0  0  0  0
  -37.1790    6.5010   -1.1970 O   0  0  0  0  0
  -36.6530    8.8160   -1.5130 C   0  0  0  0  0
  -37.5700    9.7590   -2.0790 O   0  0  0  0  0
  -37.0660   10.6620   -2.9510 C   0  0  0  0  0
  -35.7110   10.9480   -3.0680 C   0  0  0  0  0
  -38.0110   11.3040   -3.7400 C   0  0  0  0  0
  -39.3170   10.9410   -3.5440 O   0  0  0  0  0
  -40.3280   11.8480   -3.9920 C   0  0  0  0  0
  -37.5940   12.2660   -4.6710 C   0  0  0  0  0
  -36.2450   12.5530   -4.7950 C   0  0  0  0  0
  -35.3080   11.9080   -3.9930 C   0  0  0  0  0
  -34.0310   12.1830   -4.1090 C   0  0  0  0  0
  -33.1250   11.7780   -3.2230 N   0  0  0  0  0
  -33.3080   13.0430   -5.3380 S   0  0  0  0  0
  -31.8230   12.9140   -4.7030 C   0  0  0  0  0
  -30.5450   13.4320   -5.3450 C   0  0  0  0  0
  -30.1610   14.8240   -4.8870 C   0  0  0  0  0
  -30.8200   15.7840   -5.8530 C   0  0  0  0  0
  -31.9040   12.2020   -3.5740 C   0  0  0  0  0
  -30.7350   11.8730   -2.7270 C   0  0  0  0  0
  -29.9730   10.4540   -3.6090 S   0  0  0  0  0
  -28.2100   10.8870   -3.8080 C   0  0  0  0  0
  -27.6970   12.1610   -3.6700 C   0  0  0  0  0
  -27.3350    9.9050   -4.0980 N   0  0  0  0  0
  -26.0090   10.1190   -4.2680 C   0  0  0  0  0
  -25.1930    9.0900   -4.5480 N   0  0  0  0  0
  -25.5080   11.3480   -4.1610 N   0  0  0  0  0
  -26.3460   12.3720   -3.8510 C   0  0  0  0  0
  -25.8890   13.6260   -3.7280 N   0  0  0  0  0
  -36.3935    7.7691    0.9754 H   0  0  0  0  0
  -37.6818    8.9983    0.9897 H   0  0  0  0  0
  -38.0902    7.2779    1.2011 H   0  0  0  0  0
  -39.3637    9.0669   -0.9034 H   0  0  0  0  0
  -39.1901    7.9335   -2.2658 H   0  0  0  0  0
  -39.6886    7.3323   -0.6655 H   0  0  0  0  0
  -37.7498    5.8582   -0.7696 H   0  0  0  0  0
  -36.0123    8.3430   -2.2573 H   0  0  0  0  0
  -35.9301    9.2746   -0.8383 H   0  0  0  0  0
  -34.9783   10.4313   -2.4482 H   0  0  0  0  0
  -40.2126   12.8018   -3.4772 H   0  0  0  0  0
  -40.2281   11.9994   -5.0668 H   0  0  0  0  0
  -41.3111   11.4317   -3.7722 H   0  0  0  0  0
  -38.3254   12.7835   -5.2918 H   0  0  0  0  0
  -35.9142   13.2901   -5.5267 H   0  0  0  0  0
  -30.7129   13.4755   -6.4211 H   0  0  0  0  0
  -29.7376   12.7581   -5.0585 H   0  0  0  0  0
  -29.0785   14.9516   -4.8838 H   0  0  0  0  0
  -30.4924   15.0064   -3.8647 H   0  0  0  0  0
  -30.4567   15.5888   -6.8619 H   0  0  0  0  0
  -31.9006   15.6447   -5.8213 H   0  0  0  0  0
  -30.5759   16.8077   -5.5693 H   0  0  0  0  0
  -31.0112   11.6334   -1.7002 H   0  0  0  0  0
  -30.0505   12.7127   -2.6068 H   0  0  0  0  0
  -28.3544   12.9937   -3.4200 H   0  0  0  0  0
  -25.5721    8.1469   -4.6327 H   0  0  0  0  0
  -24.1940    9.2515   -4.6760 H   0  0  0  0  0
  -26.5342   14.3846   -3.5077 H   0  0  0  0  0
  -24.8960   13.8217   -3.8547 H   0  0  0  0  0
  1  2  1  0  0  0
  2  3  1  0  0  0
  2  4  1  0  0  0
  2  5  1  0  0  0
  5  6  1  0  0  0
  6  7  1  0  0  0
  7  8  4  0  0  0
  7  9  4  0  0  0
  8 14  4  0  0  0
  9 10  1  0  0  0
  9 12  4  0  0  0
 10 11  1  0  0  0
 12 13  4  0  0  0
 13 14  4  0  0  0
 14 15  1  0  0  0
 15 16  4  0  0  0
 15 17  4  0  0  0
 16 22  4  0  0  0
 17 18  4  0  0  0
 18 19  1  0  0  0
 18 22  4  0  0  0
 19 20  1  0  0  0
 20 21  1  0  0  0
 22 23  1  0  0  0
 23 24  1  0  0  0
 24 25  1  0  0  0
 25 26  4  0  0  0
 25 27  4  0  0  0
 26 31  4  0  0  0
 27 28  4  0  0  0
 28 29  1  0  0  0
 28 30  4  0  0  0
 30 31  4  0  0  0
 31 32  1  0  0  0
  1 33  1  0  0  0
  1 34  1  0  0  0
  1 35  1  0  0  0
  3 36  1  0  0  0
  3 37  1  0  0  0
  3 38  1  0  0  0
  4 39  1  0  0  0
  5 40  1  0  0  0
  5 41  1  0  0  0
  8 42  1  0  0  0
 11 43  1  0  0  0
 11 44  1  0  0  0
 11 45  1  0  0  0
 12 46  1  0  0  0
 13 47  1  0  0  0
 19 48  1  0  0  0
 19 49  1  0  0  0
 20 50  1  0  0  0
 20 51  1  0  0  0
 21 52  1  0  0  0
 21 53  1  0  0  0
 21 54  1  0  0  0
 23 55  1  0  0  0
 23 56  1  0  0  0
 26 57  1  0  0  0
 29 58  1  0  0  0
 29 59  1  0  0  0
 32 60  1  0  0  0
 32 61  1  0  0  0
M  END
$$$$
