3t1n_ligand
  -I-interpret- 

 69 69  0  0  0  0  0  0  0  0999 V2000
   -6.8270   -3.8590   16.5740 N   0  3  0  0  0
   -5.7870   -4.3460   15.7150 C   0  0  0  0  0
   -5.4010   -3.2650   14.7650 C   0  0  0  0  0
   -6.1100   -3.2390   13.5840 O   0  0  0  0  0
   -4.6300   -4.7780   16.5520 C   0  0  0  0  0
   -3.9660   -3.9390   17.2150 O   0  0  0  0  0
   -6.3570   -1.8980   12.8330 P   0  0  0  0  0
   -7.5970   -2.0460   11.9860 O   0  0  0  0  0
   -6.5830   -0.7890   13.8330 O   0  0  0  0  0
   -5.1690   -1.5780   11.9560 O   0  0  0  0  0
   -4.3670   -6.0790   16.5490 N   0  0  0  0  0
   -3.3240   -6.6600   17.3840 C   0  0  0  0  0
   -1.9520   -6.0460   17.1310 C   0  0  0  0  0
   -1.5760   -5.7780   15.9900 O   0  0  0  0  0
   -3.2580   -8.1680   17.1530 C   0  0  0  0  0
   -4.4570   -8.8920   17.7200 C   0  0  0  0  0
   -4.7910   -8.6480   18.8990 O   0  0  0  0  0
   -5.0740   -9.6930   16.9880 O   0  0  0  0  0
   -1.2080   -5.8300   18.2110 N   0  0  0  0  0
    0.1600   -5.3490   18.1120 C   0  0  0  0  0
    1.0950   -6.5390   17.9240 C   0  0  0  0  0
    0.7340   -7.6740   18.2390 O   0  0  0  0  0
    0.5440   -4.5740   19.3720 C   0  0  0  0  0
    1.8030   -3.7350   19.2300 C   0  0  0  0  0
    2.3510   -3.2880   20.5700 C   0  0  0  0  0
    1.8710   -3.7930   21.6070 O   0  0  0  0  0
    3.2610   -2.4320   20.5890 O   0  0  0  0  0
    2.2890   -6.2820   17.4030 N   0  0  0  0  0
    3.2680   -7.3400   17.1880 C   0  0  0  0  0
    4.6900   -6.8100   17.3370 C   0  0  0  0  0
    4.9220   -5.6770   17.7620 O   0  0  0  0  0
    3.0820   -7.9620   15.8010 C   0  0  0  0  0
    1.7530   -8.6480   15.6140 C   0  0  0  0  0
    1.5080   -9.8880   16.1840 C   0  0  0  0  0
    0.7530   -8.0560   14.8590 C   0  0  0  0  0
    0.2890  -10.5180   16.0100 C   0  0  0  0  0
   -0.4660   -8.6840   14.6820 C   0  0  0  0  0
   -0.6980   -9.9150   15.2580 C   0  0  0  0  0
    5.6490   -7.5210   17.0460 O   0  0  0  0  0
   -7.6220   -3.5616   16.0084 H   0  0  0  0  0
   -7.1186   -4.6027   17.2082 H   0  0  0  0  0
   -6.4774   -3.0675   17.1142 H   0  0  0  0  0
   -6.1294   -5.2043   15.1369 H   0  0  0  0  0
   -4.3584   -3.4400   14.4996 H   0  0  0  0  0
   -5.6003   -2.3197   15.2698 H   0  0  0  0  0
   -5.7992   -0.6862   14.3777 H   0  0  0  0  0
   -4.3850   -1.4856   12.5023 H   0  0  0  0  0
   -4.9125   -6.6916   15.9427 H   0  0  0  0  0
   -3.5884   -6.4438   18.4191 H   0  0  0  0  0
   -2.3676   -8.5469   17.6547 H   0  0  0  0  0
   -3.2364   -8.3433   16.0774 H   0  0  0  0  0
   -4.1838   -8.0073   19.2763 H   0  0  0  0  0
   -1.6073   -6.0063   19.1329 H   0  0  0  0  0
    0.2453   -4.6778   17.2574 H   0  0  0  0  0
    0.7342   -5.3082   20.1549 H   0  0  0  0  0
   -0.2754   -3.8889   19.5896 H   0  0  0  0  0
    1.5525   -2.8446   18.6533 H   0  0  0  0  0
    2.5623   -4.3451   18.7409 H   0  0  0  0  0
    3.4802   -2.1796   19.6891 H   0  0  0  0  0
    2.5262   -5.3234   17.1477 H   0  0  0  0  0
    3.1080   -8.1063   17.9464 H   0  0  0  0  0
    4.0929   -5.2308   17.9496 H   0  0  0  0  0
    3.8577   -8.7177   15.6774 H   0  0  0  0  0
    3.1350   -7.1529   15.0726 H   0  0  0  0  0
    2.2849  -10.3718   16.7760 H   0  0  0  0  0
    0.9296   -7.0836   14.3992 H   0  0  0  0  0
    0.1082  -11.4909   16.4670 H   0  0  0  0  0
   -1.2439   -8.2057   14.0869 H   0  0  0  0  0
   -1.6589  -10.4106   15.1196 H   0  0  0  0  0
  1  2  1  0  0  0
  2  3  1  0  0  0
  2  5  1  0  0  0
  3  4  1  0  0  0
  4  7  1  0  0  0
  5  6  2  0  0  0
  5 11  1  0  0  0
  7  8  2  0  0  0
  7  9  1  0  0  0
  7 10  1  0  0  0
 11 12  1  0  0  0
 12 13  1  0  0  0
 12 15  1  0  0  0
 13 14  2  0  0  0
 13 19  1  0  0  0
 15 16  1  0  0  0
 16 17  1  0  0  0
 16 18  2  0  0  0
 19 20  1  0  0  0
 20 21  1  0  0  0
 20 23  1  0  0  0
 21 22  2  0  0  0
 21 28  1  0  0  0
 23 24  1  0  0  0
 24 25  1  0  0  0
 25 26  2  0  0  0
 25 27  1  0  0  0
 28 29  1  0  0  0
 29 30  1  0  0  0
 29 32  1  0  0  0
 30 31  1  0  0  0
 30 39  2  0  0  0
 32 33  1  0  0  0
 33 34  4  0  0  0
 33 35  4  0  0  0
 34 36  4  0  0  0
 35 37  4  0  0  0
 36 38  4  0  0  0
 37 38  4  0  0  0
  1 40  1  0  0  0
  1 41  1  0  0  0
  1 42  1  0  0  0
  2 43  1  0  0  0
  3 44  1  0  0  0
  3 45  1  0  0  0
  9 46  1  0  0  0
 10 47  1  0  0  0
 11 48  1  0  0  0
 12 49  1  0  0  0
 15 50  1  0  0  0
 15 51  1  0  0  0
 17 52  1  0  0  0
 19 53  1  0  0  0
 20 54  1  0  0  0
 23 55  1  0  0  0
 23 56  1  0  0  0
 24 57  1  0  0  0
 24 58  1  0  0  0
 27 59  1  0  0  0
 28 60  1  0  0  0
 29 61  1  0  0  0
 31 62  1  0  0  0
 32 63  1  0  0  0
 32 64  1  0  0  0
 34 65  1  0  0  0
 35 66  1  0  0  0
 36 67  1  0  0  0
 37 68  1  0  0  0
 38 69  1  0  0  0
M  END
$$$$
