### 
### Created by X-TOOL on Mon Sep 10 21:13:07 2018
### 

@<TRIPOS>MOLECULE
3t1n_ligand
   64    64     1     0     0
SMALL
GAST_HUCK


@<TRIPOS>ATOM
      1 N          -6.8270   -3.8590   16.5740 N.4       1 SEP         0.2398
      2 CA         -5.7870   -4.3460   15.7150 C.3       1 SEP         0.0932
      3 CB         -5.4010   -3.2650   14.7650 C.3       1 SEP         0.1380
      4 OG         -6.1100   -3.2390   13.5840 O.3       1 SEP        -0.2680
      5 C          -4.6300   -4.7780   16.5520 C.2       1 SEP         0.2294
      6 O          -3.9660   -3.9390   17.2150 O.2       1 SEP        -0.3906
      7 P          -6.3570   -1.8980   12.8330 P.3       1 SEP         0.2012
      8 O1P        -7.5970   -2.0460   11.9860 O.co2     1 SEP        -0.5537
      9 O2P        -6.5830   -0.7890   13.8330 O.co2     1 SEP        -0.5537
     10 O3P        -5.1690   -1.5780   11.9560 O.co2     1 SEP        -0.5537
     11 N          -4.3670   -6.0790   16.5490 N.am      1 ASP        -0.2594
     12 CA         -3.3240   -6.6600   17.3840 C.3       1 ASP         0.1424
     13 C          -1.9520   -6.0460   17.1310 C.2       1 ASP         0.2056
     14 O          -1.5760   -5.7780   15.9900 O.2       1 ASP        -0.3943
     15 CB         -3.2580   -8.1680   17.1530 C.3       1 ASP         0.0406
     16 CG         -4.4570   -8.8920   17.7200 C.2       1 ASP         0.0393
     17 OD1        -4.7910   -8.6480   18.8990 O.co2     1 ASP        -0.5688
     18 OD2        -5.0740   -9.6930   16.9880 O.co2     1 ASP        -0.5688
     19 N          -1.2080   -5.8300   18.2110 N.am      1 GLU        -0.2635
     20 CA          0.1600   -5.3490   18.1120 C.3       1 GLU         0.1324
     21 C           1.0950   -6.5390   17.9240 C.2       1 GLU         0.2036
     22 O           0.7340   -7.6740   18.2390 O.2       1 GLU        -0.3944
     23 CB          0.5440   -4.5740   19.3720 C.3       1 GLU        -0.0008
     24 CG          1.8030   -3.7350   19.2300 C.3       1 GLU         0.0044
     25 CD          2.3510   -3.2880   20.5700 C.2       1 GLU         0.0350
     26 OE1         1.8710   -3.7930   21.6070 O.co2     1 GLU        -0.5690
     27 OE2         3.2610   -2.4320   20.5890 O.co2     1 GLU        -0.5690
     28 N           2.2890   -6.2820   17.4030 N.am      1 PHE        -0.2677
     29 CA          3.2680   -7.3400   17.1880 C.3       1 PHE         0.1039
     30 C           4.6900   -6.8100   17.3370 C.2       1 PHE         0.0621
     31 O           4.9220   -5.6770   17.7620 O.co2     1 PHE        -0.5664
     32 CB          3.0820   -7.9620   15.8010 C.3       1 PHE         0.0159
     33 CG          1.7530   -8.6480   15.6140 C.ar      1 PHE        -0.0392
     34 CD1         1.5080   -9.8880   16.1840 C.ar      1 PHE        -0.0602
     35 CD2         0.7530   -8.0560   14.8590 C.ar      1 PHE        -0.0602
     36 CE1         0.2890  -10.5180   16.0100 C.ar      1 PHE        -0.0686
     37 CE2        -0.4660   -8.6840   14.6820 C.ar      1 PHE        -0.0686
     38 CZ         -0.6980   -9.9150   15.2580 C.ar      1 PHE        -0.0687
     39 OXT         5.6490   -7.5210   17.0460 O.co2     1 PHE        -0.5664
     40 H          -7.6220   -3.5616   16.0084 H         1 SEP         0.2016
     41 H          -7.1186   -4.6027   17.2082 H         1 SEP         0.2016
     42 H          -6.4774   -3.0675   17.1142 H         1 SEP         0.2016
     43 H          -6.1294   -5.2043   15.1369 H         1 SEP         0.1125
     44 H          -4.3584   -3.4400   14.4996 H         1 SEP         0.0696
     45 H          -5.6003   -2.3197   15.2698 H         1 SEP         0.0696
     46 H          -4.9125   -6.6916   15.9427 H         1 ASP         0.1886
     47 H          -3.5884   -6.4438   18.4191 H         1 ASP         0.0819
     48 H          -2.3676   -8.5469   17.6547 H         1 ASP         0.0478
     49 H          -3.2364   -8.3433   16.0774 H         1 ASP         0.0478
     50 H          -1.6073   -6.0063   19.1329 H         1 GLU         0.1883
     51 H           0.2453   -4.6778   17.2574 H         1 GLU         0.0801
     52 H           0.7342   -5.3082   20.1549 H         1 GLU         0.0330
     53 H          -0.2754   -3.8889   19.5896 H         1 GLU         0.0330
     54 H           1.5525   -2.8446   18.6533 H         1 GLU         0.0433
     55 H           2.5623   -4.3451   18.7409 H         1 GLU         0.0433
     56 H           2.5262   -5.3234   17.1477 H         1 PHE         0.1877
     57 H           3.1080   -8.1063   17.9464 H         1 PHE         0.0749
     58 H           3.8577   -8.7177   15.6774 H         1 PHE         0.0467
     59 H           3.1350   -7.1529   15.0726 H         1 PHE         0.0467
     60 H           2.2849  -10.3718   16.7760 H         1 PHE         0.0557
     61 H           0.9296   -7.0836   14.3992 H         1 PHE         0.0557
     62 H           0.1082  -11.4909   16.4670 H         1 PHE         0.0599
     63 H          -1.2439   -8.2057   14.0869 H         1 PHE         0.0599
     64 H          -1.6589  -10.4106   15.1196 H         1 PHE         0.0559
@<TRIPOS>BOND
     1    1    2 1  
     2    2    3 1  
     3    2    5 1  
     4    3    4 1  
     5    4    7 1  
     6    5    6 2  
     7    5   11 am 
     8    7    8 ar 
     9    7    9 ar 
    10    7   10 ar 
    11   11   12 1  
    12   12   13 1  
    13   12   15 1  
    14   13   14 2  
    15   13   19 am 
    16   15   16 1  
    17   16   17 ar 
    18   16   18 ar 
    19   19   20 1  
    20   20   21 1  
    21   20   23 1  
    22   21   22 2  
    23   21   28 am 
    24   23   24 1  
    25   24   25 1  
    26   25   26 ar 
    27   25   27 ar 
    28   28   29 1  
    29   29   30 1  
    30   29   32 1  
    31   30   31 ar 
    32   30   39 ar 
    33   32   33 1  
    34   33   34 ar 
    35   33   35 ar 
    36   34   36 ar 
    37   35   37 ar 
    38   36   38 ar 
    39   37   38 ar 
    40    1   40 1  
    41    1   41 1  
    42    1   42 1  
    43    2   43 1  
    44    3   44 1  
    45    3   45 1  
    46   11   46 1  
    47   12   47 1  
    48   15   48 1  
    49   15   49 1  
    50   19   50 1  
    51   20   51 1  
    52   23   52 1  
    53   23   53 1  
    54   24   54 1  
    55   24   55 1  
    56   28   56 1  
    57   29   57 1  
    58   32   58 1  
    59   32   59 1  
    60   34   60 1  
    61   35   61 1  
    62   36   62 1  
    63   37   63 1  
    64   38   64 1  
@<TRIPOS>SUBSTRUCTURE
     1 SEP         1

