4mds_ligand
  -I-interpret- 

 71 74  0  0  0  0  0  0  0  0999 V2000
  -13.4120   16.2900  -23.5140 O   0  0  0  0  0
  -14.0390   15.2460  -23.7520 C   0  0  0  0  0
  -15.3490   15.2130  -23.4560 N   0  0  0  0  0
  -16.0720   16.4110  -22.9370 C   0  0  0  0  0
  -16.1430   17.4800  -24.0070 C   0  0  0  0  0
  -16.3870   17.1740  -25.1720 O   0  0  0  0  0
  -15.9120   18.7320  -23.6000 N   0  0  0  0  0
  -15.9860   19.9760  -24.3950 C   0  0  0  0  0
  -17.4610   20.2090  -24.7780 C   0  0  0  0  0
  -15.1350   19.9790  -25.6550 C   0  0  0  0  0
  -13.7230   19.4530  -25.4880 C   0  0  0  0  0
  -15.5390   21.0950  -23.4390 C   0  0  0  0  0
  -17.4300   16.1180  -22.3810 C   0  0  0  0  0
  -18.5740   16.2110  -23.1740 C   0  0  0  0  0
  -19.6060   15.8440  -22.3420 C   0  0  0  0  0
  -19.0890   15.5500  -21.0960 C   0  0  0  0  0
  -17.7550   15.7230  -21.1520 N   0  0  0  0  0
  -16.7980   15.5150  -20.0350 C   0  0  0  0  0
  -16.1030   14.0340  -23.7420 C   0  0  0  0  0
  -17.0070   14.0780  -24.7930 C   0  0  0  0  0
  -17.8040   12.9730  -25.1160 C   0  0  0  0  0
  -15.9970   12.8560  -23.0010 C   0  0  0  0  0
  -16.7770   11.7370  -23.3370 C   0  0  0  0  0
  -17.6880   11.7860  -24.3940 C   0  0  0  0  0
  -18.4070   10.6270  -24.6370 N   0  0  0  0  0
  -19.3800   10.3850  -25.5220 C   0  0  0  0  0
  -20.0530    9.0580  -25.6450 C   0  0  0  0  0
  -19.7660   11.2790  -26.2610 O   0  0  0  0  0
  -13.2970   14.0520  -24.3380 C   0  0  0  0  0
  -12.0180   14.5470  -24.7740 N   0  0  0  0  0
  -10.9070   14.3230  -24.0180 N   0  0  0  0  0
   -9.8140   14.9430  -24.5630 N   0  0  0  0  0
  -10.2810   15.5850  -25.6660 C   0  0  0  0  0
  -11.6590   15.3490  -25.7880 C   0  0  0  0  0
   -9.5830   16.3760  -26.5720 C   0  0  0  0  0
  -10.3020   16.9400  -27.6400 C   0  0  0  0  0
  -11.6800   16.7030  -27.7630 C   0  0  0  0  0
  -12.3870   15.9140  -26.8480 C   0  0  0  0  0
  -15.4893   16.7737  -22.0903 H   0  0  0  0  0
  -15.6526   18.8427  -22.6198 H   0  0  0  0  0
  -17.8204   19.3641  -25.3654 H   0  0  0  0  0
  -18.0596   20.3042  -23.8721 H   0  0  0  0  0
  -17.5423   21.1229  -25.3664 H   0  0  0  0  0
  -15.0444   21.0196  -25.9667 H   0  0  0  0  0
  -15.6307   19.3188  -26.3667 H   0  0  0  0  0
  -13.1935   20.0632  -24.7563 H   0  0  0  0  0
  -13.7600   18.4198  -25.1428 H   0  0  0  0  0
  -13.2038   19.4992  -26.4453 H   0  0  0  0  0
  -16.2102   21.1276  -22.5808 H   0  0  0  0  0
  -14.5224   20.8965  -23.0995 H   0  0  0  0  0
  -15.5687   22.0511  -23.9616 H   0  0  0  0  0
  -18.6362   16.5085  -24.2208 H   0  0  0  0  0
  -20.6586   15.7936  -22.6205 H   0  0  0  0  0
  -19.6593   15.2341  -20.2225 H   0  0  0  0  0
  -16.0736   14.7507  -20.3164 H   0  0  0  0  0
  -16.2785   16.4498  -19.8245 H   0  0  0  0  0
  -17.3422   15.1924  -19.1474 H   0  0  0  0  0
  -17.0989   14.9919  -25.3798 H   0  0  0  0  0
  -18.5188   13.0412  -25.9361 H   0  0  0  0  0
  -15.3068   12.8041  -22.1589 H   0  0  0  0  0
  -16.6694   10.8162  -22.7637 H   0  0  0  0  0
  -18.1545    9.8333  -24.0482 H   0  0  0  0  0
  -21.1166    9.1706  -25.4349 H   0  0  0  0  0
  -19.9197    8.6769  -26.6575 H   0  0  0  0  0
  -19.6123    8.3611  -24.9321 H   0  0  0  0  0
  -13.8518   13.6138  -25.1676 H   0  0  0  0  0
  -13.1799   13.2607  -23.5975 H   0  0  0  0  0
   -8.5135   16.5528  -26.4577 H   0  0  0  0  0
   -9.7889   17.5620  -28.3734 H   0  0  0  0  0
  -12.2180   17.1486  -28.5997 H   0  0  0  0  0
  -13.4586   15.7450  -26.9538 H   0  0  0  0  0
  1  2  2  0  0  0
  2  3  1  0  0  0
  2 29  1  0  0  0
  3  4  1  0  0  0
  3 19  1  0  0  0
  4  5  1  0  0  0
  4 13  1  0  0  0
  5  6  2  0  0  0
  5  7  1  0  0  0
  7  8  1  0  0  0
  8  9  1  0  0  0
  8 10  1  0  0  0
  8 12  1  0  0  0
 10 11  1  0  0  0
 13 14  4  0  0  0
 13 17  4  0  0  0
 14 15  4  0  0  0
 15 16  4  0  0  0
 16 17  4  0  0  0
 17 18  1  0  0  0
 19 20  4  0  0  0
 19 22  4  0  0  0
 20 21  4  0  0  0
 21 24  4  0  0  0
 22 23  4  0  0  0
 23 24  4  0  0  0
 24 25  1  0  0  0
 25 26  1  0  0  0
 26 27  1  0  0  0
 26 28  2  0  0  0
 29 30  1  0  0  0
 30 31  4  0  0  0
 30 34  4  0  0  0
 31 32  4  0  0  0
 32 33  4  0  0  0
 33 34  4  0  0  0
 33 35  4  0  0  0
 34 38  4  0  0  0
 35 36  4  0  0  0
 36 37  4  0  0  0
 37 38  4  0  0  0
  4 39  1  0  0  0
  7 40  1  0  0  0
  9 41  1  0  0  0
  9 42  1  0  0  0
  9 43  1  0  0  0
 10 44  1  0  0  0
 10 45  1  0  0  0
 11 46  1  0  0  0
 11 47  1  0  0  0
 11 48  1  0  0  0
 12 49  1  0  0  0
 12 50  1  0  0  0
 12 51  1  0  0  0
 14 52  1  0  0  0
 15 53  1  0  0  0
 16 54  1  0  0  0
 18 55  1  0  0  0
 18 56  1  0  0  0
 18 57  1  0  0  0
 20 58  1  0  0  0
 21 59  1  0  0  0
 22 60  1  0  0  0
 23 61  1  0  0  0
 25 62  1  0  0  0
 27 63  1  0  0  0
 27 64  1  0  0  0
 27 65  1  0  0  0
 29 66  1  0  0  0
 29 67  1  0  0  0
 35 68  1  0  0  0
 36 69  1  0  0  0
 37 70  1  0  0  0
 38 71  1  0  0  0
M  END
$$$$
