4bf1_ligand
  -I-interpret- 

 36 39  0  0  0  0  0  0  0  0999 V2000
   -7.6010    0.8800   16.9280 O   0  0  0  0  0
   -6.1270    0.8910   16.9860 S   0  0  0  0  0
   -5.4990    1.0010   18.2510 O   0  0  0  0  0
   -5.5400   -0.4170   16.2370 N   0  0  0  0  0
   -5.7160    2.3600   16.1880 C   0  0  0  0  0
   -4.1700    2.7740   15.5350 S   0  0  0  0  0
   -4.6440    4.2940   15.0120 C   0  0  0  0  0
   -5.9930    4.5040   15.2910 C   0  0  0  0  0
   -6.6210    3.4210   15.8850 C   0  0  0  0  0
   -3.8030    5.2990   14.3490 C   0  0  0  0  0
   -2.4330    5.2110   14.1480 C   0  0  0  0  0
   -2.1700    6.4300   13.5980 N   0  0  0  0  0
   -3.2820    7.2370   13.4820 N   0  0  0  0  0
   -4.3310    6.5160   13.9870 N   0  0  0  0  0
   -0.9730    6.8740   13.1380 C   0  0  0  0  0
   -0.3180    6.3340   12.0690 C   0  0  0  0  0
    0.9290    6.7310   11.6180 C   0  0  0  0  0
    1.5650    7.8390   12.1880 C   0  0  0  0  0
    0.8930    8.5410   13.1920 C   0  0  0  0  0
   -0.3740    8.0780   13.7480 C   0  0  0  0  0
    1.4720    9.6460   13.7680 C   0  0  0  0  0
    0.8790   10.3110   14.8390 C   0  0  0  0  0
   -0.3560    9.8880   15.3250 C   0  0  0  0  0
   -0.9760    8.7660   14.7930 C   0  0  0  0  0
   -6.1776   -1.0933   15.8169 H   0  0  0  0  0
   -4.5322   -0.5656   16.1848 H   0  0  0  0  0
   -6.5082    5.4369   15.0624 H   0  0  0  0  0
   -7.6894    3.3836   16.0976 H   0  0  0  0  0
   -1.7517    4.3896   14.3698 H   0  0  0  0  0
   -0.8152    5.5282   11.5290 H   0  0  0  0  0
    1.4174    6.1781   10.8155 H   0  0  0  0  0
    2.5574    8.1462   11.8580 H   0  0  0  0  0
    2.4210   10.0122   13.3764 H   0  0  0  0  0
    1.3818   11.1628   15.2969 H   0  0  0  0  0
   -0.8393   10.4425   16.1294 H   0  0  0  0  0
   -1.9311    8.4265   15.1937 H   0  0  0  0  0
  1  2  2  0  0  0
  2  3  2  0  0  0
  2  4  1  0  0  0
  2  5  1  0  0  0
  5  6  4  0  0  0
  5  9  4  0  0  0
  6  7  4  0  0  0
  7  8  4  0  0  0
  7 10  1  0  0  0
  8  9  4  0  0  0
 10 11  4  0  0  0
 10 14  4  0  0  0
 11 12  4  0  0  0
 12 13  4  0  0  0
 12 15  1  0  0  0
 13 14  4  0  0  0
 15 16  4  0  0  0
 15 20  4  0  0  0
 16 17  4  0  0  0
 17 18  4  0  0  0
 18 19  4  0  0  0
 19 20  4  0  0  0
 19 21  4  0  0  0
 20 24  4  0  0  0
 21 22  4  0  0  0
 22 23  4  0  0  0
 23 24  4  0  0  0
  4 25  1  0  0  0
  4 26  1  0  0  0
  8 27  1  0  0  0
  9 28  1  0  0  0
 11 29  1  0  0  0
 16 30  1  0  0  0
 17 31  1  0  0  0
 18 32  1  0  0  0
 21 33  1  0  0  0
 22 34  1  0  0  0
 23 35  1  0  0  0
 24 36  1  0  0  0
M  END
$$$$
