5vqy_ligand
  -I-interpret- 

 63 66  0  0  0  0  0  0  0  0999 V2000
   50.3480  -46.2130   33.4470 N   0  0  0  0  0
   52.0730  -43.5570   35.6980 C   0  0  0  0  0
   50.8640  -48.4810   33.9510 N   0  0  0  0  0
   48.2220  -39.7150   39.3870 N   0  0  0  0  0
   52.2280  -42.9570   38.0620 C   0  0  0  0  0
   45.2490  -45.5930   43.4780 N   0  0  0  0  0
   54.2430  -43.0310   36.6870 C   0  0  0  0  0
   51.7180  -44.1850   33.3950 C   0  0  0  0  0
   51.1570  -47.3440   33.2140 C   0  0  0  0  0
   53.4750  -43.4050   35.5690 C   0  0  0  0  0
   51.4590  -43.3290   36.9440 C   0  0  0  0  0
   53.6220  -42.8070   37.9300 C   0  0  0  0  0
   50.0990  -43.4930   37.0220 O   0  0  0  0  0
   51.2140  -43.9180   34.6860 O   0  0  0  0  0
   50.6570  -45.0300   32.6830 C   0  0  0  0  0
   49.8490  -48.5990   34.8940 C   0  0  0  0  0
   49.0510  -47.3960   35.0910 C   0  0  0  0  0
   49.3220  -46.2780   34.3790 C   0  0  0  0  0
   49.3310  -43.0100   38.0500 C   0  0  0  0  0
   48.6860  -43.9210   38.9120 C   0  0  0  0  0
   47.8710  -43.4400   39.9670 C   0  0  0  0  0
   47.6950  -42.0390   40.1550 C   0  0  0  0  0
   48.3450  -41.1310   39.2760 C   0  0  0  0  0
   49.1470  -41.6280   38.2290 C   0  0  0  0  0
   47.2250  -44.3450   40.8400 C   0  0  0  0  0
   46.4160  -43.8810   41.8920 C   0  0  0  0  0
   46.2430  -42.4980   42.0830 C   0  0  0  0  0
   46.8760  -41.5840   41.2200 C   0  0  0  0  0
   52.0830  -47.3540   32.4060 O   0  0  0  0  0
   49.6870  -49.6620   35.4810 O   0  0  0  0  0
   45.7650  -44.8310   42.7760 C   0  0  0  0  0
   48.8840  -45.4190   38.6930 C   0  0  0  0  0
   49.1050  -38.9790   40.1090 C   0  0  0  0  0
   49.0220  -37.7550   40.2190 O   0  0  0  0  0
   50.2520  -39.7090   40.8250 C   0  0  0  0  0
   47.1010  -39.0920   38.6760 C   0  0  0  0  0
   51.2830  -38.7440   41.4210 C   0  0  0  0  0
   51.4442  -49.3037   33.7870 H   0  0  0  0  0
   51.7473  -42.7858   39.0252 H   0  0  0  0  0
   55.3224  -42.9144   36.5902 H   0  0  0  0  0
   52.6691  -44.7148   33.4482 H   0  0  0  0  0
   51.9111  -43.2602   32.8514 H   0  0  0  0  0
   53.9575  -43.5772   34.6069 H   0  0  0  0  0
   54.2216  -42.5167   38.7927 H   0  0  0  0  0
   49.7499  -44.4357   32.5727 H   0  0  0  0  0
   51.0427  -45.3312   31.7090 H   0  0  0  0  0
   48.2345  -47.3968   35.8131 H   0  0  0  0  0
   48.7092  -45.3918   34.5442 H   0  0  0  0  0
   49.6323  -40.9296   37.5472 H   0  0  0  0  0
   47.3560  -45.4174   40.6955 H   0  0  0  0  0
   45.6188  -42.1344   42.8992 H   0  0  0  0  0
   46.7352  -40.5138   41.3718 H   0  0  0  0  0
   48.5316  -45.6891   37.6975 H   0  0  0  0  0
   49.9429  -45.6612   38.7830 H   0  0  0  0  0
   48.3184  -45.9724   39.4426 H   0  0  0  0  0
   50.7618  -40.3338   40.0916 H   0  0  0  0  0
   49.8227  -40.2883   41.6424 H   0  0  0  0  0
   47.1889  -39.2988   37.6094 H   0  0  0  0  0
   46.1626  -39.5009   39.0505 H   0  0  0  0  0
   47.1211  -38.0148   38.8414 H   0  0  0  0  0
   51.7159  -38.1392   40.6241 H   0  0  0  0  0
   50.7937  -38.0945   42.1469 H   0  0  0  0  0
   52.0700  -39.3144   41.9143 H   0  0  0  0  0
  1  9  1  0  0  0
 15  1  1  0  0  0
  1 18  1  0  0  0
  2 10  4  0  0  0
 11  2  4  0  0  0
  2 14  1  0  0  0
  9  3  1  0  0  0
  3 16  1  0  0  0
 23  4  1  0  0  0
  4 33  1  0  0  0
  4 36  1  0  0  0
 11  5  4  0  0  0
  5 12  4  0  0  0
 31  6  3  0  0  0
 10  7  4  0  0  0
 12  7  4  0  0  0
 14  8  1  0  0  0
  8 15  1  0  0  0
  9 29  2  0  0  0
 13 11  1  0  0  0
 19 13  1  0  0  0
 17 16  1  0  0  0
 16 30  2  0  0  0
 18 17  2  0  0  0
 20 19  4  0  0  0
 19 24  4  0  0  0
 21 20  4  0  0  0
 20 32  1  0  0  0
 21 22  4  0  0  0
 25 21  4  0  0  0
 22 23  4  0  0  0
 22 28  4  0  0  0
 23 24  4  0  0  0
 26 25  4  0  0  0
 26 27  4  0  0  0
 26 31  1  0  0  0
 27 28  4  0  0  0
 33 34  2  0  0  0
 33 35  1  0  0  0
 35 37  1  0  0  0
  3 38  1  0  0  0
  5 39  1  0  0  0
  7 40  1  0  0  0
  8 41  1  0  0  0
  8 42  1  0  0  0
 10 43  1  0  0  0
 12 44  1  0  0  0
 15 45  1  0  0  0
 15 46  1  0  0  0
 17 47  1  0  0  0
 18 48  1  0  0  0
 24 49  1  0  0  0
 25 50  1  0  0  0
 27 51  1  0  0  0
 28 52  1  0  0  0
 32 53  1  0  0  0
 32 54  1  0  0  0
 32 55  1  0  0  0
 35 56  1  0  0  0
 35 57  1  0  0  0
 36 58  1  0  0  0
 36 59  1  0  0  0
 36 60  1  0  0  0
 37 61  1  0  0  0
 37 62  1  0  0  0
 37 63  1  0  0  0
M  END
$$$$
