6qi7_ligand
  -I-interpret- 

 50 49  0  0  0  0  0  0  0  0999 V2000
   -1.2960   -1.3500  -17.1620 C   0  0  0  0  0
   -1.8000   -0.4060  -16.5290 O   0  0  0  0  0
   -0.1660   -1.8100  -16.9170 O   0  0  0  0  0
   -2.0990   -1.9790  -18.2880 C   0  0  0  0  0
   -3.5760   -1.7680  -18.2140 C   0  0  0  0  0
   -4.3100   -2.9850  -17.6930 C   0  0  0  0  0
   -4.0140   -4.2620  -18.4400 C   0  0  0  0  0
   -4.1980   -5.5020  -17.6110 C   0  0  0  0  0
   -4.9900   -6.5740  -18.2990 C   0  0  0  0  0
   -6.2910   -6.8850  -17.6370 C   0  0  0  0  0
   -7.3930   -7.1690  -18.5930 C   0  0  0  0  0
   -8.0210   -8.5010  -18.4150 C   0  0  0  0  0
   -9.5160   -8.4770  -18.4680 C   0  0  0  0  0
  -10.0880   -9.7300  -19.0160 C   0  0  0  0  0
  -11.5470   -9.6480  -19.2420 C   0  0  0  0  0
  -12.2380  -10.9620  -19.1430 C   0  0  0  0  0
  -12.5840  -11.5320  -20.4610 C   0  0  0  0  0
  -13.5520  -12.6660  -20.3260 C   0  0  0  0  0
    0.0231   -2.5305  -17.5225 H   0  0  0  0  0
   -1.9339   -3.0546  -18.2259 H   0  0  0  0  0
   -1.7625   -1.5086  -19.2119 H   0  0  0  0  0
   -3.9374   -1.5632  -19.2218 H   0  0  0  0  0
   -3.7638   -0.9425  -17.5274 H   0  0  0  0  0
   -5.3759   -2.7880  -17.8081 H   0  0  0  0  0
   -3.9865   -3.1358  -16.6631 H   0  0  0  0  0
   -2.9685   -4.2262  -18.7460 H   0  0  0  0  0
   -4.7123   -4.3210  -19.2749 H   0  0  0  0  0
   -4.7466   -5.2161  -16.7136 H   0  0  0  0  0
   -3.2073   -5.9082  -17.4072 H   0  0  0  0  0
   -4.3902   -7.4839  -18.2778 H   0  0  0  0  0
   -5.2152   -6.2160  -19.3036 H   0  0  0  0  0
   -6.5798   -6.0087  -17.0567 H   0  0  0  0  0
   -6.1441   -7.7802  -17.0327 H   0  0  0  0  0
   -6.9646   -7.1458  -19.5950 H   0  0  0  0  0
   -8.1681   -6.4217  -18.4229 H   0  0  0  0  0
   -7.7370   -8.8644  -17.4274 H   0  0  0  0  0
   -7.6773   -9.1339  -19.2332 H   0  0  0  0  0
   -9.8150   -7.6580  -19.1221 H   0  0  0  0  0
   -9.8856   -8.3572  -17.4496 H   0  0  0  0  0
   -9.9083  -10.5227  -18.2898 H   0  0  0  0  0
   -9.6128   -9.9190  -19.9786 H   0  0  0  0  0
  -11.7011   -9.2723  -20.2535 H   0  0  0  0  0
  -11.9622   -9.0006  -18.4696 H   0  0  0  0  0
  -13.1666  -10.8086  -18.5931 H   0  0  0  0  0
  -11.5603  -11.6574  -18.6477 H   0  0  0  0  0
  -11.6728  -11.9072  -20.9268 H   0  0  0  0  0
  -13.0458  -10.7518  -21.0661 H   0  0  0  0  0
  -13.1073  -13.4507  -19.7140 H   0  0  0  0  0
  -14.4657  -12.3076  -19.8518 H   0  0  0  0  0
  -13.7854  -13.0624  -21.3142 H   0  0  0  0  0
  1  2  2  0  0  0
  1  3  1  0  0  0
  1  4  1  0  0  0
  4  5  1  0  0  0
  5  6  1  0  0  0
  6  7  1  0  0  0
  7  8  1  0  0  0
  8  9  1  0  0  0
  9 10  1  0  0  0
 10 11  1  0  0  0
 11 12  1  0  0  0
 12 13  1  0  0  0
 13 14  1  0  0  0
 14 15  1  0  0  0
 15 16  1  0  0  0
 16 17  1  0  0  0
 17 18  1  0  0  0
  3 19  1  0  0  0
  4 20  1  0  0  0
  4 21  1  0  0  0
  5 22  1  0  0  0
  5 23  1  0  0  0
  6 24  1  0  0  0
  6 25  1  0  0  0
  7 26  1  0  0  0
  7 27  1  0  0  0
  8 28  1  0  0  0
  8 29  1  0  0  0
  9 30  1  0  0  0
  9 31  1  0  0  0
 10 32  1  0  0  0
 10 33  1  0  0  0
 11 34  1  0  0  0
 11 35  1  0  0  0
 12 36  1  0  0  0
 12 37  1  0  0  0
 13 38  1  0  0  0
 13 39  1  0  0  0
 14 40  1  0  0  0
 14 41  1  0  0  0
 15 42  1  0  0  0
 15 43  1  0  0  0
 16 44  1  0  0  0
 16 45  1  0  0  0
 17 46  1  0  0  0
 17 47  1  0  0  0
 18 48  1  0  0  0
 18 49  1  0  0  0
 18 50  1  0  0  0
M  END
$$$$
