2ycq_ligand
  -I-interpret- 

 45 48  0  0  0  0  0  0  0  0999 V2000
  -49.5680  -15.8120  -11.4110 O   0  0  0  0  0
  -48.9160  -16.9670  -11.8910 N   0  0  0  0  0
  -49.2380  -17.3740  -13.1800 O   0  0  0  0  0
  -47.9940  -17.6060  -11.1750 C   0  0  0  0  0
  -47.3380  -18.7390  -11.6610 C   0  0  0  0  0
  -46.3750  -19.3700  -10.8650 C   0  0  0  0  0
  -46.0670  -18.8780   -9.5990 C   0  0  0  0  0
  -46.7150  -17.7390   -9.1170 C   0  0  0  0  0
  -46.6330  -17.0350   -7.9760 C   0  0  0  0  0
  -47.6710  -17.1180   -9.9160 C   0  0  0  0  0
  -48.1330  -16.0760   -9.2540 N   0  0  0  0  0
  -47.5100  -16.0240   -8.0870 C   0  0  0  0  0
  -47.8480  -14.9140   -7.0760 C   0  0  0  0  0
  -48.7420  -14.1150   -7.3760 O   0  0  0  0  0
  -47.1270  -14.9100   -5.9370 N   0  0  0  0  0
  -47.2870  -14.0870   -4.8750 C   0  0  0  0  0
  -46.4980  -14.3090   -3.7420 C   0  0  0  0  0
  -46.6170  -13.5380   -2.5870 C   0  0  0  0  0
  -48.2170  -13.0670   -4.8260 C   0  0  0  0  0
  -48.3440  -12.2810   -3.6710 C   0  0  0  0  0
  -47.5480  -12.4930   -2.5420 C   0  0  0  0  0
  -47.6830  -11.6990   -1.3920 C   0  0  0  0  0
  -48.2940  -10.2880   -1.4510 C   0  0  0  0  0
  -47.3100  -12.2040   -0.2110 N   0  0  0  0  0
  -47.3570  -11.5860    0.8690 N   0  0  0  0  0
  -46.9740  -12.2050    2.0030 C   0  0  0  0  0
  -47.0180  -11.6760    3.2280 N   0  0  0  0  0
  -46.5010  -12.6080    4.2190 C   0  0  0  0  0
  -46.1550  -13.8310    3.4020 C   0  0  0  0  0
  -46.5340  -13.4560    2.0400 N   0  0  0  0  0
  -47.5738  -19.1285  -12.6514 H   0  0  0  0  0
  -45.8610  -20.2552  -11.2396 H   0  0  0  0  0
  -45.3206  -19.3818   -8.9849 H   0  0  0  0  0
  -45.9824  -17.2434   -7.1267 H   0  0  0  0  0
  -46.3806  -15.6018   -5.8684 H   0  0  0  0  0
  -45.7634  -15.1140   -3.7629 H   0  0  0  0  0
  -45.9877  -13.7477   -1.7220 H   0  0  0  0  0
  -48.8548  -12.8720   -5.6882 H   0  0  0  0  0
  -49.0850  -11.4818   -3.6536 H   0  0  0  0  0
  -49.2009  -10.2606   -0.8469 H   0  0  0  0  0
  -47.5756   -9.5658   -1.0631 H   0  0  0  0  0
  -48.5369  -10.0416   -2.4846 H   0  0  0  0  0
  -47.6826  -10.6197    0.8951 H   0  0  0  0  0
  -46.3900  -12.4594    5.2931 H   0  0  0  0  0
  -45.7244  -14.7712    3.7465 H   0  0  0  0  0
  1  2  2  0  0  0
  2  3  2  0  0  0
  2  4  1  0  0  0
  4  5  4  0  0  0
  4 10  4  0  0  0
  5  6  4  0  0  0
  6  7  4  0  0  0
  7  8  4  0  0  0
  8  9  4  0  0  0
  8 10  4  0  0  0
  9 12  4  0  0  0
 10 11  4  0  0  0
 11 12  4  0  0  0
 12 13  1  0  0  0
 13 14  2  0  0  0
 13 15  1  0  0  0
 15 16  1  0  0  0
 16 17  4  0  0  0
 16 19  4  0  0  0
 17 18  4  0  0  0
 18 21  4  0  0  0
 19 20  4  0  0  0
 20 21  4  0  0  0
 21 22  1  0  0  0
 22 23  1  0  0  0
 22 24  2  0  0  0
 24 25  1  0  0  0
 25 26  1  0  0  0
 26 27  4  0  0  0
 26 30  4  0  0  0
 27 28  4  0  0  0
 28 29  4  0  0  0
 29 30  4  0  0  0
  5 31  1  0  0  0
  6 32  1  0  0  0
  7 33  1  0  0  0
  9 34  1  0  0  0
 15 35  1  0  0  0
 17 36  1  0  0  0
 18 37  1  0  0  0
 19 38  1  0  0  0
 20 39  1  0  0  0
 23 40  1  0  0  0
 23 41  1  0  0  0
 23 42  1  0  0  0
 25 43  1  0  0  0
 28 44  1  0  0  0
 29 45  1  0  0  0
M  END
$$$$
