2zdk_ligand
  -I-interpret- 

 60 62  0  0  0  0  0  0  0  0999 V2000
  -28.2180    1.1660   15.6290 N   0  0  0  0  0
  -27.3600    0.6920   14.5660 C   0  0  0  0  0
  -26.2580    1.6720   14.2550 C   0  0  0  0  0
  -26.4490    2.8830   14.2990 O   0  0  0  0  0
  -25.1720    1.0840   13.9540 N   0  0  0  0  0
  -24.0160    1.8370   13.5330 C   0  0  0  0  0
  -22.8910    1.6630   14.5790 C   0  0  0  0  0
  -23.1280    2.0080   15.9130 C   0  0  0  0  0
  -22.1060    1.8500   16.8660 C   0  0  0  0  0
  -20.8550    1.3520   16.4840 C   0  0  0  0  0
  -19.7110    1.1550   17.4450 C   0  0  0  0  0
  -19.5400    1.9560   18.4330 N   0  0  0  0  0
  -18.9210    0.1650   17.2410 N   0  0  0  0  0
  -20.6190    1.0040   15.1340 C   0  0  0  0  0
  -21.6500    1.1670   14.1960 C   0  0  0  0  0
  -28.4040    0.6790   13.4290 C   0  0  0  0  0
  -29.8010    0.6590   14.0610 C   0  0  0  0  0
  -29.6640    1.2570   15.4840 C   0  0  0  0  0
  -27.7110    1.4180   16.7930 C   0  0  0  0  0
  -28.5150    2.0160   17.9480 C   0  0  0  0  0
  -28.5040    1.0490   19.1550 C   0  0  0  0  0
  -29.0880   -0.3620   18.8720 C   0  0  0  0  0
  -28.7730   -1.3790   19.9770 C   0  0  0  0  0
  -29.1740   -2.8440   19.6310 C   0  0  0  0  0
  -30.6150   -2.9330   19.1270 C   0  0  0  0  0
  -31.0910   -1.7790   18.2420 C   0  0  0  0  0
  -30.5990   -0.3640   18.5680 C   0  0  0  0  0
  -26.5330    1.2180   17.0320 O   0  0  0  0  0
  -26.8398   -0.2446   14.7667 H   0  0  0  0  0
  -25.1173    0.0671   14.0109 H   0  0  0  0  0
  -24.2768    2.8918   13.4468 H   0  0  0  0  0
  -23.6748    1.4739   12.5635 H   0  0  0  0  0
  -24.1007    2.3977   16.2131 H   0  0  0  0  0
  -22.2890    2.1166   17.9069 H   0  0  0  0  0
  -18.7623    1.8125   19.0772 H   0  0  0  0  0
  -20.1818    2.7361   18.5741 H   0  0  0  0  0
  -19.0780   -0.4579   16.4487 H   0  0  0  0  0
  -19.6488    0.6142   14.8259 H   0  0  0  0  0
  -21.4755    0.9012   13.1534 H   0  0  0  0  0
  -28.2639   -0.2015   12.8019 H   0  0  0  0  0
  -28.2882    1.5645   12.8040 H   0  0  0  0  0
  -30.1889   -0.3586   14.1063 H   0  0  0  0  0
  -30.5024    1.2418   13.4640 H   0  0  0  0  0
  -30.0767    2.2587   15.6042 H   0  0  0  0  0
  -30.2374    0.7441   16.2562 H   0  0  0  0  0
  -29.5437    2.1751   17.6248 H   0  0  0  0  0
  -28.0671    2.9647   18.2439 H   0  0  0  0  0
  -29.1303    1.4999   19.9248 H   0  0  0  0  0
  -27.4601    0.9069   19.4345 H   0  0  0  0  0
  -28.5740   -0.6768   17.9638 H   0  0  0  0  0
  -29.3484   -1.0874   20.8556 H   0  0  0  0  0
  -27.6932   -1.3680   20.1255 H   0  0  0  0  0
  -29.0893   -3.4457   20.5359 H   0  0  0  0  0
  -28.5122   -3.2039   18.8432 H   0  0  0  0  0
  -31.2497   -2.9201   20.0131 H   0  0  0  0  0
  -30.6684   -3.8314   18.5121 H   0  0  0  0  0
  -32.1726   -1.7441   18.3728 H   0  0  0  0  0
  -30.6983   -1.9978   17.2490 H   0  0  0  0  0
  -30.7836    0.2779   17.7066 H   0  0  0  0  0
  -31.1332   -0.0013   19.4462 H   0  0  0  0  0
  1  2  1  0  0  0
  1 18  1  0  0  0
  1 19  1  0  0  0
  2  3  1  0  0  0
  2 16  1  0  0  0
  3  4  2  0  0  0
  3  5  1  0  0  0
  5  6  1  0  0  0
  6  7  1  0  0  0
  7  8  4  0  0  0
  7 15  4  0  0  0
  8  9  4  0  0  0
  9 10  4  0  0  0
 10 11  1  0  0  0
 10 14  4  0  0  0
 11 12  1  0  0  0
 11 13  2  0  0  0
 14 15  4  0  0  0
 16 17  1  0  0  0
 17 18  1  0  0  0
 19 20  1  0  0  0
 19 28  2  0  0  0
 20 21  1  0  0  0
 21 22  1  0  0  0
 22 23  1  0  0  0
 22 27  1  0  0  0
 23 24  1  0  0  0
 24 25  1  0  0  0
 25 26  1  0  0  0
 26 27  1  0  0  0
  2 29  1  0  0  0
  5 30  1  0  0  0
  6 31  1  0  0  0
  6 32  1  0  0  0
  8 33  1  0  0  0
  9 34  1  0  0  0
 12 35  1  0  0  0
 12 36  1  0  0  0
 13 37  1  0  0  0
 14 38  1  0  0  0
 15 39  1  0  0  0
 16 40  1  0  0  0
 16 41  1  0  0  0
 17 42  1  0  0  0
 17 43  1  0  0  0
 18 44  1  0  0  0
 18 45  1  0  0  0
 20 46  1  0  0  0
 20 47  1  0  0  0
 21 48  1  0  0  0
 21 49  1  0  0  0
 22 50  1  0  0  0
 23 51  1  0  0  0
 23 52  1  0  0  0
 24 53  1  0  0  0
 24 54  1  0  0  0
 25 55  1  0  0  0
 25 56  1  0  0  0
 26 57  1  0  0  0
 26 58  1  0  0  0
 27 59  1  0  0  0
 27 60  1  0  0  0
M  END
$$$$
