3atm_ligand
  -I-interpret- 

 24 25  0  0  0  0  0  0  0  0999 V2000
   -1.8380  -12.6490   18.0740 N   0  3  0  0  0
   -2.0560  -13.3430   16.8190 C   0  0  0  0  0
   -0.8540  -14.2220   16.5320 C   0  0  0  0  0
   -1.1600  -15.2300   15.4610 C   0  0  0  0  0
   -0.6320  -15.2810   14.1750 C   0  0  0  0  0
   -1.1360  -16.3510   13.4940 N   0  0  0  0  0
   -1.9910  -17.0560   14.2530 C   0  0  0  0  0
   -2.0630  -16.3910   15.5620 C   0  0  0  0  0
   -2.7590  -18.1980   14.0540 C   0  0  0  0  0
   -3.5630  -18.6740   15.0920 C   0  0  0  0  0
   -3.6180  -18.0290   16.3360 C   0  0  0  0  0
   -2.8660  -16.8790   16.5810 C   0  0  0  0  0
   -2.6417  -12.0544   18.2764 H   0  0  0  0  0
   -1.7214  -13.3317   18.8229 H   0  0  0  0  0
   -0.9982  -12.0746   18.0021 H   0  0  0  0  0
   -2.1853  -12.6194   16.0142 H   0  0  0  0  0
   -2.9545  -13.9563   16.8871 H   0  0  0  0  0
   -0.5873  -14.7548   17.4447 H   0  0  0  0  0
   -0.0347  -13.5896   16.1901 H   0  0  0  0  0
    0.0838  -14.5666   13.7683 H   0  0  0  0  0
   -2.7337  -18.7173   13.0960 H   0  0  0  0  0
   -4.1630  -19.5696   14.9311 H   0  0  0  0  0
   -4.2567  -18.4313   17.1223 H   0  0  0  0  0
   -2.9090  -16.3779   17.5480 H   0  0  0  0  0
  1  2  1  0  0  0
  2  3  1  0  0  0
  3  4  1  0  0  0
  4  5  4  0  0  0
  4  8  4  0  0  0
  5  6  4  0  0  0
  6  7  4  0  0  0
  7  8  4  0  0  0
  7  9  4  0  0  0
  8 12  4  0  0  0
  9 10  4  0  0  0
 10 11  4  0  0  0
 11 12  4  0  0  0
  1 13  1  0  0  0
  1 14  1  0  0  0
  1 15  1  0  0  0
  2 16  1  0  0  0
  2 17  1  0  0  0
  3 18  1  0  0  0
  3 19  1  0  0  0
  5 20  1  0  0  0
  9 21  1  0  0  0
 10 22  1  0  0  0
 11 23  1  0  0  0
 12 24  1  0  0  0
M  END
$$$$
