### 
### Created by X-TOOL on Mon Sep 10 21:12:58 2018
### 

@<TRIPOS>MOLECULE
2vr0_ligand
   40    41     1     0     0
SMALL
GAST_HUCK


@<TRIPOS>ATOM
      1 C1         38.1030    5.1430  -13.4720 C.ar      1 HQO         0.1884
      2 O1         38.8430    6.2990  -13.5190 O.3       1 HQO        -0.2741
      3 C2         38.3740    4.0680  -14.3300 C.ar      1 HQO         0.0664
      4 C3         37.6170    2.8820  -14.2810 C.ar      1 HQO         0.1101
      5 N1         36.6020    2.7420  -13.3940 N.ar      1 HQO        -0.1117
      6 O4         35.9510    1.6840  -13.3700 O.2       1 HQO        -0.1622
      7 C5         36.2630    3.7910  -12.4860 C.ar      1 HQO         0.1396
      8 C6         35.2100    3.6440  -11.5760 C.ar      1 HQO         0.0160
      9 C7         34.8810    4.6750  -10.6930 C.ar      1 HQO        -0.0027
     10 C8         35.5950    5.8710  -10.7090 C.ar      1 HQO        -0.0026
     11 C9         36.6450    6.0250  -11.6150 C.ar      1 HQO         0.0097
     12 C10        36.9810    4.9920  -12.4960 C.ar      1 HQO         0.1130
     13 C11        37.9560    1.7500  -15.2470 C.3       1 HQO         0.0142
     14 C12        37.8000    1.1400  -17.7430 C.3       1 HQO        -0.0506
     15 C13        37.1630    1.8770  -16.5620 C.3       1 HQO        -0.0378
     16 C14        36.7740    0.4090  -18.6220 C.3       1 HQO        -0.0529
     17 C15        36.6860   -1.0890  -18.2950 C.3       1 HQO        -0.0533
     18 C16        36.3950   -1.9900  -19.5030 C.3       1 HQO        -0.0559
     19 C17        37.2390   -3.2590  -19.5240 C.3       1 HQO        -0.0653
     20 H          38.5160    6.9097  -12.8689 H         1 HQO         0.2860
     21 H          39.1834    4.1517  -15.0462 H         1 HQO         0.0916
     22 H          34.6436    2.7200  -11.5562 H         1 HQO         0.1086
     23 H          34.0653    4.5437   -9.9912 H         1 HQO         0.0858
     24 H          35.3380    6.6724  -10.0258 H         1 HQO         0.0924
     25 H          37.2049    6.9530  -11.6362 H         1 HQO         0.1066
     26 H          37.7102    0.7886  -14.7723 H         1 HQO         0.0502
     27 H          39.0320    1.7827  -15.4733 H         1 HQO         0.0502
     28 H          38.5141    0.4011  -17.3505 H         1 HQO         0.0267
     29 H          38.3351    1.8725  -18.3652 H         1 HQO         0.0267
     30 H          37.0873    2.9438  -16.8194 H         1 HQO         0.0295
     31 H          36.1554    1.4664  -16.4001 H         1 HQO         0.0295
     32 H          37.0661    0.5240  -19.6762 H         1 HQO         0.0265
     33 H          35.7851    0.8639  -18.4637 H         1 HQO         0.0265
     34 H          35.8821   -1.2328  -17.5581 H         1 HQO         0.0265
     35 H          37.6453   -1.4016  -17.8569 H         1 HQO         0.0265
     36 H          36.5986   -1.4198  -20.4213 H         1 HQO         0.0263
     37 H          35.3334   -2.2769  -19.4773 H         1 HQO         0.0263
     38 H          36.9814   -3.8560  -20.4113 H         1 HQO         0.0230
     39 H          37.0397   -3.8470  -18.6160 H         1 HQO         0.0230
     40 H          38.3050   -2.9899  -19.5600 H         1 HQO         0.0230
@<TRIPOS>BOND
     1    1    2 1  
     2    1    3 ar 
     3    1   12 ar 
     4    3    4 ar 
     5    4    5 ar 
     6    4   13 1  
     7    5    6 2  
     8    5    7 ar 
     9    7    8 ar 
    10    7   12 ar 
    11    8    9 ar 
    12    9   10 ar 
    13   10   11 ar 
    14   11   12 ar 
    15   13   15 1  
    16   15   14 1  
    17   14   16 1  
    18   16   17 1  
    19   17   18 1  
    20   18   19 1  
    21    2   20 1  
    22    3   21 1  
    23    8   22 1  
    24    9   23 1  
    25   10   24 1  
    26   11   25 1  
    27   13   26 1  
    28   13   27 1  
    29   14   28 1  
    30   14   29 1  
    31   15   30 1  
    32   15   31 1  
    33   16   32 1  
    34   16   33 1  
    35   17   34 1  
    36   17   35 1  
    37   18   36 1  
    38   18   37 1  
    39   19   38 1  
    40   19   39 1  
    41   19   40 1  
@<TRIPOS>SUBSTRUCTURE
     1 HQO         1

