2vr0_ligand
  -I-interpret- 

 40 41  0  0  0  0  0  0  0  0999 V2000
   38.1030    5.1430  -13.4720 C   0  0  0  0  0
   38.8430    6.2990  -13.5190 O   0  0  0  0  0
   38.3740    4.0680  -14.3300 C   0  0  0  0  0
   37.6170    2.8820  -14.2810 C   0  0  0  0  0
   36.6020    2.7420  -13.3940 N   0  0  0  0  0
   35.9510    1.6840  -13.3700 O   0  0  0  0  0
   36.2630    3.7910  -12.4860 C   0  0  0  0  0
   35.2100    3.6440  -11.5760 C   0  0  0  0  0
   34.8810    4.6750  -10.6930 C   0  0  0  0  0
   35.5950    5.8710  -10.7090 C   0  0  0  0  0
   36.6450    6.0250  -11.6150 C   0  0  0  0  0
   36.9810    4.9920  -12.4960 C   0  0  0  0  0
   37.9560    1.7500  -15.2470 C   0  0  0  0  0
   37.8000    1.1400  -17.7430 C   0  0  0  0  0
   37.1630    1.8770  -16.5620 C   0  0  0  0  0
   36.7740    0.4090  -18.6220 C   0  0  0  0  0
   36.6860   -1.0890  -18.2950 C   0  0  0  0  0
   36.3950   -1.9900  -19.5030 C   0  0  0  0  0
   37.2390   -3.2590  -19.5240 C   0  0  0  0  0
   38.5125    6.9161  -12.8620 H   0  0  0  0  0
   39.1879    4.1522  -15.0502 H   0  0  0  0  0
   34.6404    2.7149  -11.5561 H   0  0  0  0  0
   34.0608    4.5430   -9.9873 H   0  0  0  0  0
   35.3366    6.6769  -10.0220 H   0  0  0  0  0
   37.2080    6.9581  -11.6363 H   0  0  0  0  0
   37.6950    0.8026  -14.7754 H   0  0  0  0  0
   39.0201    1.7991  -15.4782 H   0  0  0  0  0
   38.4814    0.3920  -17.3378 H   0  0  0  0  0
   38.3002    1.8820  -18.3654 H   0  0  0  0  0
   37.1296    2.9355  -16.8199 H   0  0  0  0  0
   36.1819    1.4331  -16.3935 H   0  0  0  0  0
   37.0870    0.5099  -19.6612 H   0  0  0  0  0
   35.7954    0.8526  -18.4386 H   0  0  0  0  0
   35.8579   -1.2145  -17.5974 H   0  0  0  0  0
   37.6583   -1.3868  -17.9026 H   0  0  0  0  0
   36.6310   -1.4219  -20.4028 H   0  0  0  0  0
   35.3488   -2.2905  -19.4461 H   0  0  0  0  0
   38.2949   -2.9910  -19.5597 H   0  0  0  0  0
   37.0407   -3.8407  -18.6238 H   0  0  0  0  0
   36.9829   -3.8497  -20.4035 H   0  0  0  0  0
  1  2  1  0  0  0
  1  3  4  0  0  0
  1 12  4  0  0  0
  3  4  4  0  0  0
  4  5  4  0  0  0
  4 13  1  0  0  0
  5  6  2  0  0  0
  5  7  4  0  0  0
  7  8  4  0  0  0
  7 12  4  0  0  0
  8  9  4  0  0  0
  9 10  4  0  0  0
 10 11  4  0  0  0
 11 12  4  0  0  0
 13 15  1  0  0  0
 15 14  1  0  0  0
 14 16  1  0  0  0
 16 17  1  0  0  0
 17 18  1  0  0  0
 18 19  1  0  0  0
  2 20  1  0  0  0
  3 21  1  0  0  0
  8 22  1  0  0  0
  9 23  1  0  0  0
 10 24  1  0  0  0
 11 25  1  0  0  0
 13 26  1  0  0  0
 13 27  1  0  0  0
 14 28  1  0  0  0
 14 29  1  0  0  0
 15 30  1  0  0  0
 15 31  1  0  0  0
 16 32  1  0  0  0
 16 33  1  0  0  0
 17 34  1  0  0  0
 17 35  1  0  0  0
 18 36  1  0  0  0
 18 37  1  0  0  0
 19 38  1  0  0  0
 19 39  1  0  0  0
 19 40  1  0  0  0
M  END
$$$$
