5cte_ligand
  -I-interpret- 

 64 67  0  0  0  0  0  0  0  0999 V2000
    8.7480   -9.6160  -17.3960 N   0  0  0  0  0
    6.7980   -9.9940  -15.9480 C   0  0  0  0  0
    2.4450   -8.5720  -15.7040 N   0  0  0  0  0
    4.1000  -10.1280  -15.5140 C   0  0  0  0  0
    4.6960   -8.9030  -15.9120 C   0  0  0  0  0
    8.2690   -9.9720  -16.1350 C   0  0  0  0  0
   10.7000   -9.9660  -18.8680 C   0  0  0  0  0
    8.6100   -9.8910  -25.8090 C   0  0  0  0  0
    8.2370   -8.7000  -26.7110 C   0  0  0  0  0
    3.6090   -7.9650  -16.0160 C   0  0  0  0  0
   11.8210  -10.7080  -21.4130 C   0  0  0  0  0
    9.6400   -8.2690  -22.0930 C   0  0  0  0  0
    9.4230  -10.2560  -23.6380 C   0  0  0  0  0
    4.1780  -12.5250  -14.8280 C   0  0  0  0  0
    4.8520  -11.2960  -15.3050 C   0  0  0  0  0
    6.2070  -11.2090  -15.5320 C   0  0  0  0  0
    6.0740   -8.8350  -16.1190 C   0  0  0  0  0
    2.7360   -9.8740  -15.4010 N   0  0  0  0  0
    9.0340  -10.2570  -15.2180 O   0  0  0  0  0
    7.8710   -9.3280  -18.5360 C   0  0  0  0  0
    8.3960  -10.0050  -19.8000 C   0  0  0  0  0
    9.8580   -9.6650  -20.0980 C   0  0  0  0  0
   10.1580   -9.2690  -17.6190 C   0  0  0  0  0
    9.9940   -8.2180  -20.5950 C   0  0  0  0  0
    9.8650   -9.6740  -22.4690 N   0  0  0  0  0
   10.3080  -10.5040  -21.3280 C   0  0  0  0  0
    9.3840  -11.4650  -23.8600 O   0  0  0  0  0
    9.0460   -9.3410  -24.5780 O   0  0  0  0  0
    9.4510   -7.8120  -26.9590 C   0  0  0  0  0
    7.7440   -9.2860  -28.0350 C   0  0  0  0  0
    7.1230   -7.8760  -26.0770 C   0  0  0  0  0
   11.7114   -9.6025  -19.0497 H   0  0  0  0  0
   10.6783  -11.0419  -18.6947 H   0  0  0  0  0
    9.3930  -10.4966  -26.2654 H   0  0  0  0  0
    7.7557  -10.5515  -25.6610 H   0  0  0  0  0
    3.7111   -6.9188  -16.3043 H   0  0  0  0  0
   12.3137   -9.7383  -21.4832 H   0  0  0  0  0
   12.1668  -11.2289  -20.5202 H   0  0  0  0  0
   12.0572  -11.3018  -22.2960 H   0  0  0  0  0
   10.2475   -7.5828  -22.6830 H   0  0  0  0  0
    8.6153   -7.9507  -22.2847 H   0  0  0  0  0
    3.7114  -12.3305  -13.8623 H   0  0  0  0  0
    3.4156  -12.8225  -15.5480 H   0  0  0  0  0
    4.9125  -13.3236  -14.7238 H   0  0  0  0  0
    6.8332  -12.0896  -15.3889 H   0  0  0  0  0
    6.5585   -7.9014  -16.4048 H   0  0  0  0  0
    7.8428   -8.2504  -18.6974 H   0  0  0  0  0
    6.8727   -9.7083  -18.3194 H   0  0  0  0  0
    7.7958   -9.6527  -20.6389 H   0  0  0  0  0
    8.3297  -11.0828  -19.6512 H   0  0  0  0  0
   10.7397   -9.5932  -16.7561 H   0  0  0  0  0
   10.2362   -8.1906  -17.7573 H   0  0  0  0  0
    9.3352   -7.5424  -20.0494 H   0  0  0  0  0
   10.9999   -7.8306  -20.4330 H   0  0  0  0  0
    9.8911  -11.5104  -21.2902 H   0  0  0  0  0
    9.8219   -7.4317  -26.0072 H   0  0  0  0  0
   10.2318   -8.3945  -27.4480 H   0  0  0  0  0
    9.1643   -6.9771  -27.5985 H   0  0  0  0  0
    8.5387   -9.8800  -28.4863 H   0  0  0  0  0
    6.8760   -9.9188  -27.8500 H   0  0  0  0  0
    7.4671   -8.4753  -28.7090 H   0  0  0  0  0
    6.2428   -8.5037  -25.9376 H   0  0  0  0  0
    7.4575   -7.4974  -25.1112 H   0  0  0  0  0
    6.8746   -7.0396  -26.7303 H   0  0  0  0  0
  1  6  1  0  0  0
 20  1  1  0  0  0
 23  1  1  0  0  0
  6  2  1  0  0  0
  2 16  4  0  0  0
  2 17  4  0  0  0
 10  3  4  0  0  0
  3 18  4  0  0  0
  5  4  4  0  0  0
 15  4  4  0  0  0
  4 18  4  0  0  0
  5 10  4  0  0  0
 17  5  4  0  0  0
  6 19  2  0  0  0
 22  7  1  0  0  0
  7 23  1  0  0  0
  8  9  1  0  0  0
 28  8  1  0  0  0
  9 29  1  0  0  0
  9 30  1  0  0  0
  9 31  1  0  0  0
 26 11  1  0  0  0
 24 12  1  0  0  0
 12 25  1  0  0  0
 25 13  1  0  0  0
 13 27  2  0  0  0
 13 28  1  0  0  0
 15 14  1  0  0  0
 16 15  4  0  0  0
 21 20  1  0  0  0
 22 21  1  0  0  0
 22 24  1  0  0  0
 22 26  1  0  0  0
 25 26  1  0  0  0
  7 32  1  0  0  0
  7 33  1  0  0  0
  8 34  1  0  0  0
  8 35  1  0  0  0
 10 36  1  0  0  0
 11 37  1  0  0  0
 11 38  1  0  0  0
 11 39  1  0  0  0
 12 40  1  0  0  0
 12 41  1  0  0  0
 14 42  1  0  0  0
 14 43  1  0  0  0
 14 44  1  0  0  0
 16 45  1  0  0  0
 17 46  1  0  0  0
 20 47  1  0  0  0
 20 48  1  0  0  0
 21 49  1  0  0  0
 21 50  1  0  0  0
 23 51  1  0  0  0
 23 52  1  0  0  0
 24 53  1  0  0  0
 24 54  1  0  0  0
 26 55  1  0  0  0
 29 56  1  0  0  0
 29 57  1  0  0  0
 29 58  1  0  0  0
 30 59  1  0  0  0
 30 60  1  0  0  0
 30 61  1  0  0  0
 31 62  1  0  0  0
 31 63  1  0  0  0
 31 64  1  0  0  0
M  END
$$$$
