3ppp_ligand
  -I-interpret- 

 20 19  0  0  0  0  0  0  0  0999 V2000
  -29.6230  -29.7550    9.1960 N   0  3  0  0  0
  -29.8090  -31.1510    8.8750 C   0  0  0  0  0
  -28.7590  -32.2140    9.2190 C   0  0  0  0  0
  -28.6610  -33.2630    8.6470 O   0  0  0  0  0
  -28.0380  -31.8880   10.2050 O   0  0  0  0  0
  -30.7240  -28.9600    8.5780 C   0  0  0  0  0
  -28.3650  -29.2480    8.6890 C   0  0  0  0  0
  -29.6960  -29.5750   10.6270 C   0  0  0  0  0
  -29.8345  -31.1610    7.7853 H   0  0  0  0  0
  -30.6703  -31.4388    9.4779 H   0  0  0  0  0
  -28.2859  -31.0104   10.5050 H   0  0  0  0  0
  -30.6061  -27.9098    8.8448 H   0  0  0  0  0
  -30.6839  -29.0675    7.4941 H   0  0  0  0  0
  -31.6836  -29.3240    8.9452 H   0  0  0  0  0
  -28.2836  -28.1857    8.9191 H   0  0  0  0  0
  -27.5419  -29.7868    9.1584 H   0  0  0  0  0
  -28.3258  -29.3912    7.6092 H   0  0  0  0  0
  -28.8768  -30.1148   11.1021 H   0  0  0  0  0
  -29.6185  -28.5136   10.8628 H   0  0  0  0  0
  -30.6475  -29.9612   10.9924 H   0  0  0  0  0
  1  2  1  0  0  0
  1  6  1  0  0  0
  1  7  1  0  0  0
  1  8  1  0  0  0
  2  3  1  0  0  0
  3  4  2  0  0  0
  3  5  1  0  0  0
  2  9  1  0  0  0
  2 10  1  0  0  0
  5 11  1  0  0  0
  6 12  1  0  0  0
  6 13  1  0  0  0
  6 14  1  0  0  0
  7 15  1  0  0  0
  7 16  1  0  0  0
  7 17  1  0  0  0
  8 18  1  0  0  0
  8 19  1  0  0  0
  8 20  1  0  0  0
M  END
$$$$
