4k0o_ligand
  -I-interpret- 

 54 55  0  0  0  0  0  0  0  0999 V2000
  -12.1690   29.4130    5.4730 C   0  0  0  0  0
  -12.7520   28.9960    4.2090 C   0  0  0  0  0
  -13.7630   28.0170    4.3440 C   0  0  0  0  0
  -13.4280   26.8790    5.1790 C   0  0  0  0  0
  -12.8890   27.3320    6.5150 C   0  0  0  0  0
  -12.3510   26.2480    7.1720 C   0  0  0  0  0
  -12.6130   30.8260    2.5410 C   0  0  0  0  0
  -11.3740   30.2620    2.0520 C   0  0  0  0  0
  -13.3370   30.2300    3.6000 N   0  0  0  0  0
  -11.0590   30.2190    5.2180 O   0  0  0  0  0
  -14.0620   27.5540    3.0150 O   0  0  0  0  0
  -14.5410   26.1040    5.4050 O   0  0  0  0  0
  -11.7640   28.2370    6.1520 O   0  0  0  0  0
  -11.0510   26.0040    6.8360 O   0  0  0  0  0
  -13.0440   31.8250    2.0300 O   0  0  0  0  0
   -9.6020   33.2290    6.8740 C   0  0  0  0  0
  -10.1820   32.3880    5.8330 C   0  0  0  0  0
  -10.8580   31.1980    6.3060 C   0  0  0  0  0
  -10.2620   30.5100    7.3960 C   0  0  0  0  0
   -9.9930   31.4750    8.5290 C   0  0  0  0  0
   -9.3800   30.8380    9.5810 C   0  0  0  0  0
   -7.3460   33.6950    6.2330 C   0  0  0  0  0
   -8.6570   34.0780    6.3450 O   0  0  0  0  0
  -11.1910   33.2310    5.2770 O   0  0  0  0  0
   -9.0160   30.2030    6.9110 O   0  0  0  0  0
   -9.0550   32.4730    7.9380 O   0  0  0  0  0
   -8.1930   30.2260    9.3070 O   0  0  0  0  0
  -12.8816   29.9780    6.0739 H   0  0  0  0  0
  -11.9775   28.5349    3.5960 H   0  0  0  0  0
  -14.6051   28.4890    4.8501 H   0  0  0  0  0
  -12.6686   26.3004    4.6530 H   0  0  0  0  0
  -13.6504   27.7943    7.1432 H   0  0  0  0  0
  -12.9339   25.3705    6.8921 H   0  0  0  0  0
  -12.3805   26.4623    8.2403 H   0  0  0  0  0
  -11.4847   30.0033    0.9989 H   0  0  0  0  0
  -10.5736   30.9932    2.1657 H   0  0  0  0  0
  -11.1333   29.3660    2.6242 H   0  0  0  0  0
  -14.2172   30.6237    3.9327 H   0  0  0  0  0
  -14.2844   28.3040    2.4585 H   0  0  0  0  0
  -14.8982   25.8063    4.5651 H   0  0  0  0  0
  -10.7334   25.2406    7.3239 H   0  0  0  0  0
  -10.4151   33.8234    7.2908 H   0  0  0  0  0
   -9.3916   32.0362    5.1700 H   0  0  0  0  0
  -11.7986   31.6057    6.6764 H   0  0  0  0  0
  -10.8781   29.6791    7.7398 H   0  0  0  0  0
  -10.9104   31.9174    8.9174 H   0  0  0  0  0
  -10.0624   30.0493    9.8978 H   0  0  0  0  0
   -9.1604   31.6107   10.3177 H   0  0  0  0  0
   -6.9514   33.4610    7.2218 H   0  0  0  0  0
   -7.2796   32.8131    5.5958 H   0  0  0  0  0
   -6.7678   34.5074    5.7926 H   0  0  0  0  0
  -11.6420   32.7645    4.5695 H   0  0  0  0  0
   -8.5209   29.7274    7.5820 H   0  0  0  0  0
   -7.8541   29.8154   10.1058 H   0  0  0  0  0
  1  2  1  0  0  0
 10  1  1  0  0  0
  1 13  1  0  0  0
  2  3  1  0  0  0
  2  9  1  0  0  0
  3  4  1  0  0  0
  3 11  1  0  0  0
  5  4  1  0  0  0
  4 12  1  0  0  0
  5  6  1  0  0  0
 13  5  1  0  0  0
  6 14  1  0  0  0
  7  8  1  0  0  0
  9  7  1  0  0  0
  7 15  2  0  0  0
 18 10  1  0  0  0
 17 16  1  0  0  0
 16 23  1  0  0  0
 16 26  1  0  0  0
 17 18  1  0  0  0
 17 24  1  0  0  0
 18 19  1  0  0  0
 19 20  1  0  0  0
 19 25  1  0  0  0
 20 21  1  0  0  0
 20 26  1  0  0  0
 21 27  1  0  0  0
 23 22  1  0  0  0
  1 28  1  0  0  0
  2 29  1  0  0  0
  3 30  1  0  0  0
  4 31  1  0  0  0
  5 32  1  0  0  0
  6 33  1  0  0  0
  6 34  1  0  0  0
  8 35  1  0  0  0
  8 36  1  0  0  0
  8 37  1  0  0  0
  9 38  1  0  0  0
 11 39  1  0  0  0
 12 40  1  0  0  0
 14 41  1  0  0  0
 16 42  1  0  0  0
 17 43  1  0  0  0
 18 44  1  0  0  0
 19 45  1  0  0  0
 20 46  1  0  0  0
 21 47  1  0  0  0
 21 48  1  0  0  0
 22 49  1  0  0  0
 22 50  1  0  0  0
 22 51  1  0  0  0
 24 52  1  0  0  0
 25 53  1  0  0  0
 27 54  1  0  0  0
M  END
$$$$
