5aux_ligand
  -I-interpret- 

 31 33  0  0  0  0  0  0  0  0999 V2000
  -20.1370   -1.1610  -12.1300 C   0  0  0  0  0
  -21.2240   -0.8120  -12.9270 C   0  0  0  0  0
  -22.0420    0.2780  -12.6170 C   0  0  0  0  0
  -21.7610    1.0040  -11.4620 C   0  0  0  0  0
  -20.6830    0.6580  -10.6530 C   0  0  0  0  0
  -19.8670   -0.4180  -10.9850 C   0  0  0  0  0
  -23.1390    0.6160  -13.4030 C   0  0  0  0  0
  -23.9480    1.6630  -12.9730 C   0  0  0  0  0
  -23.6610    2.4130  -11.8280 C   0  0  0  0  0
  -24.4190    3.4290  -11.2340 C   0  0  0  0  0
  -25.5600    3.9720  -11.8120 C   0  0  0  0  0
  -26.2850    4.9510  -11.1400 C   0  0  0  0  0
  -25.8830    5.3780   -9.8810 C   0  0  0  0  0
  -24.7540    4.8270   -9.2770 C   0  0  0  0  0
  -24.0310    3.8540   -9.9640 C   0  0  0  0  0
  -22.5590    2.0570  -11.1050 O   0  0  0  0  0
  -23.4170   -0.0120  -14.4290 O   0  0  0  0  0
  -26.6140    6.3300   -9.2490 O   0  0  0  0  0
  -25.0400    1.9570  -13.7340 O   0  0  0  0  0
  -18.8130   -0.7410  -10.1830 O   0  0  0  0  0
  -21.5200   -1.5090  -14.0590 O   0  0  0  0  0
  -19.5046   -2.0068  -12.4000 H   0  0  0  0  0
  -20.4765    1.2351   -9.7517 H   0  0  0  0  0
  -25.8877    3.6303  -12.7938 H   0  0  0  0  0
  -27.1715    5.3843  -11.6031 H   0  0  0  0  0
  -24.4421    5.1517   -8.2843 H   0  0  0  0  0
  -23.1464    3.4173   -9.5004 H   0  0  0  0  0
  -26.2182    6.5218   -8.3957 H   0  0  0  0  0
  -25.0855    1.3483  -14.4750 H   0  0  0  0  0
  -18.7750   -0.1289   -9.4444 H   0  0  0  0  0
  -22.2963   -1.1270  -14.4749 H   0  0  0  0  0
  1  2  4  0  0  0
  1  6  4  0  0  0
  2  3  4  0  0  0
  2 21  1  0  0  0
  3  4  4  0  0  0
  3  7  1  0  0  0
  4  5  4  0  0  0
  4 16  1  0  0  0
  5  6  4  0  0  0
  6 20  1  0  0  0
  7  8  1  0  0  0
  7 17  2  0  0  0
  8  9  2  0  0  0
  8 19  1  0  0  0
  9 10  1  0  0  0
  9 16  1  0  0  0
 10 11  4  0  0  0
 10 15  4  0  0  0
 11 12  4  0  0  0
 12 13  4  0  0  0
 13 14  4  0  0  0
 13 18  1  0  0  0
 14 15  4  0  0  0
  1 22  1  0  0  0
  5 23  1  0  0  0
 11 24  1  0  0  0
 12 25  1  0  0  0
 14 26  1  0  0  0
 15 27  1  0  0  0
 18 28  1  0  0  0
 19 29  1  0  0  0
 20 30  1  0  0  0
 21 31  1  0  0  0
M  END
$$$$
