2x2i_ligand
  -I-interpret- 

 88 91  0  0  0  0  0  0  0  0999 V2000
   24.9240    1.6930   65.9570 C   0  0  0  0  0
   25.9790    0.5910   65.9420 C   0  0  0  0  0
   26.0680   -0.1140   64.6020 C   0  0  0  0  0
   24.7240   -0.7420   64.2270 C   0  0  0  0  0
   23.5460    0.1240   64.5520 C   0  0  0  0  0
   22.2020   -0.2470   63.9790 C   0  0  0  0  0
   23.6390    1.2110   65.3250 C   0  0  0  0  0
   27.2630    1.0790   66.3560 O   0  0  0  0  0
   26.9730   -1.1900   64.8180 O   0  0  0  0  0
   24.6960   -1.0010   62.8270 O   0  0  0  0  0
   21.5800   -1.2120   64.8300 O   0  0  0  0  0
   23.1740    6.5900   65.4520 C   0  0  0  0  0
   23.5940    5.9140   66.7620 C   0  0  0  0  0
   24.7910    5.0060   66.5300 C   0  0  0  0  0
   24.3750    4.0010   65.4740 C   0  0  0  0  0
   23.9670    4.7360   64.1960 C   0  0  0  0  0
   23.5730    3.8080   63.0670 C   0  0  0  0  0
   25.3570    2.9330   65.3450 N   0  3  0  0  0
   23.9210    6.8600   67.7800 O   0  0  0  0  0
   25.1050    4.3240   67.7390 O   0  0  0  0  0
   22.8350    5.5430   64.5380 O   0  0  0  0  0
   24.5080   11.3120   63.2590 C   0  0  0  0  0
   24.5190   11.1600   64.7660 C   0  0  0  0  0
   24.8270    9.7260   65.1980 C   0  0  0  0  0
   23.9010    8.7390   64.4990 C   0  0  0  0  0
   23.9670    8.9930   62.9840 C   0  0  0  0  0
   23.0670    8.0570   62.1720 C   0  0  0  0  0
   25.5420   12.0240   65.2540 O   0  0  0  0  0
   24.6620    9.5680   66.6130 O   0  0  0  0  0
   24.2480    7.3910   64.8980 O   0  0  0  0  0
   23.6270   10.3590   62.6890 O   0  0  0  0  0
   23.4160    8.1940   60.7850 O   0  0  0  0  0
   28.7270   12.9720   60.6790 C   0  0  0  0  0
   27.8880   13.9550   61.4810 C   0  0  0  0  0
   27.0650   13.1460   62.4860 C   0  0  0  0  0
   26.3100   11.9860   61.8240 C   0  0  0  0  0
   27.2640   11.2300   60.9040 C   0  0  0  0  0
   26.6490   10.0630   60.1490 C   0  0  0  0  0
   29.6640   13.6030   59.7870 O   0  0  0  0  0
   28.7500   14.8770   62.1570 O   0  0  0  0  0
   26.1490   13.9960   63.1780 O   0  0  0  0  0
   25.8340   11.0620   62.8090 O   0  0  0  0  0
   27.7960   12.1550   59.9730 O   0  0  0  0  0
   27.6550    9.4970   59.2820 O   0  0  0  0  0
   24.7511    1.9224   67.0085 H   0  0  0  0  0
   25.6530   -0.1522   66.6696 H   0  0  0  0  0
   26.3663    0.5823   63.8182 H   0  0  0  0  0
   24.6423   -1.6550   64.8167 H   0  0  0  0  0
   22.3324   -0.6678   62.9820 H   0  0  0  0  0
   21.5742    0.6416   63.9126 H   0  0  0  0  0
   22.7313    1.7852   65.5108 H   0  0  0  0  0
   27.1782    1.5196   67.2047 H   0  0  0  0  0
   27.8341   -0.8393   65.0570 H   0  0  0  0  0
   25.4427   -1.5560   62.5904 H   0  0  0  0  0
   20.7234   -1.4510   64.4684 H   0  0  0  0  0
   22.3335    7.2604   65.6318 H   0  0  0  0  0
   22.7382    5.3303   67.1011 H   0  0  0  0  0
   25.6661    5.5728   66.2121 H   0  0  0  0  0
   23.4769    3.4608   65.7736 H   0  0  0  0  0
   24.8203    5.3125   63.8387 H   0  0  0  0  0
   24.4151    3.1621   62.8186 H   0  0  0  0  0
   22.7252    3.1980   63.3788 H   0  0  0  0  0
   23.2959    4.3980   62.1933 H   0  0  0  0  0
   25.4977    2.7572   64.3502 H   0  0  0  0  0
   26.2088    3.2337   65.8187 H   0  0  0  0  0
   24.1771    6.3931   68.5788 H   0  0  0  0  0
   25.8608    3.7500   67.5943 H   0  0  0  0  0
   24.1741   12.3081   62.9687 H   0  0  0  0  0
   23.5357   11.4094   65.1649 H   0  0  0  0  0
   25.8623    9.5248   64.9227 H   0  0  0  0  0
   22.8602    8.8767   64.7922 H   0  0  0  0  0
   24.9955    8.7873   62.6874 H   0  0  0  0  0
   22.0196    8.3182   62.3234 H   0  0  0  0  0
   23.2090    7.0257   62.4950 H   0  0  0  0  0
   25.5845   11.9593   66.2109 H   0  0  0  0  0
   24.8608    8.6613   66.8579 H   0  0  0  0  0
   22.8617    7.6139   60.2579 H   0  0  0  0  0
   29.3584   12.3885   61.3491 H   0  0  0  0  0
   27.2244   14.5272   60.8327 H   0  0  0  0  0
   27.7673   12.7125   63.1980 H   0  0  0  0  0
   25.4673   12.3990   61.2696 H   0  0  0  0  0
   28.0255   10.7867   61.5456 H   0  0  0  0  0
   25.8002   10.4078   59.5585 H   0  0  0  0  0
   26.2972    9.3086   60.8527 H   0  0  0  0  0
   30.1580   12.9289   59.3146 H   0  0  0  0  0
   28.2197   15.4970   62.6629 H   0  0  0  0  0
   25.6408   13.4747   63.8038 H   0  0  0  0  0
   27.2797    8.7576   58.7982 H   0  0  0  0  0
  1  2  1  0  0  0
  1  7  1  0  0  0
 18  1  1  0  0  0
  2  3  1  0  0  0
  2  8  1  0  0  0
  3  4  1  0  0  0
  3  9  1  0  0  0
  5  4  1  0  0  0
  4 10  1  0  0  0
  5  6  1  0  0  0
  7  5  2  0  0  0
  6 11  1  0  0  0
 12 13  1  0  0  0
 12 21  1  0  0  0
 30 12  1  0  0  0
 13 14  1  0  0  0
 13 19  1  0  0  0
 14 15  1  0  0  0
 14 20  1  0  0  0
 16 15  1  0  0  0
 15 18  1  0  0  0
 16 17  1  0  0  0
 21 16  1  0  0  0
 22 23  1  0  0  0
 22 31  1  0  0  0
 42 22  1  0  0  0
 23 24  1  0  0  0
 23 28  1  0  0  0
 24 25  1  0  0  0
 24 29  1  0  0  0
 26 25  1  0  0  0
 25 30  1  0  0  0
 26 27  1  0  0  0
 31 26  1  0  0  0
 27 32  1  0  0  0
 34 33  1  0  0  0
 33 39  1  0  0  0
 33 43  1  0  0  0
 35 34  1  0  0  0
 34 40  1  0  0  0
 36 35  1  0  0  0
 35 41  1  0  0  0
 36 37  1  0  0  0
 36 42  1  0  0  0
 37 38  1  0  0  0
 37 43  1  0  0  0
 38 44  1  0  0  0
  1 45  1  0  0  0
  2 46  1  0  0  0
  3 47  1  0  0  0
  4 48  1  0  0  0
  6 49  1  0  0  0
  6 50  1  0  0  0
  7 51  1  0  0  0
  8 52  1  0  0  0
  9 53  1  0  0  0
 10 54  1  0  0  0
 11 55  1  0  0  0
 12 56  1  0  0  0
 13 57  1  0  0  0
 14 58  1  0  0  0
 15 59  1  0  0  0
 16 60  1  0  0  0
 17 61  1  0  0  0
 17 62  1  0  0  0
 17 63  1  0  0  0
 18 64  1  0  0  0
 18 65  1  0  0  0
 19 66  1  0  0  0
 20 67  1  0  0  0
 22 68  1  0  0  0
 23 69  1  0  0  0
 24 70  1  0  0  0
 25 71  1  0  0  0
 26 72  1  0  0  0
 27 73  1  0  0  0
 27 74  1  0  0  0
 28 75  1  0  0  0
 29 76  1  0  0  0
 32 77  1  0  0  0
 33 78  1  0  0  0
 34 79  1  0  0  0
 35 80  1  0  0  0
 36 81  1  0  0  0
 37 82  1  0  0  0
 38 83  1  0  0  0
 38 84  1  0  0  0
 39 85  1  0  0  0
 40 86  1  0  0  0
 41 87  1  0  0  0
 44 88  1  0  0  0
M  END
$$$$
