4fai_ligand
  -I-interpret- 

 42 43  0  0  0  0  0  0  0  0999 V2000
  -34.7200   -5.6950   44.3660 C   0  0  0  0  0
  -31.6240   -8.4640   40.5860 C   0  0  0  0  0
  -30.4340   -2.0740   37.7490 S   0  0  0  0  0
  -26.9410   -0.9490   45.7900 C   0  0  0  0  0
  -33.1000   -3.7220   41.2240 C   0  0  0  0  0
  -33.5560   -4.4080   42.3320 C   0  0  0  0  0
  -26.9320   -1.1990   44.4710 C   0  0  0  0  0
  -28.3730    0.3960   44.8330 C   0  0  0  0  0
  -32.1700   -5.7550   40.3660 C   0  0  0  0  0
  -28.9590   -1.4940   42.0160 C   0  0  0  0  0
  -29.3340   -1.5310   40.5200 C   0  0  0  0  0
  -28.1260   -0.2880   42.4230 C   0  0  0  0  0
  -27.8400    0.0530   46.0170 N   0  0  0  0  0
  -30.3760   -2.5360   40.3740 N   0  0  0  0  0
  -31.9320   -3.7580   39.1530 N   0  0  0  0  0
  -33.8050   -6.4900   43.5420 O   0  0  0  0  0
  -32.4270   -7.8090   41.6080 O   0  0  0  0  0
  -30.9600   -2.8380   39.2050 C   0  0  0  0  0
  -32.3850   -4.3940   40.2400 C   0  0  0  0  0
  -33.3360   -5.7840   42.4600 C   0  0  0  0  0
  -32.6390   -6.4590   41.4630 C   0  0  0  0  0
  -27.8180   -0.3600   43.8870 N   0  0  0  0  0
  -34.1992   -4.8120   44.7364 H   0  0  0  0  0
  -35.5753   -5.3881   43.7641 H   0  0  0  0  0
  -35.0636   -6.2958   45.2081 H   0  0  0  0  0
  -32.1055   -8.3444   39.6154 H   0  0  0  0  0
  -30.6326   -8.0117   40.5594 H   0  0  0  0  0
  -31.5347   -9.5247   40.8204 H   0  0  0  0  0
  -26.3386   -1.4552   46.5443 H   0  0  0  0  0
  -33.3004   -2.6555   41.1213 H   0  0  0  0  0
  -34.0928   -3.8724   43.1150 H   0  0  0  0  0
  -26.3206   -1.9442   43.9621 H   0  0  0  0  0
  -29.1310    1.1628   44.6732 H   0  0  0  0  0
  -31.6208   -6.2836   39.5868 H   0  0  0  0  0
  -28.3590   -2.3812   42.2182 H   0  0  0  0  0
  -29.8910   -1.4448   42.5791 H   0  0  0  0  0
  -28.4666   -1.7797   39.9085 H   0  0  0  0  0
  -29.6858   -0.5556   40.1839 H   0  0  0  0  0
  -28.6848    0.6245   42.2152 H   0  0  0  0  0
  -27.1945   -0.2840   41.8570 H   0  0  0  0  0
  -30.6794   -3.0392   41.2077 H   0  0  0  0  0
  -32.3440   -3.9832   38.2475 H   0  0  0  0  0
 16  1  1  0  0  0
 17  2  1  0  0  0
 18  3  2  0  0  0
  7  4  4  0  0  0
 13  4  4  0  0  0
  5  6  4  0  0  0
 19  5  4  0  0  0
  6 20  4  0  0  0
 22  7  4  0  0  0
  8 13  4  0  0  0
 22  8  4  0  0  0
  9 19  4  0  0  0
 21  9  4  0  0  0
 11 10  1  0  0  0
 10 12  1  0  0  0
 14 11  1  0  0  0
 12 22  1  0  0  0
 18 14  1  0  0  0
 15 18  1  0  0  0
 19 15  1  0  0  0
 20 16  1  0  0  0
 17 21  1  0  0  0
 20 21  4  0  0  0
  1 23  1  0  0  0
  1 24  1  0  0  0
  1 25  1  0  0  0
  2 26  1  0  0  0
  2 27  1  0  0  0
  2 28  1  0  0  0
  4 29  1  0  0  0
  5 30  1  0  0  0
  6 31  1  0  0  0
  7 32  1  0  0  0
  8 33  1  0  0  0
  9 34  1  0  0  0
 10 35  1  0  0  0
 10 36  1  0  0  0
 11 37  1  0  0  0
 11 38  1  0  0  0
 12 39  1  0  0  0
 12 40  1  0  0  0
 14 41  1  0  0  0
 15 42  1  0  0  0
M  END
$$$$
