1n4m_ligand
  -I-interpret- 

270273  0  0  0  0  0  0  0  0999 V2000
   -7.0680    7.2190  -15.5900 N   0  3  0  0  0
   -6.0740    6.4980  -14.7330 C   0  0  0  0  0
   -6.7410    5.3900  -13.9100 C   0  0  0  0  0
   -7.8950    5.5220  -13.4980 O   0  0  0  0  0
   -5.3860    7.4940  -13.8060 C   0  0  0  0  0
   -4.3860    6.8380  -12.8960 C   0  0  0  0  0
   -4.7850    5.9600  -12.1090 O   0  0  0  0  0
   -3.1980    7.2000  -12.9660 O   0  0  0  0  0
   -6.0060    4.3120  -13.6520 N   0  0  0  0  0
   -6.5440    3.1720  -12.9060 C   0  0  0  0  0
   -6.8010    3.3560  -11.4040 C   0  0  0  0  0
   -7.4910    2.5380  -10.7920 O   0  0  0  0  0
   -5.6460    1.9400  -13.1170 C   0  0  0  0  0
   -4.2080    2.1540  -12.6380 C   0  0  0  0  0
   -3.3550    1.2920  -12.9400 O   0  0  0  0  0
   -3.9260    3.1690  -11.9620 O   0  0  0  0  0
   -6.2730    4.4250  -10.8110 N   0  0  0  0  0
   -6.4400    4.6710   -9.3760 C   0  0  0  0  0
   -7.8730    4.6630   -8.8580 C   0  0  0  0  0
   -8.7790    5.2680   -9.4450 O   0  0  0  0  0
   -5.8070    5.9960   -8.9750 C   0  0  0  0  0
   -5.6690    6.1700   -7.4810 C   0  0  0  0  0
   -4.7640    5.3900   -6.7530 C   0  0  0  0  0
   -6.3980    7.1530   -6.7980 C   0  0  0  0  0
   -4.5730    5.5880   -5.3860 C   0  0  0  0  0
   -6.2190    7.3630   -5.4190 C   0  0  0  0  0
   -5.2980    6.5780   -4.7210 C   0  0  0  0  0
   -5.0730    6.7940   -3.3740 O   0  0  0  0  0
   -8.0560    3.9850   -7.7310 N   0  0  0  0  0
   -9.3570    3.8840   -7.1060 C   0  0  0  0  0
   -9.4920    4.8050   -5.9050 C   0  0  0  0  0
   -8.8670    4.5850   -4.8600 O   0  0  0  0  0
   -9.6320    2.4570   -6.6420 C   0  0  0  0  0
  -10.9700    2.3830   -5.9050 C   0  0  0  0  0
  -12.0970    2.4370   -6.9220 C   0  0  0  0  0
  -11.0580    1.1300   -5.0920 C   0  0  0  0  0
  -10.3040    5.8440   -6.0600 N   0  0  0  0  0
  -10.5510    6.7590   -4.9580 C   0  0  0  0  0
  -11.5060    5.9690   -4.0690 C   0  0  0  0  0
  -12.7100    5.9240   -4.3060 O   0  0  0  0  0
  -11.1840    8.0470   -5.4810 C   0  0  0  0  0
  -10.2900    8.7430   -6.4500 C   0  0  0  0  0
  -10.2720    8.5930   -7.8160 C   0  0  0  0  0
   -9.2110    9.6350   -6.1310 C   0  0  0  0  0
   -9.2480    9.3350   -8.3580 N   0  0  0  0  0
   -8.5790    9.9800   -7.3510 C   0  0  0  0  0
   -8.7150   10.1750   -4.9350 C   0  0  0  0  0
   -7.4740   10.8420   -7.4070 C   0  0  0  0  0
   -7.6140   11.0360   -4.9910 C   0  0  0  0  0
   -7.0090   11.3580   -6.2200 C   0  0  0  0  0
  -10.9390    5.3190   -3.0610 N   0  0  0  0  0
  -11.7240    4.4820   -2.1760 C   0  0  0  0  0
  -12.5310    5.1010   -1.0580 C   0  0  0  0  0
  -13.4840    4.4770   -0.5870 O   0  0  0  0  0
  -12.1690    6.3010   -0.6110 N   0  0  0  0  0
  -12.9220    6.9160    0.4770 C   0  0  0  0  0
  -14.3240    7.2820    0.0410 C   0  0  0  0  0
  -14.5110    8.0860   -0.8630 O   0  0  0  0  0
  -12.2020    8.1530    1.0230 C   0  0  0  0  0
  -10.9450    7.8300    1.8330 C   0  0  0  0  0
  -10.4650    9.0730    2.5760 C   0  0  0  0  0
  -11.2600    6.7200    2.8230 C   0  0  0  0  0
  -15.3130    6.6800    0.6850 N   0  0  0  0  0
  -16.7020    6.9560    0.3530 C   0  0  0  0  0
  -17.0010    8.4120    0.7350 C   0  0  0  0  0
  -16.1570    9.0870    1.3230 O   0  0  0  0  0
  -17.6150    5.9760    1.1050 C   0  0  0  0  0
  -18.8680    5.5620    0.3300 C   0  0  0  0  0
  -18.5500    5.0580   -1.0750 C   0  0  0  0  0
  -17.6520    4.1950   -1.2070 O   0  0  0  0  0
  -19.2000    5.5240   -2.0430 O   0  0  0  0  0
  -18.1880    8.9010    0.4000 N   0  0  0  0  0
  -18.5320   10.2830    0.7180 C   0  0  0  0  0
  -18.2350   10.5880    2.1760 C   0  0  0  0  0
  -18.6010    9.8300    3.0740 O   0  0  0  0  0
  -20.0020   10.5500    0.4170 C   0  0  0  0  0
  -17.5620   11.7050    2.4050 N   0  0  0  0  0
  -17.2260   12.0980    3.7580 C   0  0  0  0  0
  -16.5790   11.0400    4.6360 C   0  0  0  0  0
  -17.1660   10.6470    5.6410 O   0  0  0  0  0
  -15.3840   10.5720    4.2780 N   0  0  0  0  0
  -14.6980    9.5840    5.1060 C   0  0  0  0  0
  -13.4020   10.1180    5.7300 C   0  0  0  0  0
  -12.9920    9.6690    6.7990 O   0  0  0  0  0
  -14.4250    8.2970    4.3210 C   0  0  0  0  0
  -15.5440    7.2690    4.4760 C   0  0  0  0  0
  -15.2030    5.9110    3.8870 C   0  0  0  0  0
  -15.5890    4.8830    4.4930 O   0  0  0  0  0
  -14.5480    5.8680    2.8220 O   0  0  0  0  0
  -12.7650   11.0780    5.0730 N   0  0  0  0  0
  -11.5490   11.6720    5.6100 C   0  0  0  0  0
  -10.4730   10.8130    6.2570 C   0  0  0  0  0
  -10.6930    9.6810    6.6700 O   0  0  0  0  0
   -9.2870   11.3940    6.3610 N   0  0  0  0  0
   -8.1300   10.7260    6.9390 C   0  0  0  0  0
   -8.3490   10.2930    8.3970 C   0  0  0  0  0
   -7.7820    9.2970    8.8430 O   0  0  0  0  0
   -6.8820   11.6550    6.8460 C   0  0  0  0  0
   -5.6110   10.8940    7.2340 C   0  0  0  0  0
   -7.0580   12.8580    7.7660 C   0  0  0  0  0
   -5.2520    9.7630    6.2950 C   0  0  0  0  0
   -9.1790   11.0340    9.1300 N   0  0  0  0  0
   -9.4580   10.7310   10.5340 C   0  0  0  0  0
  -10.0820    9.3770   10.7490 C   0  0  0  0  0
   -9.9930    8.8130   11.8300 O   0  0  0  0  0
  -10.3870   11.7780   11.1460 C   0  0  0  0  0
   -9.7020   12.9930   11.3600 O   0  0  0  0  0
  -10.7370    8.8630    9.7250 N   0  0  0  0  0
  -11.3680    7.5770    9.8420 C   0  0  0  0  0
  -10.3860    6.4720    9.5130 C   0  0  0  0  0
  -10.7790    5.3240    9.3720 O   0  0  0  0  0
  -12.5570    7.5130    8.9040 C   0  0  0  0  0
  -13.6010    8.5650    9.2210 C   0  0  0  0  0
  -14.3860    8.9090    8.3180 O   0  0  0  0  0
  -13.6490    9.0400   10.3740 O   0  0  0  0  0
   -9.1080    6.8160    9.4020 N   0  0  0  0  0
   -8.0810    5.8280    9.0710 C   0  0  0  0  0
   -7.0340    5.6800   10.1590 C   0  0  0  0  0
   -6.2690    4.7180   10.1740 O   0  0  0  0  0
   -7.4070    6.2090    7.7680 C   0  0  0  0  0
   -8.4400    6.2460    6.6600 C   0  0  0  0  0
   -7.7910    6.6730    5.3750 C   0  0  0  0  0
   -9.0850    4.8820    6.5440 C   0  0  0  0  0
   -6.9940    6.6600   11.0510 N   0  0  0  0  0
   -6.0680    6.6510   12.1710 C   0  0  0  0  0
   -6.8580    6.8810   13.4580 C   0  0  0  0  0
   -7.8510    7.6060   13.4560 O   0  0  0  0  0
   -4.9950    7.7290   11.9830 C   0  0  0  0  0
   -4.0440    7.4460   10.8450 C   0  0  0  0  0
   -4.3670    7.8110    9.5420 C   0  0  0  0  0
   -2.8270    6.8030   11.0820 C   0  0  0  0  0
   -3.5020    7.5520    8.4970 C   0  0  0  0  0
   -1.9480    6.5330   10.0390 C   0  0  0  0  0
   -2.2820    6.9100    8.7380 C   0  0  0  0  0
   -6.4190    6.2430   14.5430 N   0  0  0  0  0
   -7.0670    6.3420   15.8570 C   0  0  0  0  0
   -6.7600    7.6400   16.5800 C   0  0  0  0  0
   -6.2550    7.5610   17.7210 O   0  0  0  0  0
   -6.6300    5.1760   16.7480 C   0  0  0  0  0
   -7.2980    3.8720   16.3720 C   0  0  0  0  0
   -6.8330    2.8080   16.8380 O   0  0  0  0  0
   -8.2940    3.9130   15.6170 O   0  0  0  0  0
   -7.0370    8.7120   16.0080 O   0  0  0  0  0
   -7.5278    6.5520  -16.2098 H   0  0  0  0  0
   -7.7645    7.6688  -14.9958 H   0  0  0  0  0
   -6.5864    7.9256  -16.1461 H   0  0  0  0  0
   -5.3368    6.0291  -15.3847 H   0  0  0  0  0
   -6.1514    7.9590  -13.1847 H   0  0  0  0  0
   -4.8540    8.2168  -14.4246 H   0  0  0  0  0
   -5.7306    5.8376  -12.2206 H   0  0  0  0  0
   -5.0416    4.2782  -13.9825 H   0  0  0  0  0
   -7.5410    3.0477  -13.3288 H   0  0  0  0  0
   -5.6111    1.7357  -14.1871 H   0  0  0  0  0
   -6.0689    1.1194  -12.5374 H   0  0  0  0  0
   -4.7158    3.7012  -11.8411 H   0  0  0  0  0
   -5.7384    5.0899  -11.3701 H   0  0  0  0  0
   -5.9384    3.8191   -8.9169 H   0  0  0  0  0
   -6.4559    6.7926   -9.3391 H   0  0  0  0  0
   -4.8044    6.0227   -9.4019 H   0  0  0  0  0
   -4.1970    4.6122   -7.2645 H   0  0  0  0  0
   -7.1156    7.7649   -7.3447 H   0  0  0  0  0
   -3.8599    4.9717   -4.8386 H   0  0  0  0  0
   -6.7931    8.1306   -4.9000 H   0  0  0  0  0
   -5.6438    7.5012   -3.0648 H   0  0  0  0  0
   -7.2582    3.5232   -7.2943 H   0  0  0  0  0
  -10.0796    4.1816   -7.8659 H   0  0  0  0  0
   -8.8367    2.1449   -5.9651 H   0  0  0  0  0
   -9.6702    1.8023   -7.5126 H   0  0  0  0  0
  -11.0532    3.2288   -5.2225 H   0  0  0  0  0
  -12.0354    3.3705   -7.4814 H   0  0  0  0  0
  -12.0067    1.5944   -7.6076 H   0  0  0  0  0
  -13.0547    2.3847   -6.4042 H   0  0  0  0  0
  -10.9690    0.2650   -5.7492 H   0  0  0  0  0
  -10.2507    1.1161   -4.3597 H   0  0  0  0  0
  -12.0181    1.0993   -4.5769 H   0  0  0  0  0
  -10.7581    6.0013   -6.9597 H   0  0  0  0  0
   -9.6537    7.0726   -4.4244 H   0  0  0  0  0
  -11.3604    8.7122   -4.6357 H   0  0  0  0  0
  -12.1130    7.7920   -5.9910 H   0  0  0  0  0
  -10.9670    7.9767   -8.3863 H   0  0  0  0  0
   -9.1789    9.9283   -3.9800 H   0  0  0  0  0
   -7.0012   11.0937   -8.3563 H   0  0  0  0  0
   -7.2190   11.4636   -4.0695 H   0  0  0  0  0
   -6.1523   12.0318   -6.2315 H   0  0  0  0  0
   -9.9349    5.4098   -2.9065 H   0  0  0  0  0
  -10.9866    3.8623   -1.6658 H   0  0  0  0  0
  -12.4698    4.0257   -2.8269 H   0  0  0  0  0
  -11.3729    6.7861   -1.0249 H   0  0  0  0  0
  -12.9921    6.1765    1.2747 H   0  0  0  0  0
  -12.8958    8.6642    1.6904 H   0  0  0  0  0
  -11.8915    8.7521    0.1670 H   0  0  0  0  0
  -10.1538    7.5023    1.1587 H   0  0  0  0  0
  -10.2350    9.8587    1.8564 H   0  0  0  0  0
  -11.2483    9.4157    3.2521 H   0  0  0  0  0
   -9.5700    8.8295    3.1485 H   0  0  0  0  0
  -12.0541    7.0478    3.4938 H   0  0  0  0  0
  -11.5845    5.8321    2.2803 H   0  0  0  0  0
  -10.3664    6.4871    3.4021 H   0  0  0  0  0
  -15.0970    6.0124    1.4253 H   0  0  0  0  0
  -16.8848    6.8226   -0.7132 H   0  0  0  0  0
  -17.9503    6.4808    2.0110 H   0  0  0  0  0
  -17.0351    5.0707    1.2846 H   0  0  0  0  0
  -19.5082    6.4390    0.2346 H   0  0  0  0  0
  -19.3474    4.7501    0.8769 H   0  0  0  0  0
  -19.8346    6.1681   -1.7204 H   0  0  0  0  0
  -18.8634    8.3080   -0.0822 H   0  0  0  0  0
  -17.9217   10.9366    0.0948 H   0  0  0  0  0
  -20.1931   10.3714   -0.6411 H   0  0  0  0  0
  -20.6213    9.8833    1.0170 H   0  0  0  0  0
  -20.2392   11.5856    0.6606 H   0  0  0  0  0
  -17.2778   12.2937    1.6220 H   0  0  0  0  0
  -18.1702   12.3514    4.2400 H   0  0  0  0  0
  -16.4930   12.8993    3.6643 H   0  0  0  0  0
  -14.9454   10.9061    3.4198 H   0  0  0  0  0
  -15.3752    9.3580    5.9297 H   0  0  0  0  0
  -13.5066    7.8554    4.7079 H   0  0  0  0  0
  -14.3506    8.5565    3.2650 H   0  0  0  0  0
  -16.4150    7.6490    3.9420 H   0  0  0  0  0
  -15.7163    7.1299    5.5433 H   0  0  0  0  0
  -16.0715    5.1403    5.2821 H   0  0  0  0  0
  -13.1321   11.4047    4.1792 H   0  0  0  0  0
  -11.9028   12.3067    6.4224 H   0  0  0  0  0
  -11.0558   12.0974    4.7360 H   0  0  0  0  0
   -9.1800   12.3499    6.0217 H   0  0  0  0  0
   -7.9693    9.8165    6.3601 H   0  0  0  0  0
   -6.7851   11.9968    5.8155 H   0  0  0  0  0
   -5.7879   10.4529    8.2149 H   0  0  0  0  0
   -4.7880   11.6082    7.2056 H   0  0  0  0  0
   -7.9448   13.4164    7.4662 H   0  0  0  0  0
   -7.1740   12.5139    8.7937 H   0  0  0  0  0
   -6.1806   13.5007    7.6935 H   0  0  0  0  0
   -6.0653    9.0376    6.2743 H   0  0  0  0  0
   -5.0930   10.1611    5.2928 H   0  0  0  0  0
   -4.3400    9.2785    6.6438 H   0  0  0  0  0
   -9.6345   11.8382    8.6986 H   0  0  0  0  0
   -8.4833   10.7386   11.0218 H   0  0  0  0  0
  -10.7516   11.4070   12.1039 H   0  0  0  0  0
  -11.2144   11.9575   10.4595 H   0  0  0  0  0
  -10.3036   13.6349   11.7442 H   0  0  0  0  0
  -10.7956    9.3801    8.8477 H   0  0  0  0  0
  -11.7071    7.4394   10.8687 H   0  0  0  0  0
  -13.0214    6.5331    9.0149 H   0  0  0  0  0
  -12.1968    7.6903    7.8906 H   0  0  0  0  0
  -12.9602    8.6424   10.9116 H   0  0  0  0  0
   -8.8372    7.7881    9.5504 H   0  0  0  0  0
   -8.5834    4.8656    8.9739 H   0  0  0  0  0
   -6.6396    5.4736    7.5262 H   0  0  0  0  0
   -6.9466    7.1917    7.8698 H   0  0  0  0  0
   -9.2195    6.9730    6.8881 H   0  0  0  0  0
   -7.3593    7.6660    5.4999 H   0  0  0  0  0
   -7.0054    5.9642    5.1132 H   0  0  0  0  0
   -8.5388    6.6976    4.5824 H   0  0  0  0  0
   -8.3218    4.1392    6.3119 H   0  0  0  0  0
   -9.5662    4.6276    7.4884 H   0  0  0  0  0
   -9.8299    4.9002    5.7485 H   0  0  0  0  0
   -7.6348    7.4468   10.9477 H   0  0  0  0  0
   -5.5597    5.6885   12.2279 H   0  0  0  0  0
   -4.4056    7.7657   12.8991 H   0  0  0  0  0
   -5.5079    8.6633   11.7547 H   0  0  0  0  0
   -5.3162    8.3085    9.3430 H   0  0  0  0  0
   -2.5628    6.5090   12.0978 H   0  0  0  0  0
   -3.7699    7.8481    7.4828 H   0  0  0  0  0
   -1.0020    6.0290   10.2370 H   0  0  0  0  0
   -1.5974    6.7059    7.9148 H   0  0  0  0  0
   -5.5898    5.6554   14.4559 H   0  0  0  0  0
   -8.1400    6.3113   15.6680 H   0  0  0  0  0
   -6.1318    6.6374   17.9519 H   0  0  0  0  0
   -6.9133    5.4138   17.7733 H   0  0  0  0  0
   -5.5542    5.0478   16.6279 H   0  0  0  0  0
   -6.0727    3.0068   17.3894 H   0  0  0  0  0
  1  2  1  0  0  0
  2  3  1  0  0  0
  2  5  1  0  0  0
  3  4  2  0  0  0
  3  9  1  0  0  0
  5  6  1  0  0  0
  6  7  1  0  0  0
  6  8  2  0  0  0
  9 10  1  0  0  0
 10 11  1  0  0  0
 10 13  1  0  0  0
 11 12  2  0  0  0
 11 17  1  0  0  0
 13 14  1  0  0  0
 14 15  2  0  0  0
 14 16  1  0  0  0
 17 18  1  0  0  0
 18 19  1  0  0  0
 18 21  1  0  0  0
 19 20  2  0  0  0
 19 29  1  0  0  0
 21 22  1  0  0  0
 22 23  4  0  0  0
 22 24  4  0  0  0
 23 25  4  0  0  0
 24 26  4  0  0  0
 25 27  4  0  0  0
 26 27  4  0  0  0
 27 28  1  0  0  0
 29 30  1  0  0  0
 30 31  1  0  0  0
 30 33  1  0  0  0
 31 32  2  0  0  0
 31 37  1  0  0  0
 33 34  1  0  0  0
 34 35  1  0  0  0
 34 36  1  0  0  0
 37 38  1  0  0  0
 38 39  1  0  0  0
 38 41  1  0  0  0
 39 40  2  0  0  0
 39 51  1  0  0  0
 41 42  1  0  0  0
 42 43  4  0  0  0
 42 44  4  0  0  0
 43 45  4  0  0  0
 44 46  4  0  0  0
 44 47  4  0  0  0
 45 46  4  0  0  0
 46 48  4  0  0  0
 47 49  4  0  0  0
 48 50  4  0  0  0
 49 50  4  0  0  0
 51 52  1  0  0  0
 52 53  1  0  0  0
 53 54  2  0  0  0
 53 55  1  0  0  0
 55 56  1  0  0  0
 56 57  1  0  0  0
 56 59  1  0  0  0
 57 58  2  0  0  0
 57 63  1  0  0  0
 59 60  1  0  0  0
 60 61  1  0  0  0
 60 62  1  0  0  0
 63 64  1  0  0  0
 64 65  1  0  0  0
 64 67  1  0  0  0
 65 66  2  0  0  0
 65 72  1  0  0  0
 67 68  1  0  0  0
 68 69  1  0  0  0
 69 70  2  0  0  0
 69 71  1  0  0  0
 72 73  1  0  0  0
 73 74  1  0  0  0
 73 76  1  0  0  0
 74 75  2  0  0  0
 74 77  1  0  0  0
 77 78  1  0  0  0
 78 79  1  0  0  0
 79 80  2  0  0  0
 79 81  1  0  0  0
 81 82  1  0  0  0
 82 83  1  0  0  0
 82 85  1  0  0  0
 83 84  2  0  0  0
 83 90  1  0  0  0
 85 86  1  0  0  0
 86 87  1  0  0  0
 87 88  1  0  0  0
 87 89  2  0  0  0
 90 91  1  0  0  0
 91 92  1  0  0  0
 92 93  2  0  0  0
 92 94  1  0  0  0
 94 95  1  0  0  0
 95 96  1  0  0  0
 95 98  1  0  0  0
 96 97  2  0  0  0
 96102  1  0  0  0
 98 99  1  0  0  0
 98100  1  0  0  0
 99101  1  0  0  0
102103  1  0  0  0
103104  1  0  0  0
103106  1  0  0  0
104105  2  0  0  0
104108  1  0  0  0
106107  1  0  0  0
108109  1  0  0  0
109110  1  0  0  0
109112  1  0  0  0
110111  2  0  0  0
110116  1  0  0  0
112113  1  0  0  0
113114  2  0  0  0
113115  1  0  0  0
116117  1  0  0  0
117118  1  0  0  0
117120  1  0  0  0
118119  2  0  0  0
118124  1  0  0  0
120121  1  0  0  0
121122  1  0  0  0
121123  1  0  0  0
124125  1  0  0  0
125126  1  0  0  0
125128  1  0  0  0
126127  2  0  0  0
126135  1  0  0  0
128129  1  0  0  0
129130  4  0  0  0
129131  4  0  0  0
130132  4  0  0  0
131133  4  0  0  0
132134  4  0  0  0
133134  4  0  0  0
135136  1  0  0  0
136137  1  0  0  0
136139  1  0  0  0
137138  1  0  0  0
137143  2  0  0  0
139140  1  0  0  0
140141  1  0  0  0
140142  2  0  0  0
  1144  1  0  0  0
  1145  1  0  0  0
  1146  1  0  0  0
  2147  1  0  0  0
  5148  1  0  0  0
  5149  1  0  0  0
  7150  1  0  0  0
  9151  1  0  0  0
 10152  1  0  0  0
 13153  1  0  0  0
 13154  1  0  0  0
 16155  1  0  0  0
 17156  1  0  0  0
 18157  1  0  0  0
 21158  1  0  0  0
 21159  1  0  0  0
 23160  1  0  0  0
 24161  1  0  0  0
 25162  1  0  0  0
 26163  1  0  0  0
 28164  1  0  0  0
 29165  1  0  0  0
 30166  1  0  0  0
 33167  1  0  0  0
 33168  1  0  0  0
 34169  1  0  0  0
 35170  1  0  0  0
 35171  1  0  0  0
 35172  1  0  0  0
 36173  1  0  0  0
 36174  1  0  0  0
 36175  1  0  0  0
 37176  1  0  0  0
 38177  1  0  0  0
 41178  1  0  0  0
 41179  1  0  0  0
 43180  1  0  0  0
 47181  1  0  0  0
 48182  1  0  0  0
 49183  1  0  0  0
 50184  1  0  0  0
 51185  1  0  0  0
 52186  1  0  0  0
 52187  1  0  0  0
 55188  1  0  0  0
 56189  1  0  0  0
 59190  1  0  0  0
 59191  1  0  0  0
 60192  1  0  0  0
 61193  1  0  0  0
 61194  1  0  0  0
 61195  1  0  0  0
 62196  1  0  0  0
 62197  1  0  0  0
 62198  1  0  0  0
 63199  1  0  0  0
 64200  1  0  0  0
 67201  1  0  0  0
 67202  1  0  0  0
 68203  1  0  0  0
 68204  1  0  0  0
 71205  1  0  0  0
 72206  1  0  0  0
 73207  1  0  0  0
 76208  1  0  0  0
 76209  1  0  0  0
 76210  1  0  0  0
 77211  1  0  0  0
 78212  1  0  0  0
 78213  1  0  0  0
 81214  1  0  0  0
 82215  1  0  0  0
 85216  1  0  0  0
 85217  1  0  0  0
 86218  1  0  0  0
 86219  1  0  0  0
 88220  1  0  0  0
 90221  1  0  0  0
 91222  1  0  0  0
 91223  1  0  0  0
 94224  1  0  0  0
 95225  1  0  0  0
 98226  1  0  0  0
 99227  1  0  0  0
 99228  1  0  0  0
100229  1  0  0  0
100230  1  0  0  0
100231  1  0  0  0
101232  1  0  0  0
101233  1  0  0  0
101234  1  0  0  0
102235  1  0  0  0
103236  1  0  0  0
106237  1  0  0  0
106238  1  0  0  0
107239  1  0  0  0
108240  1  0  0  0
109241  1  0  0  0
112242  1  0  0  0
112243  1  0  0  0
115244  1  0  0  0
116245  1  0  0  0
117246  1  0  0  0
120247  1  0  0  0
120248  1  0  0  0
121249  1  0  0  0
122250  1  0  0  0
122251  1  0  0  0
122252  1  0  0  0
123253  1  0  0  0
123254  1  0  0  0
123255  1  0  0  0
124256  1  0  0  0
125257  1  0  0  0
128258  1  0  0  0
128259  1  0  0  0
130260  1  0  0  0
131261  1  0  0  0
132262  1  0  0  0
133263  1  0  0  0
134264  1  0  0  0
135265  1  0  0  0
136266  1  0  0  0
138267  1  0  0  0
139268  1  0  0  0
139269  1  0  0  0
141270  1  0  0  0
M  END
$$$$
