### 
### Created by X-TOOL on Mon Sep 10 21:12:50 2018
### 

@<TRIPOS>MOLECULE
1n4m_ligand
  264   267     1     0     0
SMALL
GAST_HUCK


@<TRIPOS>ATOM
      1 N          -7.0680    7.2190  -15.5900 N.4       1 ASP         0.2391
      2 CA         -6.0740    6.4980  -14.7330 C.3       1 ASP         0.0764
      3 C          -6.7410    5.3900  -13.9100 C.2       1 ASP         0.2285
      4 O          -7.8950    5.5220  -13.4980 O.2       1 ASP        -0.3906
      5 CB         -5.3860    7.4940  -13.8060 C.3       1 ASP         0.0607
      6 CG         -4.3860    6.8380  -12.8960 C.2       1 ASP         0.0425
      7 OD1        -4.7850    5.9600  -12.1090 O.co2     1 ASP        -0.5686
      8 OD2        -3.1980    7.2000  -12.9660 O.co2     1 ASP        -0.5686
      9 N          -6.0060    4.3120  -13.6520 N.am      1 ASP        -0.2594
     10 CA         -6.5440    3.1720  -12.9060 C.3       1 ASP         0.1424
     11 C          -6.8010    3.3560  -11.4040 C.2       1 ASP         0.2057
     12 O          -7.4910    2.5380  -10.7920 O.2       1 ASP        -0.3943
     13 CB         -5.6460    1.9400  -13.1170 C.3       1 ASP         0.0406
     14 CG         -4.2080    2.1540  -12.6380 C.2       1 ASP         0.0393
     15 OD1        -3.3550    1.2920  -12.9400 O.co2     1 ASP        -0.5688
     16 OD2        -3.9260    3.1690  -11.9620 O.co2     1 ASP        -0.5688
     17 N          -6.2730    4.4250  -10.8110 N.am      1 TYR        -0.2620
     18 CA         -6.4400    4.6710   -9.3760 C.3       1 TYR         0.1390
     19 C          -7.8730    4.6630   -8.8580 C.2       1 TYR         0.2057
     20 O          -8.7790    5.2680   -9.4450 O.2       1 TYR        -0.3942
     21 CB         -5.8070    5.9960   -8.9750 C.3       1 TYR         0.0163
     22 CG         -5.6690    6.1700   -7.4810 C.ar      1 TYR        -0.0493
     23 CD1        -4.7640    5.3900   -6.7530 C.ar      1 TYR        -0.0685
     24 CD2        -6.3980    7.1530   -6.7980 C.ar      1 TYR        -0.0685
     25 CE1        -4.5730    5.5880   -5.3860 C.ar      1 TYR        -0.0398
     26 CE2        -6.2190    7.3630   -5.4190 C.ar      1 TYR        -0.0398
     27 CZ         -5.2980    6.5780   -4.7210 C.ar      1 TYR         0.0805
     28 OH         -5.0730    6.7940   -3.3740 O.3       1 TYR        -0.3376
     29 N          -8.0560    3.9850   -7.7310 N.am      1 LEU        -0.2636
     30 CA         -9.3570    3.8840   -7.1060 C.3       1 LEU         0.1312
     31 C          -9.4920    4.8050   -5.9050 C.2       1 LEU         0.2040
     32 O          -8.8670    4.5850   -4.8600 O.2       1 LEU        -0.3944
     33 CB         -9.6320    2.4570   -6.6420 C.3       1 LEU        -0.0101
     34 CG        -10.9700    2.3830   -5.9050 C.3       1 LEU        -0.0425
     35 CD1       -12.0970    2.4370   -6.9220 C.3       1 LEU        -0.0625
     36 CD2       -11.0580    1.1300   -5.0920 C.3       1 LEU        -0.0625
     37 N         -10.3040    5.8440   -6.0600 N.am      1 TRP        -0.2627
     38 CA        -10.5510    6.7590   -4.9580 C.3       1 TRP         0.1352
     39 C         -11.5060    5.9690   -4.0690 C.2       1 TRP         0.2050
     40 O         -12.7100    5.9240   -4.3060 O.2       1 TRP        -0.3943
     41 CB        -11.1840    8.0470   -5.4810 C.3       1 TRP         0.0042
     42 CG        -10.2900    8.7430   -6.4500 C.2       1 TRP        -0.0418
     43 CD1       -10.2720    8.5930   -7.8160 C.2       1 TRP         0.0167
     44 CD2        -9.2110    9.6350   -6.1310 C.ar      1 TRP        -0.0214
     45 NE1        -9.2480    9.3350   -8.3580 N.pl3     1 TRP        -0.2890
     46 CE2        -8.5790    9.9800   -7.3510 C.ar      1 TRP         0.0603
     47 CE3        -8.7150   10.1750   -4.9350 C.ar      1 TRP        -0.0747
     48 CZ2        -7.4740   10.8420   -7.4070 C.ar      1 TRP        -0.0443
     49 CZ3        -7.6140   11.0360   -4.9910 C.ar      1 TRP        -0.0792
     50 CH2        -7.0090   11.3580   -6.2200 C.ar      1 TRP        -0.0768
     51 N         -10.9390    5.3190   -3.0610 N.am      1 GLY        -0.2663
     52 CA        -11.7240    4.4820   -2.1760 C.3       1 GLY         0.1201
     53 C         -12.5310    5.1010   -1.0580 C.2       1 GLY         0.2007
     54 O         -13.4840    4.4770   -0.5870 O.2       1 GLY        -0.3947
     55 N         -12.1690    6.3010   -0.6110 N.am      1 LEU        -0.2640
     56 CA        -12.9220    6.9160    0.4770 C.3       1 LEU         0.1312
     57 C         -14.3240    7.2820    0.0410 C.2       1 LEU         0.2039
     58 O         -14.5110    8.0860   -0.8630 O.2       1 LEU        -0.3944
     59 CB        -12.2020    8.1530    1.0230 C.3       1 LEU        -0.0101
     60 CG        -10.9450    7.8300    1.8330 C.3       1 LEU        -0.0425
     61 CD1       -10.4650    9.0730    2.5760 C.3       1 LEU        -0.0625
     62 CD2       -11.2600    6.7200    2.8230 C.3       1 LEU        -0.0625
     63 N         -15.3130    6.6800    0.6850 N.am      1 GLU        -0.2636
     64 CA        -16.7020    6.9560    0.3530 C.3       1 GLU         0.1325
     65 C         -17.0010    8.4120    0.7350 C.2       1 GLU         0.2040
     66 O         -16.1570    9.0870    1.3230 O.2       1 GLU        -0.3944
     67 CB        -17.6150    5.9760    1.1050 C.3       1 GLU        -0.0008
     68 CG        -18.8680    5.5620    0.3300 C.3       1 GLU         0.0044
     69 CD        -18.5500    5.0580   -1.0750 C.2       1 GLU         0.0350
     70 OE1       -17.6520    4.1950   -1.2070 O.co2     1 GLU        -0.5690
     71 OE2       -19.2000    5.5240   -2.0430 O.co2     1 GLU        -0.5690
     72 N         -18.1880    8.9010    0.4000 N.am      1 ALA        -0.2640
     73 CA        -18.5320   10.2830    0.7180 C.3       1 ALA         0.1282
     74 C         -18.2350   10.5880    2.1760 C.2       1 ALA         0.2034
     75 O         -18.6010    9.8300    3.0740 O.2       1 ALA        -0.3944
     76 CB        -20.0020   10.5500    0.4170 C.3       1 ALA        -0.0244
     77 N         -17.5620   11.7050    2.4050 N.am      1 GLY        -0.2664
     78 CA        -17.2260   12.0980    3.7580 C.3       1 GLY         0.1201
     79 C         -16.5790   11.0400    4.6360 C.2       1 GLY         0.2007
     80 O         -17.1660   10.6470    5.6410 O.2       1 GLY        -0.3947
     81 N         -15.3840   10.5720    4.2780 N.am      1 GLU        -0.2639
     82 CA        -14.6980    9.5840    5.1060 C.3       1 GLU         0.1324
     83 C         -13.4020   10.1180    5.7300 C.2       1 GLU         0.2038
     84 O         -12.9920    9.6690    6.7990 O.2       1 GLU        -0.3944
     85 CB        -14.4250    8.2970    4.3210 C.3       1 GLU        -0.0008
     86 CG        -15.5440    7.2690    4.4760 C.3       1 GLU         0.0044
     87 CD        -15.2030    5.9110    3.8870 C.2       1 GLU         0.0350
     88 OE1       -15.5890    4.8830    4.4930 O.co2     1 GLU        -0.5690
     89 OE2       -14.5480    5.8680    2.8220 O.co2     1 GLU        -0.5690
     90 N         -12.7650   11.0780    5.0730 N.am      1 GLY        -0.2664
     91 CA        -11.5490   11.6720    5.6100 C.3       1 GLY         0.1201
     92 C         -10.4730   10.8130    6.2570 C.2       1 GLY         0.2008
     93 O         -10.6930    9.6810    6.6700 O.2       1 GLY        -0.3947
     94 N          -9.2870   11.3940    6.3610 N.am      1 ILE        -0.2637
     95 CA         -8.1300   10.7260    6.9390 C.3       1 ILE         0.1335
     96 C          -8.3490   10.2930    8.3970 C.2       1 ILE         0.2042
     97 O          -7.7820    9.2970    8.8430 O.2       1 ILE        -0.3944
     98 CB         -6.8820   11.6550    6.8460 C.3       1 ILE        -0.0037
     99 CG1        -5.6110   10.8940    7.2340 C.3       1 ILE        -0.0491
    100 CG2        -7.0580   12.8580    7.7660 C.3       1 ILE        -0.0582
    101 CD1        -5.2520    9.7630    6.2950 C.3       1 ILE        -0.0648
    102 N          -9.1790   11.0340    9.1300 N.am      1 SER        -0.2616
    103 CA         -9.4580   10.7310   10.5340 C.3       1 SER         0.1539
    104 C         -10.0820    9.3770   10.7490 C.2       1 SER         0.2063
    105 O          -9.9930    8.8130   11.8300 O.2       1 SER        -0.3943
    106 CB        -10.3870   11.7780   11.1460 C.3       1 SER         0.0843
    107 OG         -9.7020   12.9930   11.3600 O.3       1 SER        -0.3903
    108 N         -10.7370    8.8630    9.7250 N.am      1 ASP        -0.2621
    109 CA        -11.3680    7.5770    9.8420 C.3       1 ASP         0.1423
    110 C         -10.3860    6.4720    9.5130 C.2       1 ASP         0.2056
    111 O         -10.7790    5.3240    9.3720 O.2       1 ASP        -0.3943
    112 CB        -12.5570    7.5130    8.9040 C.3       1 ASP         0.0406
    113 CG        -13.6010    8.5650    9.2210 C.2       1 ASP         0.0393
    114 OD1       -14.3860    8.9090    8.3180 O.co2     1 ASP        -0.5688
    115 OD2       -13.6490    9.0400   10.3740 O.co2     1 ASP        -0.5688
    116 N          -9.1080    6.8160    9.4020 N.am      1 LEU        -0.2636
    117 CA         -8.0810    5.8280    9.0710 C.3       1 LEU         0.1312
    118 C          -7.0340    5.6800   10.1590 C.2       1 LEU         0.2040
    119 O          -6.2690    4.7180   10.1740 O.2       1 LEU        -0.3944
    120 CB         -7.4070    6.2090    7.7680 C.3       1 LEU        -0.0101
    121 CG         -8.4400    6.2460    6.6600 C.3       1 LEU        -0.0425
    122 CD1        -7.7910    6.6730    5.3750 C.3       1 LEU        -0.0625
    123 CD2        -9.0850    4.8820    6.5440 C.3       1 LEU        -0.0625
    124 N          -6.9940    6.6600   11.0510 N.am      1 PHE        -0.2619
    125 CA         -6.0680    6.6510   12.1710 C.3       1 PHE         0.1404
    126 C          -6.8580    6.8810   13.4580 C.2       1 PHE         0.2055
    127 O          -7.8510    7.6060   13.4560 O.2       1 PHE        -0.3942
    128 CB         -4.9950    7.7290   11.9830 C.3       1 PHE         0.0214
    129 CG         -4.0440    7.4460   10.8450 C.ar      1 PHE        -0.0386
    130 CD1        -4.3670    7.8110    9.5420 C.ar      1 PHE        -0.0601
    131 CD2        -2.8270    6.8030   11.0820 C.ar      1 PHE        -0.0601
    132 CE1        -3.5020    7.5520    8.4970 C.ar      1 PHE        -0.0686
    133 CE2        -1.9480    6.5330   10.0390 C.ar      1 PHE        -0.0686
    134 CZ         -2.2820    6.9100    8.7380 C.ar      1 PHE        -0.0687
    135 N          -6.4190    6.2430   14.5430 N.am      1 ASP        -0.2678
    136 CA         -7.0670    6.3420   15.8570 C.3       1 ASP         0.1058
    137 C          -6.7600    7.6400   16.5800 C.2       1 ASP         0.0618
    138 O          -6.2550    7.5610   17.7210 O.co2     1 ASP        -0.5665
    139 CB         -6.6300    5.1760   16.7480 C.3       1 ASP         0.0351
    140 CG         -7.2980    3.8720   16.3720 C.2       1 ASP         0.0387
    141 OD1        -6.8330    2.8080   16.8380 O.co2     1 ASP        -0.5688
    142 OD2        -8.2940    3.9130   15.6170 O.co2     1 ASP        -0.5688
    143 OXT        -7.0370    8.7120   16.0080 O.co2     1 ASP        -0.5665
    144 H1         -6.5981    7.9388  -16.1164 H         1 ASP         0.2016
    145 H2         -7.7747    7.6373  -15.0055 H         1 ASP         0.2016
    146 H3         -7.5002    6.5663  -16.2250 H         1 ASP         0.2016
    147 H4         -5.3170    6.0388  -15.3858 H         1 ASP         0.1117
    148 H5         -6.1512    7.9894  -13.1903 H         1 ASP         0.0512
    149 H6         -4.8657    8.2448  -14.4188 H         1 ASP         0.0512
    150 H7         -5.0605    4.2788  -13.9761 H         1 ASP         0.1886
    151 H8         -7.5229    2.9518  -13.3568 H         1 ASP         0.0819
    152 H9         -5.6252    1.7021  -14.1907 H         1 ASP         0.0478
    153 H10        -6.0772    1.0937  -12.5621 H         1 ASP         0.0478
    154 H11        -5.7489    5.0769  -11.3591 H         1 TYR         0.1885
    155 H12        -5.9035    3.8638   -8.8558 H         1 TYR         0.0821
    156 H13        -6.4326    6.8127   -9.3643 H         1 TYR         0.0453
    157 H14        -4.8055    6.0542   -9.4262 H         1 TYR         0.0453
    158 H15        -4.2002    4.6165   -7.2617 H         1 TYR         0.0530
    159 H16        -7.1116    7.7615   -7.3416 H         1 TYR         0.0530
    160 H17        -3.8638    4.9750   -4.8416 H         1 TYR         0.0525
    161 H18        -6.7899    8.1263   -4.9028 H         1 TYR         0.0525
    162 H19        -4.4222    6.1772   -3.0599 H         1 TYR         0.2458
    163 H20        -7.2739    3.5322   -7.3029 H         1 LEU         0.1883
    164 H21       -10.1149    4.1670   -7.8513 H         1 LEU         0.0800
    165 H22        -8.8273    2.1349   -5.9648 H         1 LEU         0.0315
    166 H23        -9.6633    1.7913   -7.5171 H         1 LEU         0.0315
    167 H24       -11.0547    3.2473   -5.2299 H         1 LEU         0.0298
    168 H25       -13.0642    2.3843   -6.4006 H         1 LEU         0.0232
    169 H26       -12.0070    1.5871   -7.6145 H         1 LEU         0.0232
    170 H27       -12.0360    3.3787   -7.4873 H         1 LEU         0.0232
    171 H28       -10.2354    1.1080   -4.3621 H         1 LEU         0.0232
    172 H29       -10.9826    0.2561   -5.7558 H         1 LEU         0.0232
    173 H30       -12.0207    1.1047   -4.5604 H         1 LEU         0.0232
    174 H31       -10.7492    5.9983   -6.9420 H         1 TRP         0.1884
    175 H32        -9.6218    6.9986   -4.4203 H         1 TRP         0.0815
    176 H33       -11.3817    8.7180   -4.6321 H         1 TRP         0.0397
    177 H34       -12.1316    7.8011   -5.9825 H         1 TRP         0.0397
    178 H35       -10.9663    7.9772   -8.3858 H         1 TRP         0.0795
    179 H36        -9.0206    9.3959   -9.3607 H         1 TRP         0.2216
    180 H37        -9.1763    9.9296   -3.9852 H         1 TRP         0.0540
    181 H38        -7.0038   11.0923   -8.3511 H         1 TRP         0.0541
    182 H39        -7.2212   11.4613   -4.0745 H         1 TRP         0.0510
    183 H40        -6.1570   12.0281   -6.2314 H         1 TRP         0.0530
    184 H41        -9.9545    5.4080   -2.9095 H         1 GLY         0.1881
    185 H42       -11.0244    3.7747   -1.7067 H         1 GLY         0.0763
    186 H43       -12.4336    3.9299   -2.8098 H         1 GLY         0.0763
    187 H44       -11.3885    6.7766   -1.0168 H         1 LEU         0.1883
    188 H45       -12.9994    6.1797    1.2905 H         1 LEU         0.0800
    189 H46       -12.9003    8.7025    1.6713 H         1 LEU         0.0315
    190 H47       -11.9128    8.7889    0.1733 H         1 LEU         0.0315
    191 H48       -10.1517    7.4917    1.1502 H         1 LEU         0.0298
    192 H49        -9.5617    8.8286    3.1542 H         1 LEU         0.0232
    193 H50       -11.2546    9.4199    3.2588 H         1 LEU         0.0232
    194 H51       -10.2325    9.8668    1.8508 H         1 LEU         0.0232
    195 H52       -11.6049    5.8292    2.2775 H         1 LEU         0.0232
    196 H53       -12.0488    7.0562    3.5121 H         1 LEU         0.0232
    197 H54       -10.3543    6.4714    3.3956 H         1 LEU         0.0232
    198 H55       -15.1012    6.0255    1.4108 H         1 GLU         0.1883
    199 H56       -16.8555    6.8271   -0.7286 H         1 GLU         0.0801
    200 H57       -17.9326    6.4525    2.0442 H         1 GLU         0.0330
    201 H58       -17.0349    5.0693    1.3316 H         1 GLU         0.0330
    202 H59       -19.5357    6.4324    0.2491 H         1 GLU         0.0433
    203 H60       -19.3765    4.7600    0.8851 H         1 GLU         0.0433
    204 H61       -18.8502    8.3196   -0.0728 H         1 ALA         0.1883
    205 H62       -17.9198   10.9472    0.0903 H         1 ALA         0.0797
    206 H63       -20.2426   11.5949    0.6625 H         1 ALA         0.0277
    207 H64       -20.6282    9.8778    1.0220 H         1 ALA         0.0277
    208 H65       -20.1962   10.3701   -0.6507 H         1 ALA         0.0277
    209 H66       -17.2833   12.2822    1.6374 H         1 GLY         0.1881
    210 H67       -18.1549   12.4185    4.2523 H         1 GLY         0.0763
    211 H68       -16.5317   12.9488    3.6951 H         1 GLY         0.0763
    212 H69       -14.9540   10.8995    3.4367 H         1 GLU         0.1883
    213 H70       -15.3765    9.3300    5.9337 H         1 GLU         0.0801
    214 H71       -13.4862    7.8541    4.6850 H         1 GLU         0.0330
    215 H72       -14.3225    8.5489    3.2551 H         1 GLU         0.0330
    216 H73       -16.4422    7.6526    3.9700 H         1 GLU         0.0433
    217 H74       -15.7536    7.1410    5.5482 H         1 GLU         0.0433
    218 H75       -13.1249   11.3983    4.1967 H         1 GLY         0.1881
    219 H76       -11.8670   12.3996    6.3712 H         1 GLY         0.0763
    220 H77       -11.0657   12.2016    4.7758 H         1 GLY         0.0763
    221 H78        -9.1821   12.3312    6.0283 H         1 ILE         0.1883
    222 H79        -7.9343    9.8206    6.3458 H         1 ILE         0.0803
    223 H80        -6.7813   12.0092    5.8095 H         1 ILE         0.0345
    224 H81        -5.7545   10.4739    8.2404 H         1 ILE         0.0267
    225 H82        -4.7737   11.6072    7.2503 H         1 ILE         0.0267
    226 H83        -7.9713   13.4033    7.4858 H         1 ILE         0.0235
    227 H84        -6.1885   13.5246    7.6684 H         1 ILE         0.0235
    228 H85        -7.1413   12.5141    8.8075 H         1 ILE         0.0235
    229 H86        -4.3317    9.2732    6.6460 H         1 ILE         0.0230
    230 H87        -5.0912   10.1635    5.2832 H         1 ILE         0.0230
    231 H88        -6.0720    9.0301    6.2733 H         1 ILE         0.0230
    232 H89        -9.6256   11.8225    8.7070 H         1 SER         0.1884
    233 H90        -8.4996   10.7542   11.0733 H         1 SER         0.0823
    234 H91       -10.7672   11.4043   12.1082 H         1 SER         0.0606
    235 H92       -11.2304   11.9553   10.4624 H         1 SER         0.0606
    236 H93        -9.3746   13.3210   10.5307 H         1 SER         0.2097
    237 H94       -10.7944    9.3699    8.8649 H         1 ASP         0.1884
    238 H95       -11.7189    7.4437   10.8760 H         1 ASP         0.0819
    239 H96       -13.0204    6.5190    8.9885 H         1 ASP         0.0478
    240 H97       -12.2028    7.6661    7.8739 H         1 ASP         0.0478
    241 H98        -8.8425    7.7691    9.5475 H         1 LEU         0.1883
    242 H99        -8.5757    4.8543    8.9398 H         1 LEU         0.0800
    243 H100       -6.6333    5.4662    7.5239 H         1 LEU         0.0315
    244 H101       -6.9433    7.2012    7.8709 H         1 LEU         0.0315
    245 H102       -9.2171    6.9805    6.9180 H         1 LEU         0.0298
    246 H103       -8.5448    6.6982    4.5743 H         1 LEU         0.0232
    247 H104       -6.9979    5.9584    5.1096 H         1 LEU         0.0232
    248 H105       -7.3549    7.6751    5.4997 H         1 LEU         0.0232
    249 H106       -9.5460    4.6115    7.5054 H         1 LEU         0.0232
    250 H107       -8.3205    4.1360    6.2812 H         1 LEU         0.0232
    251 H108       -9.8574    4.9070    5.7612 H         1 LEU         0.0232
    252 H109       -7.6222    7.4314   10.9497 H         1 PHE         0.1885
    253 H110       -5.5750    5.6691   12.2239 H         1 PHE         0.0823
    254 H111       -4.4117    7.8044   12.9125 H         1 PHE         0.0474
    255 H112       -5.4967    8.6879   11.7861 H         1 PHE         0.0474
    256 H113       -5.3110    8.3057    9.3441 H         1 PHE         0.0557
    257 H114       -2.5643    6.5106   12.0922 H         1 PHE         0.0557
    258 H115       -3.7685    7.8465    7.4884 H         1 PHE         0.0599
    259 H116       -1.0072    6.0317   10.2359 H         1 PHE         0.0599
    260 H117       -1.6011    6.7070    7.9193 H         1 PHE         0.0559
    261 H118       -5.6060    5.6670   14.4577 H         1 ASP         0.1877
    262 H119       -8.1545    6.2832   15.7028 H         1 ASP         0.0745
    263 H120       -6.8861    5.4147   17.7908 H         1 ASP         0.0471
    264 H121       -5.5408    5.0525   16.6569 H         1 ASP         0.0471
@<TRIPOS>BOND
     1    1    2 1  
     2    2    3 1  
     3    2    5 1  
     4    3    4 2  
     5    3    9 am 
     6    5    6 1  
     7    6    7 ar 
     8    6    8 ar 
     9    9   10 1  
    10   10   11 1  
    11   10   13 1  
    12   11   12 2  
    13   11   17 am 
    14   13   14 1  
    15   14   15 ar 
    16   14   16 ar 
    17   17   18 1  
    18   18   19 1  
    19   18   21 1  
    20   19   20 2  
    21   19   29 am 
    22   21   22 1  
    23   22   23 ar 
    24   22   24 ar 
    25   23   25 ar 
    26   24   26 ar 
    27   25   27 ar 
    28   26   27 ar 
    29   27   28 1  
    30   29   30 1  
    31   30   31 1  
    32   30   33 1  
    33   31   32 2  
    34   31   37 am 
    35   33   34 1  
    36   34   35 1  
    37   34   36 1  
    38   37   38 1  
    39   38   39 1  
    40   38   41 1  
    41   39   40 2  
    42   39   51 am 
    43   41   42 1  
    44   42   43 2  
    45   42   44 1  
    46   43   45 1  
    47   44   46 ar 
    48   44   47 ar 
    49   45   46 1  
    50   46   48 ar 
    51   47   49 ar 
    52   48   50 ar 
    53   49   50 ar 
    54   51   52 1  
    55   52   53 1  
    56   53   54 2  
    57   53   55 am 
    58   55   56 1  
    59   56   57 1  
    60   56   59 1  
    61   57   58 2  
    62   57   63 am 
    63   59   60 1  
    64   60   61 1  
    65   60   62 1  
    66   63   64 1  
    67   64   65 1  
    68   64   67 1  
    69   65   66 2  
    70   65   72 am 
    71   67   68 1  
    72   68   69 1  
    73   69   70 ar 
    74   69   71 ar 
    75   72   73 1  
    76   73   74 1  
    77   73   76 1  
    78   74   75 2  
    79   74   77 am 
    80   77   78 1  
    81   78   79 1  
    82   79   80 2  
    83   79   81 am 
    84   81   82 1  
    85   82   83 1  
    86   82   85 1  
    87   83   84 2  
    88   83   90 am 
    89   85   86 1  
    90   86   87 1  
    91   87   88 ar 
    92   87   89 ar 
    93   90   91 1  
    94   91   92 1  
    95   92   93 2  
    96   92   94 am 
    97   94   95 1  
    98   95   96 1  
    99   95   98 1  
   100   96   97 2  
   101   96  102 am 
   102   98   99 1  
   103   98  100 1  
   104   99  101 1  
   105  102  103 1  
   106  103  104 1  
   107  103  106 1  
   108  104  105 2  
   109  104  108 am 
   110  106  107 1  
   111  108  109 1  
   112  109  110 1  
   113  109  112 1  
   114  110  111 2  
   115  110  116 am 
   116  112  113 1  
   117  113  114 ar 
   118  113  115 ar 
   119  116  117 1  
   120  117  118 1  
   121  117  120 1  
   122  118  119 2  
   123  118  124 am 
   124  120  121 1  
   125  121  122 1  
   126  121  123 1  
   127  124  125 1  
   128  125  126 1  
   129  125  128 1  
   130  126  127 2  
   131  126  135 am 
   132  128  129 1  
   133  129  130 ar 
   134  129  131 ar 
   135  130  132 ar 
   136  131  133 ar 
   137  132  134 ar 
   138  133  134 ar 
   139  135  136 1  
   140  136  137 1  
   141  136  139 1  
   142  137  138 ar 
   143  137  143 ar 
   144  139  140 1  
   145  140  141 ar 
   146  140  142 ar 
   147    1  144 1  
   148    1  145 1  
   149    1  146 1  
   150    2  147 1  
   151    5  148 1  
   152    5  149 1  
   153    9  150 1  
   154   10  151 1  
   155   13  152 1  
   156   13  153 1  
   157   17  154 1  
   158   18  155 1  
   159   21  156 1  
   160   21  157 1  
   161   23  158 1  
   162   24  159 1  
   163   25  160 1  
   164   26  161 1  
   165   28  162 1  
   166   29  163 1  
   167   30  164 1  
   168   33  165 1  
   169   33  166 1  
   170   34  167 1  
   171   35  168 1  
   172   35  169 1  
   173   35  170 1  
   174   36  171 1  
   175   36  172 1  
   176   36  173 1  
   177   37  174 1  
   178   38  175 1  
   179   41  176 1  
   180   41  177 1  
   181   43  178 1  
   182   45  179 1  
   183   47  180 1  
   184   48  181 1  
   185   49  182 1  
   186   50  183 1  
   187   51  184 1  
   188   52  185 1  
   189   52  186 1  
   190   55  187 1  
   191   56  188 1  
   192   59  189 1  
   193   59  190 1  
   194   60  191 1  
   195   61  192 1  
   196   61  193 1  
   197   61  194 1  
   198   62  195 1  
   199   62  196 1  
   200   62  197 1  
   201   63  198 1  
   202   64  199 1  
   203   67  200 1  
   204   67  201 1  
   205   68  202 1  
   206   68  203 1  
   207   72  204 1  
   208   73  205 1  
   209   76  206 1  
   210   76  207 1  
   211   76  208 1  
   212   77  209 1  
   213   78  210 1  
   214   78  211 1  
   215   81  212 1  
   216   82  213 1  
   217   85  214 1  
   218   85  215 1  
   219   86  216 1  
   220   86  217 1  
   221   90  218 1  
   222   91  219 1  
   223   91  220 1  
   224   94  221 1  
   225   95  222 1  
   226   98  223 1  
   227   99  224 1  
   228   99  225 1  
   229  100  226 1  
   230  100  227 1  
   231  100  228 1  
   232  101  229 1  
   233  101  230 1  
   234  101  231 1  
   235  102  232 1  
   236  103  233 1  
   237  106  234 1  
   238  106  235 1  
   239  107  236 1  
   240  108  237 1  
   241  109  238 1  
   242  112  239 1  
   243  112  240 1  
   244  116  241 1  
   245  117  242 1  
   246  120  243 1  
   247  120  244 1  
   248  121  245 1  
   249  122  246 1  
   250  122  247 1  
   251  122  248 1  
   252  123  249 1  
   253  123  250 1  
   254  123  251 1  
   255  124  252 1  
   256  125  253 1  
   257  128  254 1  
   258  128  255 1  
   259  130  256 1  
   260  131  257 1  
   261  132  258 1  
   262  133  259 1  
   263  134  260 1  
   264  135  261 1  
   265  136  262 1  
   266  139  263 1  
   267  139  264 1  
@<TRIPOS>SUBSTRUCTURE
     1 ASP         1

