### 
### Created by X-TOOL on Mon Sep 10 21:13:29 2018
### 

@<TRIPOS>MOLECULE
5awu_ligand
  166   170     1     0     0
SMALL
GAST_HUCK


@<TRIPOS>ATOM
      1 N          33.3040   16.0050  115.6230 N.4       1 TYR         0.2392
      2 CA         32.1890   15.6790  114.7360 C.3       1 TYR         0.0730
      3 C          31.8000   14.2070  114.8030 C.2       1 TYR         0.2286
      4 O          32.6090   13.3340  114.4940 O.2       1 TYR        -0.3905
      5 CB         32.5180   16.0260  113.2830 C.3       1 TYR         0.0365
      6 CG         31.5380   15.3890  112.3250 C.ar      1 TYR        -0.0460
      7 CD1        31.8840   14.2650  111.5870 C.ar      1 TYR        -0.0684
      8 CD2        30.2470   15.8880  112.1910 C.ar      1 TYR        -0.0684
      9 CE1        30.9770   13.6670  110.7300 C.ar      1 TYR        -0.0398
     10 CE2        29.3350   15.3000  111.3380 C.ar      1 TYR        -0.0398
     11 CZ         29.7040   14.1900  110.6100 C.ar      1 TYR         0.0805
     12 OH         28.7950   13.6050  109.7540 O.3       1 TYR        -0.3376
     13 N          30.5560   13.9340  115.1800 N.am      1 ASP        -0.2593
     14 CA         30.0800   12.5560  115.2610 C.3       1 ASP         0.1426
     15 C          29.0680   12.2210  114.1680 C.2       1 ASP         0.2081
     16 O          28.0020   12.8400  114.0810 O.2       1 ASP        -0.3941
     17 CB         29.4700   12.2760  116.6280 C.3       1 ASP         0.0406
     18 CG         28.9480   10.8630  116.7470 C.2       1 ASP         0.0393
     19 OD1        27.9870   10.6500  117.5070 O.co2     1 ASP        -0.5688
     20 OD2        29.4990    9.9610  116.0810 O.co2     1 ASP        -0.5688
     21 N          29.4010   11.2290  113.3300 N.am      1 PRO        -0.2497
     22 CA         28.5350   10.8680  112.2010 C.3       1 PRO         0.1338
     23 C          27.2210   10.2230  112.6330 C.2       1 PRO         0.2042
     24 O          26.2380   10.2870  111.8870 O.2       1 PRO        -0.3944
     25 CB         29.3900    9.8760  111.4000 C.3       1 PRO        -0.0104
     26 CG         30.4530    9.4020  112.3480 C.3       1 PRO        -0.0281
     27 CD         30.6970   10.5280  113.2940 C.3       1 PRO         0.0369
     28 N          27.2000    9.6210  113.8200 N.am      1 PHE        -0.2619
     29 CA         25.9960    8.9460  114.2980 C.3       1 PHE         0.1404
     30 C          25.1110    9.8240  115.1720 C.2       1 PHE         0.2060
     31 O          23.9270    9.5410  115.3200 O.2       1 PHE        -0.3942
     32 CB         26.3620    7.6840  115.0750 C.3       1 PHE         0.0214
     33 CG         27.2210    6.7360  114.3080 C.ar      1 PHE        -0.0386
     34 CD1        26.6780    5.9550  113.3070 C.ar      1 PHE        -0.0601
     35 CD2        28.5700    6.6200  114.5830 C.ar      1 PHE        -0.0601
     36 CE1        27.4630    5.0810  112.5810 C.ar      1 PHE        -0.0686
     37 CE2        29.3560    5.7430  113.8610 C.ar      1 PHE        -0.0686
     38 CZ         28.7940    4.9770  112.8540 C.ar      1 PHE        -0.0687
     39 N          25.6900   10.8700  115.7570 N.am      1 LYS        -0.2636
     40 CA         24.9850   11.7160  116.7230 C.3       1 LYS         0.1310
     41 C          23.6710   12.2410  116.1540 C.2       1 LYS         0.2037
     42 O          23.6350   12.7470  115.0300 O.2       1 LYS        -0.3944
     43 CB         25.8690   12.8890  117.1690 C.3       1 LYS        -0.0122
     44 CG         25.7100   13.2600  118.6370 C.3       1 LYS        -0.0440
     45 CD         25.9360   12.0450  119.5420 C.3       1 LYS        -0.0124
     46 CE         25.4880   12.3090  120.9800 C.3       1 LYS        -0.0354
     47 NZ         25.6250   11.1030  121.8530 N.4       1 LYS         0.2185
     48 N          22.5930   12.1100  116.9260 N.am      1 GLY        -0.2664
     49 CA         22.6600   11.5460  118.2640 C.3       1 GLY         0.1201
     50 C          22.1740   10.1120  118.3750 C.2       1 GLY         0.2008
     51 O          22.3030    9.4890  119.4320 O.2       1 GLY        -0.3947
     52 N          21.6230    9.5900  117.2800 N.am      1 SER        -0.2618
     53 CA         21.0520    8.2440  117.2470 C.3       1 SER         0.1539
     54 C          22.0510    7.1860  117.6910 C.2       1 SER         0.2063
     55 O          23.2630    7.3910  117.6320 O.2       1 SER        -0.3943
     56 CB         20.5390    7.9120  115.8430 C.3       1 SER         0.0843
     57 OG         19.6740    8.9240  115.3540 O.3       1 SER        -0.3903
     58 N          21.5340    6.0500  118.1390 N.am      1 ASP        -0.2621
     59 CA         22.3970    4.9770  118.5990 C.3       1 ASP         0.1425
     60 C          22.4920    3.8650  117.5660 C.2       1 ASP         0.2081
     61 O          21.4710    3.3660  117.0830 O.2       1 ASP        -0.3941
     62 CB         21.9140    4.4160  119.9350 C.3       1 ASP         0.0406
     63 CG         22.9020    3.4350  120.5400 C.2       1 ASP         0.0393
     64 OD1        22.8250    2.2310  120.2180 O.co2     1 ASP        -0.5688
     65 OD2        23.7630    3.8690  121.3330 O.co2     1 ASP        -0.5688
     66 N          23.7310    3.4870  117.2200 N.am      1 PRO        -0.2497
     67 CA         24.0670    2.4220  116.2660 C.3       1 PRO         0.1338
     68 C          23.7680    1.0110  116.7890 C.2       1 PRO         0.2042
     69 O          23.5560    0.0960  115.9920 O.2       1 PRO        -0.3944
     70 CB         25.5810    2.5870  116.0700 C.3       1 PRO        -0.0104
     71 CG         25.8980    3.9510  116.5530 C.3       1 PRO        -0.0281
     72 CD         24.9220    4.2410  117.6420 C.3       1 PRO         0.0369
     73 N          23.7570    0.8320  118.1050 N.am      1 PHE        -0.2619
     74 CA         23.5540   -0.5000  118.6710 C.3       1 PHE         0.1404
     75 C          22.2320   -0.5870  119.4450 C.2       1 PHE         0.2054
     76 O          22.2220   -0.7550  120.6650 O.2       1 PHE        -0.3942
     77 CB         24.7520   -0.8970  119.5460 C.3       1 PHE         0.0214
     78 CG         26.0930   -0.7260  118.8590 C.ar      1 PHE        -0.0386
     79 CD1        26.5150   -1.6240  117.8820 C.ar      1 PHE        -0.0601
     80 CD2        26.9320    0.3290  119.1900 C.ar      1 PHE        -0.0601
     81 CE1        27.7470   -1.4670  117.2420 C.ar      1 PHE        -0.0686
     82 CE2        28.1640    0.4880  118.5520 C.ar      1 PHE        -0.0686
     83 CZ         28.5670   -0.4120  117.5810 C.ar      1 PHE        -0.0687
     84 N          21.1210   -0.4680  118.7200 N.am      1 ALA        -0.2696
     85 CA         19.7900   -0.4780  119.3250 C.3       1 ALA         0.0916
     86 C          18.7560   -1.0830  118.3790 C.2       1 ALA         0.0598
     87 O          19.0090   -1.2370  117.1830 O.co2     1 ALA        -0.5666
     88 CB         19.3800    0.9310  119.7280 C.3       1 ALA        -0.0300
     89 OXT        17.6480   -1.4290  118.7930 O.co2     1 ALA        -0.5666
     90 H1         33.5219   16.9858  115.5422 H         1 TYR         0.2017
     91 H2         34.1106   15.4591  115.3634 H         1 TYR         0.2017
     92 H3         33.0484   15.7950  116.5752 H         1 TYR         0.2017
     93 H4         31.3231   16.2794  115.0517 H         1 TYR         0.1120
     94 H5         33.5308   15.6656  113.0501 H         1 TYR         0.0486
     95 H6         32.4800   17.1183  113.1591 H         1 TYR         0.0486
     96 H7         32.8805   13.8493  111.6837 H         1 TYR         0.0530
     97 H8         29.9508   16.7564  112.7682 H         1 TYR         0.0530
     98 H9         31.2637   12.7932  110.1561 H         1 TYR         0.0525
     99 H10        28.3356   15.7086  111.2416 H         1 TYR         0.0525
    100 H11        29.1978   12.8568  109.3292 H         1 TYR         0.2458
    101 H12        29.9360   14.6836  115.4119 H         1 ASP         0.1886
    102 H13        30.9491   11.8946  115.1302 H         1 ASP         0.0819
    103 H14        28.6372   12.9754  116.7933 H         1 ASP         0.0478
    104 H15        30.2399   12.4342  117.3976 H         1 ASP         0.0478
    105 H16        28.3084   11.7595  111.5978 H         1 PRO         0.0802
    106 H17        29.8448   10.3750  110.5316 H         1 PRO         0.0313
    107 H18        28.7765    9.0299  111.0570 H         1 PRO         0.0313
    108 H19        31.3742    9.1594  111.7980 H         1 PRO         0.0287
    109 H20        30.1074    8.5124  112.8949 H         1 PRO         0.0287
    110 H21        30.9695   10.1524  114.2913 H         1 PRO         0.0524
    111 H22        31.4926   11.1899  112.9215 H         1 PRO         0.0524
    112 H23        28.0199    9.6310  114.3925 H         1 PHE         0.1885
    113 H24        25.4099    8.6520  113.4148 H         1 PHE         0.0823
    114 H25        25.4327    7.1646  115.3516 H         1 PHE         0.0474
    115 H26        26.9011    7.9814  115.9865 H         1 PHE         0.0474
    116 H27        25.6190    6.0291  113.0876 H         1 PHE         0.0557
    117 H28        29.0138    7.2201  115.3691 H         1 PHE         0.0557
    118 H29        27.0212    4.4788  111.7954 H         1 PHE         0.0599
    119 H30        30.4133    5.6545  114.0830 H         1 PHE         0.0599
    120 H31        29.4128    4.2945  112.2827 H         1 PHE         0.0559
    121 H32        26.6395   11.0859  115.5291 H         1 LYS         0.1883
    122 H33        24.7546   11.1025  117.6065 H         1 LYS         0.0800
    123 H34        25.6109   13.7679  116.5601 H         1 LYS         0.0312
    124 H35        26.9201   12.6167  116.9928 H         1 LYS         0.0312
    125 H36        24.6932   13.6460  118.8016 H         1 LYS         0.0269
    126 H37        26.4437   14.0389  118.8920 H         1 LYS         0.0269
    127 H38        27.0080   11.7984  119.5439 H         1 LYS         0.0317
    128 H39        25.3646   11.1940  119.1429 H         1 LYS         0.0317
    129 H40        24.4326   12.6187  120.9695 H         1 LYS         0.0813
    130 H41        26.1037   13.1189  121.3982 H         1 LYS         0.0813
    131 H42        25.3183   11.3275  122.7866 H         1 LYS         0.1994
    132 H43        26.5902   10.8134  121.8770 H         1 LYS         0.1994
    133 H44        25.0589   10.3551  121.4841 H         1 LYS         0.1994
    134 H45        21.7070   12.4101  116.5726 H         1 GLY         0.1881
    135 H46        22.0438   12.1687  118.9292 H         1 GLY         0.0763
    136 H47        23.7077   11.5790  118.5973 H         1 GLY         0.0763
    137 H48        21.5989   10.1414  116.4461 H         1 SER         0.1884
    138 H49        20.1997    8.2213  117.9420 H         1 SER         0.0823
    139 H50        19.9904    6.9592  115.8787 H         1 SER         0.0606
    140 H51        21.3975    7.8156  115.1621 H         1 SER         0.0606
    141 H52        19.3738    8.6891  114.4838 H         1 SER         0.2097
    142 H53        20.5413    5.9314  118.1602 H         1 ASP         0.1884
    143 H54        23.4045    5.3930  118.7469 H         1 ASP         0.0819
    144 H55        20.9557    3.8999  119.7761 H         1 ASP         0.0478
    145 H56        21.7692    5.2502  120.6372 H         1 ASP         0.0478
    146 H57        23.5270    2.5752  115.3200 H         1 PRO         0.0802
    147 H58        25.8441    2.4852  115.0068 H         1 PRO         0.0313
    148 H59        26.1286    1.8348  116.6569 H         1 PRO         0.0313
    149 H60        25.7873    4.6803  115.7370 H         1 PRO         0.0287
    150 H61        26.9263    3.9890  116.9418 H         1 PRO         0.0287
    151 H62        25.2941    3.8833  118.6134 H         1 PRO         0.0524
    152 H63        24.7075    5.3180  117.7055 H         1 PRO         0.0524
    153 H64        23.8886    1.6147  118.7133 H         1 PHE         0.1885
    154 H65        23.4969   -1.2145  117.8367 H         1 PHE         0.0823
    155 H66        24.6396   -1.9538  119.8296 H         1 PHE         0.0474
    156 H67        24.7434   -0.2716  120.4508 H         1 PHE         0.0474
    157 H68        25.8773   -2.4585  117.6136 H         1 PHE         0.0557
    158 H69        26.6276    1.0373  119.9521 H         1 PHE         0.0557
    159 H70        28.0574   -2.1733  116.4805 H         1 PHE         0.0599
    160 H71        28.8069    1.3192  118.8182 H         1 PHE         0.0599
    161 H72        29.5246   -0.2877  117.0885 H         1 PHE         0.0559
    162 H73        21.1999   -0.3684  117.7281 H         1 ALA         0.1875
    163 H74        19.8302   -1.0994  120.2318 H         1 ALA         0.0723
    164 H75        18.3778    0.9058  120.1808 H         1 ALA         0.0270
    165 H76        19.3640    1.5770  118.8378 H         1 ALA         0.0270
    166 H77        20.1017    1.3286  120.4567 H         1 ALA         0.0270
@<TRIPOS>BOND
     1    1    2 1  
     2    2    3 1  
     3    2    5 1  
     4    3    4 2  
     5    3   13 am 
     6    5    6 1  
     7    6    7 ar 
     8    6    8 ar 
     9    7    9 ar 
    10    8   10 ar 
    11    9   11 ar 
    12   10   11 ar 
    13   11   12 1  
    14   13   14 1  
    15   14   15 1  
    16   14   17 1  
    17   15   16 2  
    18   15   21 am 
    19   17   18 1  
    20   18   19 ar 
    21   18   20 ar 
    22   21   22 1  
    23   21   27 1  
    24   22   23 1  
    25   22   25 1  
    26   23   24 2  
    27   23   28 am 
    28   25   26 1  
    29   26   27 1  
    30   28   29 1  
    31   29   30 1  
    32   29   32 1  
    33   30   31 2  
    34   30   39 am 
    35   32   33 1  
    36   33   34 ar 
    37   33   35 ar 
    38   34   36 ar 
    39   35   37 ar 
    40   36   38 ar 
    41   37   38 ar 
    42   39   40 1  
    43   40   41 1  
    44   40   43 1  
    45   41   42 2  
    46   41   48 am 
    47   43   44 1  
    48   44   45 1  
    49   45   46 1  
    50   46   47 1  
    51   48   49 1  
    52   49   50 1  
    53   50   51 2  
    54   50   52 am 
    55   52   53 1  
    56   53   54 1  
    57   53   56 1  
    58   54   55 2  
    59   54   58 am 
    60   56   57 1  
    61   58   59 1  
    62   59   60 1  
    63   59   62 1  
    64   60   61 2  
    65   60   66 am 
    66   62   63 1  
    67   63   64 ar 
    68   63   65 ar 
    69   66   67 1  
    70   66   72 1  
    71   67   68 1  
    72   67   70 1  
    73   68   69 2  
    74   68   73 am 
    75   70   71 1  
    76   71   72 1  
    77   73   74 1  
    78   74   75 1  
    79   74   77 1  
    80   75   76 2  
    81   75   84 am 
    82   77   78 1  
    83   78   79 ar 
    84   78   80 ar 
    85   79   81 ar 
    86   80   82 ar 
    87   81   83 ar 
    88   82   83 ar 
    89   84   85 1  
    90   85   86 1  
    91   85   88 1  
    92   86   87 ar 
    93   86   89 ar 
    94    1   90 1  
    95    1   91 1  
    96    1   92 1  
    97    2   93 1  
    98    5   94 1  
    99    5   95 1  
   100    7   96 1  
   101    8   97 1  
   102    9   98 1  
   103   10   99 1  
   104   12  100 1  
   105   13  101 1  
   106   14  102 1  
   107   17  103 1  
   108   17  104 1  
   109   22  105 1  
   110   25  106 1  
   111   25  107 1  
   112   26  108 1  
   113   26  109 1  
   114   27  110 1  
   115   27  111 1  
   116   28  112 1  
   117   29  113 1  
   118   32  114 1  
   119   32  115 1  
   120   34  116 1  
   121   35  117 1  
   122   36  118 1  
   123   37  119 1  
   124   38  120 1  
   125   39  121 1  
   126   40  122 1  
   127   43  123 1  
   128   43  124 1  
   129   44  125 1  
   130   44  126 1  
   131   45  127 1  
   132   45  128 1  
   133   46  129 1  
   134   46  130 1  
   135   47  131 1  
   136   47  132 1  
   137   47  133 1  
   138   48  134 1  
   139   49  135 1  
   140   49  136 1  
   141   52  137 1  
   142   53  138 1  
   143   56  139 1  
   144   56  140 1  
   145   57  141 1  
   146   58  142 1  
   147   59  143 1  
   148   62  144 1  
   149   62  145 1  
   150   67  146 1  
   151   70  147 1  
   152   70  148 1  
   153   71  149 1  
   154   71  150 1  
   155   72  151 1  
   156   72  152 1  
   157   73  153 1  
   158   74  154 1  
   159   77  155 1  
   160   77  156 1  
   161   79  157 1  
   162   80  158 1  
   163   81  159 1  
   164   82  160 1  
   165   83  161 1  
   166   84  162 1  
   167   85  163 1  
   168   88  164 1  
   169   88  165 1  
   170   88  166 1  
@<TRIPOS>SUBSTRUCTURE
     1 TYR         1

