5awu_ligand
  -I-interpret- 

169173  0  0  0  0  0  0  0  0999 V2000
   33.3040   16.0050  115.6230 N   0  3  0  0  0
   32.1890   15.6790  114.7360 C   0  0  0  0  0
   31.8000   14.2070  114.8030 C   0  0  0  0  0
   32.6090   13.3340  114.4940 O   0  0  0  0  0
   32.5180   16.0260  113.2830 C   0  0  0  0  0
   31.5380   15.3890  112.3250 C   0  0  0  0  0
   31.8840   14.2650  111.5870 C   0  0  0  0  0
   30.2470   15.8880  112.1910 C   0  0  0  0  0
   30.9770   13.6670  110.7300 C   0  0  0  0  0
   29.3350   15.3000  111.3380 C   0  0  0  0  0
   29.7040   14.1900  110.6100 C   0  0  0  0  0
   28.7950   13.6050  109.7540 O   0  0  0  0  0
   30.5560   13.9340  115.1800 N   0  0  0  0  0
   30.0800   12.5560  115.2610 C   0  0  0  0  0
   29.0680   12.2210  114.1680 C   0  0  0  0  0
   28.0020   12.8400  114.0810 O   0  0  0  0  0
   29.4700   12.2760  116.6280 C   0  0  0  0  0
   28.9480   10.8630  116.7470 C   0  0  0  0  0
   27.9870   10.6500  117.5070 O   0  0  0  0  0
   29.4990    9.9610  116.0810 O   0  0  0  0  0
   29.4010   11.2290  113.3300 N   0  0  0  0  0
   28.5350   10.8680  112.2010 C   0  0  0  0  0
   27.2210   10.2230  112.6330 C   0  0  0  0  0
   26.2380   10.2870  111.8870 O   0  0  0  0  0
   29.3900    9.8760  111.4000 C   0  0  0  0  0
   30.4530    9.4020  112.3480 C   0  0  0  0  0
   30.6970   10.5280  113.2940 C   0  0  0  0  0
   27.2000    9.6210  113.8200 N   0  0  0  0  0
   25.9960    8.9460  114.2980 C   0  0  0  0  0
   25.1110    9.8240  115.1720 C   0  0  0  0  0
   23.9270    9.5410  115.3200 O   0  0  0  0  0
   26.3620    7.6840  115.0750 C   0  0  0  0  0
   27.2210    6.7360  114.3080 C   0  0  0  0  0
   26.6780    5.9550  113.3070 C   0  0  0  0  0
   28.5700    6.6200  114.5830 C   0  0  0  0  0
   27.4630    5.0810  112.5810 C   0  0  0  0  0
   29.3560    5.7430  113.8610 C   0  0  0  0  0
   28.7940    4.9770  112.8540 C   0  0  0  0  0
   25.6900   10.8700  115.7570 N   0  0  0  0  0
   24.9850   11.7160  116.7230 C   0  0  0  0  0
   23.6710   12.2410  116.1540 C   0  0  0  0  0
   23.6350   12.7470  115.0300 O   0  0  0  0  0
   25.8690   12.8890  117.1690 C   0  0  0  0  0
   25.7100   13.2600  118.6370 C   0  0  0  0  0
   25.9360   12.0450  119.5420 C   0  0  0  0  0
   25.4880   12.3090  120.9800 C   0  0  0  0  0
   25.6250   11.1030  121.8530 N   0  3  0  0  0
   22.5930   12.1100  116.9260 N   0  0  0  0  0
   22.6600   11.5460  118.2640 C   0  0  0  0  0
   22.1740   10.1120  118.3750 C   0  0  0  0  0
   22.3030    9.4890  119.4320 O   0  0  0  0  0
   21.6230    9.5900  117.2800 N   0  0  0  0  0
   21.0520    8.2440  117.2470 C   0  0  0  0  0
   22.0510    7.1860  117.6910 C   0  0  0  0  0
   23.2630    7.3910  117.6320 O   0  0  0  0  0
   20.5390    7.9120  115.8430 C   0  0  0  0  0
   19.6740    8.9240  115.3540 O   0  0  0  0  0
   21.5340    6.0500  118.1390 N   0  0  0  0  0
   22.3970    4.9770  118.5990 C   0  0  0  0  0
   22.4920    3.8650  117.5660 C   0  0  0  0  0
   21.4710    3.3660  117.0830 O   0  0  0  0  0
   21.9140    4.4160  119.9350 C   0  0  0  0  0
   22.9020    3.4350  120.5400 C   0  0  0  0  0
   22.8250    2.2310  120.2180 O   0  0  0  0  0
   23.7630    3.8690  121.3330 O   0  0  0  0  0
   23.7310    3.4870  117.2200 N   0  0  0  0  0
   24.0670    2.4220  116.2660 C   0  0  0  0  0
   23.7680    1.0110  116.7890 C   0  0  0  0  0
   23.5560    0.0960  115.9920 O   0  0  0  0  0
   25.5810    2.5870  116.0700 C   0  0  0  0  0
   25.8980    3.9510  116.5530 C   0  0  0  0  0
   24.9220    4.2410  117.6420 C   0  0  0  0  0
   23.7570    0.8320  118.1050 N   0  0  0  0  0
   23.5540   -0.5000  118.6710 C   0  0  0  0  0
   22.2320   -0.5870  119.4450 C   0  0  0  0  0
   22.2220   -0.7550  120.6650 O   0  0  0  0  0
   24.7520   -0.8970  119.5460 C   0  0  0  0  0
   26.0930   -0.7260  118.8590 C   0  0  0  0  0
   26.5150   -1.6240  117.8820 C   0  0  0  0  0
   26.9320    0.3290  119.1900 C   0  0  0  0  0
   27.7470   -1.4670  117.2420 C   0  0  0  0  0
   28.1640    0.4880  118.5520 C   0  0  0  0  0
   28.5670   -0.4120  117.5810 C   0  0  0  0  0
   21.1210   -0.4680  118.7200 N   0  0  0  0  0
   19.7900   -0.4780  119.3250 C   0  0  0  0  0
   18.7560   -1.0830  118.3790 C   0  0  0  0  0
   19.0090   -1.2370  117.1830 O   0  0  0  0  0
   19.3800    0.9310  119.7280 C   0  0  0  0  0
   17.6480   -1.4290  118.7930 O   0  0  0  0  0
   33.0557   15.7632  116.5823 H   0  0  0  0  0
   34.1282   15.4750  115.3400 H   0  0  0  0  0
   33.5035   17.0035  115.5636 H   0  0  0  0  0
   31.3483   16.2792  115.0839 H   0  0  0  0  0
   33.5158   15.6505  113.0561 H   0  0  0  0  0
   32.4614   17.1082  113.1655 H   0  0  0  0  0
   32.8860   13.8470  111.6842 H   0  0  0  0  0
   29.9492   16.7613  112.7714 H   0  0  0  0  0
   31.2653   12.7884  110.1529 H   0  0  0  0  0
   28.3301   15.7109  111.2410 H   0  0  0  0  0
   27.9662   14.0880  109.7904 H   0  0  0  0  0
   29.9236   14.6986  115.4165 H   0  0  0  0  0
   30.9509   11.9177  115.1119 H   0  0  0  0  0
   28.6318   12.9583  116.7696 H   0  0  0  0  0
   30.2481   12.4126  117.3790 H   0  0  0  0  0
   30.2147   10.3382  115.5641 H   0  0  0  0  0
   28.2294   11.7475  111.6342 H   0  0  0  0  0
   29.8240   10.3460  110.5175 H   0  0  0  0  0
   28.7912    9.0458  111.0254 H   0  0  0  0  0
   31.3642    9.1321  111.8142 H   0  0  0  0  0
   30.1352    8.5044  112.8784 H   0  0  0  0  0
   31.0164   10.1866  114.2786 H   0  0  0  0  0
   31.5145   11.1743  112.9744 H   0  0  0  0  0
   28.0363    9.6312  114.4039 H   0  0  0  0  0
   25.4250    8.6952  113.4040 H   0  0  0  0  0
   25.4328    7.1649  115.3101 H   0  0  0  0  0
   26.9248    7.9948  115.9552 H   0  0  0  0  0
   25.6132    6.0295  113.0864 H   0  0  0  0  0
   29.0162    7.2234  115.3735 H   0  0  0  0  0
   27.0187    4.4755  111.7910 H   0  0  0  0  0
   30.4192    5.6540  114.0842 H   0  0  0  0  0
   29.4162    4.2907  112.2795 H   0  0  0  0  0
   26.6584   11.0902  115.5246 H   0  0  0  0  0
   24.7565   11.0958  117.5898 H   0  0  0  0  0
   25.5736   13.7584  116.5817 H   0  0  0  0  0
   26.9059   12.5869  117.0220 H   0  0  0  0  0
   24.6964   13.6284  118.7953 H   0  0  0  0  0
   26.4489   14.0218  118.8857 H   0  0  0  0  0
   27.0030   11.8227  119.5533 H   0  0  0  0  0
   25.3491   11.2145  119.1497 H   0  0  0  0  0
   24.4352   12.5903  120.9579 H   0  0  0  0  0
   26.1216   13.0951  121.3907 H   0  0  0  0  0
   25.3144   11.3313  122.7973 H   0  0  0  0  0
   25.0518   10.3469  121.4787 H   0  0  0  0  0
   26.6020   10.8109  121.8765 H   0  0  0  0  0
   21.6893   12.4161  116.5655 H   0  0  0  0  0
   22.0091   12.1507  118.8955 H   0  0  0  0  0
   23.7101   11.5479  118.5562 H   0  0  0  0  0
   21.5984   10.1525  116.4294 H   0  0  0  0  0
   20.2199    8.2345  117.9511 H   0  0  0  0  0
   19.9833    6.9755  115.8905 H   0  0  0  0  0
   21.3944    7.8344  115.1718 H   0  0  0  0  0
   19.3706    8.6867  114.4747 H   0  0  0  0  0
   20.5214    5.9291  118.1606 H   0  0  0  0  0
   23.3920    5.3986  118.7414 H   0  0  0  0  0
   20.9769    3.8873  119.7604 H   0  0  0  0  0
   21.7970    5.2487  120.6286 H   0  0  0  0  0
   22.0985    2.1115  119.6020 H   0  0  0  0  0
   23.4739    2.5139  115.3561 H   0  0  0  0  0
   25.8643    2.4580  115.0254 H   0  0  0  0  0
   26.1392    1.8294  116.6201 H   0  0  0  0  0
   25.8192    4.6821  115.7484 H   0  0  0  0  0
   26.9237    4.0116  116.9168 H   0  0  0  0  0
   25.2844    3.9461  118.6268 H   0  0  0  0  0
   24.7282    5.3064  117.7660 H   0  0  0  0  0
   23.8913    1.6304  118.7254 H   0  0  0  0  0
   23.4853   -1.2131  117.8495 H   0  0  0  0  0
   24.6425   -1.9542  119.7878 H   0  0  0  0  0
   24.7479   -0.2445  120.4191 H   0  0  0  0  0
   25.8737   -2.4631  117.6121 H   0  0  0  0  0
   26.6259    1.0412  119.9563 H   0  0  0  0  0
   28.0591   -2.1772  116.4763 H   0  0  0  0  0
   28.8104    1.3238  118.8197 H   0  0  0  0  0
   29.5299   -0.2870  117.0857 H   0  0  0  0  0
   21.2015   -0.3664  117.7083 H   0  0  0  0  0
   19.8324   -1.1013  120.2182 H   0  0  0  0  0
   20.0959    1.3238  120.4500 H   0  0  0  0  0
   19.3646    1.5701  118.8451 H   0  0  0  0  0
   18.3869    0.9048  120.1765 H   0  0  0  0  0
   17.5901   -1.2524  119.7348 H   0  0  0  0  0
  1  2  1  0  0  0
  2  3  1  0  0  0
  2  5  1  0  0  0
  3  4  2  0  0  0
  3 13  1  0  0  0
  5  6  1  0  0  0
  6  7  4  0  0  0
  6  8  4  0  0  0
  7  9  4  0  0  0
  8 10  4  0  0  0
  9 11  4  0  0  0
 10 11  4  0  0  0
 11 12  1  0  0  0
 13 14  1  0  0  0
 14 15  1  0  0  0
 14 17  1  0  0  0
 15 16  2  0  0  0
 15 21  1  0  0  0
 17 18  1  0  0  0
 18 19  2  0  0  0
 18 20  1  0  0  0
 21 22  1  0  0  0
 21 27  1  0  0  0
 22 23  1  0  0  0
 22 25  1  0  0  0
 23 24  2  0  0  0
 23 28  1  0  0  0
 25 26  1  0  0  0
 26 27  1  0  0  0
 28 29  1  0  0  0
 29 30  1  0  0  0
 29 32  1  0  0  0
 30 31  2  0  0  0
 30 39  1  0  0  0
 32 33  1  0  0  0
 33 34  4  0  0  0
 33 35  4  0  0  0
 34 36  4  0  0  0
 35 37  4  0  0  0
 36 38  4  0  0  0
 37 38  4  0  0  0
 39 40  1  0  0  0
 40 41  1  0  0  0
 40 43  1  0  0  0
 41 42  2  0  0  0
 41 48  1  0  0  0
 43 44  1  0  0  0
 44 45  1  0  0  0
 45 46  1  0  0  0
 46 47  1  0  0  0
 48 49  1  0  0  0
 49 50  1  0  0  0
 50 51  2  0  0  0
 50 52  1  0  0  0
 52 53  1  0  0  0
 53 54  1  0  0  0
 53 56  1  0  0  0
 54 55  2  0  0  0
 54 58  1  0  0  0
 56 57  1  0  0  0
 58 59  1  0  0  0
 59 60  1  0  0  0
 59 62  1  0  0  0
 60 61  2  0  0  0
 60 66  1  0  0  0
 62 63  1  0  0  0
 63 64  1  0  0  0
 63 65  2  0  0  0
 66 67  1  0  0  0
 66 72  1  0  0  0
 67 68  1  0  0  0
 67 70  1  0  0  0
 68 69  2  0  0  0
 68 73  1  0  0  0
 70 71  1  0  0  0
 71 72  1  0  0  0
 73 74  1  0  0  0
 74 75  1  0  0  0
 74 77  1  0  0  0
 75 76  2  0  0  0
 75 84  1  0  0  0
 77 78  1  0  0  0
 78 79  4  0  0  0
 78 80  4  0  0  0
 79 81  4  0  0  0
 80 82  4  0  0  0
 81 83  4  0  0  0
 82 83  4  0  0  0
 84 85  1  0  0  0
 85 86  1  0  0  0
 85 88  1  0  0  0
 86 87  2  0  0  0
 86 89  1  0  0  0
  1 90  1  0  0  0
  1 91  1  0  0  0
  1 92  1  0  0  0
  2 93  1  0  0  0
  5 94  1  0  0  0
  5 95  1  0  0  0
  7 96  1  0  0  0
  8 97  1  0  0  0
  9 98  1  0  0  0
 10 99  1  0  0  0
 12100  1  0  0  0
 13101  1  0  0  0
 14102  1  0  0  0
 17103  1  0  0  0
 17104  1  0  0  0
 20105  1  0  0  0
 22106  1  0  0  0
 25107  1  0  0  0
 25108  1  0  0  0
 26109  1  0  0  0
 26110  1  0  0  0
 27111  1  0  0  0
 27112  1  0  0  0
 28113  1  0  0  0
 29114  1  0  0  0
 32115  1  0  0  0
 32116  1  0  0  0
 34117  1  0  0  0
 35118  1  0  0  0
 36119  1  0  0  0
 37120  1  0  0  0
 38121  1  0  0  0
 39122  1  0  0  0
 40123  1  0  0  0
 43124  1  0  0  0
 43125  1  0  0  0
 44126  1  0  0  0
 44127  1  0  0  0
 45128  1  0  0  0
 45129  1  0  0  0
 46130  1  0  0  0
 46131  1  0  0  0
 47132  1  0  0  0
 47133  1  0  0  0
 47134  1  0  0  0
 48135  1  0  0  0
 49136  1  0  0  0
 49137  1  0  0  0
 52138  1  0  0  0
 53139  1  0  0  0
 56140  1  0  0  0
 56141  1  0  0  0
 57142  1  0  0  0
 58143  1  0  0  0
 59144  1  0  0  0
 62145  1  0  0  0
 62146  1  0  0  0
 64147  1  0  0  0
 67148  1  0  0  0
 70149  1  0  0  0
 70150  1  0  0  0
 71151  1  0  0  0
 71152  1  0  0  0
 72153  1  0  0  0
 72154  1  0  0  0
 73155  1  0  0  0
 74156  1  0  0  0
 77157  1  0  0  0
 77158  1  0  0  0
 79159  1  0  0  0
 80160  1  0  0  0
 81161  1  0  0  0
 82162  1  0  0  0
 83163  1  0  0  0
 84164  1  0  0  0
 85165  1  0  0  0
 88166  1  0  0  0
 88167  1  0  0  0
 88168  1  0  0  0
 89169  1  0  0  0
M  END
$$$$
