5zqr_ligand
  -I-interpret- 

 56 60  0  0  0  0  0  0  0  0999 V2000
    1.9360  -11.6200   -7.0970 C   0  0  0  0  0
    1.7250  -12.2650   -5.7980 C   0  0  0  0  0
    1.4300  -13.6040   -5.5510 C   0  0  0  0  0
    1.2510  -14.0780   -4.2170 C   0  0  0  0  0
    1.3810  -13.1640   -3.1670 C   0  0  0  0  0
    3.5120  -12.4680  -15.5630 C   0  0  0  0  0
    3.2390  -12.2390  -14.1180 C   0  0  0  0  0
    1.8510  -12.1700  -13.6840 C   0  0  0  0  0
    2.6790  -11.7620  -11.4110 C   0  0  0  0  0
    1.1070  -11.3940   -9.5400 C   0  0  0  0  0
    0.8340  -11.8240   -8.1210 C   0  0  0  0  0
    1.6800  -11.8020   -3.4200 C   0  0  0  0  0
    1.8560  -11.3560   -4.7340 C   0  0  0  0  0
    2.3060   -8.7660   -4.5400 C   0  0  0  0  0
    0.9510   -8.0980   -4.1520 C   0  0  0  0  0
    2.0420  -10.1240   -6.7100 C   0  0  0  0  0
    3.2600  -11.9890   -7.7230 C   0  0  0  0  0
    3.5400  -11.3530   -9.0950 C   0  0  0  0  0
    4.2020  -12.0570  -13.1750 C   0  0  0  0  0
    5.6790  -12.1350  -13.5630 C   0  0  0  0  0
    5.9170  -12.5650  -15.0250 C   0  0  0  0  0
    4.8960  -11.9240  -15.9300 C   0  0  0  0  0
    1.3060  -14.4640   -6.5090 F   0  0  0  0  0
    1.2150  -13.5900   -1.9440 F   0  0  0  0  0
    1.6140  -11.9390  -12.2830 N   0  0  0  0  0
    2.4550  -11.5610  -10.0780 N   0  0  0  0  0
    2.1530  -10.0840   -5.2260 N   0  0  0  0  0
    3.9220  -11.8250  -11.8450 N   0  0  0  0  0
    0.8560  -12.3130  -14.3820 O   0  0  0  0  0
   -0.0900   -8.9020   -4.6400 O   0  0  0  0  0
    1.0190  -15.1250   -4.0218 H   0  0  0  0  0
    2.7564  -11.9526  -16.1558 H   0  0  0  0  0
    3.4827  -13.5383  -15.7673 H   0  0  0  0  0
    0.9303  -10.3184   -9.5486 H   0  0  0  0  0
    0.4753  -12.0341  -10.1560 H   0  0  0  0  0
    0.0037  -11.2039   -7.7831 H   0  0  0  0  0
    0.6757  -12.9014   -8.1682 H   0  0  0  0  0
    1.7729  -11.1015   -2.5901 H   0  0  0  0  0
    2.8580   -8.9420   -3.6168 H   0  0  0  0  0
    2.8125   -8.0951   -5.2338 H   0  0  0  0  0
    0.8879   -7.0997   -4.5851 H   0  0  0  0  0
    0.8760   -8.0048   -3.0686 H   0  0  0  0  0
    1.1701   -9.5672   -7.0534 H   0  0  0  0  0
    2.9072   -9.6573   -7.1809 H   0  0  0  0  0
    3.2416  -13.0678   -7.8776 H   0  0  0  0  0
    4.0355  -11.6272   -7.0478 H   0  0  0  0  0
    4.4379  -11.8235   -9.4956 H   0  0  0  0  0
    3.6403  -10.2784   -8.9422 H   0  0  0  0  0
    6.1437  -12.8857  -12.9238 H   0  0  0  0  0
    6.0990  -11.1360  -13.4456 H   0  0  0  0  0
    5.8266  -13.6489  -15.0970 H   0  0  0  0  0
    6.9139  -12.2485  -15.3318 H   0  0  0  0  0
    4.9155  -10.8414  -15.8050 H   0  0  0  0  0
    5.1232  -12.1560  -16.9705 H   0  0  0  0  0
    4.6900  -11.7000  -11.1855 H   0  0  0  0  0
   -0.9336   -8.5057   -4.4101 H   0  0  0  0  0
  2  1  1  0  0  0
  1 11  1  0  0  0
  1 16  1  0  0  0
  1 17  1  0  0  0
  2  3  4  0  0  0
 13  2  4  0  0  0
  3  4  4  0  0  0
  3 23  1  0  0  0
  5  4  4  0  0  0
 12  5  4  0  0  0
  5 24  1  0  0  0
  7  6  1  0  0  0
  6 22  1  0  0  0
  8  7  1  0  0  0
  7 19  2  0  0  0
 25  8  1  0  0  0
  8 29  2  0  0  0
  9 25  4  0  0  0
 26  9  1  0  0  0
  9 28  1  0  0  0
 11 10  1  0  0  0
 10 26  1  0  0  0
 13 12  4  0  0  0
 27 13  1  0  0  0
 14 15  1  0  0  0
 14 27  1  0  0  0
 15 30  1  0  0  0
 16 27  1  0  0  0
 17 18  1  0  0  0
 18 26  1  0  0  0
 19 20  1  0  0  0
 19 28  1  0  0  0
 20 21  1  0  0  0
 21 22  1  0  0  0
  4 31  1  0  0  0
  6 32  1  0  0  0
  6 33  1  0  0  0
 10 34  1  0  0  0
 10 35  1  0  0  0
 11 36  1  0  0  0
 11 37  1  0  0  0
 12 38  1  0  0  0
 14 39  1  0  0  0
 14 40  1  0  0  0
 15 41  1  0  0  0
 15 42  1  0  0  0
 16 43  1  0  0  0
 16 44  1  0  0  0
 17 45  1  0  0  0
 17 46  1  0  0  0
 18 47  1  0  0  0
 18 48  1  0  0  0
 20 49  1  0  0  0
 20 50  1  0  0  0
 21 51  1  0  0  0
 21 52  1  0  0  0
 22 53  1  0  0  0
 22 54  1  0  0  0
 28 55  1  0  0  0
 30 56  1  0  0  0
M  END
$$$$
