5k1i_ligand
  -I-interpret- 

 47 49  0  0  0  0  0  0  0  0999 V2000
   15.1970    2.8950   64.1280 C   0  0  0  0  0
    7.3170    4.6260   69.3820 C   0  0  0  0  0
    7.6850    3.3400   68.9830 C   0  0  0  0  0
    9.0150    2.9350   69.0420 C   0  0  0  0  0
   14.0360    4.9090   64.7320 C   0  0  0  0  0
   11.6490    3.6500   67.1670 C   0  0  0  0  0
    9.9700    3.8110   69.5080 C   0  0  0  0  0
   14.2320    4.0740   73.1030 C   0  0  0  0  0
   14.5870    4.5570   62.3340 C   0  0  0  0  0
   13.6370    3.1750   68.7590 C   0  0  0  0  0
   15.1970    3.8520   61.5010 O   0  0  0  0  0
   10.9220    4.9090   66.8000 C   0  0  0  0  0
   14.6220    3.0510   67.8110 N   0  0  0  0  0
   14.6160    3.2880   66.4340 C   0  0  0  0  0
   14.0760    4.5180   66.0590 C   0  0  0  0  0
   14.0130    5.6310   62.0050 O   0  0  0  0  0
   14.6020    4.1010   63.7660 C   0  0  0  0  0
   15.2260    2.4920   65.4650 C   0  0  0  0  0
   14.0670    2.9600   70.0730 C   0  0  0  0  0
   15.2640    2.7250   70.3470 O   0  0  0  0  0
   12.2760    3.4620   68.5370 C   0  0  0  0  0
   11.6750    2.6870   66.3780 O   0  0  0  0  0
   11.4200    3.4920   69.6410 C   0  0  0  0  0
   11.8920    3.2910   70.8980 N   0  0  0  0  0
   13.2460    3.0120   71.1010 N   0  0  0  0  0
   13.8150    2.7800   72.4330 C   0  0  0  0  0
    8.2770    5.5170   69.8550 C   0  0  0  0  0
    9.5990    5.0970   69.9070 C   0  0  0  0  0
   15.6434    2.2608   63.3621 H   0  0  0  0  0
    6.2732    4.9343   69.3231 H   0  0  0  0  0
    6.9245    2.6475   68.6223 H   0  0  0  0  0
    9.2987    1.9324   68.7219 H   0  0  0  0  0
   13.5607    5.8489   64.4513 H   0  0  0  0  0
   14.9846    4.5720   72.4918 H   0  0  0  0  0
   13.3625    4.7224   73.2109 H   0  0  0  0  0
   14.6477    3.8549   74.0865 H   0  0  0  0  0
   11.3571    5.3268   65.8921 H   0  0  0  0  0
    9.8695    4.6827   66.6292 H   0  0  0  0  0
   11.0128    5.6296   67.6128 H   0  0  0  0  0
   15.5178    2.7284   68.1769 H   0  0  0  0  0
   13.6782    5.1836   66.8251 H   0  0  0  0  0
   13.6039    6.0241   62.7794 H   0  0  0  0  0
   15.7212    1.5633   65.7486 H   0  0  0  0  0
   13.0538    2.3048   73.0517 H   0  0  0  0  0
   14.6992    2.1522   72.3222 H   0  0  0  0  0
    7.9970    6.5201   70.1767 H   0  0  0  0  0
   10.3637    5.7854   70.2668 H   0  0  0  0  0
  1 17  4  0  0  0
 18  1  4  0  0  0
  3  2  4  0  0  0
  2 27  4  0  0  0
  4  3  4  0  0  0
  7  4  4  0  0  0
 15  5  4  0  0  0
  5 17  4  0  0  0
  6 12  1  0  0  0
 21  6  1  0  0  0
  6 22  2  0  0  0
 23  7  1  0  0  0
  7 28  4  0  0  0
 26  8  1  0  0  0
  9 11  2  0  0  0
  9 16  1  0  0  0
 17  9  1  0  0  0
 10 13  1  0  0  0
 19 10  1  0  0  0
 10 21  2  0  0  0
 13 14  1  0  0  0
 14 15  4  0  0  0
 14 18  4  0  0  0
 19 20  2  0  0  0
 25 19  1  0  0  0
 23 21  1  0  0  0
 24 23  2  0  0  0
 25 24  1  0  0  0
 25 26  1  0  0  0
 27 28  4  0  0  0
  1 29  1  0  0  0
  2 30  1  0  0  0
  3 31  1  0  0  0
  4 32  1  0  0  0
  5 33  1  0  0  0
  8 34  1  0  0  0
  8 35  1  0  0  0
  8 36  1  0  0  0
 12 37  1  0  0  0
 12 38  1  0  0  0
 12 39  1  0  0  0
 13 40  1  0  0  0
 15 41  1  0  0  0
 16 42  1  0  0  0
 18 43  1  0  0  0
 26 44  1  0  0  0
 26 45  1  0  0  0
 27 46  1  0  0  0
 28 47  1  0  0  0
M  END
$$$$
