2jke_ligand
  -I-interpret- 

 25 25  0  0  0  0  0  0  0  0999 V2000
   23.5560   44.2570   68.6290 C   0  0  0  0  0
   23.2300   43.2230   69.7220 C   0  0  0  0  0
   22.5830   43.8930   70.7790 O   0  0  0  0  0
   24.5590   42.6270   70.2120 C   0  0  0  0  0
   24.3790   41.8000   71.3270 O   0  0  0  0  0
   25.1710   41.8020   69.0820 C   0  0  0  0  0
   26.4550   41.3620   69.5490 O   0  0  0  0  0
   25.3890   42.7210   67.8600 C   0  0  0  0  0
   24.2380   43.5920   67.5090 N   0  3  0  0  0
   25.7250   41.9230   66.5930 C   0  0  0  0  0
   24.6290   41.0330   66.2910 O   0  0  0  0  0
   24.2058   45.0284   69.0423 H   0  0  0  0  0
   22.6314   44.7107   68.2722 H   0  0  0  0  0
   22.5845   42.4290   69.3465 H   0  0  0  0  0
   21.7546   44.2615   70.4634 H   0  0  0  0  0
   25.2141   43.4485   70.5019 H   0  0  0  0  0
   23.9943   42.3101   72.0435 H   0  0  0  0  0
   24.5298   40.9651   68.8052 H   0  0  0  0  0
   26.3382   40.7885   70.3100 H   0  0  0  0  0
   26.2186   43.3503   68.1822 H   0  0  0  0  0
   24.6151   44.3377   66.9241 H   0  0  0  0  0
   23.5437   42.9831   67.0759 H   0  0  0  0  0
   26.6340   41.3437   66.7547 H   0  0  0  0  0
   25.8821   42.6074   65.7593 H   0  0  0  0  0
   24.8346   40.5313   65.4987 H   0  0  0  0  0
  1  2  1  0  0  0
  1  9  1  0  0  0
  2  3  1  0  0  0
  2  4  1  0  0  0
  4  5  1  0  0  0
  4  6  1  0  0  0
  6  7  1  0  0  0
  6  8  1  0  0  0
  8  9  1  0  0  0
  8 10  1  0  0  0
 10 11  1  0  0  0
  1 12  1  0  0  0
  1 13  1  0  0  0
  2 14  1  0  0  0
  3 15  1  0  0  0
  4 16  1  0  0  0
  5 17  1  0  0  0
  6 18  1  0  0  0
  7 19  1  0  0  0
  8 20  1  0  0  0
  9 21  1  0  0  0
  9 22  1  0  0  0
 10 23  1  0  0  0
 10 24  1  0  0  0
 11 25  1  0  0  0
M  END
$$$$
