3bu1_ligand
  -I-interpret- 

 17 17  0  0  0  0  0  0  0  0999 V2000
   18.1750   22.9850    7.5870 N   0  3  0  0  0
   17.3610   23.1390    8.7890 C   0  0  0  0  0
   16.2830   24.1870    8.5480 C   0  0  0  0  0
   15.5020   24.4820    9.8120 C   0  0  0  0  0
   16.0040   24.9860   10.9670 N   0  0  0  0  0
   14.1430   24.2900    9.9970 C   0  0  0  0  0
   14.9900   25.1060   11.8470 C   0  0  0  0  0
   13.8510   24.6830   11.2560 N   0  0  0  0  0
   18.8953   22.2823    7.7534 H   0  0  0  0  0
   17.5819   22.6888    6.8118 H   0  0  0  0  0
   18.6145   23.8767    7.3589 H   0  0  0  0  0
   17.9952   23.4567    9.6166 H   0  0  0  0  0
   16.8907   22.1860    9.0314 H   0  0  0  0  0
   15.5919   23.8046    7.7968 H   0  0  0  0  0
   16.7644   25.1073    8.2172 H   0  0  0  0  0
   13.4400   23.8953    9.2634 H   0  0  0  0  0
   15.0749   25.4820   12.8666 H   0  0  0  0  0
  1  2  1  0  0  0
  2  3  1  0  0  0
  3  4  1  0  0  0
  4  5  4  0  0  0
  4  6  4  0  0  0
  5  7  4  0  0  0
  6  8  4  0  0  0
  7  8  4  0  0  0
  1  9  1  0  0  0
  1 10  1  0  0  0
  1 11  1  0  0  0
  2 12  1  0  0  0
  2 13  1  0  0  0
  3 14  1  0  0  0
  3 15  1  0  0  0
  6 16  1  0  0  0
  7 17  1  0  0  0
M  END
$$$$
