4bi2_ligand
  -I-interpret- 

 19 21  0  0  0  0  0  0  0  0999 V2000
   -0.7210   42.1430   17.0310 C   0  0  0  0  0
   -0.8360   42.5490   18.3940 C   0  0  0  0  0
   -1.7300   41.8230   19.2070 C   0  0  0  0  0
   -2.3460   40.4460   17.4970 C   0  0  0  0  0
   -1.5190   41.0510   16.6040 C   0  0  0  0  0
    1.3610   43.7010   14.3320 C   0  0  0  0  0
    0.5160   42.7290   14.7320 C   0  0  0  0  0
    0.1470   42.8850   16.1480 C   0  0  0  0  0
    0.7870   44.0140   16.7640 C   0  0  0  0  0
    0.6940   44.3970   18.0430 N   0  0  0  0  0
    1.7580   44.8220   15.5790 S   0  0  0  0  0
   -0.0870   43.6730   18.8210 C   0  0  0  0  0
   -2.4680   40.8000   18.7840 N   0  0  0  0  0
   -1.8228   42.1195   20.2518 H   0  0  0  0  0
   -2.9532   39.6137   17.1412 H   0  0  0  0  0
   -1.4697   40.7014   15.5728 H   0  0  0  0  0
    1.7547   43.7707   13.3180 H   0  0  0  0  0
    0.1522   41.9287   14.0876 H   0  0  0  0  0
   -0.1616   43.9607   19.8697 H   0  0  0  0  0
  1  2  4  0  0  0
  1  5  4  0  0  0
  8  1  4  0  0  0
  2  3  4  0  0  0
  2 12  4  0  0  0
  3 13  4  0  0  0
  5  4  4  0  0  0
  4 13  4  0  0  0
  7  6  4  0  0  0
  6 11  4  0  0  0
  7  8  4  0  0  0
  8  9  4  0  0  0
  9 10  4  0  0  0
  9 11  4  0  0  0
 10 12  4  0  0  0
  3 14  1  0  0  0
  4 15  1  0  0  0
  5 16  1  0  0  0
  6 17  1  0  0  0
  7 18  1  0  0  0
 12 19  1  0  0  0
M  END
$$$$
