### 
### Created by X-TOOL on Mon Sep 10 21:13:02 2018
### 

@<TRIPOS>MOLECULE
2rol_ligand
  194   199     1     0     0
SMALL
GAST_HUCK


@<TRIPOS>ATOM
      1 N          19.0320   15.1990   26.9670 N.4       1 PRO         0.2461
      2 CA         19.1750   16.5100   26.2680 C.3       1 PRO         0.0671
      3 C          18.8470   16.4050   24.7570 C.2       1 PRO         0.2293
      4 O          19.7580   16.3580   23.9240 O.2       1 PRO        -0.3905
      5 CB         20.6050   17.0070   26.5530 C.3       1 PRO         0.0127
      6 CG         21.3960   15.7060   26.7080 C.3       1 PRO        -0.0053
      7 CD         20.3870   14.8430   27.4610 C.3       1 PRO        -0.0313
      8 N          17.5510   16.3490   24.3810 N.am      1 PRO        -0.2471
      9 CA         17.1110   16.3030   22.9820 C.3       1 PRO         0.1339
     10 C          17.3710   17.6310   22.2400 C.2       1 PRO         0.2041
     11 O          17.8350   18.6100   22.8310 O.2       1 PRO        -0.3944
     12 CB         15.6220   15.9390   23.0490 C.3       1 PRO        -0.0104
     13 CG         15.1720   16.5710   24.3630 C.3       1 PRO        -0.0281
     14 CD         16.3910   16.3900   25.2680 C.3       1 PRO         0.0371
     15 N          17.0520   17.6660   20.9370 N.am      1 VAL        -0.2635
     16 CA         17.3340   18.7960   20.0210 C.3       1 VAL         0.1334
     17 C          18.8600   19.0720   19.9400 C.2       1 VAL         0.2066
     18 O          19.3510   20.0630   20.4940 O.2       1 VAL        -0.3942
     19 CB         16.4670   20.0370   20.3630 C.3       1 VAL        -0.0062
     20 CG1        16.5690   21.1980   19.3630 C.3       1 VAL        -0.0584
     21 CG2        14.9750   19.6670   20.4330 C.3       1 VAL        -0.0584
     22 N          19.6370   18.1650   19.3010 N.am      1 PRO        -0.2498
     23 CA         21.0830   18.2910   19.0700 C.3       1 PRO         0.1338
     24 C          21.4290   19.4210   18.0720 C.2       1 PRO         0.2042
     25 O          20.5640   20.2050   17.6690 O.2       1 PRO        -0.3944
     26 CB         21.5170   16.9100   18.5640 C.3       1 PRO        -0.0104
     27 CG         20.2980   16.4480   17.7860 C.3       1 PRO        -0.0281
     28 CD         19.1580   16.9540   18.6530 C.3       1 PRO         0.0369
     29 N          22.7040   19.4990   17.6600 N.am      1 ASN        -0.2616
     30 CA         23.2240   20.4970   16.7100 C.3       1 ASN         0.1478
     31 C          22.3540   20.6600   15.4320 C.2       1 ASN         0.2088
     32 O          21.8000   19.6670   14.9420 O.2       1 ASN        -0.3940
     33 CB         24.6960   20.1780   16.3690 C.3       1 ASN         0.0773
     34 CG         25.6810   21.0100   17.1780 C.2       1 ASN         0.1780
     35 OD1        26.4030   21.8450   16.6500 O.2       1 ASN        -0.3970
     36 ND2        25.7360   20.8360   18.4810 N.am      1 ASN        -0.3007
     37 N          22.2410   21.8860   14.8750 N.am      1 PRO        -0.2497
     38 CA         21.3340   22.1900   13.7650 C.3       1 PRO         0.1338
     39 C          21.7280   21.4530   12.4760 C.2       1 PRO         0.2042
     40 O          22.9050   21.3830   12.1080 O.2       1 PRO        -0.3944
     41 CB         21.3850   23.7120   13.5880 C.3       1 PRO        -0.0104
     42 CG         22.7530   24.0970   14.1470 C.3       1 PRO        -0.0281
     43 CD         22.9540   23.0920   15.2800 C.3       1 PRO         0.0369
     44 N          20.7300   20.9080   11.7780 N.am      1 ASP        -0.2622
     45 CA         20.9340   20.1130   10.5630 C.3       1 ASP         0.1423
     46 C          21.1470   20.9800    9.3060 C.2       1 ASP         0.2057
     47 O          20.5950   22.0800    9.1840 O.2       1 ASP        -0.3943
     48 CB         19.7410   19.1690   10.3770 C.3       1 ASP         0.0406
     49 CG         20.1650   17.9090    9.6080 C.2       1 ASP         0.0393
     50 OD1        21.0460   17.1790   10.1180 O.co2     1 ASP        -0.5688
     51 OD2        19.6310   17.6540    8.5030 O.co2     1 ASP        -0.5688
     52 N          21.9390   20.4740    8.3580 N.am      1 TYR        -0.2620
     53 CA         22.2070   21.1270    7.0700 C.3       1 TYR         0.1390
     54 C          21.0600   20.9150    6.0560 C.2       1 TYR         0.2057
     55 O          20.2710   19.9750    6.1730 O.2       1 TYR        -0.3942
     56 CB         23.5480   20.6090    6.5220 C.3       1 TYR         0.0163
     57 CG         24.7510   21.0260    7.3570 C.ar      1 TYR        -0.0493
     58 CD1        25.1890   20.2250    8.4310 C.ar      1 TYR        -0.0685
     59 CD2        25.4170   22.2360    7.0720 C.ar      1 TYR        -0.0685
     60 CE1        26.2860   20.6290    9.2180 C.ar      1 TYR        -0.0398
     61 CE2        26.5160   22.6440    7.8560 C.ar      1 TYR        -0.0398
     62 CZ         26.9510   21.8410    8.9330 C.ar      1 TYR         0.0805
     63 OH         28.0070   22.2290    9.7000 O.3       1 TYR        -0.3376
     64 N          20.9950   21.7690    5.0270 N.am      1 GLU        -0.2635
     65 CA         19.9800   21.7550    3.9520 C.3       1 GLU         0.1327
     66 C          18.5060   21.6730    4.4500 C.2       1 GLU         0.2065
     67 O          17.8300   20.6510    4.2600 O.2       1 GLU        -0.3942
     68 CB         20.3580   20.6840    2.9060 C.3       1 GLU        -0.0008
     69 CG         19.6470   20.8490    1.5540 C.3       1 GLU         0.0044
     70 CD         20.0560   22.1510    0.8390 C.2       1 GLU         0.0350
     71 OE1        21.1900   22.2300    0.3080 O.co2     1 GLU        -0.5690
     72 OE2        19.2480   23.1100    0.8060 O.co2     1 GLU        -0.5690
     73 N          17.9910   22.7310    5.1170 N.am      1 PRO        -0.2498
     74 CA         16.6150   22.7900    5.6250 C.3       1 PRO         0.1338
     75 C          15.5440   22.8660    4.5130 C.2       1 PRO         0.2041
     76 O          15.8380   23.0370    3.3260 O.2       1 PRO        -0.3944
     77 CB         16.5820   24.0240    6.5390 C.3       1 PRO        -0.0104
     78 CG         17.6190   24.9510    5.9130 C.3       1 PRO        -0.0281
     79 CD         18.6870   23.9780    5.4150 C.3       1 PRO         0.0369
     80 N          14.2710   22.7820    4.9240 N.am      1 ILE        -0.2635
     81 CA         13.0720   22.7250    4.0540 C.3       1 ILE         0.1335
     82 C          12.3540   24.1000    4.0090 C.2       1 ILE         0.2042
     83 O          11.1240   24.1970    3.9480 O.2       1 ILE        -0.3944
     84 CB         12.1300   21.5710    4.4950 C.3       1 ILE        -0.0037
     85 CG1        12.8880   20.3160    5.0110 C.3       1 ILE        -0.0491
     86 CG2        11.1800   21.1750    3.3550 C.3       1 ILE        -0.0582
     87 CD1        12.0290   19.0730    5.2980 C.3       1 ILE        -0.0648
     88 N          13.1280   25.1870    4.1170 N.am      1 ARG        -0.2650
     89 CA         12.6630   26.5870    4.2230 C.3       1 ARG         0.1129
     90 C          13.5840   27.5590    3.4770 C.2       1 ARG         0.1245
     91 O          14.8230   27.4430    3.5980 O.2       1 ARG        -0.3725
     92 CB         12.5210   27.0040    5.7020 C.3       1 ARG        -0.0105
     93 CG         11.4840   26.1620    6.4660 C.3       1 ARG        -0.0155
     94 CD         11.0760   26.7660    7.8130 C.3       1 ARG         0.0627
     95 NE         12.1780   26.7810    8.7990 N.pl3     1 ARG        -0.2723
     96 CZ         12.8600   27.8320    9.2220 C.cat     1 ARG         0.2882
     97 NH1        12.7490   29.0100    8.6790 N.pl3     1 ARG        -0.2849
     98 NH2        13.6870   27.7140   10.2200 N.pl3     1 ARG        -0.2849
     99 H1         18.6978   14.4961   26.3265 H         1 PRO         0.2035
    100 H2         18.3895   15.2829   27.7391 H         1 PRO         0.2035
    101 H3         18.4643   17.2244   26.7091 H         1 PRO         0.1099
    102 H4         20.6398   17.6034   27.4766 H         1 PRO         0.0347
    103 H5         20.9899   17.6064   25.7148 H         1 PRO         0.0347
    104 H6         22.3145   15.8584   27.2938 H         1 PRO         0.0320
    105 H7         21.6521   15.2696   25.7313 H         1 PRO         0.0320
    106 H8         20.5879   13.7785   27.2699 H         1 PRO         0.0814
    107 H9         20.4564   15.0412   28.5408 H         1 PRO         0.0814
    108 H10        17.6567   15.5081   22.4526 H         1 PRO         0.0802
    109 H11        15.4822   14.8481   23.0670 H         1 PRO         0.0313
    110 H12        15.0722   16.3652   22.1969 H         1 PRO         0.0313
    111 H13        14.2947   16.0489   24.7726 H         1 PRO         0.0287
    112 H14        14.9347   17.6366   24.2282 H         1 PRO         0.0287
    113 H15        16.4754   17.2341   25.9682 H         1 PRO         0.0524
    114 H16        16.3099   15.4505   25.8343 H         1 PRO         0.0524
    115 H17        16.5878   16.8672   20.5544 H         1 VAL         0.1883
    116 H18        17.0253   18.4762   19.0148 H         1 VAL         0.0803
    117 H19        16.7932   20.4016   21.3482 H         1 VAL         0.0343
    118 H20        15.9214   22.0238   19.6927 H         1 VAL         0.0234
    119 H21        16.2477   20.8547   18.3686 H         1 VAL         0.0234
    120 H22        17.6108   21.5472   19.3115 H         1 VAL         0.0234
    121 H23        14.8364   18.8347   21.1387 H         1 VAL         0.0234
    122 H24        14.6252   19.3637   19.4352 H         1 VAL         0.0234
    123 H25        14.3969   20.5380   20.7752 H         1 VAL         0.0234
    124 H26        21.5896   18.5105   20.0214 H         1 PRO         0.0802
    125 H27        21.7356   16.2305   19.4009 H         1 PRO         0.0313
    126 H28        22.3999   16.9847   17.9121 H         1 PRO         0.0313
    127 H29        20.2742   15.3521   17.6946 H         1 PRO         0.0287
    128 H30        20.2687   16.9003   16.7837 H         1 PRO         0.0287
    129 H31        18.2786   17.1782   18.0314 H         1 PRO         0.0524
    130 H32        18.8909   16.1995   19.4076 H         1 PRO         0.0524
    131 H33        23.3497   18.8287   18.0258 H         1 ASN         0.1885
    132 H34        23.2098   21.4688   17.2251 H         1 ASN         0.0826
    133 H35        24.8609   20.3787   15.3001 H         1 ASN         0.0551
    134 H36        24.8822   19.1137   16.5752 H         1 ASN         0.0551
    135 H37        26.3763   21.3727   19.0305 H         1 ASN         0.1814
    136 H38        25.1375   20.1671   18.9218 H         1 ASN         0.1814
    137 H39        20.3118   21.8868   14.0355 H         1 PRO         0.0802
    138 H40        20.5784   24.1999   14.1549 H         1 PRO         0.0313
    139 H41        21.3043   23.9861   12.5258 H         1 PRO         0.0313
    140 H42        22.7483   25.1284   14.5292 H         1 PRO         0.0287
    141 H43        23.5366   23.9929   13.3821 H         1 PRO         0.0287
    142 H44        24.0242   22.8767   15.4152 H         1 PRO         0.0524
    143 H45        22.5377   23.4856   16.2190 H         1 PRO         0.0524
    144 H46        19.7940   21.0491   12.1004 H         1 ASP         0.1884
    145 H47        21.8391   19.5041   10.7044 H         1 ASP         0.0819
    146 H48        18.9528   19.6890    9.8128 H         1 ASP         0.0478
    147 H49        19.3535   18.8769   11.3642 H         1 ASP         0.0478
    148 H50        22.3782   19.5935    8.5363 H         1 TYR         0.1885
    149 H51        22.3002   22.2087    7.2464 H         1 TYR         0.0821
    150 H52        23.6808   20.9993    5.5022 H         1 TYR         0.0453
    151 H53        23.5100   19.5101    6.4920 H         1 TYR         0.0453
    152 H54        24.6797   19.2941    8.6526 H         1 TYR         0.0530
    153 H55        25.0829   22.8549    6.2471 H         1 TYR         0.0530
    154 H56        26.6192   20.0089   10.0423 H         1 TYR         0.0525
    155 H57        27.0266   23.5736    7.6319 H         1 TYR         0.0525
    156 H58        28.1636   21.5779   10.3739 H         1 TYR         0.2458
    157 H59        21.6962   22.4805    4.9814 H         1 GLU         0.1883
    158 H60        20.0595   22.7262    3.4417 H         1 GLU         0.0801
    159 H61        20.0989   19.6959    3.3141 H         1 GLU         0.0330
    160 H62        21.4432   20.7368    2.7342 H         1 GLU         0.0330
    161 H63        18.5604   20.8642    1.7242 H         1 GLU         0.0433
    162 H64        19.9055   19.9949    0.9108 H         1 GLU         0.0433
    163 H65        16.4138   21.8880    6.2215 H         1 PRO         0.0802
    164 H66        16.8612   23.7590    7.5694 H         1 PRO         0.0313
    165 H67        15.5853   24.4893    6.5373 H         1 PRO         0.0313
    166 H68        18.0325   25.6446    6.6599 H         1 PRO         0.0287
    167 H69        17.1862   25.5244    5.0800 H         1 PRO         0.0287
    168 H70        19.1694   24.3720    4.5084 H         1 PRO         0.0524
    169 H71        19.4470   23.8145    6.1932 H         1 PRO         0.0524
    170 H72        14.1152   22.7552    5.9114 H         1 ILE         0.1883
    171 H73        13.4107   22.4994    3.0321 H         1 ILE         0.0803
    172 H74        11.5190   21.9506    5.3272 H         1 ILE         0.0345
    173 H75        13.3992   20.5932    5.9447 H         1 ILE         0.0267
    174 H76        13.6348   20.0396    4.2521 H         1 ILE         0.0267
    175 H77        10.6473   22.0675    2.9950 H         1 ILE         0.0235
    176 H78        10.4521   20.4374    3.7238 H         1 ILE         0.0235
    177 H79        11.7602   20.7366    2.5297 H         1 ILE         0.0235
    178 H80        12.6737   18.2563    5.6549 H         1 ILE         0.0230
    179 H81        11.5173   18.7600    4.3759 H         1 ILE         0.0230
    180 H82        11.2817   19.3136    6.0685 H         1 ILE         0.0230
    181 H83        14.1168   25.0378    4.1270 H         1 ARG         0.1884
    182 H84        11.6683   26.6445    3.7570 H         1 ARG         0.0790
    183 H85        13.1636   28.3424    2.8482 H         1 ARG         0.1373
    184 H86        12.2132   28.0593    5.7409 H         1 ARG         0.0314
    185 H87        13.4979   26.8886    6.1943 H         1 ARG         0.0314
    186 H88        11.9112   25.1647    6.6473 H         1 ARG         0.0301
    187 H89        10.5841   26.0673    5.8406 H         1 ARG         0.0301
    188 H90        10.2455   26.1740    8.2251 H         1 ARG         0.0689
    189 H91        10.7415   27.8005    7.6460 H         1 ARG         0.0689
    190 H92        12.4441   25.8709    9.2013 H         1 ARG         0.2642
    191 H93        13.3014   29.7992    9.0435 H         1 ARG         0.2615
    192 H94        12.1087   29.1528    7.8849 H         1 ARG         0.2615
    193 H95        13.8092   26.8018   10.6824 H         1 ARG         0.2615
    194 H96        14.2192   28.5328   10.5474 H         1 ARG         0.2615
@<TRIPOS>BOND
     1    1    2 1  
     2    1    7 1  
     3    2    3 1  
     4    2    5 1  
     5    3    4 2  
     6    3    8 am 
     7    5    6 1  
     8    6    7 1  
     9    8    9 1  
    10    8   14 1  
    11    9   10 1  
    12    9   12 1  
    13   10   11 2  
    14   10   15 am 
    15   12   13 1  
    16   13   14 1  
    17   15   16 1  
    18   16   17 1  
    19   16   19 1  
    20   17   18 2  
    21   17   22 am 
    22   19   20 1  
    23   19   21 1  
    24   22   23 1  
    25   22   28 1  
    26   23   24 1  
    27   23   26 1  
    28   24   25 2  
    29   24   29 am 
    30   26   27 1  
    31   27   28 1  
    32   29   30 1  
    33   30   31 1  
    34   30   33 1  
    35   31   32 2  
    36   31   37 am 
    37   33   34 1  
    38   34   35 2  
    39   34   36 am 
    40   37   38 1  
    41   37   43 1  
    42   38   39 1  
    43   38   41 1  
    44   39   40 2  
    45   39   44 am 
    46   41   42 1  
    47   42   43 1  
    48   44   45 1  
    49   45   46 1  
    50   45   48 1  
    51   46   47 2  
    52   46   52 am 
    53   48   49 1  
    54   49   50 ar 
    55   49   51 ar 
    56   52   53 1  
    57   53   54 1  
    58   53   56 1  
    59   54   55 2  
    60   54   64 am 
    61   56   57 1  
    62   57   58 ar 
    63   57   59 ar 
    64   58   60 ar 
    65   59   61 ar 
    66   60   62 ar 
    67   61   62 ar 
    68   62   63 1  
    69   64   65 1  
    70   65   66 1  
    71   65   68 1  
    72   66   67 2  
    73   66   73 am 
    74   68   69 1  
    75   69   70 1  
    76   70   71 ar 
    77   70   72 ar 
    78   73   74 1  
    79   73   79 1  
    80   74   75 1  
    81   74   77 1  
    82   75   76 2  
    83   75   80 am 
    84   77   78 1  
    85   78   79 1  
    86   80   81 1  
    87   81   82 1  
    88   81   84 1  
    89   82   83 2  
    90   82   88 am 
    91   84   85 1  
    92   84   86 1  
    93   85   87 1  
    94   88   89 1  
    95   89   90 1  
    96   89   92 1  
    97   90   91 2  
    98   92   93 1  
    99   93   94 1  
   100   94   95 1  
   101   95   96 ar 
   102   96   97 ar 
   103   96   98 ar 
   104    1   99 1  
   105    1  100 1  
   106    2  101 1  
   107    5  102 1  
   108    5  103 1  
   109    6  104 1  
   110    6  105 1  
   111    7  106 1  
   112    7  107 1  
   113    9  108 1  
   114   12  109 1  
   115   12  110 1  
   116   13  111 1  
   117   13  112 1  
   118   14  113 1  
   119   14  114 1  
   120   15  115 1  
   121   16  116 1  
   122   19  117 1  
   123   20  118 1  
   124   20  119 1  
   125   20  120 1  
   126   21  121 1  
   127   21  122 1  
   128   21  123 1  
   129   23  124 1  
   130   26  125 1  
   131   26  126 1  
   132   27  127 1  
   133   27  128 1  
   134   28  129 1  
   135   28  130 1  
   136   29  131 1  
   137   30  132 1  
   138   33  133 1  
   139   33  134 1  
   140   36  135 1  
   141   36  136 1  
   142   38  137 1  
   143   41  138 1  
   144   41  139 1  
   145   42  140 1  
   146   42  141 1  
   147   43  142 1  
   148   43  143 1  
   149   44  144 1  
   150   45  145 1  
   151   48  146 1  
   152   48  147 1  
   153   52  148 1  
   154   53  149 1  
   155   56  150 1  
   156   56  151 1  
   157   58  152 1  
   158   59  153 1  
   159   60  154 1  
   160   61  155 1  
   161   63  156 1  
   162   64  157 1  
   163   65  158 1  
   164   68  159 1  
   165   68  160 1  
   166   69  161 1  
   167   69  162 1  
   168   74  163 1  
   169   77  164 1  
   170   77  165 1  
   171   78  166 1  
   172   78  167 1  
   173   79  168 1  
   174   79  169 1  
   175   80  170 1  
   176   81  171 1  
   177   84  172 1  
   178   85  173 1  
   179   85  174 1  
   180   86  175 1  
   181   86  176 1  
   182   86  177 1  
   183   87  178 1  
   184   87  179 1  
   185   87  180 1  
   186   88  181 1  
   187   89  182 1  
   188   90  183 1  
   189   92  184 1  
   190   92  185 1  
   191   93  186 1  
   192   93  187 1  
   193   94  188 1  
   194   94  189 1  
   195   95  190 1  
   196   97  191 1  
   197   97  192 1  
   198   98  193 1  
   199   98  194 1  
@<TRIPOS>SUBSTRUCTURE
     1 PRO         1

