2rol_ligand
  -I-interpret- 

195200  0  0  0  0  0  0  0  0999 V2000
   19.0320   15.1990   26.9670 N   0  3  0  0  0
   19.1750   16.5100   26.2680 C   0  0  0  0  0
   18.8470   16.4050   24.7570 C   0  0  0  0  0
   19.7580   16.3580   23.9240 O   0  0  0  0  0
   20.6050   17.0070   26.5530 C   0  0  0  0  0
   21.3960   15.7060   26.7080 C   0  0  0  0  0
   20.3870   14.8430   27.4610 C   0  0  0  0  0
   17.5510   16.3490   24.3810 N   0  0  0  0  0
   17.1110   16.3030   22.9820 C   0  0  0  0  0
   17.3710   17.6310   22.2400 C   0  0  0  0  0
   17.8350   18.6100   22.8310 O   0  0  0  0  0
   15.6220   15.9390   23.0490 C   0  0  0  0  0
   15.1720   16.5710   24.3630 C   0  0  0  0  0
   16.3910   16.3900   25.2680 C   0  0  0  0  0
   17.0520   17.6660   20.9370 N   0  0  0  0  0
   17.3340   18.7960   20.0210 C   0  0  0  0  0
   18.8600   19.0720   19.9400 C   0  0  0  0  0
   19.3510   20.0630   20.4940 O   0  0  0  0  0
   16.4670   20.0370   20.3630 C   0  0  0  0  0
   16.5690   21.1980   19.3630 C   0  0  0  0  0
   14.9750   19.6670   20.4330 C   0  0  0  0  0
   19.6370   18.1650   19.3010 N   0  0  0  0  0
   21.0830   18.2910   19.0700 C   0  0  0  0  0
   21.4290   19.4210   18.0720 C   0  0  0  0  0
   20.5640   20.2050   17.6690 O   0  0  0  0  0
   21.5170   16.9100   18.5640 C   0  0  0  0  0
   20.2980   16.4480   17.7860 C   0  0  0  0  0
   19.1580   16.9540   18.6530 C   0  0  0  0  0
   22.7040   19.4990   17.6600 N   0  0  0  0  0
   23.2240   20.4970   16.7100 C   0  0  0  0  0
   22.3540   20.6600   15.4320 C   0  0  0  0  0
   21.8000   19.6670   14.9420 O   0  0  0  0  0
   24.6960   20.1780   16.3690 C   0  0  0  0  0
   25.6810   21.0100   17.1780 C   0  0  0  0  0
   26.4030   21.8450   16.6500 O   0  0  0  0  0
   25.7360   20.8360   18.4810 N   0  0  0  0  0
   22.2410   21.8860   14.8750 N   0  0  0  0  0
   21.3340   22.1900   13.7650 C   0  0  0  0  0
   21.7280   21.4530   12.4760 C   0  0  0  0  0
   22.9050   21.3830   12.1080 O   0  0  0  0  0
   21.3850   23.7120   13.5880 C   0  0  0  0  0
   22.7530   24.0970   14.1470 C   0  0  0  0  0
   22.9540   23.0920   15.2800 C   0  0  0  0  0
   20.7300   20.9080   11.7780 N   0  0  0  0  0
   20.9340   20.1130   10.5630 C   0  0  0  0  0
   21.1470   20.9800    9.3060 C   0  0  0  0  0
   20.5950   22.0800    9.1840 O   0  0  0  0  0
   19.7410   19.1690   10.3770 C   0  0  0  0  0
   20.1650   17.9090    9.6080 C   0  0  0  0  0
   21.0460   17.1790   10.1180 O   0  0  0  0  0
   19.6310   17.6540    8.5030 O   0  0  0  0  0
   21.9390   20.4740    8.3580 N   0  0  0  0  0
   22.2070   21.1270    7.0700 C   0  0  0  0  0
   21.0600   20.9150    6.0560 C   0  0  0  0  0
   20.2710   19.9750    6.1730 O   0  0  0  0  0
   23.5480   20.6090    6.5220 C   0  0  0  0  0
   24.7510   21.0260    7.3570 C   0  0  0  0  0
   25.1890   20.2250    8.4310 C   0  0  0  0  0
   25.4170   22.2360    7.0720 C   0  0  0  0  0
   26.2860   20.6290    9.2180 C   0  0  0  0  0
   26.5160   22.6440    7.8560 C   0  0  0  0  0
   26.9510   21.8410    8.9330 C   0  0  0  0  0
   28.0070   22.2290    9.7000 O   0  0  0  0  0
   20.9950   21.7690    5.0270 N   0  0  0  0  0
   19.9800   21.7550    3.9520 C   0  0  0  0  0
   18.5060   21.6730    4.4500 C   0  0  0  0  0
   17.8300   20.6510    4.2600 O   0  0  0  0  0
   20.3580   20.6840    2.9060 C   0  0  0  0  0
   19.6470   20.8490    1.5540 C   0  0  0  0  0
   20.0560   22.1510    0.8390 C   0  0  0  0  0
   21.1900   22.2300    0.3080 O   0  0  0  0  0
   19.2480   23.1100    0.8060 O   0  0  0  0  0
   17.9910   22.7310    5.1170 N   0  0  0  0  0
   16.6150   22.7900    5.6250 C   0  0  0  0  0
   15.5440   22.8660    4.5130 C   0  0  0  0  0
   15.8380   23.0370    3.3260 O   0  0  0  0  0
   16.5820   24.0240    6.5390 C   0  0  0  0  0
   17.6190   24.9510    5.9130 C   0  0  0  0  0
   18.6870   23.9780    5.4150 C   0  0  0  0  0
   14.2710   22.7820    4.9240 N   0  0  0  0  0
   13.0720   22.7250    4.0540 C   0  0  0  0  0
   12.3540   24.1000    4.0090 C   0  0  0  0  0
   11.1240   24.1970    3.9480 O   0  0  0  0  0
   12.1300   21.5710    4.4950 C   0  0  0  0  0
   12.8880   20.3160    5.0110 C   0  0  0  0  0
   11.1800   21.1750    3.3550 C   0  0  0  0  0
   12.0290   19.0730    5.2980 C   0  0  0  0  0
   13.1280   25.1870    4.1170 N   0  0  0  0  0
   12.6630   26.5870    4.2230 C   0  0  0  0  0
   13.5840   27.5590    3.4770 C   0  0  0  0  0
   14.8230   27.4430    3.5980 O   0  0  0  0  0
   12.5210   27.0040    5.7020 C   0  0  0  0  0
   11.4840   26.1620    6.4660 C   0  0  0  0  0
   11.0760   26.7660    7.8130 C   0  0  0  0  0
   12.1780   26.7810    8.7990 N   0  0  0  0  0
   12.8600   27.8320    9.2220 C   0  0  0  0  0
   12.7490   29.0100    8.6790 N   0  0  0  0  0
   13.6870   27.7140   10.2200 N   0  0  0  0  0
   18.6707   14.4834   26.3363 H   0  0  0  0  0
   18.3652   15.2631   27.7362 H   0  0  0  0  0
   18.4527   17.2354   26.6423 H   0  0  0  0  0
   20.6630   17.6447   27.4351 H   0  0  0  0  0
   20.9954   17.6475   25.7622 H   0  0  0  0  0
   22.3478   15.8263   27.2253 H   0  0  0  0  0
   21.7281   15.2753   25.7633 H   0  0  0  0  0
   20.5883   13.7857   27.2886 H   0  0  0  0  0
   20.4594   15.0228   28.5336 H   0  0  0  0  0
   17.6733   15.5699   22.4037 H   0  0  0  0  0
   15.4486   14.8634   23.0168 H   0  0  0  0  0
   15.0591   16.3046   22.1902 H   0  0  0  0  0
   14.2728   16.1071   24.7683 H   0  0  0  0  0
   14.8808   17.6154   24.2511 H   0  0  0  0  0
   16.4730   17.2056   25.9864 H   0  0  0  0  0
   16.3125   15.4759   25.8566 H   0  0  0  0  0
   16.5785   16.8512   20.5467 H   0  0  0  0  0
   17.0336   18.5200   19.0102 H   0  0  0  0  0
   16.8669   20.3667   21.3219 H   0  0  0  0  0
   17.6017   21.5430   19.3129 H   0  0  0  0  0
   16.2504   20.8566   18.3781 H   0  0  0  0  0
   15.9270   22.0156   19.6907 H   0  0  0  0  0
   14.6545   19.2715   19.4692 H   0  0  0  0  0
   14.8250   18.9123   21.2050 H   0  0  0  0  0
   14.3924   20.5561   20.6742 H   0  0  0  0  0
   21.6132   18.5752   19.9790 H   0  0  0  0  0
   21.7946   16.2282   19.3679 H   0  0  0  0  0
   22.4232   16.9419   17.9591 H   0  0  0  0  0
   20.2720   15.3702   17.6253 H   0  0  0  0  0
   20.2668   16.8310   16.7660 H   0  0  0  0  0
   18.2718   17.1577   18.0520 H   0  0  0  0  0
   18.8673   16.2059   19.3905 H   0  0  0  0  0
   23.3626   18.8153   18.0331 H   0  0  0  0  0
   23.1736   21.4668   17.2050 H   0  0  0  0  0
   24.8521   20.4067   15.3147 H   0  0  0  0  0
   24.8735   19.1284   16.6032 H   0  0  0  0  0
   26.3773   21.3952   19.0436 H   0  0  0  0  0
   25.1374   20.1419   18.9286 H   0  0  0  0  0
   20.3220   21.8497   13.9844 H   0  0  0  0  0
   20.5684   24.2177   14.1033 H   0  0  0  0  0
   21.2614   24.0136   12.5479 H   0  0  0  0  0
   22.7954   25.1318   14.4867 H   0  0  0  0  0
   23.5436   24.0540   13.3979 H   0  0  0  0  0
   24.0120   22.8893   15.4463 H   0  0  0  0  0
   22.5723   23.4790   16.2248 H   0  0  0  0  0
   19.7752   21.0519   12.1068 H   0  0  0  0  0
   21.8512   19.5380   10.6901 H   0  0  0  0  0
   18.9665   19.6854    9.8100 H   0  0  0  0  0
   19.3661   18.8754   11.3575 H   0  0  0  0  0
   18.9860   18.3342    8.2960 H   0  0  0  0  0
   22.3870   19.5759    8.5399 H   0  0  0  0  0
   22.2691   22.2036    7.2286 H   0  0  0  0  0
   23.6792   21.0326    5.5263 H   0  0  0  0  0
   23.5057   19.5199    6.5317 H   0  0  0  0  0
   24.6769   19.2889    8.6538 H   0  0  0  0  0
   25.0810   22.8583    6.2426 H   0  0  0  0  0
   26.6210   20.0055   10.0469 H   0  0  0  0  0
   27.0294   23.5788    7.6307 H   0  0  0  0  0
   28.3442   23.0679    9.3774 H   0  0  0  0  0
   21.7102   22.4948    4.9804 H   0  0  0  0  0
   19.9995   22.7293    3.4637 H   0  0  0  0  0
   20.0591   19.7175    3.3117 H   0  0  0  0  0
   21.4281   20.7774    2.7211 H   0  0  0  0  0
   18.5730   20.8845    1.7368 H   0  0  0  0  0
   19.9272   20.0094    0.9179 H   0  0  0  0  0
   21.6604   21.4030    0.4361 H   0  0  0  0  0
   16.3631   21.8723    6.1564 H   0  0  0  0  0
   16.8068   23.7832    7.5780 H   0  0  0  0  0
   15.5927   24.4781    6.5959 H   0  0  0  0  0
   18.0100   25.6863    6.6163 H   0  0  0  0  0
   17.2073   25.5722    5.1176 H   0  0  0  0  0
   19.1933   24.3673    4.5317 H   0  0  0  0  0
   19.4625   23.8265    6.1658 H   0  0  0  0  0
   14.1121   22.7547    5.9312 H   0  0  0  0  0
   13.3873   22.5048    3.0341 H   0  0  0  0  0
   11.5548   21.9611    5.3347 H   0  0  0  0  0
   13.3368   20.6017    5.9624 H   0  0  0  0  0
   13.5796   20.0312    4.2181 H   0  0  0  0  0
   10.5735   22.0358    3.0736 H   0  0  0  0  0
   11.7635   20.8437    2.4960 H   0  0  0  0  0
   10.5312   20.3654    3.6891 H   0  0  0  0  0
   11.2890   19.3127    6.0615 H   0  0  0  0  0
   11.5225   18.7639    4.3836 H   0  0  0  0  0
   12.6689   18.2645    5.6515 H   0  0  0  0  0
   14.1365   25.0349    4.1272 H   0  0  0  0  0
   11.6837   26.6372    3.7471 H   0  0  0  0  0
   13.1632   28.3431    2.8476 H   0  0  0  0  0
   12.1882   28.0417    5.7244 H   0  0  0  0  0
   13.4880   26.8572    6.1831 H   0  0  0  0  0
   11.9358   25.1906    6.6669 H   0  0  0  0  0
   10.5880   26.1071    5.8477 H   0  0  0  0  0
   10.2736   26.1521    8.2221 H   0  0  0  0  0
   10.7758   27.7987    7.6358 H   0  0  0  0  0
   12.4416   25.8798    9.1974 H   0  0  0  0  0
   13.2976   29.7911    9.0386 H   0  0  0  0  0
   12.1134   29.1519    7.8940 H   0  0  0  0  0
   13.8096   26.8102   10.6767 H   0  0  0  0  0
  1  2  1  0  0  0
  1  7  1  0  0  0
  2  3  1  0  0  0
  2  5  1  0  0  0
  3  4  2  0  0  0
  3  8  1  0  0  0
  5  6  1  0  0  0
  6  7  1  0  0  0
  8  9  1  0  0  0
  8 14  1  0  0  0
  9 10  1  0  0  0
  9 12  1  0  0  0
 10 11  2  0  0  0
 10 15  1  0  0  0
 12 13  1  0  0  0
 13 14  1  0  0  0
 15 16  1  0  0  0
 16 17  1  0  0  0
 16 19  1  0  0  0
 17 18  2  0  0  0
 17 22  1  0  0  0
 19 20  1  0  0  0
 19 21  1  0  0  0
 22 23  1  0  0  0
 22 28  1  0  0  0
 23 24  1  0  0  0
 23 26  1  0  0  0
 24 25  2  0  0  0
 24 29  1  0  0  0
 26 27  1  0  0  0
 27 28  1  0  0  0
 29 30  1  0  0  0
 30 31  1  0  0  0
 30 33  1  0  0  0
 31 32  2  0  0  0
 31 37  1  0  0  0
 33 34  1  0  0  0
 34 35  2  0  0  0
 34 36  1  0  0  0
 37 38  1  0  0  0
 37 43  1  0  0  0
 38 39  1  0  0  0
 38 41  1  0  0  0
 39 40  2  0  0  0
 39 44  1  0  0  0
 41 42  1  0  0  0
 42 43  1  0  0  0
 44 45  1  0  0  0
 45 46  1  0  0  0
 45 48  1  0  0  0
 46 47  2  0  0  0
 46 52  1  0  0  0
 48 49  1  0  0  0
 49 50  2  0  0  0
 49 51  1  0  0  0
 52 53  1  0  0  0
 53 54  1  0  0  0
 53 56  1  0  0  0
 54 55  2  0  0  0
 54 64  1  0  0  0
 56 57  1  0  0  0
 57 58  4  0  0  0
 57 59  4  0  0  0
 58 60  4  0  0  0
 59 61  4  0  0  0
 60 62  4  0  0  0
 61 62  4  0  0  0
 62 63  1  0  0  0
 64 65  1  0  0  0
 65 66  1  0  0  0
 65 68  1  0  0  0
 66 67  2  0  0  0
 66 73  1  0  0  0
 68 69  1  0  0  0
 69 70  1  0  0  0
 70 71  1  0  0  0
 70 72  2  0  0  0
 73 74  1  0  0  0
 73 79  1  0  0  0
 74 75  1  0  0  0
 74 77  1  0  0  0
 75 76  2  0  0  0
 75 80  1  0  0  0
 77 78  1  0  0  0
 78 79  1  0  0  0
 80 81  1  0  0  0
 81 82  1  0  0  0
 81 84  1  0  0  0
 82 83  2  0  0  0
 82 88  1  0  0  0
 84 85  1  0  0  0
 84 86  1  0  0  0
 85 87  1  0  0  0
 88 89  1  0  0  0
 89 90  1  0  0  0
 89 92  1  0  0  0
 90 91  2  0  0  0
 92 93  1  0  0  0
 93 94  1  0  0  0
 94 95  1  0  0  0
 95 96  1  0  0  0
 96 97  1  0  0  0
 96 98  2  0  0  0
  1 99  1  0  0  0
  1100  1  0  0  0
  2101  1  0  0  0
  5102  1  0  0  0
  5103  1  0  0  0
  6104  1  0  0  0
  6105  1  0  0  0
  7106  1  0  0  0
  7107  1  0  0  0
  9108  1  0  0  0
 12109  1  0  0  0
 12110  1  0  0  0
 13111  1  0  0  0
 13112  1  0  0  0
 14113  1  0  0  0
 14114  1  0  0  0
 15115  1  0  0  0
 16116  1  0  0  0
 19117  1  0  0  0
 20118  1  0  0  0
 20119  1  0  0  0
 20120  1  0  0  0
 21121  1  0  0  0
 21122  1  0  0  0
 21123  1  0  0  0
 23124  1  0  0  0
 26125  1  0  0  0
 26126  1  0  0  0
 27127  1  0  0  0
 27128  1  0  0  0
 28129  1  0  0  0
 28130  1  0  0  0
 29131  1  0  0  0
 30132  1  0  0  0
 33133  1  0  0  0
 33134  1  0  0  0
 36135  1  0  0  0
 36136  1  0  0  0
 38137  1  0  0  0
 41138  1  0  0  0
 41139  1  0  0  0
 42140  1  0  0  0
 42141  1  0  0  0
 43142  1  0  0  0
 43143  1  0  0  0
 44144  1  0  0  0
 45145  1  0  0  0
 48146  1  0  0  0
 48147  1  0  0  0
 51148  1  0  0  0
 52149  1  0  0  0
 53150  1  0  0  0
 56151  1  0  0  0
 56152  1  0  0  0
 58153  1  0  0  0
 59154  1  0  0  0
 60155  1  0  0  0
 61156  1  0  0  0
 63157  1  0  0  0
 64158  1  0  0  0
 65159  1  0  0  0
 68160  1  0  0  0
 68161  1  0  0  0
 69162  1  0  0  0
 69163  1  0  0  0
 71164  1  0  0  0
 74165  1  0  0  0
 77166  1  0  0  0
 77167  1  0  0  0
 78168  1  0  0  0
 78169  1  0  0  0
 79170  1  0  0  0
 79171  1  0  0  0
 80172  1  0  0  0
 81173  1  0  0  0
 84174  1  0  0  0
 85175  1  0  0  0
 85176  1  0  0  0
 86177  1  0  0  0
 86178  1  0  0  0
 86179  1  0  0  0
 87180  1  0  0  0
 87181  1  0  0  0
 87182  1  0  0  0
 88183  1  0  0  0
 89184  1  0  0  0
 90185  1  0  0  0
 92186  1  0  0  0
 92187  1  0  0  0
 93188  1  0  0  0
 93189  1  0  0  0
 94190  1  0  0  0
 94191  1  0  0  0
 95192  1  0  0  0
 97193  1  0  0  0
 97194  1  0  0  0
 98195  1  0  0  0
M  END
$$$$
