6bw2_ligand
  -I-interpret- 

 85 90  0  0  0  0  0  0  0  0999 V2000
   50.9390    4.5750   35.0700 C   0  0  0  0  0
   48.6240    3.1900   30.7670 C   0  0  0  0  0
   45.4770   -5.5720   38.4790 C   0  0  0  0  0
   48.8200   -2.3210   40.5840 C   0  0  0  0  0
   47.5470   -4.1890   42.6780 C   0  0  0  0  0
   50.6870  -12.4140   34.3310 C   0  0  0  0  0
   47.0210   -1.4200   36.2590 C   0  0  0  0  0
   51.1510  -11.1730   34.7500 C   0  0  0  0  0
   49.3930  -12.5380   33.8400 C   0  0  0  0  0
   46.8480   -2.0300   37.5120 C   0  0  0  0  0
   47.8070   -2.0260   35.3030 C   0  0  0  0  0
   50.7600    2.1670   34.3710 C   0  0  0  0  0
   49.6610    1.5000   32.3200 C   0  0  0  0  0
   49.0410  -10.1780   34.1860 C   0  0  0  0  0
   50.7000   -2.5510   33.4300 C   0  0  0  0  0
   49.1900   -7.4910   37.6510 C   0  0  0  0  0
   50.1500   -1.2460   32.8430 C   0  0  0  0  0
   49.7070   -3.7310   33.3710 C   0  0  0  0  0
   48.8100   -7.7560   36.1930 C   0  0  0  0  0
   49.0970   -5.9860   37.9450 C   0  0  0  0  0
   50.9670   -8.7290   35.1720 C   0  0  0  0  0
   47.1730  -11.5570   33.2450 C   0  0  0  0  0
   50.4920   -6.3010   35.1840 C   0  0  0  0  0
   50.4840    3.5030   34.0980 C   0  0  0  0  0
   49.3750    2.8310   32.0330 C   0  0  0  0  0
   46.3400   -4.8290   39.4660 C   0  0  0  0  0
   50.3370  -10.0380   34.6950 C   0  0  0  0  0
   50.3490    1.1740   33.4820 C   0  0  0  0  0
   47.7920   -3.4040   40.3150 C   0  0  0  0  0
   48.5470  -11.4220   33.7620 C   0  0  0  0  0
   49.7870    3.8340   32.9230 C   0  0  0  0  0
   47.4540   -3.2420   37.8260 C   0  0  0  0  0
   49.2840   -4.0640   34.7960 C   0  0  0  0  0
   47.2100   -3.7860   39.1510 C   0  0  0  0  0
   49.6410   -5.1660   35.5400 C   0  0  0  0  0
   48.4420   -3.2520   35.5820 C   0  0  0  0  0
   48.2710   -3.8570   36.8250 C   0  0  0  0  0
   46.3590   -5.0870   40.7380 N   0  0  0  0  0
   50.0790   -7.5770   35.4970 N   0  0  0  0  0
   47.2510   -4.2090   41.2590 N   0  0  0  0  0
   49.0150   -5.0540   36.7930 N   0  0  0  0  0
   46.9800  -12.1750   32.1600 O   0  0  0  0  0
   51.5790   -6.1800   34.6270 O   0  0  0  0  0
   46.2060  -11.0590   33.8870 O   0  0  0  0  0
   50.5970   -0.1680   33.7060 O   0  0  0  0  0
   49.4240    5.4970   32.5540 Cl  0  0  0  0  0
   50.4805    4.3995   36.0432 H   0  0  0  0  0
   52.0241    4.5393   35.1665 H   0  0  0  0  0
   50.6382    5.5538   34.6964 H   0  0  0  0  0
   49.1912    2.8496   29.9007 H   0  0  0  0  0
   47.6471    2.7066   30.7761 H   0  0  0  0  0
   48.4953    4.2712   30.7166 H   0  0  0  0  0
   44.7980   -4.8716   37.9927 H   0  0  0  0  0
   46.1104   -6.0460   37.7292 H   0  0  0  0  0
   44.9006   -6.3339   39.0037 H   0  0  0  0  0
   49.7249   -2.5311   40.0139 H   0  0  0  0  0
   48.4153   -1.3548   40.2826 H   0  0  0  0  0
   49.0557   -2.3017   41.6480 H   0  0  0  0  0
   48.6077   -4.3892   42.8294 H   0  0  0  0  0
   47.2990   -3.2090   43.0858 H   0  0  0  0  0
   46.9560   -4.9538   43.1819 H   0  0  0  0  0
   51.3362  -13.2877   34.3873 H   0  0  0  0  0
   46.5344   -0.4689   36.0430 H   0  0  0  0  0
   52.1691  -11.0829   35.1288 H   0  0  0  0  0
   49.0317  -13.5127   33.5121 H   0  0  0  0  0
   46.2222   -1.5407   38.2584 H   0  0  0  0  0
   47.9377   -1.5555   34.3285 H   0  0  0  0  0
   51.2975    1.8963   35.2798 H   0  0  0  0  0
   49.3456    0.7139   31.6339 H   0  0  0  0  0
   48.3992   -9.2997   34.1170 H   0  0  0  0  0
   50.9210   -2.3657   34.4811 H   0  0  0  0  0
   51.5713   -2.8308   32.8379 H   0  0  0  0  0
   50.2108   -7.8309   37.8258 H   0  0  0  0  0
   48.5059   -8.0301   38.3064 H   0  0  0  0  0
   49.0614   -1.2743   32.7952 H   0  0  0  0  0
   50.5118   -1.0993   31.8253 H   0  0  0  0  0
   50.1791   -4.5969   32.9068 H   0  0  0  0  0
   48.8363   -3.4602   32.7738 H   0  0  0  0  0
   48.0264   -7.0915   35.8289 H   0  0  0  0  0
   48.3743   -8.7431   36.0385 H   0  0  0  0  0
   50.0265   -5.7334   38.4553 H   0  0  0  0  0
   48.1618   -5.8553   38.4894 H   0  0  0  0  0
   51.5747   -8.3878   34.3339 H   0  0  0  0  0
   51.4578   -8.9796   36.1124 H   0  0  0  0  0
   47.8211  -12.4825   31.8142 H   0  0  0  0  0
 24  1  1  0  0  0
 25  2  1  0  0  0
 26  3  1  0  0  0
 29  4  1  0  0  0
 40  5  1  0  0  0
  8  6  4  0  0  0
  6  9  4  0  0  0
  7 10  4  0  0  0
 11  7  4  0  0  0
 27  8  4  0  0  0
 30  9  4  0  0  0
 10 32  4  0  0  0
 36 11  4  0  0  0
 12 24  4  0  0  0
 28 12  4  0  0  0
 13 25  4  0  0  0
 28 13  4  0  0  0
 27 14  4  0  0  0
 14 30  4  0  0  0
 15 17  1  0  0  0
 18 15  1  0  0  0
 19 16  1  0  0  0
 16 20  1  0  0  0
 17 45  1  0  0  0
 33 18  1  0  0  0
 39 19  1  0  0  0
 20 41  1  0  0  0
 21 27  1  0  0  0
 39 21  1  0  0  0
 30 22  1  0  0  0
 22 42  1  0  0  0
 22 44  2  0  0  0
 35 23  1  0  0  0
 23 39  1  0  0  0
 23 43  2  0  0  0
 24 31  4  0  0  0
 25 31  4  0  0  0
 34 26  4  0  0  0
 26 38  4  0  0  0
 45 28  1  0  0  0
 34 29  4  0  0  0
 29 40  4  0  0  0
 31 46  1  0  0  0
 32 34  1  0  0  0
 32 37  4  0  0  0
 33 35  4  0  0  0
 33 36  4  0  0  0
 35 41  4  0  0  0
 36 37  4  0  0  0
 37 41  4  0  0  0
 38 40  4  0  0  0
  1 47  1  0  0  0
  1 48  1  0  0  0
  1 49  1  0  0  0
  2 50  1  0  0  0
  2 51  1  0  0  0
  2 52  1  0  0  0
  3 53  1  0  0  0
  3 54  1  0  0  0
  3 55  1  0  0  0
  4 56  1  0  0  0
  4 57  1  0  0  0
  4 58  1  0  0  0
  5 59  1  0  0  0
  5 60  1  0  0  0
  5 61  1  0  0  0
  6 62  1  0  0  0
  7 63  1  0  0  0
  8 64  1  0  0  0
  9 65  1  0  0  0
 10 66  1  0  0  0
 11 67  1  0  0  0
 12 68  1  0  0  0
 13 69  1  0  0  0
 14 70  1  0  0  0
 15 71  1  0  0  0
 15 72  1  0  0  0
 16 73  1  0  0  0
 16 74  1  0  0  0
 17 75  1  0  0  0
 17 76  1  0  0  0
 18 77  1  0  0  0
 18 78  1  0  0  0
 19 79  1  0  0  0
 19 80  1  0  0  0
 20 81  1  0  0  0
 20 82  1  0  0  0
 21 83  1  0  0  0
 21 84  1  0  0  0
 42 85  1  0  0  0
M  END
$$$$
