4bi1_ligand
  -I-interpret- 

 19 21  0  0  0  0  0  0  0  0999 V2000
    1.5440   45.1470   16.8810 C   0  0  0  0  0
    1.6450   44.7190   15.6050 C   0  0  0  0  0
    0.6840   43.3280   15.2580 S   0  0  0  0  0
    0.0810   43.2840   16.8820 C   0  0  0  0  0
   -0.8270   42.3980   17.5430 C   0  0  0  0  0
    0.6440   44.3260   17.6780 C   0  0  0  0  0
    0.4120   44.5030   19.0040 N   0  0  0  0  0
   -0.4060   43.6570   19.5900 C   0  0  0  0  0
   -1.0710   42.5940   18.9370 C   0  0  0  0  0
   -1.9910   41.7480   19.5950 C   0  0  0  0  0
   -2.6250   40.7780   18.8830 C   0  0  0  0  0
   -2.4260   40.5560   17.5790 N   0  0  0  0  0
   -1.5530   41.3400   16.9480 C   0  0  0  0  0
    2.0781   46.0130   17.2721 H   0  0  0  0  0
    2.2756   45.2070   14.8618 H   0  0  0  0  0
   -0.5846   43.7845   20.6577 H   0  0  0  0  0
   -2.1903   41.8709   20.6596 H   0  0  0  0  0
   -3.3390   40.1426   19.4070 H   0  0  0  0  0
   -1.3847   41.1508   15.8878 H   0  0  0  0  0
  1  2  4  0  0  0
  1  6  4  0  0  0
  2  3  4  0  0  0
  3  4  4  0  0  0
  4  5  4  0  0  0
  4  6  4  0  0  0
  5  9  4  0  0  0
  5 13  4  0  0  0
  6  7  4  0  0  0
  7  8  4  0  0  0
  8  9  4  0  0  0
  9 10  4  0  0  0
 10 11  4  0  0  0
 11 12  4  0  0  0
 12 13  4  0  0  0
  1 14  1  0  0  0
  2 15  1  0  0  0
  8 16  1  0  0  0
 10 17  1  0  0  0
 11 18  1  0  0  0
 13 19  1  0  0  0
M  END
$$$$
