4uwf_ligand
  -I-interpret- 

 47 50  0  0  0  0  0  0  0  0999 V2000
   22.1570  -14.9790  -21.1830 C   0  0  0  0  0
   22.0030  -13.3600  -22.9200 C   0  0  0  0  0
   23.0990  -12.8000  -20.8660 C   0  0  0  0  0
   21.7430  -14.6300  -22.4520 C   0  0  0  0  0
   22.8320  -14.0680  -20.3990 C   0  0  0  0  0
   22.6800  -12.4560  -22.1320 C   0  0  0  0  0
   16.9450  -15.7160  -22.8220 C   0  0  0  0  0
   17.6430  -14.5960  -22.5890 C   0  0  0  0  0
   17.6610  -16.9310  -23.2560 C   0  0  0  0  0
   19.6670  -15.5980  -23.1170 C   0  0  0  0  0
   21.1690  -17.9690  -23.2450 C   0  0  0  0  0
   19.7700  -17.9550  -23.8090 C   0  0  0  0  0
   15.6270  -13.1960  -22.6600 C   0  0  0  0  0
   17.7410  -12.2470  -21.9340 C   0  0  0  0  0
   14.9580  -12.2330  -21.7060 C   0  0  0  0  0
   16.9570  -11.3140  -21.0410 C   0  0  0  0  0
   21.8750  -16.6760  -23.5780 C   0  0  0  0  0
   22.2990  -16.6070  -25.0280 C   0  0  0  0  0
   19.0010  -14.5540  -22.7430 N   0  0  0  0  0
   21.0390  -15.5320  -23.2640 N   0  0  0  0  0
   16.9750  -13.4580  -22.1850 N   0  0  0  0  0
   19.0250  -16.7950  -23.3780 N   0  0  0  0  0
   17.0310  -17.9570  -23.4750 O   0  0  0  0  0
   15.7160  -11.0300  -21.6730 O   0  0  0  0  0
   23.2330  -14.4190  -19.1680 F   0  0  0  0  0
   22.9290  -11.2250  -22.6030 F   0  0  0  0  0
   22.7810  -17.8030  -25.4630 F   0  0  0  0  0
   21.2750  -16.2410  -25.8460 F   0  0  0  0  0
   23.2830  -15.6820  -25.1690 F   0  0  0  0  0
   21.9497  -15.9779  -20.7993 H   0  0  0  0  0
   21.6717  -13.0701  -23.9172 H   0  0  0  0  0
   23.6327  -12.0812  -20.2443 H   0  0  0  0  0
   15.8628  -15.7293  -22.6926 H   0  0  0  0  0
   21.7221  -18.8013  -23.6802 H   0  0  0  0  0
   21.1172  -18.0800  -22.1619 H   0  0  0  0  0
   19.2504  -18.8451  -23.4544 H   0  0  0  0  0
   19.8409  -17.9301  -24.8964 H   0  0  0  0  0
   15.6634  -12.7629  -23.6596 H   0  0  0  0  0
   15.0618  -14.1269  -22.7046 H   0  0  0  0  0
   18.6773  -12.5109  -21.4422 H   0  0  0  0  0
   17.9443  -11.7488  -22.8820 H   0  0  0  0  0
   14.9106  -12.6702  -20.7086 H   0  0  0  0  0
   13.9421  -12.0234  -22.0407 H   0  0  0  0  0
   17.5154  -10.3915  -20.8817 H   0  0  0  0  0
   16.7847  -11.7811  -20.0714 H   0  0  0  0  0
   22.7744  -16.6498  -22.9628 H   0  0  0  0  0
   19.4985  -13.6827  -22.5594 H   0  0  0  0  0
  4  1  4  0  0  0
  1  5  4  0  0  0
  4  2  4  0  0  0
  2  6  4  0  0  0
  5  3  4  0  0  0
  6  3  4  0  0  0
 20  4  1  0  0  0
  5 25  1  0  0  0
  6 26  1  0  0  0
  8  7  2  0  0  0
  7  9  1  0  0  0
  8 19  1  0  0  0
 21  8  1  0  0  0
  9 22  1  0  0  0
  9 23  2  0  0  0
 19 10  1  0  0  0
 10 20  1  0  0  0
 10 22  4  0  0  0
 12 11  1  0  0  0
 11 17  1  0  0  0
 22 12  1  0  0  0
 13 15  1  0  0  0
 21 13  1  0  0  0
 14 16  1  0  0  0
 14 21  1  0  0  0
 15 24  1  0  0  0
 16 24  1  0  0  0
 17 18  1  0  0  0
 17 20  1  0  0  0
 18 27  1  0  0  0
 18 28  1  0  0  0
 18 29  1  0  0  0
  1 30  1  0  0  0
  2 31  1  0  0  0
  3 32  1  0  0  0
  7 33  1  0  0  0
 11 34  1  0  0  0
 11 35  1  0  0  0
 12 36  1  0  0  0
 12 37  1  0  0  0
 13 38  1  0  0  0
 13 39  1  0  0  0
 14 40  1  0  0  0
 14 41  1  0  0  0
 15 42  1  0  0  0
 15 43  1  0  0  0
 16 44  1  0  0  0
 16 45  1  0  0  0
 17 46  1  0  0  0
 19 47  1  0  0  0
M  END
$$$$
