3lea_ligand
  -I-interpret- 

 52 56  0  0  0  0  0  0  0  0999 V2000
   19.3530   13.3640   -4.8100 N   0  0  0  0  0
   18.3660   14.0730   -5.4560 C   0  0  0  0  0
   18.3680   13.7170   -6.9790 C   0  0  0  0  0
   19.4150   12.6810   -6.9500 N   0  0  0  0  0
   19.9890   12.4930   -5.6510 C   0  0  0  0  0
   20.8900   11.7110   -5.2730 O   0  0  0  0  0
   17.6430   14.9110   -4.9390 O   0  0  0  0  0
   17.0620   13.0570   -7.3610 C   0  0  0  0  0
   16.5700   13.1330   -8.6960 C   0  0  0  0  0
   15.3450   12.5360   -9.0390 C   0  0  0  0  0
   14.5650   11.8500   -8.0680 C   0  0  0  0  0
   15.0280   11.7830   -6.7210 C   0  0  0  0  0
   16.2640   12.3700   -6.3670 C   0  0  0  0  0
   13.2800   11.2140   -8.4360 C   0  0  0  0  0
   12.2590   10.9030   -7.4760 C   0  0  0  0  0
   11.0440   10.3110   -7.8610 C   0  0  0  0  0
   10.8440   10.0410   -9.2110 C   0  0  0  0  0
   11.7570   10.3220  -10.1890 N   0  0  0  0  0
   12.9530   10.9030   -9.7840 C   0  0  0  0  0
   20.0590   15.4990   -7.2890 N   0  0  0  0  0
   20.2720   16.2860   -6.0550 C   0  0  0  0  0
   21.2470   15.0200   -7.8700 C   0  0  0  0  0
   18.7400   15.0720   -7.7690 C   0  0  0  0  0
   22.3600   15.5320   -7.0340 C   0  0  0  0  0
   21.7640   16.2820   -5.9530 C   0  0  0  0  0
   22.5370   16.9130   -4.9850 C   0  0  0  0  0
   23.9440   16.7560   -5.1120 C   0  0  0  0  0
   24.5580   16.0130   -6.1850 C   0  0  0  0  0
   23.7730   15.3750   -7.1800 C   0  0  0  0  0
   21.3490   14.3520   -8.8810 O   0  0  0  0  0
   25.9480   15.9220   -6.3580 O   0  0  0  0  0
   26.8080   16.5650   -5.3760 C   0  0  0  0  0
   19.5826   13.4749   -3.8224 H   0  0  0  0  0
   19.7024   12.1507   -7.7725 H   0  0  0  0  0
   17.1479   13.6579   -9.4566 H   0  0  0  0  0
   14.9868   12.5999  -10.0665 H   0  0  0  0  0
   14.4281   11.2786   -5.9636 H   0  0  0  0  0
   16.6190   12.3051   -5.3385 H   0  0  0  0  0
   12.4301   11.1313   -6.4240 H   0  0  0  0  0
   10.2795   10.0701   -7.1224 H   0  0  0  0  0
    9.9028    9.5776   -9.5067 H   0  0  0  0  0
   13.6903   11.1360  -10.5523 H   0  0  0  0  0
   19.7736   15.8690   -5.1799 H   0  0  0  0  0
   19.8399   17.2859   -6.0950 H   0  0  0  0  0
   17.9933   15.8442   -7.5838 H   0  0  0  0  0
   18.7583   14.8988   -8.8450 H   0  0  0  0  0
   22.0910   17.4932   -4.1772 H   0  0  0  0  0
   24.5884   17.2183   -4.3643 H   0  0  0  0  0
   24.2160   14.8058   -7.9973 H   0  0  0  0  0
   26.5965   17.6341   -5.3543 H   0  0  0  0  0
   26.6182   16.1358   -4.3922 H   0  0  0  0  0
   27.8512   16.4051   -5.6484 H   0  0  0  0  0
  2  1  1  0  0  0
  5  1  1  0  0  0
  3  2  1  0  0  0
  2  7  2  0  0  0
  3  4  1  0  0  0
  3  8  1  0  0  0
 23  3  1  0  0  0
  4  5  1  0  0  0
  5  6  2  0  0  0
  8  9  4  0  0  0
  8 13  4  0  0  0
  9 10  4  0  0  0
 10 11  4  0  0  0
 12 11  4  0  0  0
 11 14  1  0  0  0
 13 12  4  0  0  0
 14 15  4  0  0  0
 14 19  4  0  0  0
 15 16  4  0  0  0
 16 17  4  0  0  0
 18 17  4  0  0  0
 19 18  4  0  0  0
 20 21  1  0  0  0
 20 22  1  0  0  0
 20 23  1  0  0  0
 21 25  1  0  0  0
 22 24  1  0  0  0
 22 30  2  0  0  0
 24 25  4  0  0  0
 24 29  4  0  0  0
 25 26  4  0  0  0
 26 27  4  0  0  0
 27 28  4  0  0  0
 28 29  4  0  0  0
 28 31  1  0  0  0
 31 32  1  0  0  0
  1 33  1  0  0  0
  4 34  1  0  0  0
  9 35  1  0  0  0
 10 36  1  0  0  0
 12 37  1  0  0  0
 13 38  1  0  0  0
 15 39  1  0  0  0
 16 40  1  0  0  0
 17 41  1  0  0  0
 19 42  1  0  0  0
 21 43  1  0  0  0
 21 44  1  0  0  0
 23 45  1  0  0  0
 23 46  1  0  0  0
 26 47  1  0  0  0
 27 48  1  0  0  0
 29 49  1  0  0  0
 32 50  1  0  0  0
 32 51  1  0  0  0
 32 52  1  0  0  0
M  END
$$$$
