2cbs_ligand
  -I-interpret- 

 55 56  0  0  0  0  0  0  0  0999 V2000
   22.0320   30.5980   16.0950 C   0  0  0  0  0
   21.0690   31.2690   15.0880 C   0  0  0  0  0
   20.4100   30.2440   14.1100 C   0  0  0  0  0
   19.5380   29.1960   14.8440 C   0  0  0  0  0
   20.2690   28.6070   16.1040 C   0  0  0  0  0
   19.7760   27.4010   16.7060 C   0  0  0  0  0
   20.4030   26.8550   17.8480 C   0  0  0  0  0
   21.5450   27.4930   18.4030 C   0  0  0  0  0
   22.0610   28.6780   17.8210 C   0  0  0  0  0
   21.4400   29.2640   16.6850 C   0  0  0  0  0
   22.2470   26.9180   19.6740 C   0  0  0  0  0
   21.6600   25.8630   20.3090 C   0  0  0  0  0
   22.1540   25.3030   21.4780 C   0  0  0  0  0
   21.4580   24.2850   22.1120 C   0  0  0  0  0
   21.9040   23.7090   23.3140 C   0  0  0  0  0
   21.1190   22.7080   23.9000 C   0  0  0  0  0
   21.3750   21.9950   25.1620 C   0  0  0  0  0
   18.2110   29.8240   15.2730 C   0  0  0  0  0
   19.2060   28.0870   13.8430 C   0  0  0  0  0
   22.2800   31.6070   17.2230 C   0  0  0  0  0
   23.3810   30.3210   15.4280 C   0  0  0  0  0
   23.5570   27.5550   20.1970 C   0  0  0  0  0
   23.2240   24.1810   23.9910 C   0  0  0  0  0
   22.4180   21.3230   25.2820 O   0  0  0  0  0
   20.5490   22.0950   26.0900 O   0  0  0  0  0
   21.6465   31.9762   14.4927 H   0  0  0  0  0
   20.2724   31.7498   15.6558 H   0  0  0  0  0
   21.2090   29.7125   13.5930 H   0  0  0  0  0
   19.7652   30.7982   13.4280 H   0  0  0  0  0
   18.9078   26.9007   16.2771 H   0  0  0  0  0
   20.0112   25.9453   18.3030 H   0  0  0  0  0
   22.9465   29.1463   18.2508 H   0  0  0  0  0
   20.7551   25.4376   19.8750 H   0  0  0  0  0
   23.0921   25.6643   21.8994 H   0  0  0  0  0
   20.5344   23.9193   21.6633 H   0  0  0  0  0
   20.2156   22.4247   23.3600 H   0  0  0  0  0
   17.7045   30.2328   14.3987 H   0  0  0  0  0
   17.5829   29.0626   15.7354 H   0  0  0  0  0
   18.4033   30.6226   15.9895 H   0  0  0  0  0
   18.5661   27.3462   14.3224 H   0  0  0  0  0
   18.6877   28.5164   12.9856 H   0  0  0  0  0
   20.1286   27.6113   13.5105 H   0  0  0  0  0
   22.9823   31.1826   17.9405 H   0  0  0  0  0
   22.6958   32.5234   16.8041 H   0  0  0  0  0
   21.3375   31.8296   17.7233 H   0  0  0  0  0
   23.7850   31.2511   15.0283 H   0  0  0  0  0
   24.0716   29.9103   16.1646 H   0  0  0  0  0
   23.2440   29.6050   14.6177 H   0  0  0  0  0
   23.3981   27.9318   21.2074 H   0  0  0  0  0
   24.3460   26.8030   20.2081 H   0  0  0  0  0
   23.8462   28.3772   19.5425 H   0  0  0  0  0
   23.0014   24.5756   24.9824 H   0  0  0  0  0
   23.9075   23.3366   24.0797 H   0  0  0  0  0
   23.6841   24.9602   23.3833 H   0  0  0  0  0
   22.9217   21.3676   24.4660 H   0  0  0  0  0
  1 21  1  0  0  0
  1 20  1  0  0  0
  1 10  1  0  0  0
  1  2  1  0  0  0
  2  3  1  0  0  0
  3  4  1  0  0  0
  4 19  1  0  0  0
  4 18  1  0  0  0
  4  5  1  0  0  0
  5 10  4  0  0  0
  5  6  4  0  0  0
  6  7  4  0  0  0
  7  8  4  0  0  0
  8 11  1  0  0  0
  8  9  4  0  0  0
  9 10  4  0  0  0
 11 22  1  0  0  0
 11 12  2  0  0  0
 12 13  1  0  0  0
 13 14  2  0  0  0
 14 15  1  0  0  0
 15 23  1  0  0  0
 15 16  2  0  0  0
 16 17  1  0  0  0
 17 25  2  0  0  0
 17 24  1  0  0  0
  2 26  1  0  0  0
  2 27  1  0  0  0
  3 28  1  0  0  0
  3 29  1  0  0  0
  6 30  1  0  0  0
  7 31  1  0  0  0
  9 32  1  0  0  0
 12 33  1  0  0  0
 13 34  1  0  0  0
 14 35  1  0  0  0
 16 36  1  0  0  0
 18 37  1  0  0  0
 18 38  1  0  0  0
 18 39  1  0  0  0
 19 40  1  0  0  0
 19 41  1  0  0  0
 19 42  1  0  0  0
 20 43  1  0  0  0
 20 44  1  0  0  0
 20 45  1  0  0  0
 21 46  1  0  0  0
 21 47  1  0  0  0
 21 48  1  0  0  0
 22 49  1  0  0  0
 22 50  1  0  0  0
 22 51  1  0  0  0
 23 52  1  0  0  0
 23 53  1  0  0  0
 23 54  1  0  0  0
 24 55  1  0  0  0
M  END
$$$$
