4mao_ligand
  -I-interpret- 

 49 52  0  0  0  0  0  0  0  0999 V2000
    3.7710   10.8480  -19.9730 C   0  0  0  0  0
    2.8100   11.9240  -19.6010 C   0  0  0  0  0
    2.0960   12.7540  -19.2910 N   0  0  0  0  0
    3.1100    9.8710  -20.8150 N   0  0  0  0  0
    3.2380    8.4850  -20.6760 C   0  0  0  0  0
    2.4930    7.9180  -21.6510 N   0  0  0  0  0
    1.9240    8.9400  -22.3870 C   0  0  0  0  0
    2.3190   10.1500  -21.8540 N   0  0  0  0  0
    4.9920   11.4170  -20.6530 C   0  0  0  0  0
    6.0040   10.3200  -20.6340 C   0  0  0  0  0
    6.4950    9.8950  -19.3990 C   0  0  0  0  0
    7.4320    8.8570  -19.3340 C   0  0  0  0  0
    7.8520    8.2640  -20.5180 C   0  0  0  0  0
    8.7550    7.2400  -20.7670 N   0  0  0  0  0
    8.8700    6.9660  -22.0490 N   0  0  0  0  0
    8.0440    7.8180  -22.6800 C   0  0  0  0  0
    7.8260    7.8780  -24.1790 C   0  0  0  0  0
    6.4470    8.1350  -24.6950 C   0  0  0  0  0
    6.2250    8.1860  -26.0530 C   0  0  0  0  0
    4.9440    8.4230  -26.4970 O   0  0  0  0  0
    4.6680    9.6770  -27.0180 C   0  0  0  0  0
    7.3690    7.9940  -27.0230 C   0  0  0  0  0
    7.1090    8.0500  -28.3880 O   0  0  0  0  0
    6.4920    6.9720  -29.0240 C   0  0  0  0  0
    8.6400    7.7610  -26.5330 C   0  0  0  0  0
    9.7310    7.5610  -27.3570 O   0  0  0  0  0
   10.7920    8.4280  -27.2850 C   0  0  0  0  0
    8.8720    7.6980  -25.0390 C   0  0  0  0  0
    7.3400    8.6940  -21.7550 C   0  0  0  0  0
    6.4100    9.7230  -21.8320 C   0  0  0  0  0
    4.1107   10.3533  -19.0631 H   0  0  0  0  0
    3.8273    7.9611  -19.9235 H   0  0  0  0  0
    1.2693    8.8112  -23.2489 H   0  0  0  0  0
    5.3571   12.3071  -20.1407 H   0  0  0  0  0
    4.7699   11.7390  -21.6704 H   0  0  0  0  0
    6.1481   10.3724  -18.4826 H   0  0  0  0  0
    7.8240    8.5209  -18.3741 H   0  0  0  0  0
    5.6207    8.2814  -23.9994 H   0  0  0  0  0
    4.8540   10.4344  -26.2565 H   0  0  0  0  0
    5.3103    9.8606  -27.8793 H   0  0  0  0  0
    3.6234    9.7190  -27.3266 H   0  0  0  0  0
    7.1098    6.0815  -28.9084 H   0  0  0  0  0
    5.5141    6.7981  -28.5750 H   0  0  0  0  0
    6.3718    7.1973  -30.0837 H   0  0  0  0  0
   10.4525    9.4361  -27.5228 H   0  0  0  0  0
   11.2057    8.4109  -26.2767 H   0  0  0  0  0
   11.5576    8.1233  -27.9985 H   0  0  0  0  0
    9.8724    7.5092  -24.6496 H   0  0  0  0  0
    6.0111   10.0532  -22.7912 H   0  0  0  0  0
  1  2  1  0  0  0
  1  4  1  0  0  0
  1  9  1  0  0  0
  2  3  3  0  0  0
  4  5  4  0  0  0
  4  8  4  0  0  0
  5  6  4  0  0  0
  6  7  4  0  0  0
  7  8  4  0  0  0
  9 10  1  0  0  0
 10 11  4  0  0  0
 10 30  4  0  0  0
 11 12  4  0  0  0
 12 13  4  0  0  0
 13 14  4  0  0  0
 13 29  4  0  0  0
 14 15  4  0  0  0
 15 16  4  0  0  0
 16 17  1  0  0  0
 16 29  4  0  0  0
 17 18  4  0  0  0
 17 28  4  0  0  0
 18 19  4  0  0  0
 19 20  1  0  0  0
 19 22  4  0  0  0
 20 21  1  0  0  0
 22 23  1  0  0  0
 22 25  4  0  0  0
 23 24  1  0  0  0
 25 26  1  0  0  0
 25 28  4  0  0  0
 26 27  1  0  0  0
 29 30  4  0  0  0
  1 31  1  0  0  0
  5 32  1  0  0  0
  7 33  1  0  0  0
  9 34  1  0  0  0
  9 35  1  0  0  0
 11 36  1  0  0  0
 12 37  1  0  0  0
 18 38  1  0  0  0
 21 39  1  0  0  0
 21 40  1  0  0  0
 21 41  1  0  0  0
 24 42  1  0  0  0
 24 43  1  0  0  0
 24 44  1  0  0  0
 27 45  1  0  0  0
 27 46  1  0  0  0
 27 47  1  0  0  0
 28 48  1  0  0  0
 30 49  1  0  0  0
M  END
$$$$
