2xv1_ligand
  -I-interpret- 

 69 72  0  0  0  0  0  0  0  0999 V2000
   16.0540   16.1350   11.7830 O   0  0  0  0  0
   17.0790   16.8550   12.3020 C   0  0  0  0  0
   17.0530   18.2410   12.1670 C   0  0  0  0  0
   15.9930   18.7640   11.5070 O   0  0  0  0  0
   18.1270   16.2270   12.9780 C   0  0  0  0  0
   19.1510   17.0050   13.5060 C   0  0  0  0  0
   19.1290   18.3920   13.3560 C   0  0  0  0  0
   18.0750   19.0360   12.7040 C   0  0  0  0  0
   18.1430   20.5900   12.5540 C   0  0  0  0  0
   19.0450   21.2150   13.1040 O   0  0  0  0  0
   17.2360   21.1480   11.7470 N   0  0  0  0  0
   17.1150   22.5780   11.3210 C   0  0  0  0  0
   16.2010   22.3560   10.1230 C   0  0  0  0  0
   14.8290   22.5370   10.2420 C   0  0  0  0  0
   16.7440   21.8520    8.9380 C   0  0  0  0  0
   15.9120   21.5900    7.8510 C   0  0  0  0  0
   16.5100   20.9980    6.5720 C   0  0  0  0  0
   16.1920   19.5660    6.8180 N   0  0  0  0  0
   16.2070   18.5660    5.9300 C   0  0  0  0  0
   16.5420   18.6910    4.7500 O   0  0  0  0  0
   15.7290   17.1870    6.4710 C   0  0  0  0  0
   15.7580   16.0870    5.6120 C   0  0  0  0  0
   15.3370   14.8310    6.0430 C   0  0  0  0  0
   14.8580   14.6560    7.3400 C   0  0  0  0  0
   14.8100   15.7390    8.2100 C   0  0  0  0  0
   14.3490   15.5820    9.4930 O   0  0  0  0  0
   15.2440   16.9870    7.7790 C   0  0  0  0  0
   15.1830   18.0020    8.6720 O   0  0  0  0  0
   14.5300   21.7680    7.9620 C   0  0  0  0  0
   13.9970   22.2770    9.1520 C   0  0  0  0  0
   12.4860   22.4320    9.3290 C   0  0  0  0  0
   12.1900   21.1290   10.0200 N   0  0  0  0  0
   11.1180   20.8500   10.7790 C   0  0  0  0  0
   10.1940   21.6450   10.9770 O   0  0  0  0  0
   11.0850   19.4460   11.4560 C   0  0  0  0  0
    9.9180   19.0730   12.1350 C   0  0  0  0  0
    9.8200   17.8330   12.7760 C   0  0  0  0  0
   10.9000   16.9490   12.7650 C   0  0  0  0  0
   12.0710   17.3130   12.1040 C   0  0  0  0  0
   13.1520   16.4850   12.0820 O   0  0  0  0  0
   12.1690   18.5450   11.4630 C   0  0  0  0  0
   13.3500   18.8030   10.8460 O   0  0  0  0  0
   16.2039   15.2014   11.9490 H   0  0  0  0  0
   16.0780   19.7196   11.4736 H   0  0  0  0  0
   18.1420   15.1429   13.0901 H   0  0  0  0  0
   19.9743   16.5296   14.0392 H   0  0  0  0  0
   19.9514   18.9852   13.7559 H   0  0  0  0  0
   16.5311   20.5142   11.3705 H   0  0  0  0  0
   18.0543   23.0893   11.1103 H   0  0  0  0  0
   16.7417   23.2668   12.0788 H   0  0  0  0  0
   14.4031   22.8813   11.1844 H   0  0  0  0  0
   17.8152   21.6643    8.8641 H   0  0  0  0  0
   17.5655   21.2166    6.4102 H   0  0  0  0  0
   16.1133   21.4073    5.6429 H   0  0  0  0  0
   15.9329   19.3183    7.7730 H   0  0  0  0  0
   16.1150   16.2126    4.5898 H   0  0  0  0  0
   15.3824   13.9808    5.3624 H   0  0  0  0  0
   14.5222   13.6733    7.6710 H   0  0  0  0  0
   14.3848   16.4254    9.9501 H   0  0  0  0  0
   14.8284   17.6754    9.5022 H   0  0  0  0  0
   13.8737   21.5129    7.1299 H   0  0  0  0  0
   11.9313   22.5968    8.4053 H   0  0  0  0  0
   12.1782   23.3218    9.8782 H   0  0  0  0  0
   12.8732   20.3812    9.8997 H   0  0  0  0  0
    9.0723   19.7600   12.1646 H   0  0  0  0  0
    8.8970   17.5565   13.2857 H   0  0  0  0  0
   10.8280   15.9847   13.2679 H   0  0  0  0  0
   13.8607   16.8990   11.5841 H   0  0  0  0  0
   13.9455   18.0611   10.9743 H   0  0  0  0  0
  1  2  1  0  0  0
  2  3  4  0  0  0
  2  5  4  0  0  0
  3  4  1  0  0  0
  3  8  4  0  0  0
  5  6  4  0  0  0
  6  7  4  0  0  0
  7  8  4  0  0  0
  8  9  1  0  0  0
  9 10  2  0  0  0
  9 11  1  0  0  0
 11 12  1  0  0  0
 12 13  1  0  0  0
 13 14  4  0  0  0
 13 15  4  0  0  0
 14 30  4  0  0  0
 15 16  4  0  0  0
 16 17  1  0  0  0
 16 29  4  0  0  0
 17 18  1  0  0  0
 18 19  1  0  0  0
 19 20  2  0  0  0
 19 21  1  0  0  0
 21 22  4  0  0  0
 21 27  4  0  0  0
 22 23  4  0  0  0
 23 24  4  0  0  0
 24 25  4  0  0  0
 25 26  1  0  0  0
 25 27  4  0  0  0
 27 28  1  0  0  0
 29 30  4  0  0  0
 30 31  1  0  0  0
 31 32  1  0  0  0
 32 33  1  0  0  0
 33 34  2  0  0  0
 33 35  1  0  0  0
 35 36  4  0  0  0
 35 41  4  0  0  0
 36 37  4  0  0  0
 37 38  4  0  0  0
 38 39  4  0  0  0
 39 40  1  0  0  0
 39 41  4  0  0  0
 41 42  1  0  0  0
  1 43  1  0  0  0
  4 44  1  0  0  0
  5 45  1  0  0  0
  6 46  1  0  0  0
  7 47  1  0  0  0
 11 48  1  0  0  0
 12 49  1  0  0  0
 12 50  1  0  0  0
 14 51  1  0  0  0
 15 52  1  0  0  0
 17 53  1  0  0  0
 17 54  1  0  0  0
 18 55  1  0  0  0
 22 56  1  0  0  0
 23 57  1  0  0  0
 24 58  1  0  0  0
 26 59  1  0  0  0
 28 60  1  0  0  0
 29 61  1  0  0  0
 31 62  1  0  0  0
 31 63  1  0  0  0
 32 64  1  0  0  0
 36 65  1  0  0  0
 37 66  1  0  0  0
 38 67  1  0  0  0
 40 68  1  0  0  0
 42 69  1  0  0  0
M  END
$$$$
