3ibu_ligand
  -I-interpret- 

 38 37  0  0  0  0  0  0  0  0999 V2000
   -4.6680    1.9020   14.5860 C   0  0  0  0  0
   -5.3980   -0.4970   16.2450 N   0  0  0  0  0
   -7.1440    1.2230   16.4020 O   0  0  0  0  0
   -5.8020    0.9370   16.7630 S   0  0  0  0  0
   -5.4780    2.9970   13.9150 C   0  0  0  0  0
   -5.4290    1.0410   18.1290 O   0  0  0  0  0
   -5.1300    4.4160   14.3470 C   0  0  0  0  0
   -4.8870    1.9950   16.0290 O   0  0  0  0  0
   -3.8390    4.9640   13.7830 C   0  0  0  0  0
   -3.5370    6.3600   14.2650 C   0  0  0  0  0
   -2.2240    6.9060   13.7890 C   0  0  0  0  0
   -1.9070    8.2760   14.3350 C   0  0  0  0  0
   -0.5010    8.7210   14.0400 C   0  0  0  0  0
   -0.2680   10.2040   14.1970 C   0  0  0  0  0
    0.1650   10.6270   15.5670 C   0  0  0  0  0
   -3.6092    2.0242   14.3579 H   0  0  0  0  0
   -4.9821    0.9244   14.2204 H   0  0  0  0  0
   -6.0742   -1.0634   15.7328 H   0  0  0  0  0
   -4.4606   -0.8579   16.4223 H   0  0  0  0  0
   -6.5192    2.8313   14.1918 H   0  0  0  0  0
   -5.2673    2.9336   12.8474 H   0  0  0  0  0
   -5.0125    4.3927   15.4304 H   0  0  0  0  0
   -5.9294    5.0593   13.9793 H   0  0  0  0  0
   -3.9372    4.9994   12.6980 H   0  0  0  0  0
   -3.0283    4.3143   14.1128 H   0  0  0  0  0
   -3.4928    6.3212   15.3534 H   0  0  0  0  0
   -4.3172    7.0113   13.8711 H   0  0  0  0  0
   -2.2792    6.9911   12.7037 H   0  0  0  0  0
   -1.4434    6.2278   14.1337 H   0  0  0  0  0
   -2.0195    8.2338   15.4184 H   0  0  0  0  0
   -2.5844    8.9856   13.8600 H   0  0  0  0  0
   -0.3008    8.4752   12.9971 H   0  0  0  0  0
    0.1495    8.2183   14.7557 H   0  0  0  0  0
   -1.2191   10.6978   13.9979 H   0  0  0  0  0
    0.5363   10.4734   13.5124 H   0  0  0  0  0
   -0.6011   10.3490   16.2908 H   0  0  0  0  0
    1.1023   10.1313   15.8196 H   0  0  0  0  0
    0.3078   11.7075   15.5841 H   0  0  0  0  0
  1  5  1  0  0  0
  8  1  1  0  0  0
  4  2  1  0  0  0
  4  3  2  0  0  0
  4  6  2  0  0  0
  4  8  1  0  0  0
  5  7  1  0  0  0
  7  9  1  0  0  0
  9 10  1  0  0  0
 10 11  1  0  0  0
 11 12  1  0  0  0
 12 13  1  0  0  0
 13 14  1  0  0  0
 14 15  1  0  0  0
  1 16  1  0  0  0
  1 17  1  0  0  0
  2 18  1  0  0  0
  2 19  1  0  0  0
  5 20  1  0  0  0
  5 21  1  0  0  0
  7 22  1  0  0  0
  7 23  1  0  0  0
  9 24  1  0  0  0
  9 25  1  0  0  0
 10 26  1  0  0  0
 10 27  1  0  0  0
 11 28  1  0  0  0
 11 29  1  0  0  0
 12 30  1  0  0  0
 12 31  1  0  0  0
 13 32  1  0  0  0
 13 33  1  0  0  0
 14 34  1  0  0  0
 14 35  1  0  0  0
 15 36  1  0  0  0
 15 37  1  0  0  0
 15 38  1  0  0  0
M  END
$$$$
