3s2o_ligand
  -I-interpret- 

 57 61  0  0  0  0  0  0  0  0999 V2000
  -15.9650   39.7380    9.5740 C   0  0  0  0  0
  -16.2090   40.0720   10.9150 C   0  0  0  0  0
  -16.6630   39.1020   11.8150 C   0  0  0  0  0
  -16.8670   37.8060   11.3460 C   0  0  0  0  0
  -16.6400   37.4040   10.0040 C   0  0  0  0  0
  -16.1910   38.3440    9.0920 C   0  0  0  0  0
  -15.8870   38.3000    7.7840 N   0  0  0  0  0
  -15.5100   39.5700    7.5090 C   0  0  0  0  0
  -15.5200   40.4560    8.5380 N   0  0  0  0  0
  -15.1350   39.8720    6.2540 N   0  0  0  0  0
  -17.4660   36.5870   12.4810 Cl  0  0  0  0  0
  -15.2240   41.9280    8.6330 C   0  0  0  0  0
  -13.8540   42.3250    8.1130 C   0  0  0  0  0
  -12.7850   41.4930    8.8100 C   0  0  0  0  0
  -16.3430   42.6910    7.9330 C   0  0  0  0  0
  -17.6950   42.2010    8.4190 C   0  0  0  0  0
  -18.5550   41.5470    7.6070 N   0  0  0  0  0
  -17.9570   42.3890    9.6000 O   0  0  0  0  0
  -19.8600   41.1120    8.1390 C   0  0  0  0  0
  -20.8000   40.8490    6.9870 C   0  0  0  0  0
  -22.2000   40.6120    7.5780 C   0  0  0  0  0
  -22.2540   39.3730    8.4690 C   0  0  0  0  0
  -21.8900   38.1650    7.5850 C   0  0  0  0  0
  -20.4580   38.3470    7.0440 C   0  0  0  0  0
  -20.3520   39.6130    6.2140 C   0  0  0  0  0
  -19.8000   39.8340    8.9740 C   0  0  0  0  0
  -19.4470   38.5930    8.1590 C   0  0  0  0  0
  -21.2000   39.5690    9.5710 C   0  0  0  0  0
  -16.0438   41.0935   11.2574 H   0  0  0  0  0
  -16.8526   39.3541   12.8583 H   0  0  0  0  0
  -16.8161   36.3732    9.6966 H   0  0  0  0  0
  -15.1388   39.1505    5.5330 H   0  0  0  0  0
  -14.8467   40.8227    6.0227 H   0  0  0  0  0
  -15.1894   42.1925    9.6898 H   0  0  0  0  0
  -13.6810   43.3819    8.3156 H   0  0  0  0  0
  -13.8083   42.1484    7.0384 H   0  0  0  0  0
  -12.8317   41.6703    9.8845 H   0  0  0  0  0
  -12.9590   40.4363    8.6069 H   0  0  0  0  0
  -11.8022   41.7792    8.4356 H   0  0  0  0  0
  -16.2691   42.5264    6.8580 H   0  0  0  0  0
  -16.2462   43.7530    8.1585 H   0  0  0  0  0
  -18.3043   41.3563    6.6369 H   0  0  0  0  0
  -20.1997   41.9183    8.7891 H   0  0  0  0  0
  -20.8065   41.6959    6.3008 H   0  0  0  0  0
  -22.8943   40.4630    6.7510 H   0  0  0  0  0
  -22.4594   41.4774    8.1879 H   0  0  0  0  0
  -23.2337   39.2147    8.9199 H   0  0  0  0  0
  -22.5900   38.0966    6.7523 H   0  0  0  0  0
  -21.9450   37.2500    8.1748 H   0  0  0  0  0
  -20.2537   37.4329    6.4866 H   0  0  0  0  0
  -19.3072   39.7484    5.9346 H   0  0  0  0  0
  -21.0005   39.5035    5.3448 H   0  0  0  0  0
  -19.0269   39.9945    9.7254 H   0  0  0  0  0
  -18.4666   38.7450    7.7075 H   0  0  0  0  0
  -19.4526   37.7304    8.8253 H   0  0  0  0  0
  -21.1535   38.6597   10.1702 H   0  0  0  0  0
  -21.4870   40.4303   10.1743 H   0  0  0  0  0
  1  2  4  0  0  0
  1  6  4  0  0  0
  1  9  4  0  0  0
  2  3  4  0  0  0
  3  4  4  0  0  0
  4  5  4  0  0  0
  4 11  1  0  0  0
  5  6  4  0  0  0
  6  7  4  0  0  0
  7  8  4  0  0  0
  8  9  4  0  0  0
  8 10  1  0  0  0
  9 12  1  0  0  0
 12 13  1  0  0  0
 12 15  1  0  0  0
 13 14  1  0  0  0
 15 16  1  0  0  0
 16 17  1  0  0  0
 16 18  2  0  0  0
 17 19  1  0  0  0
 19 20  1  0  0  0
 19 26  1  0  0  0
 20 21  1  0  0  0
 20 25  1  0  0  0
 21 22  1  0  0  0
 22 23  1  0  0  0
 22 28  1  0  0  0
 23 24  1  0  0  0
 24 25  1  0  0  0
 24 27  1  0  0  0
 26 27  1  0  0  0
 26 28  1  0  0  0
  2 29  1  0  0  0
  3 30  1  0  0  0
  5 31  1  0  0  0
 10 32  1  0  0  0
 10 33  1  0  0  0
 12 34  1  0  0  0
 13 35  1  0  0  0
 13 36  1  0  0  0
 14 37  1  0  0  0
 14 38  1  0  0  0
 14 39  1  0  0  0
 15 40  1  0  0  0
 15 41  1  0  0  0
 17 42  1  0  0  0
 19 43  1  0  0  0
 20 44  1  0  0  0
 21 45  1  0  0  0
 21 46  1  0  0  0
 22 47  1  0  0  0
 23 48  1  0  0  0
 23 49  1  0  0  0
 24 50  1  0  0  0
 25 51  1  0  0  0
 25 52  1  0  0  0
 26 53  1  0  0  0
 27 54  1  0  0  0
 27 55  1  0  0  0
 28 56  1  0  0  0
 28 57  1  0  0  0
M  END
$$$$
