3d1g_ligand
  -I-interpret- 

 37 38  0  0  0  0  0  0  0  0999 V2000
  -43.3330 -109.2750  -40.4900 C   0  0  0  0  0
  -42.4980 -111.7590  -42.5850 C   0  0  0  0  0
  -42.1070 -110.1430  -40.6670 C   0  0  0  0  0
  -44.7830 -115.9450  -42.6180 C   0  0  0  0  0
  -45.0040 -115.6440  -41.2300 C   0  0  0  0  0
  -44.4110 -114.3830  -40.5950 C   0  0  0  0  0
  -45.3670 -117.0990  -43.2370 C   0  0  0  0  0
  -44.4080 -116.7380  -45.4780 C   0  0  0  0  0
  -44.4470 -117.4210  -46.8310 C   0  0  0  0  0
  -43.1150 -113.7830  -41.0890 C   0  0  0  0  0
  -46.1040 -116.2080  -38.5980 Br  0  0  0  0  0
  -47.5420 -118.8210  -40.0810 Br  0  0  0  0  0
  -42.4740 -111.4700  -41.2230 N   0  0  0  0  0
  -42.9880 -113.4040  -42.8410 S   0  0  0  0  0
  -45.2230 -117.5130  -44.5840 O   0  0  0  0  0
  -42.8100 -112.5140  -40.3550 C   0  0  0  0  0
  -45.8140 -116.5370  -40.4670 C   0  0  0  0  0
  -46.4120 -117.6630  -41.0790 C   0  0  0  0  0
  -46.1890 -117.9350  -42.4520 C   0  0  0  0  0
  -44.4480 -109.4860  -40.9570 O   0  0  0  0  0
  -42.1320 -110.7560  -43.8700 S   0  0  0  0  0
  -43.0270 -108.2010  -39.7200 O   0  0  0  0  0
  -42.8490 -112.4570  -39.1310 O   0  0  0  0  0
  -46.7840 -119.0410  -43.0410 O   0  0  0  0  0
  -41.6365 -110.2881  -39.6945 H   0  0  0  0  0
  -41.4246 -109.6493  -41.3589 H   0  0  0  0  0
  -44.1570 -115.2807  -43.2138 H   0  0  0  0  0
  -44.1830 -114.6890  -39.5740 H   0  0  0  0  0
  -45.1517 -113.6122  -40.8077 H   0  0  0  0  0
  -44.7854 -115.7182  -45.5530 H   0  0  0  0  0
  -43.3843 -116.6788  -45.1085 H   0  0  0  0  0
  -44.0555 -118.4339  -46.7367 H   0  0  0  0  0
  -45.4763 -117.4597  -47.1875 H   0  0  0  0  0
  -43.8371 -116.8587  -47.5381 H   0  0  0  0  0
  -42.4053 -114.5877  -40.8969 H   0  0  0  0  0
  -42.1013 -108.2420  -39.4689 H   0  0  0  0  0
  -47.3084 -119.5076  -42.3861 H   0  0  0  0  0
  3  1  1  0  0  0
  1 20  2  0  0  0
  1 22  1  0  0  0
 13  2  1  0  0  0
 14  2  1  0  0  0
  2 21  2  0  0  0
 13  3  1  0  0  0
  5  4  4  0  0  0
  4  7  4  0  0  0
  5  6  1  0  0  0
 17  5  4  0  0  0
  6 10  1  0  0  0
  7 15  1  0  0  0
  7 19  4  0  0  0
  8  9  1  0  0  0
 15  8  1  0  0  0
 10 14  1  0  0  0
 10 16  1  0  0  0
 17 11  1  0  0  0
 18 12  1  0  0  0
 16 13  1  0  0  0
 16 23  2  0  0  0
 17 18  4  0  0  0
 18 19  4  0  0  0
 19 24  1  0  0  0
  3 25  1  0  0  0
  3 26  1  0  0  0
  4 27  1  0  0  0
  6 28  1  0  0  0
  6 29  1  0  0  0
  8 30  1  0  0  0
  8 31  1  0  0  0
  9 32  1  0  0  0
  9 33  1  0  0  0
  9 34  1  0  0  0
 10 35  1  0  0  0
 22 36  1  0  0  0
 24 37  1  0  0  0
M  END
$$$$
