1o2p_ligand
  -I-interpret- 

 43 45  0  0  0  0  0  0  0  0999 V2000
   43.9720   -2.9830   25.7790 C   0  0  0  0  0
   43.8090   -1.5640   25.6740 C   0  0  0  0  0
   43.7880   -0.6990   24.1030 Cl  0  0  0  0  0
   43.6090   -0.8180   26.8510 C   0  0  0  0  0
   43.5700   -1.4800   28.0670 C   0  0  0  0  0
   43.7160   -2.8090   28.1770 C   0  0  0  0  0
   43.9210   -3.5970   27.0460 C   0  0  0  0  0
   44.1940   -3.7910   24.6490 C   0  0  0  0  0
   43.7870   -5.0460   24.6360 N   0  0  0  0  0
   44.8350   -3.2670   23.6250 N   0  0  0  0  0
   43.4090   -1.0610   29.2760 N   0  0  0  0  0
   43.6480   -3.2330   29.4210 N   0  0  0  0  0
   43.4560   -2.0950   30.0680 C   0  0  0  0  0
   43.2590   -1.9810   31.4600 C   0  0  0  0  0
   43.1470   -3.1270   32.2600 C   0  0  0  0  0
   42.9480   -3.0230   33.6360 C   0  0  0  0  0
   42.8570   -1.7860   34.2280 C   0  0  0  0  0
   42.9620   -0.6110   33.4590 C   0  0  0  0  0
   43.1610   -0.7020   32.0710 C   0  0  0  0  0
   43.2610    0.4630   31.3070 O   0  0  0  0  0
   42.8720    0.6490   34.0470 O   0  0  0  0  0
   42.8820    0.8410   35.4740 C   0  0  0  0  0
   43.1960    2.3330   35.8900 C   0  0  0  0  0
   44.2420    2.3670   37.0430 C   0  0  0  0  0
   43.7830    3.1280   34.7500 C   0  0  0  0  0
   43.4867    0.2642   26.8060 H   0  0  0  0  0
   44.0405   -4.6763   27.1406 H   0  0  0  0  0
   43.9671   -5.6321   23.8209 H   0  0  0  0  0
   43.2922   -5.4301   25.4411 H   0  0  0  0  0
   45.0265   -3.8339   22.7989 H   0  0  0  0  0
   43.2165   -4.1127   31.7999 H   0  0  0  0  0
   42.8644   -3.9243   34.2433 H   0  0  0  0  0
   42.7019   -1.7137   35.3045 H   0  0  0  0  0
   43.1727    1.2284   31.8796 H   0  0  0  0  0
   43.6648    0.2069   35.8903 H   0  0  0  0  0
   41.8902    0.5914   35.8510 H   0  0  0  0  0
   42.2453    2.7689   36.1970 H   0  0  0  0  0
   43.8461    1.8330   37.9068 H   0  0  0  0  0
   45.1635    1.8894   36.7100 H   0  0  0  0  0
   44.4460    3.4023   37.3164 H   0  0  0  0  0
   44.7134    2.6623   34.4252 H   0  0  0  0  0
   43.0761    3.1476   33.9205 H   0  0  0  0  0
   43.9820    4.1464   35.0836 H   0  0  0  0  0
  1  2  4  0  0  0
  1  7  4  0  0  0
  1  8  1  0  0  0
  2  3  1  0  0  0
  2  4  4  0  0  0
  4  5  4  0  0  0
  5  6  4  0  0  0
  5 11  4  0  0  0
  6  7  4  0  0  0
  6 12  4  0  0  0
  8  9  1  0  0  0
  8 10  2  0  0  0
 11 13  4  0  0  0
 12 13  4  0  0  0
 13 14  1  0  0  0
 14 15  4  0  0  0
 14 19  4  0  0  0
 15 16  4  0  0  0
 16 17  4  0  0  0
 17 18  4  0  0  0
 18 19  4  0  0  0
 18 21  1  0  0  0
 19 20  1  0  0  0
 21 22  1  0  0  0
 22 23  1  0  0  0
 23 24  1  0  0  0
 23 25  1  0  0  0
  4 26  1  0  0  0
  7 27  1  0  0  0
  9 28  1  0  0  0
  9 29  1  0  0  0
 10 30  1  0  0  0
 15 31  1  0  0  0
 16 32  1  0  0  0
 17 33  1  0  0  0
 20 34  1  0  0  0
 22 35  1  0  0  0
 22 36  1  0  0  0
 23 37  1  0  0  0
 24 38  1  0  0  0
 24 39  1  0  0  0
 24 40  1  0  0  0
 25 41  1  0  0  0
 25 42  1  0  0  0
 25 43  1  0  0  0
M  END
$$$$
