5mi5_ligand
  -I-interpret- 

 47 48  0  0  0  0  0  0  0  0999 V2000
   33.8770    6.8820   15.4040 C   0  0  0  0  0
   32.8850    6.4870   14.3430 C   0  0  0  0  0
   32.4100    5.3610   14.2610 O   0  0  0  0  0
   32.5420    7.5070   13.4430 N   0  0  0  0  0
   31.5790    7.2500   12.3710 C   0  0  0  0  0
   30.1840    6.9030   12.9360 C   0  0  0  0  0
   29.5120    8.1170   12.9820 O   0  0  0  0  0
   29.5030    5.9060   11.9610 C   0  0  0  0  0
   28.2120    5.7440   12.4560 O   0  0  0  0  0
   30.3310    4.6060   12.1530 C   0  0  0  0  0
   29.6920    3.4690   11.3280 C   0  0  0  0  0
   29.4320    3.9620   10.0520 O   0  0  0  0  0
   31.6320    4.8100   11.6500 O   0  0  0  0  0
   32.0070    6.1100   11.4630 C   0  0  0  0  0
   32.6950    6.4600   10.4120 N   0  3  0  0  0
   33.5260    5.5280    9.9400 O   0  0  0  0  0
   33.7180    5.7640    8.6030 C   0  0  0  0  0
   33.1230    5.1110    7.7380 O   0  0  0  0  0
   34.6440    6.7670    8.4220 N   0  0  0  0  0
   34.7580    7.3270    7.1380 C   0  0  0  0  0
   34.6450    8.7190    6.9950 C   0  0  0  0  0
   34.7720    9.2610    5.7320 C   0  0  0  0  0
   35.0140    8.4370    4.6400 C   0  0  0  0  0
   35.1300    7.0640    4.8060 C   0  0  0  0  0
   35.0130    6.4920    6.0600 C   0  0  0  0  0
   33.4287    6.7445   16.3880 H   0  0  0  0  0
   34.7666    6.2580   15.3182 H   0  0  0  0  0
   34.1515    7.9285   15.2714 H   0  0  0  0  0
   32.9649    8.4305   13.5359 H   0  0  0  0  0
   31.5369    8.1733   11.7932 H   0  0  0  0  0
   30.2042    6.4352   13.9203 H   0  0  0  0  0
   29.9600    8.7065   13.5930 H   0  0  0  0  0
   29.4608    6.2004   10.9124 H   0  0  0  0  0
   27.7172    6.5567   12.3283 H   0  0  0  0  0
   30.3563    4.3504   13.2123 H   0  0  0  0  0
   28.7682    3.1333   11.7991 H   0  0  0  0  0
   30.3681    2.6157   11.2731 H   0  0  0  0  0
   29.0330    3.2709    9.5183 H   0  0  0  0  0
   32.3137    5.3929   12.2244 H   0  0  0  0  0
   33.2726    7.2530   10.6910 H   0  0  0  0  0
   32.0205    6.6529    9.6715 H   0  0  0  0  0
   35.2270    7.0923    9.1932 H   0  0  0  0  0
   34.4615    9.3561    7.8602 H   0  0  0  0  0
   34.6822   10.3381    5.5910 H   0  0  0  0  0
   35.1135    8.8720    3.6455 H   0  0  0  0  0
   35.3152    6.4297    3.9391 H   0  0  0  0  0
   35.1182    5.4158    6.1972 H   0  0  0  0  0
  1  2  1  0  0  0
  2  3  2  0  0  0
  2  4  1  0  0  0
  4  5  1  0  0  0
  5  6  1  0  0  0
  5 14  1  0  0  0
  6  7  1  0  0  0
  6  8  1  0  0  0
  8  9  1  0  0  0
  8 10  1  0  0  0
 10 11  1  0  0  0
 10 13  1  0  0  0
 11 12  1  0  0  0
 13 14  1  0  0  0
 14 15  1  0  0  0
 15 16  1  0  0  0
 16 17  1  0  0  0
 17 18  2  0  0  0
 17 19  1  0  0  0
 19 20  1  0  0  0
 20 21  4  0  0  0
 20 25  4  0  0  0
 21 22  4  0  0  0
 22 23  4  0  0  0
 23 24  4  0  0  0
 24 25  4  0  0  0
  1 26  1  0  0  0
  1 27  1  0  0  0
  1 28  1  0  0  0
  4 29  1  0  0  0
  5 30  1  0  0  0
  6 31  1  0  0  0
  7 32  1  0  0  0
  8 33  1  0  0  0
  9 34  1  0  0  0
 10 35  1  0  0  0
 11 36  1  0  0  0
 11 37  1  0  0  0
 12 38  1  0  0  0
 14 39  1  0  0  0
 15 40  1  0  0  0
 15 41  1  0  0  0
 19 42  1  0  0  0
 21 43  1  0  0  0
 22 44  1  0  0  0
 23 45  1  0  0  0
 24 46  1  0  0  0
 25 47  1  0  0  0
M  END
$$$$
