1uu7_ligand
  -I-interpret- 

 59 64  0  0  0  0  0  0  0  0999 V2000
   18.6890   83.9280    4.3630 C   0  0  0  0  0
   19.9450   83.5080    3.7070 N   0  3  0  0  0
   20.5210   82.2620    4.2770 C   0  0  0  0  0
   21.9460   82.2090    3.6800 C   0  0  0  0  0
   22.2500   83.6460    3.2430 C   0  0  0  0  0
   21.0630   84.4870    3.7610 C   0  0  0  0  0
   21.4020   85.0010    5.1750 C   0  0  0  0  0
   20.1980   85.4350    5.9630 C   0  0  0  0  0
   19.7680   86.7530    5.4820 N   0  0  0  0  0
   20.5920   87.7290    5.1220 C   0  0  0  0  0
   18.5130   87.1270    5.3790 C   0  0  0  0  0
   17.3290   86.4700    5.6670 C   0  0  0  0  0
   16.1320   87.1340    5.4650 C   0  0  0  0  0
   16.1300   88.4520    5.0050 C   0  0  0  0  0
   17.3200   89.0890    4.7140 C   0  0  0  0  0
   18.5230   88.4440    4.9160 C   0  0  0  0  0
   19.8680   88.7840    4.7430 C   0  0  0  0  0
   20.4090   90.0330    4.3520 C   0  0  0  0  0
   19.9070   91.2750    4.7540 C   0  0  0  0  0
   18.8500   91.4110    5.3880 O   0  0  0  0  0
   20.7090   92.2810    4.2890 N   0  0  0  0  0
   21.7390   91.7180    3.6540 C   0  0  0  0  0
   22.6650   92.3310    3.1180 O   0  0  0  0  0
   21.6200   90.3180    3.6780 C   0  0  0  0  0
   22.5690   89.4440    3.0950 C   0  0  0  0  0
   22.3480   88.2270    2.4390 C   0  0  0  0  0
   21.2300   87.4430    2.1230 C   0  0  0  0  0
   21.3870   86.2200    1.4310 C   0  0  0  0  0
   22.6620   85.7860    1.0810 C   0  0  0  0  0
   23.7700   86.5690    1.3950 C   0  0  0  0  0
   23.6040   87.7850    2.0710 C   0  0  0  0  0
   24.4980   88.6860    2.4720 N   0  0  0  0  0
   23.8890   89.6770    3.0760 C   0  0  0  0  0
   17.9425   83.1414    4.2529 H   0  0  0  0  0
   18.8760   84.1077    5.4217 H   0  0  0  0  0
   18.3255   84.8436    3.8965 H   0  0  0  0  0
   19.6229   83.3920    2.7462 H   0  0  0  0  0
   20.5273   82.2680    5.3670 H   0  0  0  0  0
   19.9324   81.3796    4.0260 H   0  0  0  0  0
   22.0068   81.5123    2.8439 H   0  0  0  0  0
   22.6737   81.8462    4.4059 H   0  0  0  0  0
   22.3553   83.7232    2.1609 H   0  0  0  0  0
   23.1988   83.9973    3.6487 H   0  0  0  0  0
   20.8181   85.3870    3.1969 H   0  0  0  0  0
   22.0480   85.8714    5.0599 H   0  0  0  0  0
   21.8688   84.1792    5.7180 H   0  0  0  0  0
   20.4506   85.4925    7.0218 H   0  0  0  0  0
   19.3916   84.7132    5.8330 H   0  0  0  0  0
   21.6807   87.6774    5.1339 H   0  0  0  0  0
   17.3395   85.4481    6.0460 H   0  0  0  0  0
   15.1883   86.6267    5.6655 H   0  0  0  0  0
   15.1855   88.9803    4.8750 H   0  0  0  0  0
   17.3091   90.1063    4.3228 H   0  0  0  0  0
   20.5486   93.2814    4.4065 H   0  0  0  0  0
   20.2339   87.7780    2.4123 H   0  0  0  0  0
   20.5141   85.6204    1.1731 H   0  0  0  0  0
   22.7930   84.8361    0.5627 H   0  0  0  0  0
   24.7689   86.2351    1.1142 H   0  0  0  0  0
   24.3796   90.5544    3.4974 H   0  0  0  0  0
  4  3  1  0  0  0
  5  4  1  0  0  0
  6  5  1  0  0  0
  7  6  1  0  0  0
  8  7  1  0  0  0
 10 17  4  0  0  0
 11 12  4  0  0  0
 11 16  4  0  0  0
 12 13  4  0  0  0
 13 14  4  0  0  0
 15 14  4  0  0  0
 16 15  4  0  0  0
 17 16  4  0  0  0
 17 18  1  0  0  0
 18 19  1  0  0  0
 18 24  2  0  0  0
 19 20  2  0  0  0
 22 23  2  0  0  0
 24 22  1  0  0  0
 24 25  1  0  0  0
 25 26  4  0  0  0
 25 33  4  0  0  0
 26 27  4  0  0  0
 26 31  4  0  0  0
 27 28  4  0  0  0
 28 29  4  0  0  0
 30 29  4  0  0  0
 31 30  4  0  0  0
 19 21  1  0  0  0
 22 21  1  0  0  0
 33 32  4  0  0  0
 32 31  4  0  0  0
  9 11  4  0  0  0
  9 10  4  0  0  0
  9  8  1  0  0  0
  6  2  1  0  0  0
  2  3  1  0  0  0
  2  1  1  0  0  0
  1 34  1  0  0  0
  1 35  1  0  0  0
  1 36  1  0  0  0
  2 37  1  0  0  0
  3 38  1  0  0  0
  3 39  1  0  0  0
  4 40  1  0  0  0
  4 41  1  0  0  0
  5 42  1  0  0  0
  5 43  1  0  0  0
  6 44  1  0  0  0
  7 45  1  0  0  0
  7 46  1  0  0  0
  8 47  1  0  0  0
  8 48  1  0  0  0
 10 49  1  0  0  0
 12 50  1  0  0  0
 13 51  1  0  0  0
 14 52  1  0  0  0
 15 53  1  0  0  0
 21 54  1  0  0  0
 27 55  1  0  0  0
 28 56  1  0  0  0
 29 57  1  0  0  0
 30 58  1  0  0  0
 33 59  1  0  0  0
M  END
$$$$
