1w12_ligand
  -I-interpret- 

 76 79  0  0  0  0  0  0  0  0999 V2000
   25.2970   17.0840   56.2410 N   0  0  0  0  0
   25.7400   18.3280   55.5940 C   0  0  0  0  0
   24.6880   19.3460   55.7260 C   0  0  0  0  0
   23.6040   18.9760   56.1720 O   0  0  0  0  0
   24.8680   20.6180   55.3640 N   0  0  0  0  0
   23.7650   21.5460   55.4330 C   0  0  0  0  0
   22.7580   21.3020   54.3980 C   0  0  0  0  0
   23.1740   20.7550   53.3500 O   0  0  0  0  0
   21.4840   21.6480   54.5870 N   0  0  0  0  0
   20.5970   21.5530   53.4700 C   0  0  0  0  0
   20.1560   22.8210   52.9340 C   0  0  0  0  0
   20.9390   23.7770   52.8400 O   0  0  0  0  0
   26.0870   21.0540   54.8980 C   0  0  0  0  0
   26.8440   20.3180   53.9050 C   0  0  0  0  0
   26.4380   19.0750   53.3570 C   0  0  0  0  0
   25.9780   18.1710   54.1970 N   0  0  0  0  0
   26.5200   18.8070   51.9650 C   0  0  0  0  0
   26.1530   19.7670   50.9590 C   0  0  0  0  0
   26.2890   19.5250   49.5700 C   0  0  0  0  0
   26.7620   18.2500   49.1270 C   0  0  0  0  0
   27.1390   17.2520   50.0760 C   0  0  0  0  0
   26.9870   17.5470   51.4570 C   0  0  0  0  0
   28.0740   20.8980   53.4690 C   0  0  0  0  0
   28.5570   22.1390   53.9610 C   0  0  0  0  0
   27.8390   22.8070   54.9830 C   0  0  0  0  0
   26.6000   22.2800   55.4260 C   0  0  0  0  0
   19.2740   20.7470   53.7080 C   0  0  0  0  0
   19.6870   19.3040   54.1100 C   0  0  0  0  0
   18.5020   18.4070   54.5370 C   0  0  0  0  0
   18.9480   17.0250   54.4910 N   0  0  0  0  0
   18.1210   16.0090   54.8330 C   0  0  0  0  0
   16.8230   16.2240   55.1810 N   0  0  0  0  0
   18.5150   14.7280   54.8560 N   0  0  0  0  0
   26.5140   16.3840   57.1650 S   0  0  0  0  0
   27.8300   16.7990   56.4970 O   0  0  0  0  0
   26.3280   14.9000   57.0820 O   0  0  0  0  0
   26.6830   16.7860   58.8660 C   0  0  0  0  0
   26.7880   18.2650   58.8010 C   0  0  0  0  0
   27.9640   18.9690   58.3960 C   0  0  0  0  0
   28.0420   20.3970   58.3760 C   0  0  0  0  0
   26.8990   21.1280   58.7920 C   0  0  0  0  0
   25.6810   20.4620   59.1180 C   0  0  0  0  0
   25.6610   19.0430   59.1550 C   0  0  0  0  0
   24.3608   16.6918   56.1408 H   0  0  0  0  0
   26.6691   18.6160   56.0859 H   0  0  0  0  0
   24.1619   22.5503   55.2847 H   0  0  0  0  0
   23.2845   21.4242   56.4038 H   0  0  0  0  0
   21.1539   21.9693   55.4971 H   0  0  0  0  0
   21.2494   21.0231   52.7759 H   0  0  0  0  0
   19.1223   22.9377   52.6086 H   0  0  0  0  0
   25.7506   20.7275   51.2810 H   0  0  0  0  0
   26.0362   20.3010   48.8475 H   0  0  0  0  0
   26.8350   18.0392   48.0601 H   0  0  0  0  0
   27.5329   16.2896   49.7494 H   0  0  0  0  0
   27.2406   16.7685   52.1765 H   0  0  0  0  0
   28.6676   20.3648   52.7264 H   0  0  0  0  0
   29.4712   22.5734   53.5564 H   0  0  0  0  0
   28.2366   23.7202   55.4258 H   0  0  0  0  0
   26.0285   22.8184   56.1820 H   0  0  0  0  0
   18.6618   20.7358   52.8062 H   0  0  0  0  0
   18.6764   21.2099   54.4933 H   0  0  0  0  0
   20.3559   19.3858   54.9667 H   0  0  0  0  0
   20.1431   18.8423   53.2343 H   0  0  0  0  0
   17.6567   18.5532   53.8645 H   0  0  0  0  0
   18.1774   18.6653   55.5450 H   0  0  0  0  0
   19.9017   16.8163   54.1956 H   0  0  0  0  0
   16.2259   15.4369   55.4348 H   0  0  0  0  0
   16.4472   17.1722   55.1880 H   0  0  0  0  0
   19.4743   14.4850   54.6090 H   0  0  0  0  0
   27.5335   16.3053   59.3494 H   0  0  0  0  0
   25.8603   16.4301   59.4862 H   0  0  0  0  0
   28.8377   18.3938   58.0897 H   0  0  0  0  0
   28.9493   20.9069   58.0520 H   0  0  0  0  0
   26.9529   22.2143   58.8634 H   0  0  0  0  0
   24.7789   21.0338   59.3355 H   0  0  0  0  0
   24.7474   18.5365   59.4663 H   0  0  0  0  0
  1  2  1  0  0  0
  1 34  1  0  0  0
  2  3  1  0  0  0
  2 16  1  0  0  0
  3  4  2  0  0  0
  3  5  1  0  0  0
  5  6  1  0  0  0
  5 13  1  0  0  0
  6  7  1  0  0  0
  7  8  2  0  0  0
  7  9  1  0  0  0
  9 10  1  0  0  0
 10 11  1  0  0  0
 10 27  1  0  0  0
 11 12  2  0  0  0
 13 14  4  0  0  0
 13 26  4  0  0  0
 14 15  1  0  0  0
 14 23  4  0  0  0
 15 16  2  0  0  0
 15 17  1  0  0  0
 17 18  4  0  0  0
 17 22  4  0  0  0
 18 19  4  0  0  0
 19 20  4  0  0  0
 20 21  4  0  0  0
 21 22  4  0  0  0
 23 24  4  0  0  0
 24 25  4  0  0  0
 25 26  4  0  0  0
 27 28  1  0  0  0
 28 29  1  0  0  0
 29 30  1  0  0  0
 30 31  1  0  0  0
 31 32  1  0  0  0
 31 33  2  0  0  0
 34 35  2  0  0  0
 34 36  2  0  0  0
 34 37  1  0  0  0
 37 38  1  0  0  0
 38 39  4  0  0  0
 38 43  4  0  0  0
 39 40  4  0  0  0
 40 41  4  0  0  0
 41 42  4  0  0  0
 42 43  4  0  0  0
  1 44  1  0  0  0
  2 45  1  0  0  0
  6 46  1  0  0  0
  6 47  1  0  0  0
  9 48  1  0  0  0
 10 49  1  0  0  0
 11 50  1  0  0  0
 18 51  1  0  0  0
 19 52  1  0  0  0
 20 53  1  0  0  0
 21 54  1  0  0  0
 22 55  1  0  0  0
 23 56  1  0  0  0
 24 57  1  0  0  0
 25 58  1  0  0  0
 26 59  1  0  0  0
 27 60  1  0  0  0
 27 61  1  0  0  0
 28 62  1  0  0  0
 28 63  1  0  0  0
 29 64  1  0  0  0
 29 65  1  0  0  0
 30 66  1  0  0  0
 32 67  1  0  0  0
 32 68  1  0  0  0
 33 69  1  0  0  0
 37 70  1  0  0  0
 37 71  1  0  0  0
 39 72  1  0  0  0
 40 73  1  0  0  0
 41 74  1  0  0  0
 42 75  1  0  0  0
 43 76  1  0  0  0
M  END
$$$$
