4e4n_ligand
  -I-interpret- 

 47 50  0  0  0  0  0  0  0  0999 V2000
    3.8640   49.8290   -0.5440 C   0  0  0  0  0
    4.0870   49.7010    0.9560 C   0  0  0  0  0
    2.7790   49.1970    1.5660 C   0  0  0  0  0
    5.2050   48.7000    1.2780 C   0  0  0  0  0
    4.3510   51.0220    1.5170 O   0  0  0  0  0
    5.4870   51.7330    1.3720 C   0  0  0  0  0
    6.3550   51.4420    0.5600 O   0  0  0  0  0
    5.6140   52.8240    2.1640 N   0  0  0  0  0
    6.8280   53.6530    2.1250 C   0  0  0  0  0
    6.7780   54.5890    3.3560 C   0  0  0  0  0
    7.0860   55.9980    2.8010 C   0  0  0  0  0
    6.6160   55.9510    1.3280 C   0  0  0  0  0
    6.9670   54.5290    0.8590 C   0  0  0  0  0
    7.3400   57.0570    0.6780 N   0  0  0  0  0
    8.5820   57.0540    0.0880 C   0  0  0  0  0
    8.8670   58.2640   -0.3340 N   0  0  0  0  0
    7.8440   59.1030   -0.0240 C   0  0  0  0  0
    6.8570   58.3330    0.6360 C   0  0  0  0  0
    5.6730   58.9630    1.0720 C   0  0  0  0  0
    4.4520   58.5190    1.7730 C   0  0  0  0  0
    3.6790   59.6060    1.8970 C   0  0  0  0  0
    4.3060   60.7040    1.3450 N   0  0  0  0  0
    5.5220   60.3420    0.8250 C   0  0  0  0  0
    6.4920   61.0380    0.2030 N   0  0  0  0  0
    7.6060   60.4750   -0.2120 C   0  0  0  0  0
    3.0113   50.4824   -0.7288 H   0  0  0  0  0
    4.7550   50.2523   -1.0077 H   0  0  0  0  0
    3.6665   48.8436   -0.9661 H   0  0  0  0  0
    2.8839   49.1378    2.6493 H   0  0  0  0  0
    1.9730   49.8865    1.3149 H   0  0  0  0  0
    2.5507   48.2086    1.1672 H   0  0  0  0  0
    6.1458   49.0624    0.8638 H   0  0  0  0  0
    5.2983   48.5968    2.3591 H   0  0  0  0  0
    4.9621   47.7323    0.8390 H   0  0  0  0  0
    4.8553   53.0749    2.7979 H   0  0  0  0  0
    7.6826   52.9765    2.1215 H   0  0  0  0  0
    7.4960   54.2902    4.1197 H   0  0  0  0  0
    5.8075   54.5534    3.8510 H   0  0  0  0  0
    8.1446   56.2448    2.8825 H   0  0  0  0  0
    6.5759   56.7781    3.3660 H   0  0  0  0  0
    5.5574   56.0993    1.1149 H   0  0  0  0  0
    6.3106   54.1916    0.0569 H   0  0  0  0  0
    7.9702   54.4762    0.4360 H   0  0  0  0  0
    9.2291   56.1827   -0.0135 H   0  0  0  0  0
    4.2253   57.5107    2.1196 H   0  0  0  0  0
    2.6955   59.6209    2.3667 H   0  0  0  0  0
    8.3591   61.0846   -0.7114 H   0  0  0  0  0
  1  2  1  0  0  0
  2  3  1  0  0  0
  2  4  1  0  0  0
  2  5  1  0  0  0
  5  6  1  0  0  0
  6  7  2  0  0  0
  6  8  1  0  0  0
  8  9  1  0  0  0
  9 10  1  0  0  0
  9 13  1  0  0  0
 10 11  1  0  0  0
 11 12  1  0  0  0
 12 13  1  0  0  0
 12 14  1  0  0  0
 14 15  4  0  0  0
 14 18  4  0  0  0
 15 16  4  0  0  0
 16 17  4  0  0  0
 17 18  4  0  0  0
 17 25  4  0  0  0
 18 19  4  0  0  0
 19 20  4  0  0  0
 19 23  4  0  0  0
 20 21  4  0  0  0
 21 22  4  0  0  0
 22 23  4  0  0  0
 23 24  4  0  0  0
 24 25  4  0  0  0
  1 26  1  0  0  0
  1 27  1  0  0  0
  1 28  1  0  0  0
  3 29  1  0  0  0
  3 30  1  0  0  0
  3 31  1  0  0  0
  4 32  1  0  0  0
  4 33  1  0  0  0
  4 34  1  0  0  0
  8 35  1  0  0  0
  9 36  1  0  0  0
 10 37  1  0  0  0
 10 38  1  0  0  0
 11 39  1  0  0  0
 11 40  1  0  0  0
 12 41  1  0  0  0
 13 42  1  0  0  0
 13 43  1  0  0  0
 15 44  1  0  0  0
 20 45  1  0  0  0
 21 46  1  0  0  0
 25 47  1  0  0  0
M  END
$$$$
