4pyy_ligand
  -I-interpret- 

 51 52  0  0  0  0  0  0  0  0999 V2000
   14.4120    4.9170   14.1800 F   0  0  0  0  0
   15.7170    5.0040   14.3980 C   0  0  0  0  0
   16.3200    4.0990   15.2800 C   0  0  0  0  0
   15.4500    2.8880   16.2730 S   0  0  0  0  0
   13.9140    3.0420   16.3150 O   0  0  0  0  0
   15.8400    1.2860   15.8370 N   0  0  0  0  0
   16.0160    3.1260   17.6450 O   0  0  0  0  0
   17.6800    4.1950   15.4560 C   0  0  0  0  0
   18.3170    3.3030   16.2420 F   0  0  0  0  0
   18.4380    5.1390   14.7910 C   0  0  0  0  0
   19.7860    5.1750   15.0240 F   0  0  0  0  0
   16.4530    5.9640   13.6980 C   0  0  0  0  0
   17.8430    6.0330   13.9010 C   0  0  0  0  0
   19.0150    7.1760   13.1430 S   0  0  0  0  0
   19.5210    8.0660   14.2680 O   0  0  0  0  0
   18.2570    8.1130   12.2040 O   0  0  0  0  0
   20.3090    6.3270   12.2030 C   0  0  0  0  0
   19.6920    5.5690   10.9980 C   0  0  0  0  0
   18.3360    5.1870   11.1180 O   0  0  0  0  0
   15.7360    6.8180   12.7850 N   0  0  0  0  0
   14.6930    7.6650   13.2540 C   0  0  0  0  0
   14.9830    8.1240   14.6810 C   0  0  0  0  0
   16.2290    9.0130   14.8140 C   0  0  0  0  0
   15.9460   10.4770   14.4380 C   0  0  0  0  0
   14.5040   10.9740   14.3870 C   0  0  0  0  0
   13.9480   11.0360   12.9750 C   0  0  0  0  0
   13.3450    9.6790   12.5330 C   0  0  0  0  0
   14.5200    8.7660   12.2200 C   0  0  0  0  0
   15.0967    0.6120   15.6536 H   0  0  0  0  0
   16.8166    1.0019   15.7596 H   0  0  0  0  0
   20.8097    5.6109   12.8546 H   0  0  0  0  0
   21.0207    7.0646   11.8321 H   0  0  0  0  0
   20.2585    4.6427   10.9029 H   0  0  0  0  0
   19.7374    6.2573   10.1540 H   0  0  0  0  0
   18.0621    4.7286   10.3202 H   0  0  0  0  0
   15.9782    6.8153   11.7942 H   0  0  0  0  0
   13.7335    7.1555   13.3430 H   0  0  0  0  0
   15.1606    7.2291   15.2774 H   0  0  0  0  0
   14.1285    8.7159   15.0090 H   0  0  0  0  0
   16.9905    8.6309   14.1341 H   0  0  0  0  0
   16.5520    8.9881   15.8547 H   0  0  0  0  0
   16.3090   10.5752   13.4149 H   0  0  0  0  0
   16.4124   11.0616   15.2310 H   0  0  0  0  0
   14.4861   11.9843   14.7959 H   0  0  0  0  0
   13.8910   10.2742   14.9551 H   0  0  0  0  0
   14.7639   11.2853   12.2965 H   0  0  0  0  0
   13.1573   11.7859   12.9511 H   0  0  0  0  0
   12.7036    9.8026   11.6604 H   0  0  0  0  0
   12.7199    9.2551   13.3190 H   0  0  0  0  0
   14.3322    8.2949   11.2552 H   0  0  0  0  0
   15.4260    9.3720   12.2191 H   0  0  0  0  0
  1  2  1  0  0  0
  2  3  4  0  0  0
  2 12  4  0  0  0
  3  4  1  0  0  0
  3  8  4  0  0  0
  4  5  2  0  0  0
  4  6  1  0  0  0
  4  7  2  0  0  0
  8  9  1  0  0  0
  8 10  4  0  0  0
 10 11  1  0  0  0
 10 13  4  0  0  0
 12 13  4  0  0  0
 12 20  1  0  0  0
 13 14  1  0  0  0
 14 15  2  0  0  0
 14 16  2  0  0  0
 14 17  1  0  0  0
 17 18  1  0  0  0
 18 19  1  0  0  0
 20 21  1  0  0  0
 21 22  1  0  0  0
 21 28  1  0  0  0
 22 23  1  0  0  0
 23 24  1  0  0  0
 24 25  1  0  0  0
 25 26  1  0  0  0
 26 27  1  0  0  0
 27 28  1  0  0  0
  6 29  1  0  0  0
  6 30  1  0  0  0
 17 31  1  0  0  0
 17 32  1  0  0  0
 18 33  1  0  0  0
 18 34  1  0  0  0
 19 35  1  0  0  0
 20 36  1  0  0  0
 21 37  1  0  0  0
 22 38  1  0  0  0
 22 39  1  0  0  0
 23 40  1  0  0  0
 23 41  1  0  0  0
 24 42  1  0  0  0
 24 43  1  0  0  0
 25 44  1  0  0  0
 25 45  1  0  0  0
 26 46  1  0  0  0
 26 47  1  0  0  0
 27 48  1  0  0  0
 27 49  1  0  0  0
 28 50  1  0  0  0
 28 51  1  0  0  0
M  END
$$$$
