3kba_ligand
  -I-interpret- 

 49 51  0  0  0  0  0  0  0  0999 V2000
   -0.1650   -8.7890   22.1950 C   0  0  0  0  0
   -1.3060   -9.7290   22.3430 C   0  0  0  0  0
   -1.4100  -10.8030   21.4580 C   0  0  0  0  0
   -2.4550  -11.7100   21.5860 C   0  0  0  0  0
   -3.4330  -11.5150   22.5570 C   0  0  0  0  0
   -3.3220  -10.4570   23.4540 C   0  0  0  0  0
   -2.2820   -9.5410   23.3290 C   0  0  0  0  0
   -2.1950   -8.4160   24.3000 C   0  0  0  0  0
   -3.3280   -8.1100   25.1100 N   0  0  0  0  0
   -4.1000   -6.9470   24.8250 C   0  0  0  0  0
   -3.3990   -5.6290   24.8970 C   0  0  0  0  0
   -3.1310   -5.2460   23.4420 C   0  0  0  0  0
   -3.9050   -6.1610   22.6220 N   0  0  0  0  0
   -4.7670   -6.9470   23.5040 C   0  0  0  0  0
   -3.7230   -5.5970   21.1220 S   0  0  0  0  0
   -3.1370   -6.8660   20.0840 C   0  0  0  0  0
   -2.8210   -4.5020   21.1500 O   0  0  0  0  0
   -4.9790   -5.1660   20.6430 O   0  0  0  0  0
   -3.5200   -8.7700   26.3520 C   0  0  0  0  0
   -4.6060   -8.4300   27.1590 C   0  0  0  0  0
   -4.7930   -9.0480   28.3910 C   0  0  0  0  0
   -3.8980  -10.0220   28.8140 C   0  0  0  0  0
   -4.1100  -10.6660   30.1350 C   0  0  0  0  0
   -4.2790  -11.1670   31.1350 N   0  0  0  0  0
   -2.8280  -10.3870   27.9910 C   0  0  0  0  0
   -1.6390  -11.5060   28.5170 Cl  0  0  0  0  0
   -2.6160   -9.7370   26.7790 C   0  0  0  0  0
    0.7713   -9.3349   22.3114 H   0  0  0  0  0
   -0.1994   -8.3306   21.2067 H   0  0  0  0  0
   -0.2327   -8.0143   22.9588 H   0  0  0  0  0
   -0.6716  -10.9304   20.6664 H   0  0  0  0  0
   -2.5089  -12.5752   20.9252 H   0  0  0  0  0
   -4.2860  -12.1912   22.6148 H   0  0  0  0  0
   -4.0513  -10.3455   24.2563 H   0  0  0  0  0
   -2.0412   -7.5281   23.6868 H   0  0  0  0  0
   -1.4190   -8.7141   25.0051 H   0  0  0  0  0
   -4.8130   -7.0304   25.6452 H   0  0  0  0  0
   -2.4772   -5.6919   25.4753 H   0  0  0  0  0
   -4.0007   -4.8780   25.4090 H   0  0  0  0  0
   -2.0685   -5.3193   23.2098 H   0  0  0  0  0
   -3.4213   -4.2127   23.2519 H   0  0  0  0  0
   -5.7675   -6.5187   23.5651 H   0  0  0  0  0
   -4.9003   -7.9611   23.1273 H   0  0  0  0  0
   -3.0234   -6.4813   19.0705 H   0  0  0  0  0
   -2.1726   -7.2174   20.4508 H   0  0  0  0  0
   -3.8494   -7.6910   20.0831 H   0  0  0  0  0
   -5.3142   -7.6734   26.8211 H   0  0  0  0  0
   -5.6376   -8.7693   29.0211 H   0  0  0  0  0
   -1.7475   -9.9840   26.1684 H   0  0  0  0  0
  1  2  1  0  0  0
  2  3  4  0  0  0
  2  7  4  0  0  0
  3  4  4  0  0  0
  4  5  4  0  0  0
  5  6  4  0  0  0
  6  7  4  0  0  0
  7  8  1  0  0  0
  8  9  1  0  0  0
  9 10  1  0  0  0
  9 19  1  0  0  0
 10 11  1  0  0  0
 10 14  1  0  0  0
 11 12  1  0  0  0
 12 13  1  0  0  0
 13 14  1  0  0  0
 13 15  1  0  0  0
 15 16  1  0  0  0
 15 17  2  0  0  0
 15 18  2  0  0  0
 19 20  4  0  0  0
 19 27  4  0  0  0
 20 21  4  0  0  0
 21 22  4  0  0  0
 22 23  1  0  0  0
 22 25  4  0  0  0
 23 24  3  0  0  0
 25 26  1  0  0  0
 25 27  4  0  0  0
  1 28  1  0  0  0
  1 29  1  0  0  0
  1 30  1  0  0  0
  3 31  1  0  0  0
  4 32  1  0  0  0
  5 33  1  0  0  0
  6 34  1  0  0  0
  8 35  1  0  0  0
  8 36  1  0  0  0
 10 37  1  0  0  0
 11 38  1  0  0  0
 11 39  1  0  0  0
 12 40  1  0  0  0
 12 41  1  0  0  0
 14 42  1  0  0  0
 14 43  1  0  0  0
 16 44  1  0  0  0
 16 45  1  0  0  0
 16 46  1  0  0  0
 20 47  1  0  0  0
 21 48  1  0  0  0
 27 49  1  0  0  0
M  END
$$$$
