3lpr_ligand
  -I-interpret- 

 58 58  0  0  0  0  0  0  0  0999 V2000
   13.3950   42.1230   18.4390 N   0  3  0  0  0
   14.0740   40.8370   18.1880 C   0  0  0  0  0
   13.2860   39.5590   18.5100 C   0  0  0  0  0
   12.5540   39.4950   19.5330 O   0  0  0  0  0
   15.3450   40.7190   19.0220 C   0  0  0  0  0
   13.4790   38.6010   17.6180 N   0  0  0  0  0
   12.7370   37.3270   17.8020 C   0  0  0  0  0
   13.6570   36.1830   17.4020 C   0  0  0  0  0
   14.4930   36.4690   16.5500 O   0  0  0  0  0
   11.5350   37.3970   16.8520 C   0  0  0  0  0
   13.4180   35.0310   17.9690 N   0  0  0  0  0
   14.1920   33.8350   17.6370 C   0  0  0  0  0
   13.9820   33.4800   16.1590 C   0  0  0  0  0
   12.8750   33.7550   15.6660 O   0  0  0  0  0
   13.5770   32.7330   18.5060 C   0  0  0  0  0
   12.7890   33.4300   19.5770 C   0  0  0  0  0
   12.3520   34.7730   18.9690 C   0  0  0  0  0
   14.9580   32.8800   15.5020 N   0  0  0  0  0
   14.8580   32.4620   14.1040 C   0  0  0  0  0
   15.8830   33.1890   13.2190 C   0  0  0  0  0
   15.5590   34.6760   12.9610 C   0  0  0  0  0
   16.7520   35.3050   12.2450 C   0  0  0  0  0
   16.7530   36.8380   12.1810 C   0  0  0  0  0
   14.9600   30.8930   14.0800 B   0  0  0  0  0
   14.9410   30.3040   12.7170 O   0  0  0  0  0
   14.0240   30.2070   15.0150 O   0  0  0  0  0
   12.5499   42.1766   17.8703 H   0  0  0  0  0
   13.1466   42.1880   19.4262 H   0  0  0  0  0
   14.0208   42.8901   18.1934 H   0  0  0  0  0
   14.2363   40.8814   17.1111 H   0  0  0  0  0
   15.0809   40.6578   20.0777 H   0  0  0  0  0
   15.8880   39.8204   18.7293 H   0  0  0  0  0
   15.9715   41.5948   18.8531 H   0  0  0  0  0
   14.1150   38.7325   16.8315 H   0  0  0  0  0
   12.4097   37.1724   18.8301 H   0  0  0  0  0
   11.8874   37.5611   15.8337 H   0  0  0  0  0
   10.9810   36.4595   16.8994 H   0  0  0  0  0
   10.8854   38.2199   17.1501 H   0  0  0  0  0
   15.2605   33.9681   17.8063 H   0  0  0  0  0
   14.3502   32.0983   18.9389 H   0  0  0  0  0
   12.9384   32.0777   17.9136 H   0  0  0  0  0
   13.3868   33.5778   20.4764 H   0  0  0  0  0
   11.9288   32.8362   19.8862 H   0  0  0  0  0
   11.3538   34.7409   18.5323 H   0  0  0  0  0
   12.2576   35.5677   19.7090 H   0  0  0  0  0
   15.8308   32.6978   15.9975 H   0  0  0  0  0
   13.9009   32.7479   13.6677 H   0  0  0  0  0
   15.8828   32.6883   12.2508 H   0  0  0  0  0
   16.8389   33.1553   13.7417 H   0  0  0  0  0
   15.3744   35.1892   13.9047 H   0  0  0  0  0
   14.6632   34.7638   12.3462 H   0  0  0  0  0
   16.7160   34.9520   11.2144 H   0  0  0  0  0
   17.6389   35.0180   12.8100 H   0  0  0  0  0
   15.8627   37.1789   11.6526 H   0  0  0  0  0
   16.7536   37.2426   13.1931 H   0  0  0  0  0
   17.6434   37.1777   11.6520 H   0  0  0  0  0
   15.0065   29.3484   12.7816 H   0  0  0  0  0
   14.1430   29.2570   14.9453 H   0  0  0  0  0
  1  2  1  0  0  0
  2  3  1  0  0  0
  2  5  1  0  0  0
  3  4  2  0  0  0
  3  6  1  0  0  0
  6  7  1  0  0  0
  7  8  1  0  0  0
  7 10  1  0  0  0
  8  9  2  0  0  0
  8 11  1  0  0  0
 11 12  1  0  0  0
 11 17  1  0  0  0
 12 13  1  0  0  0
 12 15  1  0  0  0
 13 14  2  0  0  0
 13 18  1  0  0  0
 15 16  1  0  0  0
 16 17  1  0  0  0
 18 19  1  0  0  0
 19 20  1  0  0  0
 19 24  1  0  0  0
 20 21  1  0  0  0
 21 22  1  0  0  0
 22 23  1  0  0  0
 24 25  1  0  0  0
 24 26  1  0  0  0
  1 27  1  0  0  0
  1 28  1  0  0  0
  1 29  1  0  0  0
  2 30  1  0  0  0
  5 31  1  0  0  0
  5 32  1  0  0  0
  5 33  1  0  0  0
  6 34  1  0  0  0
  7 35  1  0  0  0
 10 36  1  0  0  0
 10 37  1  0  0  0
 10 38  1  0  0  0
 12 39  1  0  0  0
 15 40  1  0  0  0
 15 41  1  0  0  0
 16 42  1  0  0  0
 16 43  1  0  0  0
 17 44  1  0  0  0
 17 45  1  0  0  0
 18 46  1  0  0  0
 19 47  1  0  0  0
 20 48  1  0  0  0
 20 49  1  0  0  0
 21 50  1  0  0  0
 21 51  1  0  0  0
 22 52  1  0  0  0
 22 53  1  0  0  0
 23 54  1  0  0  0
 23 55  1  0  0  0
 23 56  1  0  0  0
 25 57  1  0  0  0
 26 58  1  0  0  0
M  END
$$$$
