### 
### Created by X-TOOL on Mon Sep 10 21:12:44 2018
### 

@<TRIPOS>MOLECULE
3lpr_ligand
   58    58     1     0     0
SMALL
GAST_HUCK


@<TRIPOS>ATOM
      1 N          13.3950   42.1230   18.4390 N.4       1 ALA         0.2377
      2 CA         14.0740   40.8370   18.1880 C.3       1 ALA         0.0621
      3 C          13.2860   39.5590   18.5100 C.2       1 ALA         0.2264
      4 O          12.5540   39.4950   19.5330 O.2       1 ALA        -0.3907
      5 CB         15.3450   40.7190   19.0220 C.3       1 ALA        -0.0040
      6 N          13.4790   38.6010   17.6180 N.am      1 ALA        -0.2613
      7 CA         12.7370   37.3270   17.8020 C.3       1 ALA         0.1285
      8 C          13.6570   36.1830   17.4020 C.2       1 ALA         0.2061
      9 O          14.4930   36.4690   16.5500 O.2       1 ALA        -0.3942
     10 CB         11.5350   37.3970   16.8520 C.3       1 ALA        -0.0244
     11 N          13.4180   35.0310   17.9690 N.am      1 PRO        -0.2498
     12 CA         14.1920   33.8350   17.6370 C.3       1 PRO         0.1336
     13 C          13.9820   33.4800   16.1590 C.2       1 PRO         0.2010
     14 O          12.8750   33.7550   15.6660 O.2       1 PRO        -0.3946
     15 CB         13.5770   32.7330   18.5060 C.3       1 PRO        -0.0104
     16 CG         12.7890   33.4300   19.5770 C.3       1 PRO        -0.0281
     17 CD         12.3520   34.7730   18.9690 C.3       1 PRO         0.0369
     18 N          14.9580   32.8800   15.5020 N.am      1 BNO        -0.2918
     19 CA         14.8580   32.4620   14.1040 C.3       1 BNO         0.0532
     20 CB         15.8830   33.1890   13.2190 C.3       1 BNO        -0.0388
     21 CG         15.5590   34.6760   12.9610 C.3       1 BNO        -0.0524
     22 CD         16.7520   35.3050   12.2450 C.3       1 BNO        -0.0559
     23 CE         16.7530   36.8380   12.1810 C.3       1 BNO        -0.0653
     24 B          14.9600   30.8930   14.0800 B         1 BNO         0.7163
     25 O1         14.9410   30.3040   12.7170 O.3       1 BNO        -0.4967
     26 O2         14.0240   30.2070   15.0150 O.3       1 BNO        -0.4967
     27 H1         14.0101   42.8819   18.1903 H         1 ALA         0.2015
     28 H2         13.1551   42.1913   19.4156 H         1 ALA         0.2015
     29 H3         12.5561   42.1743   17.8825 H         1 ALA         0.2015
     30 H4         14.3358   40.8174   17.1198 H         1 ALA         0.1095
     31 H5         15.8303   39.7535   18.8162 H         1 ALA         0.0310
     32 H6         15.0897   40.7807   20.0902 H         1 ALA         0.0310
     33 H7         16.0320   41.5376   18.7613 H         1 ALA         0.0310
     34 H8         14.1025   38.7299   16.8469 H         1 ALA         0.1884
     35 H9         12.4052   37.2058   18.8437 H         1 ALA         0.0797
     36 H10        10.9419   36.4751   16.9427 H         1 ALA         0.0277
     37 H11        11.8915   37.5033   15.8168 H         1 ALA         0.0277
     38 H12        10.9095   38.2627   17.1152 H         1 ALA         0.0277
     39 H13        15.2616   33.9733   17.8536 H         1 PRO         0.0802
     40 H14        14.3691   32.1167   18.9563 H         1 PRO         0.0313
     41 H15        12.9157   32.0955   17.9008 H         1 PRO         0.0313
     42 H16        13.4153   33.5976   20.4656 H         1 PRO         0.0287
     43 H17        11.9092   32.8316   19.8560 H         1 PRO         0.0287
     44 H18        11.3663   34.6902   18.4878 H         1 PRO         0.0524
     45 H19        12.3221   35.5645   19.7322 H         1 PRO         0.0524
     46 H20        15.8136   32.7014   15.9878 H         1 BNO         0.1840
     47 H21        13.8611   32.7384   13.7302 H         1 BNO         0.0431
     48 H22        15.9276   32.6729   12.2486 H         1 BNO         0.0275
     49 H23        16.8652   33.1309   13.7108 H         1 BNO         0.0275
     50 H24        15.3845   35.1908   13.9173 H         1 BNO         0.0265
     51 H25        14.6609   34.7579   12.3312 H         1 BNO         0.0265
     52 H26        16.7676   34.9231   11.2135 H         1 BNO         0.0263
     53 H27        17.6664   34.9874   12.7675 H         1 BNO         0.0263
     54 H28        17.6512   37.1821   11.6473 H         1 BNO         0.0230
     55 H29        16.7537   37.2476   13.2019 H         1 BNO         0.0230
     56 H30        15.8549   37.1833   11.6479 H         1 BNO         0.0230
     57 H31        15.1942   29.3896   12.7648 H         1 BNO         0.1667
     58 H32        14.0732   30.6191   15.8695 H         1 BNO         0.1667
@<TRIPOS>BOND
     1    1    2 1  
     2    2    3 1  
     3    2    5 1  
     4    3    4 2  
     5    3    6 am 
     6    6    7 1  
     7    7    8 1  
     8    7   10 1  
     9    8    9 2  
    10    8   11 am 
    11   11   12 1  
    12   11   17 1  
    13   12   13 1  
    14   12   15 1  
    15   13   14 2  
    16   13   18 am 
    17   15   16 1  
    18   16   17 1  
    19   18   19 1  
    20   19   20 1  
    21   19   24 1  
    22   20   21 1  
    23   21   22 1  
    24   22   23 1  
    25   24   25 1  
    26   24   26 1  
    27    1   27 1  
    28    1   28 1  
    29    1   29 1  
    30    2   30 1  
    31    5   31 1  
    32    5   32 1  
    33    5   33 1  
    34    6   34 1  
    35    7   35 1  
    36   10   36 1  
    37   10   37 1  
    38   10   38 1  
    39   12   39 1  
    40   15   40 1  
    41   15   41 1  
    42   16   42 1  
    43   16   43 1  
    44   17   44 1  
    45   17   45 1  
    46   18   46 1  
    47   19   47 1  
    48   20   48 1  
    49   20   49 1  
    50   21   50 1  
    51   21   51 1  
    52   22   52 1  
    53   22   53 1  
    54   23   54 1  
    55   23   55 1  
    56   23   56 1  
    57   25   57 1  
    58   26   58 1  
@<TRIPOS>SUBSTRUCTURE
     1 ALA         1

