### 
### Created by X-TOOL on Wed Jan  1 15:39:36 2020
### 

@<TRIPOS>MOLECULE
5ndb_ligand
   20    21     1     0     0
SMALL
GAST_HUCK


@<TRIPOS>ATOM
      1 O01       -46.8180   22.7810  -10.3760 O.co2     1 8TW        -0.5657
      2 C02       -47.1480   22.6330   -9.1660 C.2       1 8TW         0.0476
      3 C03       -48.2160   21.6360   -8.7930 C.3       1 8TW         0.0383
      4 C04       -48.7070   21.5690   -7.3830 C.2       1 8TW        -0.0453
      5 S05       -49.5220   20.3130   -7.1980 S.3       1 8TW        -0.1246
      6 C06       -49.1370   19.2570   -8.5940 C.3       1 8TW         0.0653
      7 C07       -48.3420   20.1690   -9.5890 C.3       1 8TW         0.0540
      8 C08       -47.3610   19.0400   -9.8500 C.3       1 8TW         0.2076
      9 O09       -46.0380   19.4040   -9.5330 O.3       1 8TW        -0.3619
     10 O10       -47.4810   18.4700  -11.1450 O.3       1 8TW        -0.3619
     11 C11       -48.0400   18.2150   -8.6990 C.3       1 8TW         0.1866
     12 CL2       -47.0750   18.1130   -7.2520 Cl        1 8TW        -0.0937
     13 CL3       -48.6070   16.6300   -9.1570 Cl        1 8TW        -0.0937
     14 O14       -46.6020   23.3060   -8.2550 O.co2     1 8TW        -0.5657
     15 H1        -49.0693   22.1557   -9.2533 H         1 8TW         0.0616
     16 H2        -48.5078   22.3103   -6.6105 H         1 8TW         0.0362
     17 H3        -50.0856   18.8513   -8.9755 H         1 8TW         0.0482
     18 H4        -48.8670   20.3865  -10.5308 H         1 8TW         0.0415
     19 H5        -45.7277   20.0446  -10.1620 H         1 8TW         0.2129
     20 H6        -47.1893   19.0987  -11.7948 H         1 8TW         0.2129
@<TRIPOS>BOND
     1    1    2 ar 
     2    2    3 1  
     3    2   14 ar 
     4    3    4 1  
     5    3    7 1  
     6    4    5 1  
     7    5    6 1  
     8    6    7 1  
     9    6   11 1  
    10    7    8 1  
    11    8    9 1  
    12    8   10 1  
    13    8   11 1  
    14   11   12 1  
    15   11   13 1  
    16    3   15 1  
    17    4   16 1  
    18    6   17 1  
    19    7   18 1  
    20    9   19 1  
    21   10   20 1  
@<TRIPOS>SUBSTRUCTURE
     1 8TW         1

