5ndb_ligand
  -I-interpret- 

 22 23  0  0  0  0  0  0  0  0999 V2000
  -46.8180   22.7810  -10.3760 O   0  0  0  0  0
  -47.1480   22.6330   -9.1660 C   0  0  0  0  0
  -48.2160   21.6360   -8.7930 C   0  0  0  0  0
  -48.7070   21.5690   -7.3830 C   0  0  0  0  0
  -49.5220   20.3130   -7.1980 S   0  0  0  0  0
  -49.1370   19.2570   -8.5940 C   0  0  0  0  0
  -48.3420   20.1690   -9.5890 C   0  0  0  0  0
  -47.3610   19.0400   -9.8500 C   0  0  0  0  0
  -46.0380   19.4040   -9.5330 O   0  0  0  0  0
  -47.4810   18.4700  -11.1450 O   0  0  0  0  0
  -48.0400   18.2150   -8.6990 C   0  0  0  0  0
  -47.0750   18.1130   -7.2520 Cl  0  0  0  0  0
  -48.6070   16.6300   -9.1570 Cl  0  0  0  0  0
  -46.6020   23.3060   -8.2550 O   0  0  0  0  0
  -47.3376   22.1875  -10.9231 H   0  0  0  0  0
  -48.9420   22.2562   -9.3188 H   0  0  0  0  0
  -49.3263   22.4404   -7.1705 H   0  0  0  0  0
  -47.8569   21.5562   -6.7008 H   0  0  0  0  0
  -50.1188   18.7890   -8.6660 H   0  0  0  0  0
  -48.5614   20.6300  -10.5521 H   0  0  0  0  0
  -46.0140   19.7822   -8.6510 H   0  0  0  0  0
  -48.3988   18.2412  -11.3089 H   0  0  0  0  0
  1  2  1  0  0  0
  2  3  1  0  0  0
  2 14  2  0  0  0
  3  4  1  0  0  0
  3  7  1  0  0  0
  4  5  1  0  0  0
  5  6  1  0  0  0
  6  7  1  0  0  0
  6 11  1  0  0  0
  7  8  1  0  0  0
  8  9  1  0  0  0
  8 10  1  0  0  0
  8 11  1  0  0  0
 11 12  1  0  0  0
 11 13  1  0  0  0
  1 15  1  0  0  0
  3 16  1  0  0  0
  4 17  1  0  0  0
  4 18  1  0  0  0
  6 19  1  0  0  0
  7 20  1  0  0  0
  9 21  1  0  0  0
 10 22  1  0  0  0
M  END
$$$$
