2y7k_ligand
  -I-interpret- 

 16 16  0  0  0  0  0  0  0  0999 V2000
   25.7790   18.9330   73.8970 C   0  0  0  0  0
   24.9050   19.8400   73.8050 O   0  0  0  0  0
   26.0160   18.3160   74.9530 O   0  0  0  0  0
   26.6050   18.5570   72.6530 C   0  0  0  0  0
   26.4130   19.2730   71.4810 C   0  0  0  0  0
   27.1270   18.9290   70.3230 C   0  0  0  0  0
   28.0440   17.8550   70.3520 C   0  0  0  0  0
   28.2340   17.1440   71.5320 C   0  0  0  0  0
   27.5150   17.4920   72.6790 C   0  0  0  0  0
   25.5140   20.3190   71.5130 O   0  0  0  0  0
   24.8899   20.1784   72.9067 H   0  0  0  0  0
   26.9740   19.4904   69.4013 H   0  0  0  0  0
   28.5998   17.5849   69.4541 H   0  0  0  0  0
   28.9427   16.3164   71.5624 H   0  0  0  0  0
   27.6635   16.9303   73.6012 H   0  0  0  0  0
   25.4723   20.7302   70.6465 H   0  0  0  0  0
  1  2  1  0  0  0
  1  3  2  0  0  0
  1  4  1  0  0  0
  4  5  4  0  0  0
  4  9  4  0  0  0
  5  6  4  0  0  0
  5 10  1  0  0  0
  6  7  4  0  0  0
  7  8  4  0  0  0
  8  9  4  0  0  0
  2 11  1  0  0  0
  6 12  1  0  0  0
  7 13  1  0  0  0
  8 14  1  0  0  0
  9 15  1  0  0  0
 10 16  1  0  0  0
M  END
$$$$
