5wa6_ligand
  -I-interpret- 

 61 64  0  0  0  0  0  0  0  0999 V2000
  491.9770  194.4440  558.1830 C   0  0  0  0  0
  491.1990  193.1610  557.9730 C   0  0  0  0  0
  492.6000  191.2410  557.4350 C   0  0  0  0  0
  491.5150  192.5220  555.5930 C   0  0  0  0  0
  490.5120  193.5780  555.2170 C   0  0  0  0  0
  488.8860  197.9460  557.0130 C   0  0  0  0  0
  490.1740  198.1650  556.5580 C   0  0  0  0  0
  490.8730  197.1280  555.9880 C   0  0  0  0  0
  490.3260  195.8580  555.8500 C   0  0  0  0  0
  489.0330  195.6570  556.3180 C   0  0  0  0  0
  488.3200  196.7010  556.8930 C   0  0  0  0  0
  493.8870  195.6700  557.7530 C   0  0  0  0  0
  492.7610  193.7780  550.3770 C   0  0  0  0  0
  492.8610  192.6180  551.1080 C   0  0  0  0  0
  493.7010  192.5470  552.2070 C   0  0  0  0  0
  494.4510  193.6570  552.5640 C   0  0  0  0  0
  494.3480  194.8310  551.8320 C   0  0  0  0  0
  493.5020  194.8780  550.7370 C   0  0  0  0  0
  493.4500  196.7060  558.5230 C   0  0  0  0  0
  492.2180  196.6190  559.1660 C   0  0  0  0  0
  495.2100  195.7310  557.0360 C   0  0  0  0  0
  496.5980  194.6370  555.3380 C   0  0  0  0  0
  496.1590  194.6950  553.8970 C   0  0  0  0  0
  492.6540  191.5450  558.9160 C   0  0  0  0  0
  491.2940  192.1820  559.1540 C   0  0  0  0  0
  492.1280  197.3280  555.5410 F   0  0  0  0  0
  493.1640  194.5540  557.5830 N   0  0  0  0  0
  491.5010  195.4580  558.9690 N   0  0  0  0  0
  495.4660  194.6890  556.2490 N   0  0  0  0  0
  491.7670  192.3270  556.8980 N   0  0  0  0  0
  494.1420  197.8380  558.7200 O   0  0  0  0  0
  491.7510  197.5150  559.8860 O   0  0  0  0  0
  495.9570  196.7010  557.1580 O   0  0  0  0  0
  495.2780  193.5950  553.6530 O   0  0  0  0  0
  491.0890  194.8750  555.2820 O   0  0  0  0  0
  492.0680  191.8360  554.7400 O   0  0  0  0  0
  490.1919  193.5340  557.7865 H   0  0  0  0  0
  492.1900  190.2534  557.2236 H   0  0  0  0  0
  493.5886  191.2044  556.9774 H   0  0  0  0  0
  489.6768  193.5315  555.9159 H   0  0  0  0  0
  490.1778  193.3949  554.1958 H   0  0  0  0  0
  488.3213  198.7608  557.4661 H   0  0  0  0  0
  490.6301  199.1506  556.6507 H   0  0  0  0  0
  488.5746  194.6717  556.2331 H   0  0  0  0  0
  487.3047  196.5308  557.2512 H   0  0  0  0  0
  492.0961  193.8251  549.5146 H   0  0  0  0  0
  492.2738  191.7460  550.8200 H   0  0  0  0  0
  493.7718  191.6263  552.7862 H   0  0  0  0  0
  494.9281  195.7088  552.1165 H   0  0  0  0  0
  493.4229  195.7962  550.1549 H   0  0  0  0  0
  497.2377  195.4970  555.5365 H   0  0  0  0  0
  497.1244  193.6961  555.4985 H   0  0  0  0  0
  497.0256  194.6339  553.2387 H   0  0  0  0  0
  495.6463  195.6364  553.6993 H   0  0  0  0  0
  493.4883  192.1882  559.1959 H   0  0  0  0  0
  492.8335  190.6642  559.5326 H   0  0  0  0  0
  490.4765  191.4619  559.1889 H   0  0  0  0  0
  491.2040  192.6644  560.1273 H   0  0  0  0  0
  490.5926  195.3522  559.4206 H   0  0  0  0  0
  494.8369  193.8870  556.2867 H   0  0  0  0  0
  493.6412  198.4220  559.2942 H   0  0  0  0  0
  1  2  1  0  0  0
 27  1  2  0  0  0
  1 28  1  0  0  0
  2 25  1  0  0  0
  2 30  1  0  0  0
  3 24  1  0  0  0
 30  3  1  0  0  0
  4  5  1  0  0  0
 30  4  1  0  0  0
  4 36  2  0  0  0
  5 35  1  0  0  0
  7  6  4  0  0  0
 11  6  4  0  0  0
  8  7  4  0  0  0
  9  8  4  0  0  0
  8 26  1  0  0  0
  9 10  4  0  0  0
 35  9  1  0  0  0
 10 11  4  0  0  0
 12 19  2  0  0  0
 21 12  1  0  0  0
 12 27  1  0  0  0
 14 13  4  0  0  0
 18 13  4  0  0  0
 15 14  4  0  0  0
 16 15  4  0  0  0
 16 17  4  0  0  0
 34 16  1  0  0  0
 17 18  4  0  0  0
 19 20  1  0  0  0
 19 31  1  0  0  0
 20 28  1  0  0  0
 20 32  2  0  0  0
 29 21  1  0  0  0
 21 33  2  0  0  0
 23 22  1  0  0  0
 22 29  1  0  0  0
 23 34  1  0  0  0
 24 25  1  0  0  0
  2 37  1  0  0  0
  3 38  1  0  0  0
  3 39  1  0  0  0
  5 40  1  0  0  0
  5 41  1  0  0  0
  6 42  1  0  0  0
  7 43  1  0  0  0
 10 44  1  0  0  0
 11 45  1  0  0  0
 13 46  1  0  0  0
 14 47  1  0  0  0
 15 48  1  0  0  0
 17 49  1  0  0  0
 18 50  1  0  0  0
 22 51  1  0  0  0
 22 52  1  0  0  0
 23 53  1  0  0  0
 23 54  1  0  0  0
 24 55  1  0  0  0
 24 56  1  0  0  0
 25 57  1  0  0  0
 25 58  1  0  0  0
 28 59  1  0  0  0
 29 60  1  0  0  0
 31 61  1  0  0  0
M  END
$$$$
