3v4x_ligand
  -I-interpret- 

 57 56  0  0  0  0  0  0  0  0999 V2000
   31.3570   -1.5370   13.7040 C   0  0  0  0  0
   34.3510    9.3150   22.2400 O   0  0  0  0  0
   32.3100   -1.3310   14.9210 C   0  0  0  0  0
   30.1400   -3.5610   13.2900 O   0  0  0  0  0
   34.7530    8.1950   22.6200 C   0  0  0  0  0
   31.9080   -0.8090   12.4560 C   0  0  0  0  0
   34.7590    7.7710   23.7950 O   0  0  0  0  0
   31.8740   -0.1970   15.9000 C   0  0  0  0  0
   30.8520   -0.7970   11.5290 O   0  0  0  0  0
   35.2790    7.2840   21.5170 C   0  0  0  0  0
   32.2600   -2.5140   15.6680 O   0  0  0  0  0
   34.1420    6.3090   19.0890 C   0  0  0  0  0
   31.2130   -3.0140   13.3450 C   0  0  0  0  0
   35.5530    5.9940   21.7150 C   0  0  0  0  0
   32.0460    1.2280   15.3480 C   0  0  0  0  0
   31.8130    2.3380   16.4070 C   0  0  0  0  0
   34.8730    4.9310   20.9540 C   0  0  0  0  0
   32.0900    3.1900   19.9800 C   0  0  0  0  0
   34.5600    4.9980   19.6460 C   0  0  0  0  0
   34.2440    3.7660   18.8380 C   0  0  0  0  0
   32.7460    3.3940   18.6130 C   0  0  0  0  0
   32.5270    2.1050   17.7590 C   0  0  0  0  0
   36.7550    5.6460   22.5240 C   0  0  0  0  0
   30.3875   -1.1323   13.9947 H   0  0  0  0  0
   33.2881   -1.0667   14.5191 H   0  0  0  0  0
   32.7855   -1.3156   12.0541 H   0  0  0  0  0
   32.2381    0.2014   12.6973 H   0  0  0  0  0
   35.1189    6.8812   23.8111 H   0  0  0  0  0
   32.5110   -0.2755   16.7810 H   0  0  0  0  0
   30.8105   -0.3363   16.0942 H   0  0  0  0  0
   31.1371   -0.3539   10.7266 H   0  0  0  0  0
   36.2530    7.7131   21.2819 H   0  0  0  0  0
   34.4572    7.2579   20.8015 H   0  0  0  0  0
   32.5204   -3.2528   15.1130 H   0  0  0  0  0
   33.2494    6.6556   19.6098 H   0  0  0  0  0
   34.9463    7.0323   19.2230 H   0  0  0  0  0
   33.9245    6.1983   18.0267 H   0  0  0  0  0
   32.1109   -3.5937   13.1311 H   0  0  0  0  0
   34.7337    5.9211   22.4302 H   0  0  0  0  0
   31.3033    1.3655   14.5622 H   0  0  0  0  0
   33.0743    1.3208   14.9987 H   0  0  0  0  0
   30.7430    2.3585   16.6137 H   0  0  0  0  0
   32.2162    3.2615   15.9913 H   0  0  0  0  0
   33.8914    4.8978   21.4268 H   0  0  0  0  0
   35.6049    4.1236   20.9771 H   0  0  0  0  0
   32.5997    2.3852   20.5097 H   0  0  0  0  0
   32.1639    4.1111   20.5581 H   0  0  0  0  0
   31.0407    2.9289   19.8427 H   0  0  0  0  0
   35.6201    4.9334   19.4007 H   0  0  0  0  0
   34.6637    2.9354   19.4055 H   0  0  0  0  0
   34.6425    3.9654   17.8433 H   0  0  0  0  0
   32.2995    4.2157   18.0530 H   0  0  0  0  0
   33.5147    1.7043   17.5309 H   0  0  0  0  0
   31.8897    1.4418   18.3439 H   0  0  0  0  0
   37.6449    6.0530   22.0438 H   0  0  0  0  0
   36.6539    6.0696   23.5232 H   0  0  0  0  0
   36.8424    4.5618   22.5947 H   0  0  0  0  0
  3  1  1  0  0  0
  1  6  1  0  0  0
  1 13  1  0  0  0
  5  2  2  0  0  0
  8  3  1  0  0  0
  3 11  1  0  0  0
 13  4  2  0  0  0
  5  7  1  0  0  0
 10  5  1  0  0  0
  6  9  1  0  0  0
 15  8  1  0  0  0
 14 10  1  0  0  0
 19 12  1  0  0  0
 17 14  1  0  0  0
 14 23  1  0  0  0
 16 15  1  0  0  0
 22 16  1  0  0  0
 19 17  1  0  0  0
 21 18  1  0  0  0
 20 19  1  0  0  0
 21 20  1  0  0  0
 21 22  1  0  0  0
  1 24  1  0  0  0
  3 25  1  0  0  0
  6 26  1  0  0  0
  6 27  1  0  0  0
  7 28  1  0  0  0
  8 29  1  0  0  0
  8 30  1  0  0  0
  9 31  1  0  0  0
 10 32  1  0  0  0
 10 33  1  0  0  0
 11 34  1  0  0  0
 12 35  1  0  0  0
 12 36  1  0  0  0
 12 37  1  0  0  0
 13 38  1  0  0  0
 14 39  1  0  0  0
 15 40  1  0  0  0
 15 41  1  0  0  0
 16 42  1  0  0  0
 16 43  1  0  0  0
 17 44  1  0  0  0
 17 45  1  0  0  0
 18 46  1  0  0  0
 18 47  1  0  0  0
 18 48  1  0  0  0
 19 49  1  0  0  0
 20 50  1  0  0  0
 20 51  1  0  0  0
 21 52  1  0  0  0
 22 53  1  0  0  0
 22 54  1  0  0  0
 23 55  1  0  0  0
 23 56  1  0  0  0
 23 57  1  0  0  0
M  END
$$$$
