6h13_ligand
  -I-interpret- 

 89 96  0  0  0  0  0  0  0  0999 V2000
  -44.6920  162.4630   83.5490 C   0  0  0  0  0
  -46.1930  162.7360   83.6650 C   0  0  0  0  0
  -46.7210  163.0130   82.2730 C   0  0  0  0  0
  -46.1190  164.3300   81.8240 C   0  0  0  0  0
  -44.7210  164.3920   82.0420 C   0  0  0  0  0
  -44.0290  163.5080   82.8830 C   0  0  0  0  0
  -42.6400  163.6610   83.0280 C   0  0  0  0  0
  -41.9570  164.7060   82.3700 C   0  0  0  0  0
  -42.7190  165.5510   81.5640 C   0  0  0  0  0
  -42.1150  166.6000   80.8730 C   0  0  0  0  0
  -40.7450  166.8320   80.9710 C   0  0  0  0  0
  -39.9660  166.0070   81.7720 C   0  0  0  0  0
  -40.5820  164.9690   82.4610 C   0  0  0  0  0
  -40.6420  162.2520   83.7630 C   0  0  0  0  0
  -40.6270  160.7400   83.7190 C   0  0  0  0  0
  -39.9770  159.5420   80.4690 C   0  0  0  0  0
  -39.4960  159.9050   81.6450 C   0  0  0  0  0
  -39.1510  159.0220   79.3170 C   0  0  0  0  0
  -37.4910  157.4920   79.9710 C   0  0  0  0  0
  -36.8800  156.2330   80.1570 C   0  0  0  0  0
  -36.1520  155.9250   81.3110 C   0  0  0  0  0
  -35.5420  154.6710   81.4190 C   0  0  0  0  0
  -36.3480  154.0460   79.2530 C   0  0  0  0  0
  -36.9250  155.2890   79.1470 C   0  0  0  0  0
  -35.6280  152.2550   77.9970 C   0  0  0  0  0
  -33.6530  151.2680   79.2690 C   0  0  0  0  0
  -33.3130  150.1510   78.5660 C   0  0  0  0  0
  -32.2160  149.4480   78.9480 C   0  0  0  0  0
  -31.4630  149.8120   79.9950 C   0  0  0  0  0
  -31.7650  150.9300   80.7520 C   0  0  0  0  0
  -32.8790  151.6540   80.3720 C   0  0  0  0  0
  -32.0430  148.4060   78.1220 C   0  0  0  0  0
  -33.8380  149.4770   77.4330 C   0  0  0  0  0
  -35.1670  148.8210   77.7270 C   0  0  0  0  0
  -35.6270  148.0580   76.4700 C   0  0  0  0  0
  -34.6760  146.9060   76.1340 C   0  0  0  0  0
  -33.2370  147.4410   76.0170 C   0  0  0  0  0
  -39.5150  156.8730   78.4560 C   0  0  0  0  0
  -44.0400  165.3750   81.4290 N   0  0  0  0  0
  -42.0240  162.7760   83.8510 N   0  0  0  0  0
  -40.5830  160.2530   82.3280 N   0  0  0  0  0
  -41.6210  160.0790   81.5800 N   0  0  0  0  0
  -41.2960  159.6500   80.4650 N   0  0  0  0  0
  -35.6500  153.7360   80.3630 N   0  0  0  0  0
  -36.4920  153.2580   78.1840 N   0  0  0  0  0
  -34.7220  152.0990   79.0230 N   0  0  0  0  0
  -32.9460  148.3770   77.1510 N   0  0  0  0  0
  -38.9310  157.6000   79.5980 N   0  3  0  0  0
  -35.7380  151.5950   76.9630 O   0  0  0  0  0
  -31.1130  147.6060   78.2180 O   0  0  0  0  0
  -44.1990  161.5705   83.9343 H   0  0  0  0  0
  -46.7776  162.7318   84.5849 H   0  0  0  0  0
  -47.4044  162.3845   81.7020 H   0  0  0  0  0
  -46.6986  165.1403   81.3819 H   0  0  0  0  0
  -42.7249  167.2497   80.2454 H   0  0  0  0  0
  -40.2874  167.6555   80.4227 H   0  0  0  0  0
  -38.8918  166.1705   81.8586 H   0  0  0  0  0
  -39.9703  164.3317   83.0997 H   0  0  0  0  0
  -40.1862  162.6295   82.8477 H   0  0  0  0  0
  -40.0912  162.5782   84.6452 H   0  0  0  0  0
  -41.5356  160.3671   84.1918 H   0  0  0  0  0
  -39.7401  160.3834   84.2428 H   0  0  0  0  0
  -38.4575  159.9165   81.9760 H   0  0  0  0  0
  -38.2076  159.5608   79.2287 H   0  0  0  0  0
  -39.6617  159.1651   78.3647 H   0  0  0  0  0
  -36.9643  157.9176   79.1169 H   0  0  0  0  0
  -37.4371  157.9596   80.9541 H   0  0  0  0  0
  -36.0612  156.6536   82.1166 H   0  0  0  0  0
  -34.9825  154.4138   82.3184 H   0  0  0  0  0
  -37.4431  155.5431   78.2223 H   0  0  0  0  0
  -30.5911  149.2125   80.2567 H   0  0  0  0  0
  -31.1547  151.2250   81.6056 H   0  0  0  0  0
  -33.1607  152.5407   80.9399 H   0  0  0  0  0
  -33.9471  150.2042   76.6284 H   0  0  0  0  0
  -35.9044  149.5787   77.9920 H   0  0  0  0  0
  -35.0629  148.1299   78.5634 H   0  0  0  0  0
  -35.6392  148.7522   75.6297 H   0  0  0  0  0
  -36.6173  147.6441   76.6602 H   0  0  0  0  0
  -34.9730  146.4559   75.1868 H   0  0  0  0  0
  -34.7207  146.1573   76.9249 H   0  0  0  0  0
  -33.1281  147.9753   75.0732 H   0  0  0  0  0
  -32.5388  146.6047   76.0533 H   0  0  0  0  0
  -40.5779  157.1039   78.3851 H   0  0  0  0  0
  -39.0135  157.1785   77.5377 H   0  0  0  0  0
  -39.3838  155.8011   78.6039 H   0  0  0  0  0
  -42.5838  162.4273   84.6291 H   0  0  0  0  0
  -37.2497  153.4191   77.5204 H   0  0  0  0  0
  -34.8822  152.7588   79.7842 H   0  0  0  0  0
  -39.3943  157.1532   80.3892 H   0  0  0  0  0
  1  2  4  0  0  0
  6  1  4  0  0  0
  2  3  4  0  0  0
  4  3  4  0  0  0
  5  4  4  0  0  0
  6  5  4  0  0  0
  5 39  4  0  0  0
  7  6  4  0  0  0
  7  8  4  0  0  0
 40  7  1  0  0  0
  8  9  4  0  0  0
  8 13  4  0  0  0
  9 10  4  0  0  0
  9 39  4  0  0  0
 10 11  4  0  0  0
 12 11  4  0  0  0
 13 12  4  0  0  0
 15 14  1  0  0  0
 14 40  1  0  0  0
 41 15  1  0  0  0
 16 17  4  0  0  0
 18 16  1  0  0  0
 16 43  4  0  0  0
 17 41  4  0  0  0
 48 18  1  0  0  0
 20 19  1  0  0  0
 19 48  1  0  0  0
 20 21  4  0  0  0
 24 20  4  0  0  0
 22 21  4  0  0  0
 44 22  4  0  0  0
 23 24  4  0  0  0
 23 44  4  0  0  0
 45 23  1  0  0  0
 25 45  1  0  0  0
 46 25  1  0  0  0
 25 49  2  0  0  0
 26 27  4  0  0  0
 26 31  4  0  0  0
 26 46  1  0  0  0
 27 28  4  0  0  0
 27 33  1  0  0  0
 28 29  4  0  0  0
 28 32  1  0  0  0
 29 30  4  0  0  0
 30 31  4  0  0  0
 32 47  1  0  0  0
 32 50  2  0  0  0
 33 34  1  0  0  0
 33 47  1  0  0  0
 34 35  1  0  0  0
 35 36  1  0  0  0
 36 37  1  0  0  0
 37 47  1  0  0  0
 48 38  1  0  0  0
 41 42  4  0  0  0
 42 43  4  0  0  0
  1 51  1  0  0  0
  2 52  1  0  0  0
  3 53  1  0  0  0
  4 54  1  0  0  0
 10 55  1  0  0  0
 11 56  1  0  0  0
 12 57  1  0  0  0
 13 58  1  0  0  0
 14 59  1  0  0  0
 14 60  1  0  0  0
 15 61  1  0  0  0
 15 62  1  0  0  0
 17 63  1  0  0  0
 18 64  1  0  0  0
 18 65  1  0  0  0
 19 66  1  0  0  0
 19 67  1  0  0  0
 21 68  1  0  0  0
 22 69  1  0  0  0
 24 70  1  0  0  0
 29 71  1  0  0  0
 30 72  1  0  0  0
 31 73  1  0  0  0
 33 74  1  0  0  0
 34 75  1  0  0  0
 34 76  1  0  0  0
 35 77  1  0  0  0
 35 78  1  0  0  0
 36 79  1  0  0  0
 36 80  1  0  0  0
 37 81  1  0  0  0
 37 82  1  0  0  0
 38 83  1  0  0  0
 38 84  1  0  0  0
 38 85  1  0  0  0
 40 86  1  0  0  0
 45 87  1  0  0  0
 46 88  1  0  0  0
 48 89  1  0  0  0
M  END
$$$$
