4tkb_ligand
  -I-interpret- 

 38 37  0  0  0  0  0  0  0  0999 V2000
   -6.8750   15.8900   15.2370 O   0  0  0  0  0
   -4.8000   16.2370   15.9020 O   0  0  0  0  0
   -5.7930   16.5010   15.1730 C   0  0  0  0  0
   -5.6220   17.5800   14.1290 C   0  0  0  0  0
   -6.8230   17.9990   13.3800 C   0  0  0  0  0
   -6.6520   19.1670   12.4310 C   0  0  0  0  0
   -7.9430   19.6980   11.8500 C   0  0  0  0  0
   -7.7740   20.7340   10.7540 C   0  0  0  0  0
   -6.9740   21.9300   11.1190 C   0  0  0  0  0
   -7.5380   22.7370   12.2400 C   0  0  0  0  0
   -6.6800   23.9130   12.6480 C   0  0  0  0  0
   -7.2530   24.7660   13.7870 C   0  0  0  0  0
   -7.4200   24.0810   15.1210 C   0  0  0  0  0
   -7.9370   25.0820   16.1040 C   0  0  0  0  0
   -4.0772   16.8296   15.6831 H   0  0  0  0  0
   -4.9424   17.1639   13.3853 H   0  0  0  0  0
   -5.2914   18.4650   14.6727 H   0  0  0  0  0
   -7.5488   18.3201   14.1272 H   0  0  0  0  0
   -7.1071   17.1468   12.7627 H   0  0  0  0  0
   -6.0483   18.8130   11.5954 H   0  0  0  0  0
   -6.2020   19.9788   13.0025 H   0  0  0  0  0
   -8.4778   20.1860   12.6648 H   0  0  0  0  0
   -8.4602   18.8487   11.4035 H   0  0  0  0  0
   -8.7740   21.0932   10.5110 H   0  0  0  0  0
   -7.2400   20.2408    9.9418 H   0  0  0  0  0
   -6.9510   22.5768   10.2419 H   0  0  0  0  0
   -5.9975   21.5718   11.4451 H   0  0  0  0  0
   -7.6137   22.0781   13.1050 H   0  0  0  0  0
   -8.4929   23.1376   11.8998 H   0  0  0  0  0
   -6.6001   24.5628   11.7765 H   0  0  0  0  0
   -5.7341   23.5050   13.0043 H   0  0  0  0  0
   -8.2539   25.0598   13.4706 H   0  0  0  0  0
   -6.5386   25.5732   13.9490 H   0  0  0  0  0
   -6.4624   23.6857   15.4598 H   0  0  0  0  0
   -8.1214   23.2517   15.0293 H   0  0  0  0  0
   -7.2259   25.9034   16.1923 H   0  0  0  0  0
   -8.8968   25.4662   15.7587 H   0  0  0  0  0
   -8.0639   24.6036   17.0751 H   0  0  0  0  0
  1  3  2  0  0  0
  3  2  1  0  0  0
  3  4  1  0  0  0
  4  5  1  0  0  0
  5  6  1  0  0  0
  6  7  1  0  0  0
  7  8  1  0  0  0
  8  9  1  0  0  0
  9 10  1  0  0  0
 10 11  1  0  0  0
 11 12  1  0  0  0
 12 13  1  0  0  0
 13 14  1  0  0  0
  2 15  1  0  0  0
  4 16  1  0  0  0
  4 17  1  0  0  0
  5 18  1  0  0  0
  5 19  1  0  0  0
  6 20  1  0  0  0
  6 21  1  0  0  0
  7 22  1  0  0  0
  7 23  1  0  0  0
  8 24  1  0  0  0
  8 25  1  0  0  0
  9 26  1  0  0  0
  9 27  1  0  0  0
 10 28  1  0  0  0
 10 29  1  0  0  0
 11 30  1  0  0  0
 11 31  1  0  0  0
 12 32  1  0  0  0
 12 33  1  0  0  0
 13 34  1  0  0  0
 13 35  1  0  0  0
 14 36  1  0  0  0
 14 37  1  0  0  0
 14 38  1  0  0  0
M  END
$$$$
