5jvi_ligand
  -I-interpret- 

 63 63  0  0  0  0  0  0  0  0999 V2000
   16.1670   41.3520  -10.6390 C   0  0  0  0  0
   17.4220   40.9910  -11.1100 C   0  0  0  0  0
   17.5720   40.4250  -12.3850 C   0  0  0  0  0
   13.6580   41.6140  -10.8750 C   0  0  0  0  0
   12.6710   40.8970   -8.8340 C   0  0  0  0  0
   11.9850   40.1170   -6.6920 C   0  0  0  0  0
    9.3500   37.9610   -1.2030 C   0  0  0  0  0
    9.1840   36.4430   -1.3410 C   0  0  0  0  0
    9.6170   38.3930    0.2550 C   0  0  0  0  0
    8.8880   39.2900   -3.9160 C   0  0  0  0  0
    8.4440   42.6220   -1.9660 C   0  0  0  0  0
   10.1660   38.0870   -6.5440 O   0  0  0  0  0
   11.5120   38.5090   -5.9760 P   0  0  0  0  0
   15.0170   41.1860  -11.4310 C   0  0  0  0  0
   16.4170   40.2900  -13.1720 C   0  0  0  0  0
   15.1400   40.6590  -12.7070 C   0  0  0  0  0
   11.2960   38.9010   -4.3060 N   0  0  0  0  0
   10.1060   38.4330   -3.6240 C   0  0  0  0  0
   10.4370   38.4950   -2.1260 C   0  0  0  0  0
    7.7610   38.7970   -3.8840 O   0  0  0  0  0
    9.1110   40.5850   -4.1210 N   0  0  0  0  0
    8.0350   41.5480   -4.3520 C   0  0  0  0  0
    8.2680   42.8380   -3.4740 C   0  0  0  0  0
    7.2130   43.9170   -3.7790 C   0  0  0  0  0
    5.8590   43.2780   -3.5270 C   0  0  0  0  0
   12.5870   37.5020   -6.2010 O   0  0  0  0  0
   12.7420   39.9440   -7.9050 N   0  0  0  0  0
   11.9890   41.9080   -8.7830 O   0  0  0  0  0
   13.4690   40.5870   -9.8520 O   0  0  0  0  0
   16.0713   41.7715   -9.6375 H   0  0  0  0  0
   18.2996   41.1488  -10.4831 H   0  0  0  0  0
   18.5471   40.1027  -12.7503 H   0  0  0  0  0
   12.8618   41.6623  -11.6179 H   0  0  0  0  0
   13.6266   42.6365  -10.4986 H   0  0  0  0  0
   12.6021   40.6516   -5.9698 H   0  0  0  0  0
   11.0779   40.6749   -6.9243 H   0  0  0  0  0
    8.3994   38.4000   -1.5060 H   0  0  0  0  0
   10.0940   35.9471   -1.0033 H   0  0  0  0  0
    8.3420   36.1140   -0.7320 H   0  0  0  0  0
    8.9984   36.1926   -2.3855 H   0  0  0  0  0
    8.7800   38.0866    0.8824 H   0  0  0  0  0
   10.5320   37.9197    0.6111 H   0  0  0  0  0
    9.7268   39.4766    0.2972 H   0  0  0  0  0
    7.5510   42.1453   -1.5619 H   0  0  0  0  0
    9.3095   41.9832   -1.7903 H   0  0  0  0  0
    8.5962   43.5846   -1.4777 H   0  0  0  0  0
    9.5170   38.7724   -6.3690 H   0  0  0  0  0
   16.5123   39.8849  -14.1794 H   0  0  0  0  0
   14.2622   40.5322  -13.3406 H   0  0  0  0  0
   11.9950   39.4529   -3.8087 H   0  0  0  0  0
    9.8525   37.4284   -3.9625 H   0  0  0  0  0
   11.3157   37.8686   -1.9721 H   0  0  0  0  0
   10.5714   39.5477   -1.8771 H   0  0  0  0  0
   10.0741   40.9210   -4.1169 H   0  0  0  0  0
    7.0826   41.0944   -4.0774 H   0  0  0  0  0
    8.0244   41.8281   -5.4053 H   0  0  0  0  0
    9.2508   43.1906   -3.7870 H   0  0  0  0  0
    7.2956   44.2639   -4.8090 H   0  0  0  0  0
    7.3556   44.7927   -3.1458 H   0  0  0  0  0
    5.7374   42.4164   -4.1835 H   0  0  0  0  0
    5.7986   42.9557   -2.4875 H   0  0  0  0  0
    5.0723   44.0047   -3.7297 H   0  0  0  0  0
   13.3172   39.1141   -8.0493 H   0  0  0  0  0
  1  2  4  0  0  0
 14  1  4  0  0  0
  2  3  4  0  0  0
 15  3  4  0  0  0
  4 14  1  0  0  0
 29  4  1  0  0  0
 27  5  1  0  0  0
  5 28  2  0  0  0
  5 29  1  0  0  0
 13  6  1  0  0  0
  6 27  1  0  0  0
  7  8  1  0  0  0
  7  9  1  0  0  0
 19  7  1  0  0  0
 10 18  1  0  0  0
 10 20  2  0  0  0
 21 10  1  0  0  0
 23 11  1  0  0  0
 13 12  1  0  0  0
 17 13  1  0  0  0
 13 26  2  0  0  0
 14 16  4  0  0  0
 16 15  4  0  0  0
 18 17  1  0  0  0
 18 19  1  0  0  0
 22 21  1  0  0  0
 22 23  1  0  0  0
 23 24  1  0  0  0
 24 25  1  0  0  0
  1 30  1  0  0  0
  2 31  1  0  0  0
  3 32  1  0  0  0
  4 33  1  0  0  0
  4 34  1  0  0  0
  6 35  1  0  0  0
  6 36  1  0  0  0
  7 37  1  0  0  0
  8 38  1  0  0  0
  8 39  1  0  0  0
  8 40  1  0  0  0
  9 41  1  0  0  0
  9 42  1  0  0  0
  9 43  1  0  0  0
 11 44  1  0  0  0
 11 45  1  0  0  0
 11 46  1  0  0  0
 12 47  1  0  0  0
 15 48  1  0  0  0
 16 49  1  0  0  0
 17 50  1  0  0  0
 18 51  1  0  0  0
 19 52  1  0  0  0
 19 53  1  0  0  0
 21 54  1  0  0  0
 22 55  1  0  0  0
 22 56  1  0  0  0
 23 57  1  0  0  0
 24 58  1  0  0  0
 24 59  1  0  0  0
 25 60  1  0  0  0
 25 61  1  0  0  0
 25 62  1  0  0  0
 27 63  1  0  0  0
M  END
$$$$
