### 
### Created by X-TOOL on Mon Sep 10 21:12:45 2018
### 

@<TRIPOS>MOLECULE
1tka_ligand
   43    44     1     0     0
SMALL
GAST_HUCK


@<TRIPOS>ATOM
      1 N1'        -3.2320   60.8370   19.8970 N.ar      1 N3T        -0.3257
      2 C2'        -2.3830   59.9170   20.3880 C.ar      1 N3T         0.0029
      3 CM2        -1.1050   60.3640   20.9750 C.3       1 N3T        -0.0224
      4 C3'        -2.7080   58.5800   20.3080 C.ar      1 N3T        -0.0229
      5 C4'        -4.0350   58.2650   19.9290 C.ar      1 N3T         0.0526
      6 N4'        -4.3140   56.9930   19.8450 N.pl3     1 N3T        -0.3330
      7 C5'        -4.8760   59.2250   19.3500 C.ar      1 N3T         0.0086
      8 C6'        -4.4510   60.4920   19.3840 C.ar      1 N3T        -0.0096
      9 C7'        -6.1160   58.8440   18.5940 C.3       1 N3T         0.0517
     10 N3         -5.8050   58.2460   17.2260 N.2       1 N3T        -0.2752
     11 C2         -5.6930   56.9310   16.9760 C.2       1 N3T         0.1352
     12 S1         -5.4750   56.5790   15.3350 S.3       1 N3T         0.1156
     13 C5         -5.5800   58.2520   14.9830 C.2       1 N3T         0.1730
     14 C4         -5.8110   58.9910   16.1300 C.2       1 N3T         0.1308
     15 CM4        -6.2060   60.4420   16.2110 C.3       1 N3T         0.0228
     16 C6         -5.6950   58.7380   13.5630 C.3       1 N3T         0.0829
     17 C7         -5.4940   57.7980   12.4230 C.3       1 N3T         0.1135
     18 O7         -4.0890   57.4670   12.3610 O.3       1 N3T        -0.2401
     19 PA         -3.6290   56.3160   11.3770 P.3       1 N3T         0.3279
     20 O1A        -2.3340   55.7430   11.8510 O.co2     1 N3T        -0.5556
     21 O2A        -3.6030   56.8090    9.9410 O.co2     1 N3T        -0.5556
     22 O3A        -4.7410   55.1390   11.3460 O.3       1 N3T        -0.1548
     23 PB         -5.6430   54.5090   10.1780 P.3       1 N3T         0.2069
     24 O1B        -4.6650   54.5610    9.0580 O.co2     1 N3T        -0.5891
     25 O2B        -6.7270   55.4710    9.9490 O.co2     1 N3T        -0.5891
     26 O3B        -6.0780   53.2010   10.6490 O.co2     1 N3T        -0.5891
     27 H1         -0.5367   59.4897   21.3251 H         1 N3T         0.0404
     28 H2         -1.3059   61.0345   21.8235 H         1 N3T         0.0404
     29 H3         -0.5198   60.9009   20.2139 H         1 N3T         0.0404
     30 H4         -1.9812   57.8056   20.5252 H         1 N3T         0.0521
     31 H5         -3.6867   56.2986   20.2754 H         1 N3T         0.1740
     32 H6         -5.1615   56.6834   19.3483 H         1 N3T         0.1740
     33 H7         -5.0943   61.2714   18.9918 H         1 N3T         0.0689
     34 H8         -6.7340   59.7431   18.4537 H         1 N3T         0.0554
     35 H9         -6.6753   58.1030   19.1840 H         1 N3T         0.0554
     36 H10        -5.7380   56.1678   17.7515 H         1 N3T         0.1655
     37 H11        -6.1512   60.8934   15.2094 H         1 N3T         0.0599
     38 H12        -5.5209   60.9712   16.8896 H         1 N3T         0.0599
     39 H13        -7.2344   60.5213   16.5931 H         1 N3T         0.0599
     40 H14        -4.9531   59.5413   13.4437 H         1 N3T         0.0773
     41 H15        -6.7072   59.1545   13.4534 H         1 N3T         0.0773
     42 H16        -5.8064   58.2778   11.4838 H         1 N3T         0.0687
     43 H17        -6.0861   56.8849   12.5830 H         1 N3T         0.0687
@<TRIPOS>BOND
     1    1    2 ar 
     2    1    8 ar 
     3    2    3 1  
     4    2    4 ar 
     5    4    5 ar 
     6    5    6 1  
     7    5    7 ar 
     8    7    8 ar 
     9    7    9 1  
    10    9   10 1  
    11   10   11 2  
    12   10   14 1  
    13   11   12 1  
    14   12   13 1  
    15   13   14 2  
    16   13   16 1  
    17   14   15 1  
    18   16   17 1  
    19   17   18 1  
    20   18   19 1  
    21   19   20 ar 
    22   19   21 ar 
    23   19   22 1  
    24   22   23 1  
    25   23   24 ar 
    26   23   25 ar 
    27   23   26 ar 
    28    3   27 1  
    29    3   28 1  
    30    3   29 1  
    31    4   30 1  
    32    6   31 1  
    33    6   32 1  
    34    8   33 1  
    35    9   34 1  
    36    9   35 1  
    37   11   36 1  
    38   15   37 1  
    39   15   38 1  
    40   15   39 1  
    41   16   40 1  
    42   16   41 1  
    43   17   42 1  
    44   17   43 1  
@<TRIPOS>SUBSTRUCTURE
     1 N3T         1

