1tka_ligand
  -I-interpret- 

 46 47  0  0  0  0  0  0  0  0999 V2000
   -3.2320   60.8370   19.8970 N   0  0  0  0  0
   -2.3830   59.9170   20.3880 C   0  0  0  0  0
   -1.1050   60.3640   20.9750 C   0  0  0  0  0
   -2.7080   58.5800   20.3080 C   0  0  0  0  0
   -4.0350   58.2650   19.9290 C   0  0  0  0  0
   -4.3140   56.9930   19.8450 N   0  0  0  0  0
   -4.8760   59.2250   19.3500 C   0  0  0  0  0
   -4.4510   60.4920   19.3840 C   0  0  0  0  0
   -6.1160   58.8440   18.5940 C   0  0  0  0  0
   -5.8050   58.2460   17.2260 N   0  3  0  0  0
   -5.6930   56.9310   16.9760 C   0  0  0  0  0
   -5.4750   56.5790   15.3350 S   0  0  0  0  0
   -5.5800   58.2520   14.9830 C   0  0  0  0  0
   -5.8110   58.9910   16.1300 C   0  0  0  0  0
   -6.2060   60.4420   16.2110 C   0  0  0  0  0
   -5.6950   58.7380   13.5630 C   0  0  0  0  0
   -5.4940   57.7980   12.4230 C   0  0  0  0  0
   -4.0890   57.4670   12.3610 O   0  0  0  0  0
   -3.6290   56.3160   11.3770 P   0  0  0  0  0
   -2.3340   55.7430   11.8510 O   0  0  0  0  0
   -3.6030   56.8090    9.9410 O   0  0  0  0  0
   -4.7410   55.1390   11.3460 O   0  0  0  0  0
   -5.6430   54.5090   10.1780 P   0  0  0  0  0
   -4.6650   54.5610    9.0580 O   0  0  0  0  0
   -6.7270   55.4710    9.9490 O   0  0  0  0  0
   -6.0780   53.2010   10.6490 O   0  0  0  0  0
   -0.5261   60.8958   20.2199 H   0  0  0  0  0
   -1.3054   61.0283   21.8156 H   0  0  0  0  0
   -0.5428   59.4968   21.3215 H   0  0  0  0  0
   -1.9772   57.8014   20.5264 H   0  0  0  0  0
   -3.5947   56.2987   20.0473 H   0  0  0  0  0
   -5.2514   56.6931   19.5770 H   0  0  0  0  0
   -5.0978   61.2757   18.9897 H   0  0  0  0  0
   -6.7069   59.7469   18.4400 H   0  0  0  0  0
   -6.6476   58.0919   19.1769 H   0  0  0  0  0
   -5.7380   56.1671   17.7523 H   0  0  0  0  0
   -7.2252   60.5192   16.5898 H   0  0  0  0  0
   -5.5264   60.9652   16.8837 H   0  0  0  0  0
   -6.1513   60.8881   15.2180 H   0  0  0  0  0
   -4.8860   59.4613   13.4604 H   0  0  0  0  0
   -6.7342   59.0537   13.4706 H   0  0  0  0  0
   -5.8133   58.2629   11.4903 H   0  0  0  0  0
   -6.0878   56.8957   12.5692 H   0  0  0  0  0
   -4.4654   57.1613    9.7092 H   0  0  0  0  0
   -4.4667   55.4770    8.8501 H   0  0  0  0  0
   -6.3565   56.3017    9.6420 H   0  0  0  0  0
  1  2  4  0  0  0
  1  8  4  0  0  0
  2  3  1  0  0  0
  2  4  4  0  0  0
  4  5  4  0  0  0
  5  6  1  0  0  0
  5  7  4  0  0  0
  7  8  4  0  0  0
  7  9  1  0  0  0
  9 10  1  0  0  0
 10 11  4  0  0  0
 10 14  4  0  0  0
 11 12  4  0  0  0
 12 13  4  0  0  0
 13 14  4  0  0  0
 13 16  1  0  0  0
 14 15  1  0  0  0
 16 17  1  0  0  0
 17 18  1  0  0  0
 18 19  1  0  0  0
 19 20  2  0  0  0
 19 21  1  0  0  0
 19 22  1  0  0  0
 22 23  1  0  0  0
 23 24  1  0  0  0
 23 25  1  0  0  0
 23 26  2  0  0  0
  3 27  1  0  0  0
  3 28  1  0  0  0
  3 29  1  0  0  0
  4 30  1  0  0  0
  6 31  1  0  0  0
  6 32  1  0  0  0
  8 33  1  0  0  0
  9 34  1  0  0  0
  9 35  1  0  0  0
 11 36  1  0  0  0
 15 37  1  0  0  0
 15 38  1  0  0  0
 15 39  1  0  0  0
 16 40  1  0  0  0
 16 41  1  0  0  0
 17 42  1  0  0  0
 17 43  1  0  0  0
 21 44  1  0  0  0
 24 45  1  0  0  0
 25 46  1  0  0  0
M  END
$$$$
