4yvc_ligand
  -I-interpret- 

 31 33  0  0  0  0  0  0  0  0999 V2000
   50.0260  100.9640   25.3840 C   0  0  0  0  0
   49.9720   99.9920   24.3940 C   0  0  0  0  0
   50.5240   98.3160   25.9080 C   0  0  0  0  0
   51.3010  103.0180   32.1940 C   0  0  0  0  0
   51.3310  101.3440   34.0620 C   0  0  0  0  0
   51.4010  102.1230   31.1790 N   0  0  0  0  0
   52.3690  101.8500   36.1710 C   0  0  0  0  0
   52.7310  103.1050   35.6920 C   0  0  0  0  0
   51.6750  100.9710   35.3540 C   0  0  0  0  0
   50.9760  102.3020   29.8650 C   0  0  0  0  0
   50.4110  101.5930   27.7980 C   0  0  0  0  0
   50.3270  100.5780   26.7100 C   0  0  0  0  0
   50.5780   99.2150   26.9600 C   0  0  0  0  0
   51.7210  102.6080   33.5580 C   0  0  0  0  0
   52.4110  103.4960   34.4030 C   0  0  0  0  0
   50.8510  104.1380   32.0490 O   0  0  0  0  0
   50.8950  101.3290   29.0110 N   0  0  0  0  0
   50.0250  102.8740   27.6190 C   0  0  0  0  0
   50.3450  103.7660   29.1040 S   0  0  0  0  0
   50.2310   98.7190   24.6800 N   0  0  0  0  0
   50.6600  100.4720   33.2790 F   0  0  0  0  0
   49.8389  102.0102   25.1420 H   0  0  0  0  0
   49.7150  100.2747   23.3731 H   0  0  0  0  0
   50.7256   97.2609   26.0928 H   0  0  0  0  0
   51.8323  101.2259   31.4016 H   0  0  0  0  0
   52.6309  101.5581   37.1880 H   0  0  0  0  0
   53.2749  103.7909   36.3415 H   0  0  0  0  0
   51.3988   99.9847   35.7270 H   0  0  0  0  0
   50.8116   98.8722   27.9680 H   0  0  0  0  0
   52.6922  104.4864   34.0450 H   0  0  0  0  0
   49.5890  103.2868   26.7093 H   0  0  0  0  0
  1  2  4  0  0  0
 12  1  4  0  0  0
  2 20  4  0  0  0
  3 13  4  0  0  0
 20  3  4  0  0  0
  6  4  1  0  0  0
  4 14  1  0  0  0
  4 16  2  0  0  0
  5  9  4  0  0  0
 14  5  4  0  0  0
  5 21  1  0  0  0
 10  6  1  0  0  0
  7  8  4  0  0  0
  9  7  4  0  0  0
  8 15  4  0  0  0
 17 10  4  0  0  0
 10 19  4  0  0  0
 11 12  1  0  0  0
 11 17  4  0  0  0
 11 18  4  0  0  0
 12 13  4  0  0  0
 14 15  4  0  0  0
 18 19  4  0  0  0
  1 22  1  0  0  0
  2 23  1  0  0  0
  3 24  1  0  0  0
  6 25  1  0  0  0
  7 26  1  0  0  0
  8 27  1  0  0  0
  9 28  1  0  0  0
 13 29  1  0  0  0
 15 30  1  0  0  0
 18 31  1  0  0  0
M  END
$$$$
