6u8l_ligand
  -I-interpret- 

 39 41  0  0  0  0  0  0  0  0999 V2000
    6.8520   -0.7100   15.6150 C   0  0  0  0  0
    1.4870    3.7270   17.1230 C   0  0  0  0  0
    2.6920    3.7080   17.8390 C   0  0  0  0  0
    3.2250    2.5140   18.3050 C   0  0  0  0  0
    0.8060    2.5290   16.8780 C   0  0  0  0  0
    1.3320    1.3260   17.3520 C   0  0  0  0  0
    4.1200   -0.3790   15.0600 C   0  0  0  0  0
    4.5240   -0.8410   16.3290 C   0  0  0  0  0
    4.7200    0.4060   12.7070 C   0  0  0  0  0
    5.0640   -0.0800   14.0670 C   0  0  0  0  0
    6.4110   -0.2550   14.3640 C   0  0  0  0  0
    3.3800    0.5690   12.5600 O   0  0  0  0  0
    7.3350    0.0200   13.4370 F   0  0  0  0  0
    8.3180   -0.8920   15.9090 C   0  0  0  0  0
    8.8940   -0.2940   17.1660 C   0  0  0  0  0
    8.7630   -1.7820   17.0440 C   0  0  0  0  0
    5.8820   -0.9990   16.5880 C   0  0  0  0  0
    3.5080   -1.1140   17.2960 N   0  0  0  0  0
    3.2030   -0.1910   18.6540 S   0  0  0  0  0
    2.5340    1.3290   18.0590 C   0  0  0  0  0
    3.6350    5.3110   18.1840 Br  0  0  0  0  0
    0.6360    0.1760   17.0940 O   0  0  0  0  0
    2.1430   -0.8050   19.4360 O   0  0  0  0  0
    4.4750    0.1540   19.2640 O   0  0  0  0  0
    2.7680   -0.2310   14.8400 O   0  0  0  0  0
    5.4860    0.6440   11.7900 O   0  0  0  0  0
    1.0820    4.6710   16.7585 H   0  0  0  0  0
    4.1669    2.5034   18.8534 H   0  0  0  0  0
   -0.1303    2.5354   16.3199 H   0  0  0  0  0
    2.9385    0.3354   13.3798 H   0  0  0  0  0
    8.5446   -0.8370   14.8442 H   0  0  0  0  0
    8.6483    0.4898   17.8825 H   0  0  0  0  0
    9.6518    0.4371   17.4477 H   0  0  0  0  0
    9.3763   -2.6707   17.1927 H   0  0  0  0  0
    8.3758   -2.6182   17.6262 H   0  0  0  0  0
    6.1997   -1.3550   17.5680 H   0  0  0  0  0
    2.9237   -1.9364   17.1452 H   0  0  0  0  0
    1.1042   -0.5718   17.4724 H   0  0  0  0  0
    2.6234    0.0871   13.9459 H   0  0  0  0  0
  1 11  4  0  0  0
  1 14  1  0  0  0
 17  1  4  0  0  0
  3  2  4  0  0  0
  5  2  4  0  0  0
  4  3  4  0  0  0
  3 21  1  0  0  0
 20  4  4  0  0  0
  6  5  4  0  0  0
 20  6  4  0  0  0
  6 22  1  0  0  0
  8  7  4  0  0  0
  7 10  4  0  0  0
  7 25  1  0  0  0
  8 17  4  0  0  0
 18  8  1  0  0  0
 10  9  1  0  0  0
  9 12  1  0  0  0
  9 26  2  0  0  0
 10 11  4  0  0  0
 11 13  1  0  0  0
 14 15  1  0  0  0
 14 16  1  0  0  0
 16 15  1  0  0  0
 19 18  1  0  0  0
 19 20  1  0  0  0
 19 23  2  0  0  0
 19 24  2  0  0  0
  2 27  1  0  0  0
  4 28  1  0  0  0
  5 29  1  0  0  0
 12 30  1  0  0  0
 14 31  1  0  0  0
 15 32  1  0  0  0
 15 33  1  0  0  0
 16 34  1  0  0  0
 16 35  1  0  0  0
 17 36  1  0  0  0
 18 37  1  0  0  0
 22 38  1  0  0  0
 25 39  1  0  0  0
M  END
$$$$
