1q84_ligand
  -I-interpret- 

 95102  0  0  0  0  0  0  0  0999 V2000
   41.0100   28.3000    9.8790 N   0  0  0  0  0
   40.7450   27.4150    8.8530 C   0  0  0  0  0
   41.7090   27.0880    7.8540 C   0  0  0  0  0
   41.4360   26.1960    6.8240 C   0  0  0  0  0
   40.1850   25.5070    6.6570 C   0  0  0  0  0
   39.1970   25.8280    7.6580 C   0  0  0  0  0
   39.5220   26.7700    8.7120 C   0  0  0  0  0
   37.8860   25.3020    7.5300 C   0  0  0  0  0
   36.8630   25.5830    8.5900 C   0  0  0  0  0
   36.6780   24.5480    9.5190 C   0  0  0  0  0
   35.7530   24.6770   10.5520 C   0  0  0  0  0
   34.9890   25.8470   10.6990 C   0  0  0  0  0
   35.1590   26.8940    9.7900 C   0  0  0  0  0
   36.0910   26.7560    8.7510 C   0  0  0  0  0
   39.8350   24.6260    5.5490 C   0  0  0  0  0
   40.7770   24.0550    4.6060 C   0  0  0  0  0
   40.4560   23.0740    3.6750 C   0  0  0  0  0
   39.1320   22.5340    3.5940 C   0  0  0  0  0
   38.7670   21.5500    2.6940 N   0  0  0  0  0
   38.4930   24.0940    5.4670 C   0  0  0  0  0
   38.2160   23.0620    4.5090 C   0  0  0  0  0
   37.6000   24.4750    6.4880 N   0  0  0  0  0
   36.1960   23.9670    6.3970 C   0  0  0  0  0
   35.7670   22.6510    7.0580 C   0  0  0  0  0
   34.3720   22.3330    6.4880 C   0  0  0  0  0
   33.7740   21.0610    7.0670 C   0  0  0  0  0
   33.3450   21.3520    8.4960 C   0  0  0  0  0
   31.9350   21.9420    8.5240 C   0  0  0  0  0
   31.6020   21.9110    9.9500 C   0  0  0  0  0
   31.3130   20.7860   10.5820 N   0  0  0  0  0
   31.1120   21.1290   11.8520 N   0  0  0  0  0
   31.2740   22.4310   12.0060 N   0  0  0  0  0
   31.6010   22.9330   10.8220 C   0  0  0  0  0
   31.1690   23.2930   13.1720 C   0  0  0  0  0
   30.5720   22.4520   14.2940 C   0  0  0  0  0
   29.1730   22.8000   14.3780 N   0  0  0  0  0
   28.1000   22.0120   14.1050 C   0  0  0  0  0
   27.1030   22.7150   13.3460 C   0  0  0  0  0
   27.2450   24.0460   12.7980 C   0  0  0  0  0
   25.8880   22.0440   13.0610 C   0  0  0  0  0
   24.8700   22.7570   12.3570 C   0  0  0  0  0
   25.0400   24.0110   11.8770 C   0  0  0  0  0
   26.2540   24.6720   12.1200 C   0  0  0  0  0
   25.6840   20.7520   13.4110 N   0  0  0  0  0
   26.6110   20.0820   14.1120 C   0  0  0  0  0
   26.2900   18.7460   14.5800 C   0  0  0  0  0
   27.8510   20.6960   14.5230 C   0  0  0  0  0
   28.6250   19.9090   15.4460 C   0  0  0  0  0
   28.2180   18.6670   15.8570 C   0  0  0  0  0
   27.2880   17.9330   15.0680 C   0  0  0  0  0
   41.9242   28.7479    9.9428 H   0  0  0  0  0
   40.2916   28.5060   10.5732 H   0  0  0  0  0
   42.6935   27.5537    7.9000 H   0  0  0  0  0
   42.2227   26.0059    6.0939 H   0  0  0  0  0
   38.7490   26.9884    9.4488 H   0  0  0  0  0
   37.2644   23.6334    9.4313 H   0  0  0  0  0
   35.6195   23.8572   11.2578 H   0  0  0  0  0
   34.2709   25.9368   11.5141 H   0  0  0  0  0
   34.5737   27.8084    9.8871 H   0  0  0  0  0
   36.2239   27.5775    8.0470 H   0  0  0  0  0
   41.8042   24.4189    4.6287 H   0  0  0  0  0
   41.2255   22.7093    2.9946 H   0  0  0  0  0
   39.4563   21.1724    2.0439 H   0  0  0  0  0
   37.8084   21.2017    2.6802 H   0  0  0  0  0
   37.2050   22.6549    4.4933 H   0  0  0  0  0
   36.0595   23.7768    5.3324 H   0  0  0  0  0
   35.6142   24.7222    6.9255 H   0  0  0  0  0
   35.7413   22.7417    8.1439 H   0  0  0  0  0
   36.4752   21.8502    6.8452 H   0  0  0  0  0
   34.4754   22.1931    5.4120 H   0  0  0  0  0
   33.7101   23.1599    6.7455 H   0  0  0  0  0
   34.5103   20.2574    7.0510 H   0  0  0  0  0
   32.9165   20.7438    6.4735 H   0  0  0  0  0
   34.0377   22.0708    8.9336 H   0  0  0  0  0
   33.3500   20.4211    9.0631 H   0  0  0  0  0
   31.2281   21.3842    7.9098 H   0  0  0  0  0
   31.8843   22.9436    8.0970 H   0  0  0  0  0
   31.8260   23.9760   10.5993 H   0  0  0  0  0
   30.5381   24.1559   12.9587 H   0  0  0  0  0
   32.1481   23.6779   13.4570 H   0  0  0  0  0
   31.0781   22.6512   15.2386 H   0  0  0  0  0
   30.6949   21.3886   14.0884 H   0  0  0  0  0
   28.9651   23.7523   14.6785 H   0  0  0  0  0
   28.1916   24.5683   12.9369 H   0  0  0  0  0
   23.9092   22.2672   12.1986 H   0  0  0  0  0
   24.2470   24.4996   11.3109 H   0  0  0  0  0
   26.3994   25.6913   11.7623 H   0  0  0  0  0
   25.9221   18.2269   13.6950 H   0  0  0  0  0
   25.6266   18.9056   15.4300 H   0  0  0  0  0
   28.6115   20.5000   16.3618 H   0  0  0  0  0
   29.5486   19.7100   14.9024 H   0  0  0  0  0
   27.6992   18.8452   16.7989 H   0  0  0  0  0
   29.1251   18.0627   15.8462 H   0  0  0  0  0
   27.8207   17.4948   14.2240 H   0  0  0  0  0
   26.8334   17.1654   15.6942 H   0  0  0  0  0
  1  2  1  0  0  0
  2  3  4  0  0  0
  2  7  4  0  0  0
  3  4  4  0  0  0
  4  5  4  0  0  0
  5  6  4  0  0  0
  5 15  4  0  0  0
  6  7  4  0  0  0
  6  8  4  0  0  0
  8  9  1  0  0  0
  8 22  4  0  0  0
  9 10  4  0  0  0
  9 14  4  0  0  0
 10 11  4  0  0  0
 11 12  4  0  0  0
 12 13  4  0  0  0
 13 14  4  0  0  0
 15 16  4  0  0  0
 15 20  4  0  0  0
 16 17  4  0  0  0
 17 18  4  0  0  0
 18 19  1  0  0  0
 18 21  4  0  0  0
 20 21  4  0  0  0
 20 22  4  0  0  0
 22 23  1  0  0  0
 23 24  1  0  0  0
 24 25  1  0  0  0
 25 26  1  0  0  0
 26 27  1  0  0  0
 27 28  1  0  0  0
 28 29  1  0  0  0
 29 30  4  0  0  0
 29 33  4  0  0  0
 30 31  4  0  0  0
 31 32  4  0  0  0
 32 33  4  0  0  0
 32 34  1  0  0  0
 34 35  1  0  0  0
 35 36  1  0  0  0
 36 37  1  0  0  0
 37 38  4  0  0  0
 37 47  4  0  0  0
 38 39  4  0  0  0
 38 40  4  0  0  0
 39 43  4  0  0  0
 40 41  4  0  0  0
 40 44  4  0  0  0
 41 42  4  0  0  0
 42 43  4  0  0  0
 44 45  4  0  0  0
 45 46  1  0  0  0
 45 47  4  0  0  0
 46 50  1  0  0  0
 47 48  1  0  0  0
 48 49  1  0  0  0
 49 50  1  0  0  0
  1 51  1  0  0  0
  1 52  1  0  0  0
  3 53  1  0  0  0
  4 54  1  0  0  0
  7 55  1  0  0  0
 10 56  1  0  0  0
 11 57  1  0  0  0
 12 58  1  0  0  0
 13 59  1  0  0  0
 14 60  1  0  0  0
 16 61  1  0  0  0
 17 62  1  0  0  0
 19 63  1  0  0  0
 19 64  1  0  0  0
 21 65  1  0  0  0
 23 66  1  0  0  0
 23 67  1  0  0  0
 24 68  1  0  0  0
 24 69  1  0  0  0
 25 70  1  0  0  0
 25 71  1  0  0  0
 26 72  1  0  0  0
 26 73  1  0  0  0
 27 74  1  0  0  0
 27 75  1  0  0  0
 28 76  1  0  0  0
 28 77  1  0  0  0
 33 78  1  0  0  0
 34 79  1  0  0  0
 34 80  1  0  0  0
 35 81  1  0  0  0
 35 82  1  0  0  0
 36 83  1  0  0  0
 39 84  1  0  0  0
 41 85  1  0  0  0
 42 86  1  0  0  0
 43 87  1  0  0  0
 46 88  1  0  0  0
 46 89  1  0  0  0
 48 90  1  0  0  0
 48 91  1  0  0  0
 49 92  1  0  0  0
 49 93  1  0  0  0
 50 94  1  0  0  0
 50 95  1  0  0  0
M  END
$$$$
