5hng_ligand
  -I-interpret- 

 24 26  0  0  0  0  0  0  0  0999 V2000
   31.4290   24.4900    5.9150 C   0  0  0  0  0
   32.8340   24.3570    5.9830 C   0  0  0  0  0
   32.3840   26.3250    5.1600 C   0  0  0  0  0
   31.1650   22.2790    6.8370 C   0  0  0  0  0
   32.5660   22.1370    6.8950 C   0  0  0  0  0
   32.5320   27.6770    4.6000 C   0  0  0  0  0
   33.7370   28.3900    4.4460 C   0  0  0  0  0
   29.7850   20.3280    6.3950 C   0  0  0  0  0
   33.4450   29.5930    3.9070 C   0  0  0  0  0
   31.1770   25.7430    5.4030 N   0  0  0  0  0
   30.6050   23.4550    6.3540 C   0  0  0  0  0
   33.3580   25.5140    5.4990 N   0  0  0  0  0
   33.3920   23.1590    6.4750 C   0  0  0  0  0
   30.3350   21.3000    7.3010 O   0  0  0  0  0
   31.5490   28.4280    4.1570 N   0  0  0  0  0
   32.1120   29.6340    3.7110 N   0  0  0  0  0
   33.0004   21.2122    7.2748 H   0  0  0  0  0
   34.7312   28.0330    4.7149 H   0  0  0  0  0
   29.1914   20.8364    5.6352 H   0  0  0  0  0
   30.5962   19.7789    5.9169 H   0  0  0  0  0
   29.1520   19.6345    6.9486 H   0  0  0  0  0
   34.1563   30.3852    3.6734 H   0  0  0  0  0
   29.5215   23.5683    6.3183 H   0  0  0  0  0
   34.4745   23.0407    6.5234 H   0  0  0  0  0
  1  2  4  0  0  0
  1 10  4  0  0  0
 11  1  4  0  0  0
  2 12  4  0  0  0
  2 13  4  0  0  0
  3  6  1  0  0  0
 10  3  4  0  0  0
  3 12  4  0  0  0
  4  5  4  0  0  0
  4 11  4  0  0  0
  4 14  1  0  0  0
  5 13  4  0  0  0
  6  7  4  0  0  0
  6 15  4  0  0  0
  7  9  4  0  0  0
 14  8  1  0  0  0
  9 16  4  0  0  0
 15 16  4  0  0  0
  5 17  1  0  0  0
  7 18  1  0  0  0
  8 19  1  0  0  0
  8 20  1  0  0  0
  8 21  1  0  0  0
  9 22  1  0  0  0
 11 23  1  0  0  0
 13 24  1  0  0  0
M  END
$$$$
