### 
### Created by X-TOOL on Mon Sep 10 21:13:03 2018
### 

@<TRIPOS>MOLECULE
2wva_ligand
   41    42     1     0     0
SMALL
GAST_HUCK


@<TRIPOS>ATOM
      1 O23       -23.7430   33.6630  -76.6170 O.co2     1 TPU        -0.5891
      2 P2        -23.9240   32.2590  -75.7480 P.3       1 TPU         0.2069
      3 O22       -25.1710   31.3780  -76.3610 O.co2     1 TPU        -0.5891
      4 O21       -24.1260   32.5150  -74.3080 O.co2     1 TPU        -0.5891
      5 O11       -22.5770   31.3320  -75.9950 O.3       1 TPU        -0.1548
      6 P1        -21.4320   31.1800  -74.8370 P.3       1 TPU         0.3276
      7 O12       -21.7330   32.2080  -73.5530 O.co2     1 TPU        -0.5556
      8 O13       -20.1610   31.4300  -75.5270 O.co2     1 TPU        -0.5556
      9 O5G       -21.4260   29.6340  -74.3230 O.3       1 TPU        -0.2450
     10 C5B       -21.7900   28.5780  -75.1410 C.3       1 TPU         0.0894
     11 C5A       -22.1240   27.3320  -74.3300 C.3       1 TPU         0.0053
     12 C5        -21.8180   25.9960  -74.9650 C.2       1 TPU         0.0371
     13 C4        -21.3020   24.9120  -74.3550 C.2       1 TPU         0.0871
     14 C4A       -20.8970   24.8580  -72.8910 C.3       1 TPU        -0.0051
     15 N1        -22.0410   25.6930  -76.3080 N.2       1 TPU        -0.2401
     16 N2        -21.6490   24.4370  -76.4920 N.2       1 TPU        -0.1143
     17 N3        -21.1780   23.9190  -75.2980 N.pl3     1 TPU        -0.1690
     18 C35       -20.6960   22.5520  -75.1440 C.3       1 TPU         0.1122
     19 C5'       -19.2110   22.4280  -75.5010 C.ar      1 TPU         0.0519
     20 C6'       -18.3700   22.1400  -74.5130 C.ar      1 TPU         0.0092
     21 N1'       -17.0380   22.0340  -74.7500 N.ar      1 TPU        -0.2937
     22 C2'       -16.5340   22.2040  -76.0390 C.ar      1 TPU         0.0758
     23 C2A       -15.0270   22.0560  -76.2420 C.3       1 TPU        -0.0029
     24 N3'       -17.3970   22.4990  -77.0810 N.ar      1 TPU        -0.2609
     25 C4'       -18.6810   22.6210  -76.8580 C.ar      1 TPU         0.1241
     26 N4'       -19.5750   22.8980  -77.9690 N.pl3     1 TPU        -0.3186
     27 H1        -20.9563   28.3488  -75.8210 H         1 TPU         0.0635
     28 H2        -22.6731   28.8691  -75.7287 H         1 TPU         0.0635
     29 H3        -23.2021   27.3567  -74.1131 H         1 TPU         0.0382
     30 H4        -21.5590   27.3884  -73.3879 H         1 TPU         0.0382
     31 H5        -21.1307   25.8194  -72.4103 H         1 TPU         0.0411
     32 H6        -19.8169   24.6637  -72.8163 H         1 TPU         0.0411
     33 H7        -21.4504   24.0520  -72.3869 H         1 TPU         0.0411
     34 H8        -21.2773   21.8929  -75.8056 H         1 TPU         0.0791
     35 H9        -20.8380   22.2401  -74.0988 H         1 TPU         0.0791
     36 H10       -18.7512   21.9885  -73.5096 H         1 TPU         0.0791
     37 H11       -14.5486   21.8226  -75.2794 H         1 TPU         0.0449
     38 H12       -14.6161   22.9968  -76.6371 H         1 TPU         0.0449
     39 H13       -14.8313   21.2421  -76.9556 H         1 TPU         0.0449
     40 H14       -19.1932   23.0317  -78.9163 H         1 TPU         0.1789
     41 H15       -20.5906   22.9607  -77.8095 H         1 TPU         0.1789
@<TRIPOS>BOND
     1    1    2 ar 
     2    2    3 ar 
     3    2    4 ar 
     4    2    5 1  
     5    5    6 1  
     6    6    7 ar 
     7    6    8 ar 
     8    6    9 1  
     9    9   10 1  
    10   10   11 1  
    11   11   12 1  
    12   12   13 2  
    13   12   15 1  
    14   13   14 1  
    15   13   17 1  
    16   15   16 2  
    17   16   17 1  
    18   17   18 1  
    19   18   19 1  
    20   19   20 ar 
    21   19   25 ar 
    22   20   21 ar 
    23   21   22 ar 
    24   22   23 1  
    25   22   24 ar 
    26   24   25 ar 
    27   25   26 1  
    28   10   27 1  
    29   10   28 1  
    30   11   29 1  
    31   11   30 1  
    32   14   31 1  
    33   14   32 1  
    34   14   33 1  
    35   18   34 1  
    36   18   35 1  
    37   20   36 1  
    38   23   37 1  
    39   23   38 1  
    40   23   39 1  
    41   26   40 1  
    42   26   41 1  
@<TRIPOS>SUBSTRUCTURE
     1 TPU         1

