2wva_ligand
  -I-interpret- 

 44 45  0  0  0  0  0  0  0  0999 V2000
  -23.7430   33.6630  -76.6170 O   0  0  0  0  0
  -23.9240   32.2590  -75.7480 P   0  0  0  0  0
  -25.1710   31.3780  -76.3610 O   0  0  0  0  0
  -24.1260   32.5150  -74.3080 O   0  0  0  0  0
  -22.5770   31.3320  -75.9950 O   0  0  0  0  0
  -21.4320   31.1800  -74.8370 P   0  0  0  0  0
  -21.7330   32.2080  -73.5530 O   0  0  0  0  0
  -20.1610   31.4300  -75.5270 O   0  0  0  0  0
  -21.4260   29.6340  -74.3230 O   0  0  0  0  0
  -21.7900   28.5780  -75.1410 C   0  0  0  0  0
  -22.1240   27.3320  -74.3300 C   0  0  0  0  0
  -21.8180   25.9960  -74.9650 C   0  0  0  0  0
  -21.3020   24.9120  -74.3550 C   0  0  0  0  0
  -20.8970   24.8580  -72.8910 C   0  0  0  0  0
  -22.0410   25.6930  -76.3080 N   0  0  0  0  0
  -21.6490   24.4370  -76.4920 N   0  0  0  0  0
  -21.1780   23.9190  -75.2980 N   0  0  0  0  0
  -20.6960   22.5520  -75.1440 C   0  0  0  0  0
  -19.2110   22.4280  -75.5010 C   0  0  0  0  0
  -18.3700   22.1400  -74.5130 C   0  0  0  0  0
  -17.0380   22.0340  -74.7500 N   0  0  0  0  0
  -16.5340   22.2040  -76.0390 C   0  0  0  0  0
  -15.0270   22.0560  -76.2420 C   0  0  0  0  0
  -17.3970   22.4990  -77.0810 N   0  0  0  0  0
  -18.6810   22.6210  -76.8580 C   0  0  0  0  0
  -19.5750   22.8980  -77.9690 N   0  0  0  0  0
  -23.6148   33.4498  -77.5442 H   0  0  0  0  0
  -25.0218   31.2221  -77.2964 H   0  0  0  0  0
  -22.5773   31.9829  -73.1555 H   0  0  0  0  0
  -20.9526   28.3470  -75.7994 H   0  0  0  0  0
  -22.6751   28.8690  -75.7068 H   0  0  0  0  0
  -23.2043   27.3520  -74.1862 H   0  0  0  0  0
  -21.5034   27.3847  -73.4354 H   0  0  0  0  0
  -20.1247   25.6034  -72.7013 H   0  0  0  0  0
  -21.7661   25.0665  -72.2670 H   0  0  0  0  0
  -20.5108   23.8656  -72.6585 H   0  0  0  0  0
  -21.2647   21.9105  -75.8172 H   0  0  0  0  0
  -20.8232   22.2595  -74.1017 H   0  0  0  0  0
  -18.7533   21.9877  -73.5040 H   0  0  0  0  0
  -14.5054   22.7937  -75.6323 H   0  0  0  0  0
  -14.7184   21.0537  -75.9451 H   0  0  0  0  0
  -14.7859   22.2154  -77.2930 H   0  0  0  0  0
  -20.5808   22.9601  -77.8110 H   0  0  0  0  0
  -19.1969   23.0304  -78.9071 H   0  0  0  0  0
  1  2  1  0  0  0
  2  3  1  0  0  0
  2  4  2  0  0  0
  2  5  1  0  0  0
  5  6  1  0  0  0
  6  7  1  0  0  0
  6  8  2  0  0  0
  6  9  1  0  0  0
  9 10  1  0  0  0
 10 11  1  0  0  0
 11 12  1  0  0  0
 12 13  4  0  0  0
 12 15  4  0  0  0
 13 14  1  0  0  0
 13 17  4  0  0  0
 15 16  4  0  0  0
 16 17  4  0  0  0
 17 18  1  0  0  0
 18 19  1  0  0  0
 19 20  4  0  0  0
 19 25  4  0  0  0
 20 21  4  0  0  0
 21 22  4  0  0  0
 22 23  1  0  0  0
 22 24  4  0  0  0
 24 25  4  0  0  0
 25 26  1  0  0  0
  1 27  1  0  0  0
  3 28  1  0  0  0
  7 29  1  0  0  0
 10 30  1  0  0  0
 10 31  1  0  0  0
 11 32  1  0  0  0
 11 33  1  0  0  0
 14 34  1  0  0  0
 14 35  1  0  0  0
 14 36  1  0  0  0
 18 37  1  0  0  0
 18 38  1  0  0  0
 20 39  1  0  0  0
 23 40  1  0  0  0
 23 41  1  0  0  0
 23 42  1  0  0  0
 26 43  1  0  0  0
 26 44  1  0  0  0
M  END
$$$$
