### 
### Created by X-TOOL on Mon Sep 10 21:12:46 2018
### 

@<TRIPOS>MOLECULE
1tze_ligand
  131   133     1     0     0
SMALL
GAST_HUCK


@<TRIPOS>ATOM
      1 N          44.7030   59.7470   44.9750 N.4       1 LYS         0.2379
      2 CA         44.9760   59.5520   46.4390 C.3       1 LYS         0.0652
      3 C          45.0450   58.0490   46.7520 C.2       1 LYS         0.2292
      4 O          44.6760   57.2300   45.8960 O.2       1 LYS        -0.3905
      5 CB         43.8790   60.2330   47.2900 C.3       1 LYS         0.0080
      6 CG         42.4480   59.8000   46.9890 C.3       1 LYS        -0.0410
      7 CD         41.4560   60.3890   47.9850 C.3       1 LYS        -0.0123
      8 CE         40.0140   60.2260   47.4910 C.3       1 LYS        -0.0354
      9 NZ         38.9590   60.8800   48.3470 N.4       1 LYS         0.2185
     10 N          45.5910   57.6660   47.9340 N.am      1 PRO        -0.2471
     11 CA         45.6600   56.2370   48.2670 C.3       1 PRO         0.1339
     12 C          44.2180   55.7090   48.3750 C.2       1 PRO         0.2042
     13 O          43.3010   56.4460   48.7330 O.2       1 PRO        -0.3944
     14 CB         46.3800   56.2450   49.6130 C.3       1 PRO        -0.0104
     15 CG         45.9040   57.5570   50.2330 C.3       1 PRO        -0.0281
     16 CD         46.0850   58.4870   49.0620 C.3       1 PRO         0.0371
     17 N          44.0160   54.4480   48.0350 N.am      1 PHE        -0.2619
     18 CA         42.6880   53.8480   48.0690 C.3       1 PHE         0.1404
     19 C          42.6820   52.6640   49.0380 C.2       1 PHE         0.2062
     20 O          43.7090   52.0120   49.2240 O.2       1 PHE        -0.3942
     21 CB         42.2930   53.3750   46.6630 C.3       1 PHE         0.0214
     22 CG         43.2640   52.3970   46.0610 C.ar      1 PHE        -0.0386
     23 CD1        44.4220   52.8480   45.4190 C.ar      1 PHE        -0.0601
     24 CD2        43.0630   51.0260   46.1950 C.ar      1 PHE        -0.0601
     25 CE1        45.3690   51.9440   44.9310 C.ar      1 PHE        -0.0686
     26 CE2        44.0110   50.1060   45.7070 C.ar      1 PHE        -0.0686
     27 CZ         45.1590   50.5650   45.0810 C.ar      1 PHE        -0.0687
     28 N          41.5120   52.3560   49.5940 N.am      1 PTR        -0.2606
     29 CA         41.3700   51.2530   50.5370 C.3       1 PTR         0.1468
     30 C          40.1600   50.3920   50.1400 C.2       1 PTR         0.2074
     31 O          39.1060   50.9150   49.7840 O.2       1 PTR        -0.3941
     32 CB         41.2660   51.8060   51.9830 C.3       1 PTR         0.0400
     33 CG         42.4440   52.7030   52.3700 C.ar      1 PTR        -0.0004
     34 CD1        43.6050   52.1670   52.9420 C.ar      1 PTR        -0.0239
     35 CD2        42.4340   54.0690   52.0750 C.ar      1 PTR        -0.0239
     36 CE1        44.7220   52.9600   53.1910 C.ar      1 PTR         0.0115
     37 CE2        43.5500   54.8760   52.3230 C.ar      1 PTR         0.0115
     38 CZ         44.6990   54.3170   52.8750 C.ar      1 PTR         0.1728
     39 OH         45.8670   55.2160   53.0410 O.3       1 PTR        -0.2040
     40 P          47.3360   54.6850   53.3890 P.3       1 PTR         0.1348
     41 O1P        47.5000   54.4100   54.7800 O.co2     1 PTR        -0.6653
     42 O2P        47.7510   53.5630   52.6280 O.co2     1 PTR        -0.6653
     43 O3P        48.2090   55.7600   53.1390 O.co2     1 PTR        -0.6653
     44 N          40.3200   49.0750   50.2110 N.am      1 VAL        -0.2632
     45 CA         39.2760   48.1430   49.8340 C.3       1 VAL         0.1333
     46 C          37.9760   48.3980   50.5760 C.2       1 VAL         0.2043
     47 O          36.8910   48.1460   50.0360 O.2       1 VAL        -0.3944
     48 CB         39.7500   46.6900   50.0370 C.3       1 VAL        -0.0063
     49 CG1        38.6800   45.6770   49.6790 C.3       1 VAL        -0.0584
     50 CG2        40.9750   46.4320   49.2170 C.3       1 VAL        -0.0584
     51 N          38.0660   48.9390   51.7940 N.am      1 ASN        -0.2616
     52 CA         36.8520   49.1930   52.5830 C.3       1 ASN         0.1476
     53 C          36.3770   50.6350   52.6440 C.2       1 ASN         0.2063
     54 O          35.4860   50.9600   53.4290 O.2       1 ASN        -0.3942
     55 CB         36.9660   48.6090   54.0010 C.3       1 ASN         0.0773
     56 CG         38.0180   49.2970   54.8200 C.2       1 ASN         0.1780
     57 OD1        39.0750   49.6660   54.3050 O.2       1 ASN        -0.3970
     58 ND2        37.7380   49.4950   56.1040 N.am      1 ASN        -0.3007
     59 N          36.9190   51.4940   51.7920 N.am      1 VAL        -0.2633
     60 CA         36.5100   52.8880   51.7900 C.3       1 VAL         0.1329
     61 C          36.1090   53.3350   50.3830 C.2       1 VAL         0.1994
     62 O          34.9470   53.6080   50.1200 O.2       1 VAL        -0.3947
     63 CB         37.6200   53.8120   52.3350 C.3       1 VAL        -0.0063
     64 CG1        37.1640   55.2490   52.3230 C.3       1 VAL        -0.0584
     65 CG2        38.0080   53.4140   53.7520 C.3       1 VAL        -0.0584
     66 N          37.0820   53.4300   49.4870 N.am      1 NH2        -0.2990
     67 H1         44.6578   60.7329   44.7701 H         1 LYS         0.2015
     68 H2         43.8248   59.3136   44.7363 H         1 LYS         0.2015
     69 H3         45.4432   59.3254   44.4361 H         1 LYS         0.2015
     70 H4         45.9456   60.0104   46.6835 H         1 LYS         0.1098
     71 H5         43.9463   61.3182   47.1234 H         1 LYS         0.0346
     72 H6         44.0844   60.0109   48.3476 H         1 LYS         0.0346
     73 H7         42.3908   58.7025   47.0365 H         1 LYS         0.0270
     74 H8         42.1793   60.1377   45.9772 H         1 LYS         0.0270
     75 H9         41.6717   61.4596   48.1163 H         1 LYS         0.0317
     76 H10        41.5657   59.8719   48.9496 H         1 LYS         0.0317
     77 H11        39.7918   59.1498   47.4418 H         1 LYS         0.0813
     78 H12        39.9497   60.6602   46.4824 H         1 LYS         0.0813
     79 H13        38.0501   60.7180   47.9424 H         1 LYS         0.1994
     80 H14        39.1331   61.8716   48.3959 H         1 LYS         0.1994
     81 H15        38.9884   60.4875   49.2750 H         1 LYS         0.1994
     82 H16        46.2216   55.6607   47.5170 H         1 PRO         0.0802
     83 H17        47.4719   56.2410   49.4801 H         1 PRO         0.0313
     84 H18        46.0824   55.3832   50.2284 H         1 PRO         0.0313
     85 H19        46.5284   57.8533   51.0887 H         1 PRO         0.0287
     86 H20        44.8519   57.5001   50.5490 H         1 PRO         0.0287
     87 H21        47.1427   58.7567   48.9262 H         1 PRO         0.0524
     88 H22        45.4859   59.4017   49.1823 H         1 PRO         0.0524
     89 H23        44.7947   53.8908   47.7468 H         1 PHE         0.1885
     90 H24        41.9618   54.5991   48.4131 H         1 PHE         0.0823
     91 H25        42.2322   54.2542   46.0048 H         1 PHE         0.0474
     92 H26        41.3062   52.8928   46.7229 H         1 PHE         0.0474
     93 H27        44.5868   53.9126   45.2985 H         1 PHE         0.0557
     94 H28        42.1652   50.6619   46.6812 H         1 PHE         0.0557
     95 H29        46.2635   52.3071   44.4379 H         1 PHE         0.0599
     96 H30        43.8431   49.0411   45.8208 H         1 PHE         0.0599
     97 H31        45.8932   49.8600   44.7080 H         1 PHE         0.0559
     98 H32        40.7056   52.8980   49.3575 H         1 PTR         0.1886
     99 H33        42.2698   50.6230   50.4788 H         1 PTR         0.0840
    100 H34        41.2292   50.9564   52.6807 H         1 PTR         0.0584
    101 H35        40.3382   52.3908   52.0681 H         1 PTR         0.0584
    102 H36        43.6343   51.1136   53.1959 H         1 PTR         0.0703
    103 H37        41.5432   54.5126   51.6451 H         1 PTR         0.0703
    104 H38        45.6103   52.5214   53.6311 H         1 PTR         0.0736
    105 H39        43.5198   55.9333   52.0859 H         1 PTR         0.0736
    106 H40        41.1935   48.7132   50.5368 H         1 VAL         0.1883
    107 H41        39.0768   48.2853   48.7616 H         1 VAL         0.0802
    108 H42        40.0040   46.5595   51.0993 H         1 VAL         0.0343
    109 H43        39.0683   44.6607   49.8412 H         1 VAL         0.0234
    110 H44        38.3994   45.7979   48.6223 H         1 VAL         0.0234
    111 H45        37.7961   45.8374   50.3138 H         1 VAL         0.0234
    112 H46        41.7514   47.1668   49.4765 H         1 VAL         0.0234
    113 H47        40.7271   46.5222   48.1491 H         1 VAL         0.0234
    114 H48        41.3470   45.4174   49.4227 H         1 VAL         0.0234
    115 H49        38.9626   49.1721   52.1705 H         1 ASN         0.1885
    116 H50        36.0504   48.6361   52.0758 H         1 ASN         0.0826
    117 H51        37.2203   47.5416   53.9241 H         1 ASN         0.0551
    118 H52        35.9958   48.7193   54.5075 H         1 ASN         0.0551
    119 H53        38.4033   49.9491   56.6966 H         1 ASN         0.1814
    120 H54        36.8620   49.1899   56.4775 H         1 ASN         0.1814
    121 H55        37.6146   51.1800   51.1458 H         1 VAL         0.1883
    122 H56        35.6324   52.9838   52.4463 H         1 VAL         0.0802
    123 H57        38.5037   53.7157   51.6872 H         1 VAL         0.0343
    124 H58        37.9666   55.8916   52.7141 H         1 VAL         0.0234
    125 H59        36.2692   55.3550   52.9539 H         1 VAL         0.0234
    126 H60        36.9237   55.5489   51.2923 H         1 VAL         0.0234
    127 H61        38.3406   52.3655   53.7603 H         1 VAL         0.0234
    128 H62        37.1385   53.5280   54.4160 H         1 VAL         0.0234
    129 H63        38.8253   54.0607   54.1037 H         1 VAL         0.0234
    130 H64        36.8744   53.7179   48.5521 H         1 NH2         0.1815
    131 H65        38.0233   53.2137   49.7462 H         1 NH2         0.1815
@<TRIPOS>BOND
     1    3    2 1  
     2    2    5 1  
     3    2    1 1  
     4    5    6 1  
     5    6    7 1  
     6    7    8 1  
     7    8    9 1  
     8    3    4 2  
     9   11   10 1  
    10   11   14 1  
    11   12   11 1  
    12   12   13 2  
    13   14   15 1  
    14   15   16 1  
    15   10   16 1  
    16   19   18 1  
    17   18   21 1  
    18   18   17 1  
    19   21   22 1  
    20   22   24 ar 
    21   22   23 ar 
    22   23   25 ar 
    23   25   27 ar 
    24   26   27 ar 
    25   24   26 ar 
    26   19   20 2  
    27   29   28 1  
    28   29   32 1  
    29   30   29 1  
    30   30   31 2  
    31   32   33 1  
    32   33   35 ar 
    33   33   34 ar 
    34   34   36 ar 
    35   36   38 ar 
    36   38   39 1  
    37   37   38 ar 
    38   35   37 ar 
    39   39   40 1  
    40   40   43 ar 
    41   40   42 ar 
    42   40   41 ar 
    43   45   46 1  
    44   45   48 1  
    45   44   45 1  
    46   48   49 1  
    47   48   50 1  
    48   46   47 2  
    49   52   53 1  
    50   52   55 1  
    51   51   52 1  
    52   55   56 1  
    53   56   57 2  
    54   56   58 am 
    55   53   54 2  
    56   60   61 1  
    57   60   63 1  
    58   59   60 1  
    59   63   64 1  
    60   63   65 1  
    61   61   62 2  
    62   10    3 am 
    63   17   12 am 
    64   46   51 am 
    65   53   59 am 
    66   28   19 am 
    67   30   44 am 
    68   61   66 am 
    69    1   67 1  
    70    1   68 1  
    71    1   69 1  
    72    2   70 1  
    73    5   71 1  
    74    5   72 1  
    75    6   73 1  
    76    6   74 1  
    77    7   75 1  
    78    7   76 1  
    79    8   77 1  
    80    8   78 1  
    81    9   79 1  
    82    9   80 1  
    83    9   81 1  
    84   11   82 1  
    85   14   83 1  
    86   14   84 1  
    87   15   85 1  
    88   15   86 1  
    89   16   87 1  
    90   16   88 1  
    91   17   89 1  
    92   18   90 1  
    93   21   91 1  
    94   21   92 1  
    95   23   93 1  
    96   24   94 1  
    97   25   95 1  
    98   26   96 1  
    99   27   97 1  
   100   28   98 1  
   101   29   99 1  
   102   32  100 1  
   103   32  101 1  
   104   34  102 1  
   105   35  103 1  
   106   36  104 1  
   107   37  105 1  
   108   44  106 1  
   109   45  107 1  
   110   48  108 1  
   111   49  109 1  
   112   49  110 1  
   113   49  111 1  
   114   50  112 1  
   115   50  113 1  
   116   50  114 1  
   117   51  115 1  
   118   52  116 1  
   119   55  117 1  
   120   55  118 1  
   121   58  119 1  
   122   58  120 1  
   123   59  121 1  
   124   60  122 1  
   125   63  123 1  
   126   64  124 1  
   127   64  125 1  
   128   64  126 1  
   129   65  127 1  
   130   65  128 1  
   131   65  129 1  
   132   66  130 1  
   133   66  131 1  
@<TRIPOS>SUBSTRUCTURE
     1 LYS         1

