1tze_ligand
  -I-interpret- 

133135  0  0  0  0  0  0  0  0999 V2000
   44.7030   59.7470   44.9750 N   0  3  0  0  0
   44.9760   59.5520   46.4390 C   0  0  0  0  0
   45.0450   58.0490   46.7520 C   0  0  0  0  0
   44.6760   57.2300   45.8960 O   0  0  0  0  0
   43.8790   60.2330   47.2900 C   0  0  0  0  0
   42.4480   59.8000   46.9890 C   0  0  0  0  0
   41.4560   60.3890   47.9850 C   0  0  0  0  0
   40.0140   60.2260   47.4910 C   0  0  0  0  0
   38.9590   60.8800   48.3470 N   0  3  0  0  0
   45.5910   57.6660   47.9340 N   0  0  0  0  0
   45.6600   56.2370   48.2670 C   0  0  0  0  0
   44.2180   55.7090   48.3750 C   0  0  0  0  0
   43.3010   56.4460   48.7330 O   0  0  0  0  0
   46.3800   56.2450   49.6130 C   0  0  0  0  0
   45.9040   57.5570   50.2330 C   0  0  0  0  0
   46.0850   58.4870   49.0620 C   0  0  0  0  0
   44.0160   54.4480   48.0350 N   0  0  0  0  0
   42.6880   53.8480   48.0690 C   0  0  0  0  0
   42.6820   52.6640   49.0380 C   0  0  0  0  0
   43.7090   52.0120   49.2240 O   0  0  0  0  0
   42.2930   53.3750   46.6630 C   0  0  0  0  0
   43.2640   52.3970   46.0610 C   0  0  0  0  0
   44.4220   52.8480   45.4190 C   0  0  0  0  0
   43.0630   51.0260   46.1950 C   0  0  0  0  0
   45.3690   51.9440   44.9310 C   0  0  0  0  0
   44.0110   50.1060   45.7070 C   0  0  0  0  0
   45.1590   50.5650   45.0810 C   0  0  0  0  0
   41.5120   52.3560   49.5940 N   0  0  0  0  0
   41.3700   51.2530   50.5370 C   0  0  0  0  0
   40.1600   50.3920   50.1400 C   0  0  0  0  0
   39.1060   50.9150   49.7840 O   0  0  0  0  0
   41.2660   51.8060   51.9830 C   0  0  0  0  0
   42.4440   52.7030   52.3700 C   0  0  0  0  0
   43.6050   52.1670   52.9420 C   0  0  0  0  0
   42.4340   54.0690   52.0750 C   0  0  0  0  0
   44.7220   52.9600   53.1910 C   0  0  0  0  0
   43.5500   54.8760   52.3230 C   0  0  0  0  0
   44.6990   54.3170   52.8750 C   0  0  0  0  0
   45.8670   55.2160   53.0410 O   0  0  0  0  0
   47.3360   54.6850   53.3890 P   0  0  0  0  0
   47.5000   54.4100   54.7800 O   0  0  0  0  0
   47.7510   53.5630   52.6280 O   0  0  0  0  0
   48.2090   55.7600   53.1390 O   0  0  0  0  0
   40.3200   49.0750   50.2110 N   0  0  0  0  0
   39.2760   48.1430   49.8340 C   0  0  0  0  0
   37.9760   48.3980   50.5760 C   0  0  0  0  0
   36.8910   48.1460   50.0360 O   0  0  0  0  0
   39.7500   46.6900   50.0370 C   0  0  0  0  0
   38.6800   45.6770   49.6790 C   0  0  0  0  0
   40.9750   46.4320   49.2170 C   0  0  0  0  0
   38.0660   48.9390   51.7940 N   0  0  0  0  0
   36.8520   49.1930   52.5830 C   0  0  0  0  0
   36.3770   50.6350   52.6440 C   0  0  0  0  0
   35.4860   50.9600   53.4290 O   0  0  0  0  0
   36.9660   48.6090   54.0010 C   0  0  0  0  0
   38.0180   49.2970   54.8200 C   0  0  0  0  0
   39.0750   49.6660   54.3050 O   0  0  0  0  0
   37.7380   49.4950   56.1040 N   0  0  0  0  0
   36.9190   51.4940   51.7920 N   0  0  0  0  0
   36.5100   52.8880   51.7900 C   0  0  0  0  0
   36.1090   53.3350   50.3830 C   0  0  0  0  0
   34.9470   53.6080   50.1200 O   0  0  0  0  0
   37.6200   53.8120   52.3350 C   0  0  0  0  0
   37.1640   55.2490   52.3230 C   0  0  0  0  0
   38.0080   53.4140   53.7520 C   0  0  0  0  0
   37.0820   53.4300   49.4870 N   0  0  0  0  0
   45.4355   59.2919   44.4302 H   0  0  0  0  0
   43.7990   59.3364   44.7413 H   0  0  0  0  0
   44.6898   60.7446   44.7628 H   0  0  0  0  0
   45.9319   60.0126   46.6884 H   0  0  0  0  0
   43.9329   61.2990   47.0689 H   0  0  0  0  0
   44.0747   59.9565   48.3260 H   0  0  0  0  0
   42.3976   58.7133   47.0577 H   0  0  0  0  0
   42.1851   60.1560   45.9929 H   0  0  0  0  0
   41.6670   61.4522   48.0997 H   0  0  0  0  0
   41.5609   59.8629   48.9339 H   0  0  0  0  0
   39.8017   59.1569   47.4981 H   0  0  0  0  0
   39.9637   60.7064   46.5139 H   0  0  0  0  0
   38.0398   60.7155   47.9366 H   0  0  0  0  0
   38.9898   60.4821   49.2857 H   0  0  0  0  0
   39.1363   61.8833   48.3957 H   0  0  0  0  0
   46.1713   55.6028   47.5428 H   0  0  0  0  0
   47.4642   56.1854   49.5183 H   0  0  0  0  0
   46.1496   55.3739   50.2263 H   0  0  0  0  0
   46.4492   57.8532   51.1292 H   0  0  0  0  0
   44.8881   57.5243   50.6267 H   0  0  0  0  0
   47.1144   58.8214   48.9328 H   0  0  0  0  0
   45.5504   59.4302   49.1746 H   0  0  0  0  0
   44.8103   53.8796   47.7410 H   0  0  0  0  0
   41.9670   54.5917   48.4084 H   0  0  0  0  0
   42.2711   54.2529   46.0173 H   0  0  0  0  0
   41.3306   52.8701   46.7467 H   0  0  0  0  0
   44.5877   53.9185   45.2979 H   0  0  0  0  0
   42.1602   50.6599   46.6839 H   0  0  0  0  0
   46.2684   52.3091   44.4352 H   0  0  0  0  0
   43.8422   49.0353   45.8214 H   0  0  0  0  0
   45.8972   49.8561   44.7060 H   0  0  0  0  0
   40.6895   52.9089   49.3527 H   0  0  0  0  0
   42.2498   50.6103   50.5057 H   0  0  0  0  0
   41.2612   50.9544   52.6633 H   0  0  0  0  0
   40.3588   52.4072   52.0428 H   0  0  0  0  0
   43.6345   51.1077   53.1973 H   0  0  0  0  0
   41.5383   54.5151   51.6428 H   0  0  0  0  0
   45.6152   52.5190   53.6335 H   0  0  0  0  0
   43.5196   55.9392   52.0846 H   0  0  0  0  0
   46.9299   53.6792   55.0300 H   0  0  0  0  0
   47.1579   52.8270   52.7956 H   0  0  0  0  0
   41.2110   48.7060   50.5433 H   0  0  0  0  0
   39.0697   48.3010   48.7754 H   0  0  0  0  0
   39.9752   46.5720   51.0969 H   0  0  0  0  0
   37.8047   45.8370   50.3086 H   0  0  0  0  0
   38.4029   45.7979   48.6318 H   0  0  0  0  0
   39.0659   44.6704   49.8402 H   0  0  0  0  0
   40.7455   46.5911   48.1634 H   0  0  0  0  0
   41.7671   47.1146   49.5248 H   0  0  0  0  0
   41.3015   45.4030   49.3677 H   0  0  0  0  0
   38.9805   49.1768   52.1780 H   0  0  0  0  0
   36.0774   48.6702   52.0219 H   0  0  0  0  0
   37.2417   47.5582   53.9118 H   0  0  0  0  0
   36.0068   48.7460   54.5003 H   0  0  0  0  0
   38.4113   49.9696   56.7055 H   0  0  0  0  0
   36.8498   49.1724   56.4879 H   0  0  0  0  0
   37.6285   51.1737   51.1329 H   0  0  0  0  0
   35.6468   52.9684   52.4507 H   0  0  0  0  0
   38.4906   53.7063   51.6877 H   0  0  0  0  0
   36.9261   55.5448   51.3012 H   0  0  0  0  0
   36.2773   55.3527   52.9484 H   0  0  0  0  0
   37.9600   55.8847   52.7107 H   0  0  0  0  0
   37.1359   53.4910   54.4013 H   0  0  0  0  0
   38.3734   52.3871   53.7524 H   0  0  0  0  0
   38.7916   54.0800   54.1134 H   0  0  0  0  0
   36.8730   53.7405   48.5381 H   0  0  0  0  0
   38.0394   53.1926   49.7467 H   0  0  0  0  0
  3  2  1  0  0  0
  2  5  1  0  0  0
  2  1  1  0  0  0
  5  6  1  0  0  0
  6  7  1  0  0  0
  7  8  1  0  0  0
  8  9  1  0  0  0
  3  4  2  0  0  0
 11 10  1  0  0  0
 11 14  1  0  0  0
 12 11  1  0  0  0
 12 13  2  0  0  0
 14 15  1  0  0  0
 15 16  1  0  0  0
 10 16  1  0  0  0
 19 18  1  0  0  0
 18 21  1  0  0  0
 18 17  1  0  0  0
 21 22  1  0  0  0
 22 24  4  0  0  0
 22 23  4  0  0  0
 23 25  4  0  0  0
 25 27  4  0  0  0
 26 27  4  0  0  0
 24 26  4  0  0  0
 19 20  2  0  0  0
 29 28  1  0  0  0
 29 32  1  0  0  0
 30 29  1  0  0  0
 30 31  2  0  0  0
 32 33  1  0  0  0
 33 35  4  0  0  0
 33 34  4  0  0  0
 34 36  4  0  0  0
 36 38  4  0  0  0
 38 39  1  0  0  0
 37 38  4  0  0  0
 35 37  4  0  0  0
 39 40  1  0  0  0
 40 43  2  0  0  0
 40 42  1  0  0  0
 40 41  1  0  0  0
 45 46  1  0  0  0
 45 48  1  0  0  0
 44 45  1  0  0  0
 48 49  1  0  0  0
 48 50  1  0  0  0
 46 47  2  0  0  0
 52 53  1  0  0  0
 52 55  1  0  0  0
 51 52  1  0  0  0
 55 56  1  0  0  0
 56 57  2  0  0  0
 56 58  1  0  0  0
 53 54  2  0  0  0
 60 61  1  0  0  0
 60 63  1  0  0  0
 59 60  1  0  0  0
 63 64  1  0  0  0
 63 65  1  0  0  0
 61 62  2  0  0  0
 10  3  1  0  0  0
 17 12  1  0  0  0
 46 51  1  0  0  0
 53 59  1  0  0  0
 28 19  1  0  0  0
 30 44  1  0  0  0
 61 66  1  0  0  0
  1 67  1  0  0  0
  1 68  1  0  0  0
  1 69  1  0  0  0
  2 70  1  0  0  0
  5 71  1  0  0  0
  5 72  1  0  0  0
  6 73  1  0  0  0
  6 74  1  0  0  0
  7 75  1  0  0  0
  7 76  1  0  0  0
  8 77  1  0  0  0
  8 78  1  0  0  0
  9 79  1  0  0  0
  9 80  1  0  0  0
  9 81  1  0  0  0
 11 82  1  0  0  0
 14 83  1  0  0  0
 14 84  1  0  0  0
 15 85  1  0  0  0
 15 86  1  0  0  0
 16 87  1  0  0  0
 16 88  1  0  0  0
 17 89  1  0  0  0
 18 90  1  0  0  0
 21 91  1  0  0  0
 21 92  1  0  0  0
 23 93  1  0  0  0
 24 94  1  0  0  0
 25 95  1  0  0  0
 26 96  1  0  0  0
 27 97  1  0  0  0
 28 98  1  0  0  0
 29 99  1  0  0  0
 32100  1  0  0  0
 32101  1  0  0  0
 34102  1  0  0  0
 35103  1  0  0  0
 36104  1  0  0  0
 37105  1  0  0  0
 41106  1  0  0  0
 42107  1  0  0  0
 44108  1  0  0  0
 45109  1  0  0  0
 48110  1  0  0  0
 49111  1  0  0  0
 49112  1  0  0  0
 49113  1  0  0  0
 50114  1  0  0  0
 50115  1  0  0  0
 50116  1  0  0  0
 51117  1  0  0  0
 52118  1  0  0  0
 55119  1  0  0  0
 55120  1  0  0  0
 58121  1  0  0  0
 58122  1  0  0  0
 59123  1  0  0  0
 60124  1  0  0  0
 63125  1  0  0  0
 64126  1  0  0  0
 64127  1  0  0  0
 64128  1  0  0  0
 65129  1  0  0  0
 65130  1  0  0  0
 65131  1  0  0  0
 66132  1  0  0  0
 66133  1  0  0  0
M  END
$$$$
