4led_ligand
  -I-interpret- 

 23 23  0  0  0  0  0  0  0  0999 V2000
   13.7420   40.1470   -1.2480 O   0  0  0  0  0
   12.6410   39.2580   -1.1550 C   0  0  0  0  0
   12.6940   38.3170   -2.3600 C   0  0  0  0  0
   13.8890   37.3730   -2.2850 C   0  0  0  0  0
   11.3320   40.0300   -1.1170 C   0  0  0  0  0
   11.2870   41.0300   -0.0670 O   0  0  0  0  0
   10.1980   38.9980   -1.0520 C   0  0  0  0  0
   10.1920   38.2180    0.1500 O   0  0  0  0  0
   10.3240   38.0780   -2.2790 C   0  0  0  0  0
   11.5870   37.4550   -2.3980 O   0  0  0  0  0
   10.2790   38.8100   -3.4970 O   0  0  0  0  0
   14.5583   39.6423   -1.2708 H   0  0  0  0  0
   12.6968   38.6795   -0.2329 H   0  0  0  0  0
   12.7364   38.9779   -3.2258 H   0  0  0  0  0
   13.8114   36.7614   -1.3861 H   0  0  0  0  0
   13.8975   36.7291   -3.1645 H   0  0  0  0  0
   14.8094   37.9560   -2.2510 H   0  0  0  0  0
   11.2208   40.6288   -2.0210 H   0  0  0  0  0
   12.0233   41.6368   -0.1728 H   0  0  0  0  0
    9.2532   39.5415   -1.0510 H   0  0  0  0  0
   10.1131   38.8014    0.9083 H   0  0  0  0  0
    9.5060   37.3735   -2.1285 H   0  0  0  0  0
    9.4511   39.2934   -3.5481 H   0  0  0  0  0
  1  2  1  0  0  0
  2  3  1  0  0  0
  2  5  1  0  0  0
  3  4  1  0  0  0
  3 10  1  0  0  0
  5  6  1  0  0  0
  5  7  1  0  0  0
  7  8  1  0  0  0
  7  9  1  0  0  0
  9 10  1  0  0  0
  9 11  1  0  0  0
  1 12  1  0  0  0
  2 13  1  0  0  0
  3 14  1  0  0  0
  4 15  1  0  0  0
  4 16  1  0  0  0
  4 17  1  0  0  0
  5 18  1  0  0  0
  6 19  1  0  0  0
  7 20  1  0  0  0
  8 21  1  0  0  0
  9 22  1  0  0  0
 11 23  1  0  0  0
M  END
$$$$
