3fv3_ligand
  -I-interpret- 

111110  0  0  0  0  0  0  0  0999 V2000
   19.7600   26.2340   50.9010 C   0  0  0  0  0
   18.9760   27.5100   50.6440 C   0  0  0  0  0
   19.0280   28.4530   51.8400 C   0  0  0  0  0
   19.5120   28.2220   49.4100 C   0  0  0  0  0
   19.1570   25.4240   52.0360 C   0  0  0  0  0
   17.9540   25.1870   52.1040 O   0  0  0  0  0
   20.0210   24.9720   52.9420 N   0  0  0  0  0
   19.5820   24.2000   54.0970 C   0  0  0  0  0
   20.1040   24.8530   55.3580 C   0  0  0  0  0
   21.0570   25.6200   55.2890 O   0  0  0  0  0
   20.0690   22.7380   54.0290 C   0  0  0  0  0
   19.3840   21.9600   52.8880 C   0  0  0  0  0
   21.5950   22.5810   53.8890 C   0  0  0  0  0
   19.4800   24.5320   56.4900 N   0  0  0  0  0
   20.0030   24.9520   57.8040 C   0  0  0  0  0
   19.8630   23.7750   58.7200 C   0  0  0  0  0
   18.7400   23.4350   59.0470 O   0  0  0  0  0
   19.2460   26.1720   58.3500 C   0  0  0  0  0
   19.8000   26.5750   59.7280 C   0  0  0  0  0
   19.3030   27.3880   57.4230 C   0  0  0  0  0
   20.9830   23.1460   59.0660 N   0  0  0  0  0
   21.0020   21.8870   59.8200 C   0  0  0  0  0
   21.5040   20.7230   58.9200 C   0  0  0  0  0
   20.7400   20.6280   57.5820 C   0  0  0  0  0
   21.5210   19.6890   56.6320 C   0  0  0  0  0
   19.3140   20.1350   57.7970 C   0  0  0  0  0
   21.9380   21.9840   61.0320 C   0  0  0  0  0
   23.2480   22.3490   60.5950 O   0  0  0  0  0
   21.4990   23.0360   62.0600 C   0  0  0  0  0
   20.3390   22.5230   62.8910 C   0  0  0  0  0
   19.1920   22.6630   62.4840 O   0  0  0  0  0
   20.6500   21.9560   64.0750 N   0  0  0  0  0
   19.6440   21.6910   65.0860 C   0  0  0  0  0
   19.7110   22.7970   66.0980 C   0  0  0  0  0
   20.7140   22.9340   66.8030 O   0  0  0  0  0
   19.8780   20.3110   65.7080 C   0  0  0  0  0
   18.6760   23.6310   66.0920 N   0  0  0  0  0
   18.7630   24.9500   66.7130 C   0  0  0  0  0
   18.3720   26.0450   65.7250 C   0  0  0  0  0
   19.1370   26.0660   64.3910 C   0  0  0  0  0
   18.6600   27.2980   63.6220 C   0  0  0  0  0
   20.6550   26.1590   64.5000 C   0  0  0  0  0
   17.8480   24.9520   67.9500 C   0  0  0  0  0
   18.2640   23.9220   68.8730 O   0  0  0  0  0
   17.8060   26.2750   68.7120 C   0  0  0  0  0
   16.8100   26.0900   69.8590 C   0  0  0  0  0
   17.2310   26.2320   71.0310 O   0  0  0  0  0
   15.6050   25.7800   69.6160 O   0  0  0  0  0
   20.7789   26.5062   51.1765 H   0  0  0  0  0
   19.7362   25.6277   49.9955 H   0  0  0  0  0
   17.9367   27.2257   50.4790 H   0  0  0  0  0
   20.0596   28.7580   52.0160 H   0  0  0  0  0
   18.4178   29.3325   51.6344 H   0  0  0  0  0
   18.6437   27.9407   52.7220 H   0  0  0  0  0
   18.9015   29.1016   49.2058 H   0  0  0  0  0
   20.5433   28.5271   49.5874 H   0  0  0  0  0
   19.4736   27.5454   48.5563 H   0  0  0  0  0
   21.0145   25.1709   52.8248 H   0  0  0  0  0
   18.4921   24.1845   54.1008 H   0  0  0  0  0
   19.7861   22.3193   54.9948 H   0  0  0  0  0
   18.3060   21.9555   53.0491 H   0  0  0  0  0
   19.6084   22.4411   51.9360 H   0  0  0  0  0
   19.7550   20.9351   52.8749 H   0  0  0  0  0
   21.9268   23.0701   52.9731 H   0  0  0  0  0
   22.0864   23.0408   54.7464 H   0  0  0  0  0
   21.8478   21.5215   53.8487 H   0  0  0  0  0
   18.6211   23.9834   56.4475 H   0  0  0  0  0
   21.0457   25.2581   57.7195 H   0  0  0  0  0
   18.2031   25.8646   58.4271 H   0  0  0  0  0
   19.6823   25.7435   60.4228 H   0  0  0  0  0
   20.8568   26.8251   59.6343 H   0  0  0  0  0
   19.2519   27.4409   60.0994 H   0  0  0  0  0
   20.3418   27.6846   57.2783 H   0  0  0  0  0
   18.8599   27.1309   56.4609 H   0  0  0  0  0
   18.7477   28.2117   57.8717 H   0  0  0  0  0
   21.8744   23.5600   58.7932 H   0  0  0  0  0
   19.9826   21.6961   60.1555 H   0  0  0  0  0
   21.3454   19.7904   59.4616 H   0  0  0  0  0
   22.5540   20.9065   58.6922 H   0  0  0  0  0
   20.6670   21.6185   57.1330 H   0  0  0  0  0
   22.5186   20.0941   56.4620 H   0  0  0  0  0
   21.6010   18.7008   57.0849 H   0  0  0  0  0
   20.9916   19.6130   55.6822 H   0  0  0  0  0
   19.3379   19.1466   58.2560 H   0  0  0  0  0
   18.7861   20.8283   58.4517 H   0  0  0  0  0
   18.8017   20.0787   56.8365 H   0  0  0  0  0
   21.9144   21.0037   61.5079 H   0  0  0  0  0
   23.8322   22.4092   61.3544 H   0  0  0  0  0
   21.1826   23.9349   61.5308 H   0  0  0  0  0
   22.3375   23.2529   62.7218 H   0  0  0  0  0
   21.6206   21.7064   64.2648 H   0  0  0  0  0
   18.6430   21.6700   64.6551 H   0  0  0  0  0
   19.8166   19.5487   64.9313 H   0  0  0  0  0
   20.8658   20.2840   66.1681 H   0  0  0  0  0
   19.1176   20.1217   66.4656 H   0  0  0  0  0
   17.8049   23.3445   65.6454 H   0  0  0  0  0
   19.7893   25.1576   67.0159 H   0  0  0  0  0
   18.5955   26.9914   66.2174 H   0  0  0  0  0
   17.3269   25.8660   65.4722 H   0  0  0  0  0
   18.9292   25.1131   63.9043 H   0  0  0  0  0
   17.5862   27.2241   63.4499 H   0  0  0  0  0
   18.8751   28.1940   64.2043 H   0  0  0  0  0
   19.1798   27.3514   62.6654 H   0  0  0  0  0
   20.9249   27.0770   65.0220 H   0  0  0  0  0
   21.0314   25.2998   65.0551 H   0  0  0  0  0
   21.0900   26.1665   63.5006 H   0  0  0  0  0
   16.8463   24.7743   67.5588 H   0  0  0  0  0
   17.6881   23.9305   69.6410 H   0  0  0  0  0
   17.4980   27.0906   68.0577 H   0  0  0  0  0
   18.7935   26.5354   69.0931 H   0  0  0  0  0
   15.4768   25.7184   68.6666 H   0  0  0  0  0
  1  2  1  0  0  0
  1  5  1  0  0  0
  2  3  1  0  0  0
  2  4  1  0  0  0
  5  6  2  0  0  0
  5  7  1  0  0  0
  7  8  1  0  0  0
  8  9  1  0  0  0
  8 11  1  0  0  0
  9 10  2  0  0  0
  9 14  1  0  0  0
 11 12  1  0  0  0
 11 13  1  0  0  0
 14 15  1  0  0  0
 15 16  1  0  0  0
 15 18  1  0  0  0
 16 17  2  0  0  0
 16 21  1  0  0  0
 18 19  1  0  0  0
 18 20  1  0  0  0
 21 22  1  0  0  0
 22 23  1  0  0  0
 22 27  1  0  0  0
 23 24  1  0  0  0
 24 25  1  0  0  0
 24 26  1  0  0  0
 27 28  1  0  0  0
 27 29  1  0  0  0
 29 30  1  0  0  0
 30 31  2  0  0  0
 30 32  1  0  0  0
 32 33  1  0  0  0
 33 34  1  0  0  0
 33 36  1  0  0  0
 34 35  2  0  0  0
 34 37  1  0  0  0
 37 38  1  0  0  0
 38 39  1  0  0  0
 38 43  1  0  0  0
 39 40  1  0  0  0
 40 41  1  0  0  0
 40 42  1  0  0  0
 43 44  1  0  0  0
 43 45  1  0  0  0
 45 46  1  0  0  0
 46 47  2  0  0  0
 46 48  1  0  0  0
  1 49  1  0  0  0
  1 50  1  0  0  0
  2 51  1  0  0  0
  3 52  1  0  0  0
  3 53  1  0  0  0
  3 54  1  0  0  0
  4 55  1  0  0  0
  4 56  1  0  0  0
  4 57  1  0  0  0
  7 58  1  0  0  0
  8 59  1  0  0  0
 11 60  1  0  0  0
 12 61  1  0  0  0
 12 62  1  0  0  0
 12 63  1  0  0  0
 13 64  1  0  0  0
 13 65  1  0  0  0
 13 66  1  0  0  0
 14 67  1  0  0  0
 15 68  1  0  0  0
 18 69  1  0  0  0
 19 70  1  0  0  0
 19 71  1  0  0  0
 19 72  1  0  0  0
 20 73  1  0  0  0
 20 74  1  0  0  0
 20 75  1  0  0  0
 21 76  1  0  0  0
 22 77  1  0  0  0
 23 78  1  0  0  0
 23 79  1  0  0  0
 24 80  1  0  0  0
 25 81  1  0  0  0
 25 82  1  0  0  0
 25 83  1  0  0  0
 26 84  1  0  0  0
 26 85  1  0  0  0
 26 86  1  0  0  0
 27 87  1  0  0  0
 28 88  1  0  0  0
 29 89  1  0  0  0
 29 90  1  0  0  0
 32 91  1  0  0  0
 33 92  1  0  0  0
 36 93  1  0  0  0
 36 94  1  0  0  0
 36 95  1  0  0  0
 37 96  1  0  0  0
 38 97  1  0  0  0
 39 98  1  0  0  0
 39 99  1  0  0  0
 40100  1  0  0  0
 41101  1  0  0  0
 41102  1  0  0  0
 41103  1  0  0  0
 42104  1  0  0  0
 42105  1  0  0  0
 42106  1  0  0  0
 43107  1  0  0  0
 44108  1  0  0  0
 45109  1  0  0  0
 45110  1  0  0  0
 48111  1  0  0  0
M  END
$$$$
