6jbb_ligand
  -I-interpret- 

 45 46  0  0  0  0  0  0  0  0999 V2000
   -6.4040  -32.3690  -13.6010 C   0  0  0  0  0
   -7.7340  -32.0170  -12.9660 C   0  0  0  0  0
   -8.5240  -31.0270  -13.8160 C   0  0  0  0  0
   -7.6590  -29.7860  -14.0690 C   0  0  0  0  0
   -6.3590  -30.2370  -14.7170 C   0  0  0  0  0
   -5.4840  -28.9910  -14.9700 C   0  0  0  0  0
   -6.6240  -33.3090  -14.6900 O   0  0  0  0  0
   -8.5300  -33.1760  -12.8170 O   0  0  0  0  0
   -9.7860  -30.7120  -13.1720 O   0  0  0  0  0
   -8.3930  -28.8820  -14.8850 O   0  0  0  0  0
   -5.6630  -31.2210  -13.9260 O   0  0  0  0  0
   -4.3010  -29.2940  -15.7730 O   0  0  0  0  0
   -4.2760  -33.1550  -15.3840 C   0  0  0  0  0
   -5.4910  -34.0760  -15.1320 C   0  0  0  0  0
   -5.1780  -35.3230  -14.2600 C   0  0  0  0  0
   -6.2530  -36.3320  -14.7070 C   0  0  0  0  0
   -6.1560  -36.0660  -16.2070 C   0  0  0  0  0
   -7.3520  -36.4920  -16.9780 C   0  0  0  0  0
   -3.2560  -33.9510  -15.9510 O   0  0  0  0  0
   -5.9310  -34.6630  -16.3700 O   0  0  0  0  0
   -5.1340  -35.1740  -12.8210 O   0  0  0  0  0
   -6.0490  -37.7160  -14.3740 O   0  0  0  0  0
   -7.2100  -36.2090  -18.3890 O   0  0  0  0  0
   -5.7639  -32.8846  -12.8851 H   0  0  0  0  0
   -7.5082  -31.5692  -11.9982 H   0  0  0  0  0
   -8.7699  -31.4637  -14.7840 H   0  0  0  0  0
   -7.4093  -29.2656  -13.1444 H   0  0  0  0  0
   -6.5865  -30.7285  -15.6629 H   0  0  0  0  0
   -5.1481  -28.6133  -14.0043 H   0  0  0  0  0
   -6.0842  -28.2628  -15.5155 H   0  0  0  0  0
   -8.0582  -33.8206  -12.2845 H   0  0  0  0  0
  -10.2859  -31.5205  -13.0376 H   0  0  0  0  0
   -9.2012  -28.6286  -14.4330 H   0  0  0  0  0
   -3.7901  -28.4918  -15.9034 H   0  0  0  0  0
   -3.9366  -32.7050  -14.4511 H   0  0  0  0  0
   -4.5455  -32.3412  -16.0572 H   0  0  0  0  0
   -4.1435  -35.6215  -14.4300 H   0  0  0  0  0
   -7.2156  -36.1900  -14.2157 H   0  0  0  0  0
   -5.3380  -36.6638  -16.6090 H   0  0  0  0  0
   -8.2151  -35.9417  -16.6033 H   0  0  0  0  0
   -7.4736  -37.5682  -16.8549 H   0  0  0  0  0
   -2.4837  -33.4065  -16.1205 H   0  0  0  0  0
   -4.9313  -36.0217  -12.4187 H   0  0  0  0  0
   -6.7844  -38.2358  -14.7066 H   0  0  0  0  0
   -7.9995  -36.4971  -18.8530 H   0  0  0  0  0
  1  2  1  0  0  0
  7  1  1  0  0  0
  1 11  1  0  0  0
  2  3  1  0  0  0
  2  8  1  0  0  0
  3  4  1  0  0  0
  3  9  1  0  0  0
  5  4  1  0  0  0
  4 10  1  0  0  0
  5  6  1  0  0  0
 11  5  1  0  0  0
  6 12  1  0  0  0
 14  7  1  0  0  0
 14 13  1  0  0  0
 13 19  1  0  0  0
 14 15  1  0  0  0
 20 14  1  0  0  0
 16 15  1  0  0  0
 15 21  1  0  0  0
 17 16  1  0  0  0
 16 22  1  0  0  0
 18 17  1  0  0  0
 17 20  1  0  0  0
 23 18  1  0  0  0
  1 24  1  0  0  0
  2 25  1  0  0  0
  3 26  1  0  0  0
  4 27  1  0  0  0
  5 28  1  0  0  0
  6 29  1  0  0  0
  6 30  1  0  0  0
  8 31  1  0  0  0
  9 32  1  0  0  0
 10 33  1  0  0  0
 12 34  1  0  0  0
 13 35  1  0  0  0
 13 36  1  0  0  0
 15 37  1  0  0  0
 16 38  1  0  0  0
 17 39  1  0  0  0
 18 40  1  0  0  0
 18 41  1  0  0  0
 19 42  1  0  0  0
 21 43  1  0  0  0
 22 44  1  0  0  0
 23 45  1  0  0  0
M  END
$$$$
