4dsu_ligand
  -I-interpret- 

 14 15  0  0  0  0  0  0  0  0999 V2000
   25.3580   12.5330   11.4010 N   0  0  0  0  0
   25.1260   12.5100   12.6810 C   0  0  0  0  0
   23.9620   13.1600   12.9550 N   0  0  0  0  0
   23.4470   13.6130   11.7500 C   0  0  0  0  0
   22.3120   14.3250   11.3890 C   0  0  0  0  0
   22.0870   14.6230   10.0610 C   0  0  0  0  0
   22.9860   14.2130    9.0860 C   0  0  0  0  0
   24.1130   13.5130    9.4220 C   0  0  0  0  0
   24.3580   13.2000   10.7620 C   0  0  0  0  0
   25.7692   12.0394   13.4246 H   0  0  0  0  0
   21.6020   14.6471   12.1507 H   0  0  0  0  0
   21.1973   15.1842    9.7754 H   0  0  0  0  0
   22.7920   14.4514    8.0402 H   0  0  0  0  0
   24.8155   13.2014    8.6490 H   0  0  0  0  0
  1  2  4  0  0  0
  1  9  4  0  0  0
  2  3  4  0  0  0
  3  4  4  0  0  0
  4  5  4  0  0  0
  4  9  4  0  0  0
  5  6  4  0  0  0
  6  7  4  0  0  0
  7  8  4  0  0  0
  8  9  4  0  0  0
  2 10  1  0  0  0
  5 11  1  0  0  0
  6 12  1  0  0  0
  7 13  1  0  0  0
  8 14  1  0  0  0
M  END
$$$$
