5n8v_ligand
  -I-interpret- 

 74 79  0  0  0  0  0  0  0  0999 V2000
   11.3460   -2.5700   -7.6490 C   0  0  0  0  0
   10.0880   -3.2640   -7.7660 O   0  0  0  0  0
    8.9130   -2.5530   -7.9110 C   0  0  0  0  0
    8.8540   -1.1600   -8.0260 C   0  0  0  0  0
    7.6260   -0.5240   -8.1700 C   0  0  0  0  0
    7.7210   -3.3010   -7.9510 C   0  0  0  0  0
    7.7740   -4.7020   -7.8390 C   0  0  0  0  0
    6.6130   -5.4690   -7.8680 C   0  0  0  0  0
    5.3820   -4.8420   -8.0120 C   0  0  0  0  0
    5.3110   -3.4530   -8.1260 C   0  0  0  0  0
    6.4700   -2.6510   -8.0980 C   0  0  0  0  0
    6.4190   -1.2300   -8.2020 C   0  0  0  0  0
    5.2160   -0.4470   -8.3400 C   0  0  0  0  0
    4.6190    0.0330   -7.0490 N   0  3  0  0  0
    4.3440   -1.0520   -6.1020 C   0  0  0  0  0
    3.6590   -0.4890   -4.9850 C   0  0  0  0  0
    5.2690    1.0640   -6.4350 C   0  0  0  0  0
    4.8600    1.5000   -5.2040 C   0  0  0  0  0
    4.0510    0.7100   -4.4840 C   0  0  0  0  0
    3.7820    1.3410   -3.3320 N   0  0  0  0  0
    2.9210    0.8290   -2.2250 C   0  0  0  0  0
    1.4380    1.1750   -2.4240 C   0  0  0  0  0
    1.2060    2.6200   -2.5750 N   0  3  0  0  0
    4.3730    2.4390   -3.3050 N   0  0  0  0  0
    5.0550    2.6080   -4.4410 C   0  0  0  0  0
    5.8190    3.7150   -4.7110 C   0  0  0  0  0
    6.4330    3.8220   -5.7700 O   0  0  0  0  0
    5.9100    4.6620   -3.7230 N   0  0  0  0  0
    6.7350    5.9020   -3.8360 C   0  0  0  0  0
    7.9810    5.8220   -3.1090 C   0  0  0  0  0
    8.7550    6.9710   -2.7880 C   0  0  0  0  0
    8.3660    8.2770   -3.1450 C   0  0  0  0  0
    9.1460    9.3860   -2.8060 C   0  0  0  0  0
   10.3320    9.2210   -2.0990 C   0  0  0  0  0
   10.7360    7.9420   -1.7290 C   0  0  0  0  0
    9.9610    6.8290   -2.0680 C   0  0  0  0  0
   10.4100    5.5670   -1.6750 C   0  0  0  0  0
    9.6610    4.4430   -1.9950 C   0  0  0  0  0
    8.4690    4.5670   -2.6990 C   0  0  0  0  0
   11.5122   -1.9686   -8.5427 H   0  0  0  0  0
   11.3219   -1.9221   -6.7728 H   0  0  0  0  0
   12.1518   -3.2964   -7.5433 H   0  0  0  0  0
    9.7718   -0.5725   -8.0027 H   0  0  0  0  0
    7.6032    0.5619   -8.2611 H   0  0  0  0  0
    8.7398   -5.1949   -7.7277 H   0  0  0  0  0
    6.6694   -6.5538   -7.7784 H   0  0  0  0  0
    4.4688   -5.4366   -8.0360 H   0  0  0  0  0
    4.3369   -2.9772   -8.2393 H   0  0  0  0  0
    4.4731   -1.0920   -8.8093 H   0  0  0  0  0
    5.4830    0.4413   -8.9124 H   0  0  0  0  0
    3.7294    0.4274   -7.3546 H   0  0  0  0  0
    5.2745   -1.5196   -5.7801 H   0  0  0  0  0
    3.7326   -1.8213   -6.5736 H   0  0  0  0  0
    3.8346   -1.1947   -4.1731 H   0  0  0  0  0
    2.6450   -0.3159   -5.3455 H   0  0  0  0  0
    5.1052    1.9175   -7.0928 H   0  0  0  0  0
    6.2777    0.6866   -6.2673 H   0  0  0  0  0
    3.2533    1.2955   -1.2976 H   0  0  0  0  0
    3.0126   -0.2569   -2.2029 H   0  0  0  0  0
    0.8952    0.8400   -1.5402 H   0  0  0  0  0
    1.1002    0.6851   -3.3372 H   0  0  0  0  0
    0.2088    2.7914   -2.7035 H   0  0  0  0  0
    1.5304    3.1045   -1.7381 H   0  0  0  0  0
    1.7186    2.9623   -3.3877 H   0  0  0  0  0
    5.3843    4.5109   -2.8620 H   0  0  0  0  0
    6.1571    6.7239   -3.4134 H   0  0  0  0  0
    6.9749    6.0453   -4.8896 H   0  0  0  0  0
    7.4378    8.4256   -3.6968 H   0  0  0  0  0
    8.8230   10.3855   -3.0973 H   0  0  0  0  0
   10.9403   10.0867   -1.8368 H   0  0  0  0  0
   11.6627    7.8070   -1.1712 H   0  0  0  0  0
   11.3428    5.4649   -1.1204 H   0  0  0  0  0
   10.0102    3.4559   -1.6920 H   0  0  0  0  0
    7.8980    3.6702   -2.9395 H   0  0  0  0  0
  1  2  1  0  0  0
  2  3  1  0  0  0
  3  4  4  0  0  0
  3  6  4  0  0  0
  4  5  4  0  0  0
  5 12  4  0  0  0
  6  7  4  0  0  0
  6 11  4  0  0  0
  7  8  4  0  0  0
  8  9  4  0  0  0
  9 10  4  0  0  0
 10 11  4  0  0  0
 11 12  4  0  0  0
 12 13  1  0  0  0
 13 14  1  0  0  0
 14 15  1  0  0  0
 14 17  1  0  0  0
 15 16  1  0  0  0
 16 19  1  0  0  0
 17 18  1  0  0  0
 18 19  4  0  0  0
 18 25  4  0  0  0
 19 20  4  0  0  0
 20 21  1  0  0  0
 20 24  4  0  0  0
 21 22  1  0  0  0
 22 23  1  0  0  0
 24 25  4  0  0  0
 25 26  1  0  0  0
 26 27  2  0  0  0
 26 28  1  0  0  0
 28 29  1  0  0  0
 29 30  1  0  0  0
 30 31  4  0  0  0
 30 39  4  0  0  0
 31 32  4  0  0  0
 31 36  4  0  0  0
 32 33  4  0  0  0
 33 34  4  0  0  0
 34 35  4  0  0  0
 35 36  4  0  0  0
 36 37  4  0  0  0
 37 38  4  0  0  0
 38 39  4  0  0  0
  1 40  1  0  0  0
  1 41  1  0  0  0
  1 42  1  0  0  0
  4 43  1  0  0  0
  5 44  1  0  0  0
  7 45  1  0  0  0
  8 46  1  0  0  0
  9 47  1  0  0  0
 10 48  1  0  0  0
 13 49  1  0  0  0
 13 50  1  0  0  0
 14 51  1  0  0  0
 15 52  1  0  0  0
 15 53  1  0  0  0
 16 54  1  0  0  0
 16 55  1  0  0  0
 17 56  1  0  0  0
 17 57  1  0  0  0
 21 58  1  0  0  0
 21 59  1  0  0  0
 22 60  1  0  0  0
 22 61  1  0  0  0
 23 62  1  0  0  0
 23 63  1  0  0  0
 23 64  1  0  0  0
 28 65  1  0  0  0
 29 66  1  0  0  0
 29 67  1  0  0  0
 32 68  1  0  0  0
 33 69  1  0  0  0
 34 70  1  0  0  0
 35 71  1  0  0  0
 37 72  1  0  0  0
 38 73  1  0  0  0
 39 74  1  0  0  0
M  END
$$$$
