### 
### Created by X-TOOL on Mon Sep 10 21:13:19 2018
### 

@<TRIPOS>MOLECULE
4utn_ligand
  146   147     1     0     0
SMALL
GAST_HUCK


@<TRIPOS>ATOM
      1 C          32.9030   26.3060   12.4040 C.2       1 BEZ         0.2070
      2 O1         33.1120   27.4320   11.9510 O.2       1 BEZ        -0.3845
      3 C1         33.5860   25.9080   13.5520 C.ar      1 BEZ         0.0500
      4 C2         34.5620   24.9140   13.4860 C.ar      1 BEZ        -0.0419
      5 C3         35.2540   24.5210   14.6190 C.ar      1 BEZ        -0.0562
      6 C4         34.9290   25.1430   15.8160 C.ar      1 BEZ        -0.0575
      7 C5         33.9510   26.1360   15.8920 C.ar      1 BEZ        -0.0562
      8 C6         33.2770   26.5260   14.7530 C.ar      1 BEZ        -0.0419
      9 N          32.0570   25.3760   11.8760 N.am      1 GLY        -0.2676
     10 CA         31.1600   25.5520   10.6990 C.3       1 GLY         0.1197
     11 C          31.5580   24.5480    9.6430 C.2       1 GLY         0.2007
     12 O          32.7250   24.1590    9.4950 O.2       1 GLY        -0.3947
     13 N          30.5370   24.1550    8.8870 N.am      1 VAL        -0.2637
     14 CA         30.5960   23.0050    8.0030 C.3       1 VAL         0.1332
     15 C          31.4590   23.3180    6.8030 C.2       1 VAL         0.2041
     16 O          31.4020   24.3990    6.2540 O.2       1 VAL        -0.3944
     17 CB         29.1890   22.5870    7.5130 C.3       1 VAL        -0.0063
     18 CG1        29.2700   21.3320    6.6440 C.3       1 VAL        -0.0584
     19 CG2        28.2750   22.3470    8.7010 C.3       1 VAL        -0.0584
     20 N          32.2470   22.3440    6.3900 N.am      1 LEU        -0.2637
     21 CA         33.1730   22.5440    5.3080 C.3       1 LEU         0.1312
     22 C          32.5180   22.0190    4.0480 C.2       1 LEU         0.2039
     23 O          32.1960   20.8320    3.9520 O.2       1 LEU        -0.3944
     24 CB         34.4740   21.7960    5.5900 C.3       1 LEU        -0.0101
     25 CG         35.7290   22.4410    5.0070 C.3       1 LEU        -0.0425
     26 CD1        36.5180   23.1770    6.0770 C.3       1 LEU        -0.0625
     27 CD2        36.5780   21.3870    4.3030 C.3       1 LEU        -0.0625
     28 C          32.3440   21.2710    1.3780 C.2       1 SLL         0.2039
     29 N          32.2950   22.9320    3.1050 N.am      1 SLL        -0.2637
     30 O          33.5490   21.1020    1.3360 O.2       1 SLL        -0.3944
     31 CA         31.7590   22.6210    1.7790 C.3       1 SLL         0.1310
     32 CB         32.1150   23.8030    0.8280 C.3       1 SLL        -0.0123
     33 CD         31.0810   23.8590   -1.5000 C.3       1 SLL        -0.0325
     34 CE         31.8330   24.6310   -2.5830 C.3       1 SLL         0.0309
     35 CG         32.2780   23.4370   -0.6400 C.3       1 SLL        -0.0470
     36 CK         29.9920   25.5380   -5.8190 C.3       1 SLL         0.0487
     37 CL         31.1720   26.4570   -6.2710 C.3       1 SLL         0.0171
     38 CP         31.1670   26.7570   -7.7610 C.2       1 SLL         0.0370
     39 CX         30.7200   24.6060   -4.8190 C.2       1 SLL         0.1776
     40 OX         31.0320   23.4560   -5.1320 O.2       1 SLL        -0.3970
     41 NZ         30.9970   25.1850   -3.6300 N.am      1 SLL        -0.2869
     42 OP1        31.6430   27.8610   -8.0760 O.co2     1 SLL        -0.5689
     43 OP2        30.7180   25.9300   -8.5830 O.co2     1 SLL        -0.5689
     44 N          31.4630   20.3050    1.1640 N.am      1 GLU        -0.2636
     45 CA         31.8030   18.9670    0.6550 C.3       1 GLU         0.1325
     46 C          32.6360   18.0850    1.6080 C.2       1 GLU         0.2041
     47 O          33.2230   17.0550    1.2080 O.2       1 GLU        -0.3944
     48 CB         32.3830   19.0600   -0.7610 C.3       1 GLU        -0.0008
     49 CG         31.2640   18.9270   -1.7860 C.3       1 GLU         0.0044
     50 CD         31.7340   18.9790   -3.2140 C.2       1 GLU         0.0350
     51 OE1        32.7140   18.2770   -3.5540 O.co2     1 GLU        -0.5690
     52 OE2        31.1160   19.7360   -3.9990 O.co2     1 GLU        -0.5690
     53 N          32.6030   18.4740    2.8840 N.am      1 TYR        -0.2621
     54 CA         33.4040   17.8600    3.9260 C.3       1 TYR         0.1390
     55 C          34.9340   17.9050    3.6760 C.2       1 TYR         0.2055
     56 O          35.6600   17.1030    4.2590 O.2       1 TYR        -0.3942
     57 CB         32.9620   16.4110    4.1150 C.3       1 TYR         0.0163
     58 CG         31.4520   16.1730    4.2590 C.ar      1 TYR        -0.0493
     59 CD1        30.6670   16.9140    5.1600 C.ar      1 TYR        -0.0685
     60 CD2        30.8240   15.1520    3.5320 C.ar      1 TYR        -0.0685
     61 CE1        29.3050   16.6620    5.2900 C.ar      1 TYR        -0.0398
     62 CE2        29.4740   14.8920    3.6690 C.ar      1 TYR        -0.0398
     63 CZ         28.7240   15.6450    4.5380 C.ar      1 TYR         0.0805
     64 OH         27.4000   15.3500    4.6400 O.3       1 TYR        -0.3376
     65 N          35.4190   18.8330    2.8390 N.am      1 GLY        -0.2663
     66 CA         36.8350   18.9140    2.4540 C.3       1 GLY         0.1201
     67 C          37.3360   17.9350    1.3930 C.2       1 GLY         0.2003
     68 O          38.4980   18.0100    0.9990 O.2       1 GLY        -0.3947
     69 N          36.4850   17.0230    0.9190 N.am      1 VAL        -0.2670
     70 CA         36.9030   16.0230   -0.0890 C.3       1 VAL         0.1248
     71 C          37.2200   16.6780   -1.4370 C.2       1 VAL         0.2152
     72 O          36.3190   16.9920   -2.2210 O.co2     1 VAL        -0.4120
     73 CB         35.8260   14.9250   -0.3010 C.3       1 VAL        -0.0094
     74 CG1        36.1990   13.9850   -1.4620 C.3       1 VAL        -0.0589
     75 CG2        35.6120   14.1460    0.9910 C.3       1 VAL        -0.0589
     76 H          34.7818   24.4427   12.5349 H         1 BEZ         0.0669
     77 H          36.0208   23.7562   14.5727 H         1 BEZ         0.0629
     78 H          35.4505   24.8488   16.7196 H         1 BEZ         0.0653
     79 H          33.7214   26.6000   16.8444 H         1 BEZ         0.0629
     80 H          32.5203   27.3010   14.7969 H         1 BEZ         0.0669
     81 H          32.0363   24.4829   12.3254 H         1 GLY         0.1874
     82 H          31.2654   26.5719   10.3006 H         1 GLY         0.0763
     83 H          30.1155   25.3816   10.9989 H         1 GLY         0.0763
     84 H          29.6857   24.6780    8.9296 H         1 VAL         0.1883
     85 H          31.0410   22.1640    8.5549 H         1 VAL         0.0802
     86 H          28.7715   23.4049    6.9075 H         1 VAL         0.0343
     87 H          28.2605   21.0534    6.3074 H         1 VAL         0.0234
     88 H          29.7017   20.5073    7.2302 H         1 VAL         0.0234
     89 H          29.9060   21.5322    5.7691 H         1 VAL         0.0234
     90 H          28.2267   23.2576    9.3163 H         1 VAL         0.0234
     91 H          28.6694   21.5167    9.3052 H         1 VAL         0.0234
     92 H          27.2666   22.0929    8.3424 H         1 VAL         0.0234
     93 H          32.1996   21.4508    6.8372 H         1 LEU         0.1883
     94 H          33.3893   23.6165    5.1947 H         1 LEU         0.0800
     95 H          34.3837   20.7838    5.1690 H         1 LEU         0.0315
     96 H          34.5999   21.7296    6.6807 H         1 LEU         0.0315
     97 H          35.4146   23.1802    4.2555 H         1 LEU         0.0298
     98 H          37.4136   23.6293    5.6261 H         1 LEU         0.0232
     99 H          36.8207   22.4684    6.8620 H         1 LEU         0.0232
    100 H          35.8909   23.9662    6.5174 H         1 LEU         0.0232
    101 H          35.9720   20.8788    3.5385 H         1 LEU         0.0232
    102 H          36.9328   20.6504    5.0389 H         1 LEU         0.0232
    103 H          37.4414   21.8717    3.8238 H         1 LEU         0.0232
    104 H          32.5062   23.8866    3.3151 H         1 SLL         0.1883
    105 H          30.6637   22.5303    1.8254 H         1 SLL         0.0800
    106 H          33.0616   24.2434    1.1745 H         1 SLL         0.0312
    107 H          31.3129   24.5519    0.9034 H         1 SLL         0.0312
    108 H          30.5404   22.9929   -1.9095 H         1 SLL         0.0285
    109 H          30.3798   24.5006   -0.9462 H         1 SLL         0.0285
    110 H          32.5570   23.9470   -3.0499 H         1 SLL         0.0520
    111 H          32.3707   25.4604   -2.1004 H         1 SLL         0.0520
    112 H          32.3982   22.3464   -0.7179 H         1 SLL         0.0268
    113 H          33.1799   23.9339   -1.0269 H         1 SLL         0.0268
    114 H          29.5702   24.9747   -6.6645 H         1 SLL         0.0520
    115 H          29.1942   26.1148   -5.3282 H         1 SLL         0.0520
    116 H          32.1191   25.9576   -6.0191 H         1 SLL         0.0455
    117 H          31.1023   27.4085   -5.7236 H         1 SLL         0.0455
    118 H          30.5867   26.0801   -3.4557 H         1 SLL         0.1851
    119 H          30.5020   20.4983    1.3618 H         1 GLU         0.1883
    120 H          30.8427   18.4407    0.5512 H         1 GLU         0.0801
    121 H          33.1133   18.2511   -0.9105 H         1 GLU         0.0330
    122 H          32.8814   20.0323   -0.8885 H         1 GLU         0.0330
    123 H          30.5495   19.7480   -1.6268 H         1 GLU         0.0433
    124 H          30.7581   17.9639   -1.6231 H         1 GLU         0.0433
    125 H          31.9950   19.2273    3.1348 H         1 TYR         0.1885
    126 H          33.2071   18.4085    4.8589 H         1 TYR         0.0821
    127 H          33.4496   16.0278    5.0235 H         1 TYR         0.0453
    128 H          33.3097   15.8382    3.2427 H         1 TYR         0.0453
    129 H          31.1282   17.6902    5.7599 H         1 TYR         0.0530
    130 H          31.4115   14.5524    2.8462 H         1 TYR         0.0530
    131 H          28.7019   17.2521    5.9705 H         1 TYR         0.0525
    132 H          29.0101   14.0987    3.0941 H         1 TYR         0.0525
    133 H          26.9936   15.9359    5.2677 H         1 TYR         0.2458
    134 H          34.7845   19.5049    2.4568 H         1 GLY         0.1881
    135 H          37.4331   18.7495    3.3624 H         1 GLY         0.0763
    136 H          37.0156   19.9308    2.0752 H         1 GLY         0.0763
    137 H          35.5424   17.0150    1.2528 H         1 VAL         0.1876
    138 H          37.8182   15.5383    0.2818 H         1 VAL         0.0754
    139 O2         38.4199   16.9001   -1.7510 O.co2     1 VAL        -0.4120
    140 H          34.8797   15.4219   -0.5611 H         1 VAL         0.0336
    141 H          35.4155   13.2223   -1.5825 H         1 VAL         0.0234
    142 H          37.1583   13.4936   -1.2423 H         1 VAL         0.0234
    143 H          36.2896   14.5674   -2.3907 H         1 VAL         0.0234
    144 H          35.3475   14.8430    1.7998 H         1 VAL         0.0234
    145 H          36.5369   13.6122    1.2548 H         1 VAL         0.0234
    146 H          34.7971   13.4205    0.8511 H         1 VAL         0.0234
@<TRIPOS>BOND
     1    1    2 2  
     2    1    3 1  
     3    9    1 am 
     4    3    4 ar 
     5    3    8 ar 
     6    4    5 ar 
     7    5    6 ar 
     8    7    6 ar 
     9    8    7 ar 
    10   10    9 1  
    11   11   10 1  
    12   11   12 2  
    13   13   11 am 
    14   14   13 1  
    15   15   14 1  
    16   14   17 1  
    17   15   16 2  
    18   20   15 am 
    19   17   18 1  
    20   17   19 1  
    21   21   20 1  
    22   22   21 1  
    23   21   24 1  
    24   22   23 2  
    25   29   22 am 
    26   24   25 1  
    27   25   26 1  
    28   25   27 1  
    29   28   30 2  
    30   31   28 1  
    31   28   44 am 
    32   31   29 1  
    33   32   31 1  
    34   35   32 1  
    35   34   33 1  
    36   33   35 1  
    37   41   34 1  
    38   36   37 1  
    39   39   36 1  
    40   37   38 1  
    41   38   42 ar 
    42   38   43 ar 
    43   39   40 2  
    44   39   41 am 
    45   44   45 1  
    46   45   46 1  
    47   45   48 1  
    48   46   47 2  
    49   46   53 am 
    50   48   49 1  
    51   49   50 1  
    52   50   51 ar 
    53   50   52 ar 
    54   53   54 1  
    55   54   55 1  
    56   54   57 1  
    57   55   56 2  
    58   55   65 am 
    59   57   58 1  
    60   58   59 ar 
    61   58   60 ar 
    62   59   61 ar 
    63   60   62 ar 
    64   61   63 ar 
    65   62   63 ar 
    66   63   64 1  
    67   65   66 1  
    68   66   67 1  
    69   67   68 2  
    70   67   69 am 
    71   69   70 1  
    72   70   71 1  
    73   70   73 1  
    74   71   72 ar 
    75   73   74 1  
    76   73   75 1  
    77    4   76 1  
    78    5   77 1  
    79    6   78 1  
    80    7   79 1  
    81    8   80 1  
    82    9   81 1  
    83   10   82 1  
    84   10   83 1  
    85   13   84 1  
    86   14   85 1  
    87   17   86 1  
    88   18   87 1  
    89   18   88 1  
    90   18   89 1  
    91   19   90 1  
    92   19   91 1  
    93   19   92 1  
    94   20   93 1  
    95   21   94 1  
    96   24   95 1  
    97   24   96 1  
    98   25   97 1  
    99   26   98 1  
   100   26   99 1  
   101   26  100 1  
   102   27  101 1  
   103   27  102 1  
   104   27  103 1  
   105   29  104 1  
   106   31  105 1  
   107   32  106 1  
   108   32  107 1  
   109   33  108 1  
   110   33  109 1  
   111   34  110 1  
   112   34  111 1  
   113   35  112 1  
   114   35  113 1  
   115   36  114 1  
   116   36  115 1  
   117   37  116 1  
   118   37  117 1  
   119   41  118 1  
   120   44  119 1  
   121   45  120 1  
   122   48  121 1  
   123   48  122 1  
   124   49  123 1  
   125   49  124 1  
   126   53  125 1  
   127   54  126 1  
   128   57  127 1  
   129   57  128 1  
   130   59  129 1  
   131   60  130 1  
   132   61  131 1  
   133   62  132 1  
   134   64  133 1  
   135   65  134 1  
   136   66  135 1  
   137   66  136 1  
   138   69  137 1  
   139   70  138 1  
   140   71  139 ar 
   141   73  140 1  
   142   74  141 1  
   143   74  142 1  
   144   74  143 1  
   145   75  144 1  
   146   75  145 1  
   147   75  146 1  
@<TRIPOS>SUBSTRUCTURE
     1 BEZ         1

