4utn_ligand
  -I-interpret- 

149150  0  0  0  0  0  0  0  0999 V2000
   32.9030   26.3060   12.4040 C   0  0  0  0  0
   33.1120   27.4320   11.9510 O   0  0  0  0  0
   33.5860   25.9080   13.5520 C   0  0  0  0  0
   34.5620   24.9140   13.4860 C   0  0  0  0  0
   35.2540   24.5210   14.6190 C   0  0  0  0  0
   34.9290   25.1430   15.8160 C   0  0  0  0  0
   33.9510   26.1360   15.8920 C   0  0  0  0  0
   33.2770   26.5260   14.7530 C   0  0  0  0  0
   32.0570   25.3760   11.8760 N   0  0  0  0  0
   31.1600   25.5520   10.6990 C   0  0  0  0  0
   31.5580   24.5480    9.6430 C   0  0  0  0  0
   32.7250   24.1590    9.4950 O   0  0  0  0  0
   30.5370   24.1550    8.8870 N   0  0  0  0  0
   30.5960   23.0050    8.0030 C   0  0  0  0  0
   31.4590   23.3180    6.8030 C   0  0  0  0  0
   31.4020   24.3990    6.2540 O   0  0  0  0  0
   29.1890   22.5870    7.5130 C   0  0  0  0  0
   29.2700   21.3320    6.6440 C   0  0  0  0  0
   28.2750   22.3470    8.7010 C   0  0  0  0  0
   32.2470   22.3440    6.3900 N   0  0  0  0  0
   33.1730   22.5440    5.3080 C   0  0  0  0  0
   32.5180   22.0190    4.0480 C   0  0  0  0  0
   32.1960   20.8320    3.9520 O   0  0  0  0  0
   34.4740   21.7960    5.5900 C   0  0  0  0  0
   35.7290   22.4410    5.0070 C   0  0  0  0  0
   36.5180   23.1770    6.0770 C   0  0  0  0  0
   36.5780   21.3870    4.3030 C   0  0  0  0  0
   32.3440   21.2710    1.3780 C   0  0  0  0  0
   32.2950   22.9320    3.1050 N   0  0  0  0  0
   33.5490   21.1020    1.3360 O   0  0  0  0  0
   31.7590   22.6210    1.7790 C   0  0  0  0  0
   32.1150   23.8030    0.8280 C   0  0  0  0  0
   31.0810   23.8590   -1.5000 C   0  0  0  0  0
   31.8330   24.6310   -2.5830 C   0  0  0  0  0
   32.2780   23.4370   -0.6400 C   0  0  0  0  0
   29.9920   25.5380   -5.8190 C   0  0  0  0  0
   31.1720   26.4570   -6.2710 C   0  0  0  0  0
   31.1670   26.7570   -7.7610 C   0  0  0  0  0
   30.7200   24.6060   -4.8190 C   0  0  0  0  0
   31.0320   23.4560   -5.1320 O   0  0  0  0  0
   30.9970   25.1850   -3.6300 N   0  0  0  0  0
   31.6430   27.8610   -8.0760 O   0  0  0  0  0
   30.7180   25.9300   -8.5830 O   0  0  0  0  0
   31.4630   20.3050    1.1640 N   0  0  0  0  0
   31.8030   18.9670    0.6550 C   0  0  0  0  0
   32.6360   18.0850    1.6080 C   0  0  0  0  0
   33.2230   17.0550    1.2080 O   0  0  0  0  0
   32.3830   19.0600   -0.7610 C   0  0  0  0  0
   31.2640   18.9270   -1.7860 C   0  0  0  0  0
   31.7340   18.9790   -3.2140 C   0  0  0  0  0
   32.7140   18.2770   -3.5540 O   0  0  0  0  0
   31.1160   19.7360   -3.9990 O   0  0  0  0  0
   32.6030   18.4740    2.8840 N   0  0  0  0  0
   33.4040   17.8600    3.9260 C   0  0  0  0  0
   34.9340   17.9050    3.6760 C   0  0  0  0  0
   35.6600   17.1030    4.2590 O   0  0  0  0  0
   32.9620   16.4110    4.1150 C   0  0  0  0  0
   31.4520   16.1730    4.2590 C   0  0  0  0  0
   30.6670   16.9140    5.1600 C   0  0  0  0  0
   30.8240   15.1520    3.5320 C   0  0  0  0  0
   29.3050   16.6620    5.2900 C   0  0  0  0  0
   29.4740   14.8920    3.6690 C   0  0  0  0  0
   28.7240   15.6450    4.5380 C   0  0  0  0  0
   27.4000   15.3500    4.6400 O   0  0  0  0  0
   35.4190   18.8330    2.8390 N   0  0  0  0  0
   36.8350   18.9140    2.4540 C   0  0  0  0  0
   37.3360   17.9350    1.3930 C   0  0  0  0  0
   38.4980   18.0100    0.9990 O   0  0  0  0  0
   36.4850   17.0230    0.9190 N   0  0  0  0  0
   36.9030   16.0230   -0.0890 C   0  0  0  0  0
   37.2200   16.6780   -1.4370 C   0  0  0  0  0
   36.3190   16.9920   -2.2210 O   0  0  0  0  0
   35.8260   14.9250   -0.3010 C   0  0  0  0  0
   36.1990   13.9850   -1.4620 C   0  0  0  0  0
   35.6120   14.1460    0.9910 C   0  0  0  0  0
   38.4199   16.9001   -1.7510 O   0  0  0  0  0
   34.7830   24.4401   12.5296 H   0  0  0  0  0
   36.0250   23.7520   14.5724 H   0  0  0  0  0
   35.4534   24.8472   16.7246 H   0  0  0  0  0
   33.7201   26.6026   16.8496 H   0  0  0  0  0
   32.5161   27.3052   14.7971 H   0  0  0  0  0
   32.0359   24.4650   12.3344 H   0  0  0  0  0
   31.2541   26.5643   10.3060 H   0  0  0  0  0
   30.1226   25.3929   10.9932 H   0  0  0  0  0
   29.6687   24.6884    8.9304 H   0  0  0  0  0
   31.0247   22.1795    8.5712 H   0  0  0  0  0
   28.7784   23.3953    6.9079 H   0  0  0  0  0
   29.9005   21.5317    5.7775 H   0  0  0  0  0
   29.6979   20.5157    7.2259 H   0  0  0  0  0
   28.2692   21.0569    6.3111 H   0  0  0  0  0
   28.6895   21.5529    9.3221 H   0  0  0  0  0
   28.1939   23.2629    9.2863 H   0  0  0  0  0
   27.2876   22.0534    8.3447 H   0  0  0  0  0
   32.1987   21.4330    6.8461 H   0  0  0  0  0
   33.4161   23.6005    5.1945 H   0  0  0  0  0
   34.3797   20.8147    5.1250 H   0  0  0  0  0
   34.6010   21.7829    6.6725 H   0  0  0  0  0
   35.4290   23.1846    4.2687 H   0  0  0  0  0
   35.8955   23.9586    6.5126 H   0  0  0  0  0
   36.8173   22.4738    6.8542 H   0  0  0  0  0
   37.4051   23.6247    5.6291 H   0  0  0  0  0
   36.8686   20.6185    5.0193 H   0  0  0  0  0
   35.9992   20.9346    3.4977 H   0  0  0  0  0
   37.4707   21.8574    3.8907 H   0  0  0  0  0
   32.5104   23.9057    3.3193 H   0  0  0  0  0
   30.6738   22.5259    1.7427 H   0  0  0  0  0
   33.0786   24.1891    1.1603 H   0  0  0  0  0
   31.2836   24.5058    0.8820 H   0  0  0  0  0
   30.4612   23.0392   -1.8631 H   0  0  0  0  0
   30.3133   24.4281   -0.9757 H   0  0  0  0  0
   32.5108   23.9240   -3.0614 H   0  0  0  0  0
   32.3202   25.4723   -2.0901 H   0  0  0  0  0
   32.3663   22.3524   -0.7037 H   0  0  0  0  0
   33.1575   23.9594   -1.0164 H   0  0  0  0  0
   29.4999   25.0128   -6.6376 H   0  0  0  0  0
   29.1485   26.0781   -5.3889 H   0  0  0  0  0
   32.1011   25.9341   -6.0443 H   0  0  0  0  0
   31.0697   27.4059   -5.7445 H   0  0  0  0  0
   30.5784   26.0980   -3.4522 H   0  0  0  0  0
   30.4045   25.1529   -8.1146 H   0  0  0  0  0
   30.4828   20.5021    1.3657 H   0  0  0  0  0
   30.8611   18.4211    0.6002 H   0  0  0  0  0
   33.1046   18.2565   -0.9086 H   0  0  0  0  0
   32.8745   20.0248   -0.8868 H   0  0  0  0  0
   30.5872   19.7684   -1.6372 H   0  0  0  0  0
   30.7995   17.9528   -1.6335 H   0  0  0  0  0
   30.4049   20.1742   -3.5258 H   0  0  0  0  0
   31.9828   19.2424    3.1398 H   0  0  0  0  0
   33.2317   18.4513    4.8253 H   0  0  0  0  0
   33.4123   16.0759    5.0494 H   0  0  0  0  0
   33.2681   15.8805    3.2134 H   0  0  0  0  0
   31.1307   17.6945    5.7633 H   0  0  0  0  0
   31.4147   14.5490    2.8424 H   0  0  0  0  0
   28.6986   17.2554    5.9743 H   0  0  0  0  0
   29.0075   14.0943    3.0909 H   0  0  0  0  0
   27.1883   14.6248    4.0476 H   0  0  0  0  0
   34.7718   19.5183    2.4492 H   0  0  0  0  0
   37.3981   18.6802    3.3575 H   0  0  0  0  0
   36.9648   19.9062    2.0217 H   0  0  0  0  0
   35.5235   17.0148    1.2594 H   0  0  0  0  0
   37.8065   15.5578    0.3051 H   0  0  0  0  0
   34.8898   15.4129   -0.5722 H   0  0  0  0  0
   36.2885   14.5633   -2.3816 H   0  0  0  0  0
   37.1497   13.4988   -1.2431 H   0  0  0  0  0
   35.4220   13.2298   -1.5804 H   0  0  0  0  0
   36.5490   13.6762    1.2900 H   0  0  0  0  0
   35.2798   14.8277    1.7740 H   0  0  0  0  0
   34.8546   13.3788    0.8300 H   0  0  0  0  0
   38.9953   16.6018   -1.0428 H   0  0  0  0  0
  1  2  2  0  0  0
  1  3  1  0  0  0
  9  1  1  0  0  0
  3  4  4  0  0  0
  3  8  4  0  0  0
  4  5  4  0  0  0
  5  6  4  0  0  0
  7  6  4  0  0  0
  8  7  4  0  0  0
 10  9  1  0  0  0
 11 10  1  0  0  0
 11 12  2  0  0  0
 13 11  1  0  0  0
 14 13  1  0  0  0
 15 14  1  0  0  0
 14 17  1  0  0  0
 15 16  2  0  0  0
 20 15  1  0  0  0
 17 18  1  0  0  0
 17 19  1  0  0  0
 21 20  1  0  0  0
 22 21  1  0  0  0
 21 24  1  0  0  0
 22 23  2  0  0  0
 29 22  1  0  0  0
 24 25  1  0  0  0
 25 26  1  0  0  0
 25 27  1  0  0  0
 28 30  2  0  0  0
 31 28  1  0  0  0
 28 44  1  0  0  0
 31 29  1  0  0  0
 32 31  1  0  0  0
 35 32  1  0  0  0
 34 33  1  0  0  0
 33 35  1  0  0  0
 41 34  1  0  0  0
 36 37  1  0  0  0
 39 36  1  0  0  0
 37 38  1  0  0  0
 38 42  2  0  0  0
 38 43  1  0  0  0
 39 40  2  0  0  0
 39 41  1  0  0  0
 44 45  1  0  0  0
 45 46  1  0  0  0
 45 48  1  0  0  0
 46 47  2  0  0  0
 46 53  1  0  0  0
 48 49  1  0  0  0
 49 50  1  0  0  0
 50 51  2  0  0  0
 50 52  1  0  0  0
 53 54  1  0  0  0
 54 55  1  0  0  0
 54 57  1  0  0  0
 55 56  2  0  0  0
 55 65  1  0  0  0
 57 58  1  0  0  0
 58 59  4  0  0  0
 58 60  4  0  0  0
 59 61  4  0  0  0
 60 62  4  0  0  0
 61 63  4  0  0  0
 62 63  4  0  0  0
 63 64  1  0  0  0
 65 66  1  0  0  0
 66 67  1  0  0  0
 67 68  2  0  0  0
 67 69  1  0  0  0
 69 70  1  0  0  0
 70 71  1  0  0  0
 70 73  1  0  0  0
 71 72  2  0  0  0
 73 74  1  0  0  0
 73 75  1  0  0  0
 71 76  1  0  0  0
  4 77  1  0  0  0
  5 78  1  0  0  0
  6 79  1  0  0  0
  7 80  1  0  0  0
  8 81  1  0  0  0
  9 82  1  0  0  0
 10 83  1  0  0  0
 10 84  1  0  0  0
 13 85  1  0  0  0
 14 86  1  0  0  0
 17 87  1  0  0  0
 18 88  1  0  0  0
 18 89  1  0  0  0
 18 90  1  0  0  0
 19 91  1  0  0  0
 19 92  1  0  0  0
 19 93  1  0  0  0
 20 94  1  0  0  0
 21 95  1  0  0  0
 24 96  1  0  0  0
 24 97  1  0  0  0
 25 98  1  0  0  0
 26 99  1  0  0  0
 26100  1  0  0  0
 26101  1  0  0  0
 27102  1  0  0  0
 27103  1  0  0  0
 27104  1  0  0  0
 29105  1  0  0  0
 31106  1  0  0  0
 32107  1  0  0  0
 32108  1  0  0  0
 33109  1  0  0  0
 33110  1  0  0  0
 34111  1  0  0  0
 34112  1  0  0  0
 35113  1  0  0  0
 35114  1  0  0  0
 36115  1  0  0  0
 36116  1  0  0  0
 37117  1  0  0  0
 37118  1  0  0  0
 41119  1  0  0  0
 43120  1  0  0  0
 44121  1  0  0  0
 45122  1  0  0  0
 48123  1  0  0  0
 48124  1  0  0  0
 49125  1  0  0  0
 49126  1  0  0  0
 52127  1  0  0  0
 53128  1  0  0  0
 54129  1  0  0  0
 57130  1  0  0  0
 57131  1  0  0  0
 59132  1  0  0  0
 60133  1  0  0  0
 61134  1  0  0  0
 62135  1  0  0  0
 64136  1  0  0  0
 65137  1  0  0  0
 66138  1  0  0  0
 66139  1  0  0  0
 69140  1  0  0  0
 70141  1  0  0  0
 73142  1  0  0  0
 74143  1  0  0  0
 74144  1  0  0  0
 74145  1  0  0  0
 75146  1  0  0  0
 75147  1  0  0  0
 75148  1  0  0  0
 76149  1  0  0  0
M  END
$$$$
