4mx9_ligand
  -I-interpret- 

 60 64  0  0  0  0  0  0  0  0999 V2000
   -2.0650  -17.6820  -29.2470 C   0  0  0  0  0
   -1.9160  -16.3840  -28.4730 C   0  0  0  0  0
   -2.9660  -16.2190  -27.4460 N   0  3  0  0  0
   -2.8470  -14.8650  -26.8830 C   0  0  0  0  0
   -4.2730  -16.2700  -28.0820 C   0  0  0  0  0
   -4.4990  -17.6150  -28.7530 C   0  0  0  0  0
   -3.4770  -17.8660  -29.8540 C   0  0  0  0  0
   -3.7350  -19.2890  -30.3600 C   0  0  0  0  0
   -2.5730  -20.1040  -30.6940 N   0  0  0  0  0
   -1.4240  -19.7530  -30.9040 N   0  0  0  0  0
   -2.7060  -21.3860  -30.8340 C   0  0  0  0  0
   -3.7800  -22.1410  -30.7110 N   0  0  0  0  0
   -3.6560  -23.4320  -30.9020 C   0  0  0  0  0
   -2.4830  -23.9670  -31.2150 N   0  0  0  0  0
   -1.4170  -23.2280  -31.3640 C   0  0  0  0  0
   -0.3040  -23.8430  -31.6730 N   0  0  0  0  0
   -1.4940  -21.8820  -31.1630 C   0  0  0  0  0
   -0.6790  -20.7930  -31.1870 C   0  0  0  0  0
    0.6440  -20.7260  -31.4840 C   0  0  0  0  0
    1.1980  -21.4930  -32.4790 C   0  0  0  0  0
    1.4420  -19.8440  -30.8190 C   0  0  0  0  0
    2.7770  -19.7320  -31.1060 C   0  0  0  0  0
    3.3150  -20.4980  -32.0900 C   0  0  0  0  0
    4.6410  -20.3890  -32.3930 C   0  0  0  0  0
    2.5290  -21.3750  -32.7690 C   0  0  0  0  0
    3.0690  -22.1470  -33.7480 C   0  0  0  0  0
    4.4040  -22.0570  -34.0620 C   0  0  0  0  0
    5.1960  -21.1720  -33.3830 C   0  0  0  0  0
    6.4860  -21.0910  -33.7040 O   0  0  0  0  0
    7.2720  -21.4580  -32.6170 C   0  0  0  0  0
    8.7580  -21.3230  -32.9100 C   0  0  0  0  0
   -1.8925  -18.5042  -28.5525 H   0  0  0  0  0
   -1.3501  -17.6619  -30.0696 H   0  0  0  0  0
   -2.0010  -15.5579  -29.1790 H   0  0  0  0  0
   -0.9497  -16.4001  -27.9689 H   0  0  0  0  0
   -2.8649  -16.9480  -26.7398 H   0  0  0  0  0
   -2.9261  -14.1312  -27.6851 H   0  0  0  0  0
   -3.6460  -14.7021  -26.1597 H   0  0  0  0  0
   -1.8811  -14.7621  -26.3886 H   0  0  0  0  0
   -4.3245  -15.4879  -28.8394 H   0  0  0  0  0
   -5.0390  -16.1258  -27.3200 H   0  0  0  0  0
   -5.4942  -17.6169  -29.1977 H   0  0  0  0  0
   -4.3973  -18.3980  -28.0015 H   0  0  0  0  0
   -3.5549  -17.1756  -30.6939 H   0  0  0  0  0
   -4.2906  -19.1739  -31.2906 H   0  0  0  0  0
   -4.2316  -19.8072  -29.5396 H   0  0  0  0  0
   -4.5299  -24.0757  -30.8021 H   0  0  0  0  0
   -0.2961  -24.8566  -31.7869 H   0  0  0  0  0
    0.5556  -23.3088  -31.8000 H   0  0  0  0  0
    0.5778  -22.1947  -33.0367 H   0  0  0  0  0
    1.0089  -19.2140  -30.0420 H   0  0  0  0  0
    3.4021  -19.0339  -30.5492 H   0  0  0  0  0
    5.2647  -19.6792  -31.8496 H   0  0  0  0  0
    2.4348  -22.8472  -34.2917 H   0  0  0  0  0
    4.8281  -22.6853  -34.8453 H   0  0  0  0  0
    7.0656  -22.5033  -32.3871 H   0  0  0  0  0
    7.0293  -20.7971  -31.7849 H   0  0  0  0  0
    9.0211  -21.9651  -33.7506 H   0  0  0  0  0
    8.9854  -20.2862  -33.1580 H   0  0  0  0  0
    9.3290  -21.6213  -32.0307 H   0  0  0  0  0
  1  2  1  0  0  0
  1  7  1  0  0  0
  2  3  1  0  0  0
  3  4  1  0  0  0
  3  5  1  0  0  0
  5  6  1  0  0  0
  6  7  1  0  0  0
  7  8  1  0  0  0
  8  9  1  0  0  0
  9 10  4  0  0  0
  9 11  4  0  0  0
 10 18  4  0  0  0
 11 12  4  0  0  0
 11 17  4  0  0  0
 12 13  4  0  0  0
 13 14  4  0  0  0
 14 15  4  0  0  0
 15 16  1  0  0  0
 15 17  4  0  0  0
 17 18  4  0  0  0
 18 19  1  0  0  0
 19 20  4  0  0  0
 19 21  4  0  0  0
 20 25  4  0  0  0
 21 22  4  0  0  0
 22 23  4  0  0  0
 23 24  4  0  0  0
 23 25  4  0  0  0
 24 28  4  0  0  0
 25 26  4  0  0  0
 26 27  4  0  0  0
 27 28  4  0  0  0
 28 29  1  0  0  0
 29 30  1  0  0  0
 30 31  1  0  0  0
  1 32  1  0  0  0
  1 33  1  0  0  0
  2 34  1  0  0  0
  2 35  1  0  0  0
  3 36  1  0  0  0
  4 37  1  0  0  0
  4 38  1  0  0  0
  4 39  1  0  0  0
  5 40  1  0  0  0
  5 41  1  0  0  0
  6 42  1  0  0  0
  6 43  1  0  0  0
  7 44  1  0  0  0
  8 45  1  0  0  0
  8 46  1  0  0  0
 13 47  1  0  0  0
 16 48  1  0  0  0
 16 49  1  0  0  0
 20 50  1  0  0  0
 21 51  1  0  0  0
 22 52  1  0  0  0
 24 53  1  0  0  0
 26 54  1  0  0  0
 27 55  1  0  0  0
 30 56  1  0  0  0
 30 57  1  0  0  0
 31 58  1  0  0  0
 31 59  1  0  0  0
 31 60  1  0  0  0
M  END
$$$$
