5fl4_ligand
  -I-interpret- 

 36 39  0  0  0  0  0  0  0  0999 V2000
    9.0410  -24.6990   59.5870 O   0  0  0  0  0
    8.9870  -26.1470   59.6370 S   0  0  0  0  0
    8.6000  -26.5610   60.9520 O   0  0  0  0  0
    7.9810  -26.8370   58.6000 N   0  0  0  0  0
   10.5160  -26.7450   59.3650 C   0  0  0  0  0
   11.9280  -25.7510   59.4290 S   0  0  0  0  0
   12.9150  -27.1290   59.1360 C   0  0  0  0  0
   12.1960  -28.3160   59.0370 C   0  0  0  0  0
   10.8010  -28.0940   59.1720 C   0  0  0  0  0
   14.3810  -26.8690   59.1260 C   0  0  0  0  0
   15.4710  -27.7270   58.9540 C   0  0  0  0  0
   16.5040  -26.8760   59.1330 N   0  0  0  0  0
   16.1060  -25.5750   59.4360 N   0  0  0  0  0
   14.7060  -25.5990   59.4400 N   0  0  0  0  0
   17.8490  -27.0340   59.0900 C   0  0  0  0  0
   18.7110  -26.1380   58.4340 C   0  0  0  0  0
   20.1100  -26.2270   58.4350 C   0  0  0  0  0
   20.7590  -27.2390   59.1210 C   0  0  0  0  0
   20.0210  -28.1800   59.8270 C   0  0  0  0  0
   18.5250  -28.1170   59.8670 C   0  0  0  0  0
   20.6920  -29.1860   60.5000 C   0  0  0  0  0
   19.9690  -30.1280   61.2190 C   0  0  0  0  0
   18.5690  -30.0810   61.2570 C   0  0  0  0  0
   17.8530  -29.0850   60.6050 C   0  0  0  0  0
    7.4316  -26.2609   57.9623 H   0  0  0  0  0
    7.8895  -27.8526   58.5771 H   0  0  0  0  0
   12.6480  -29.2947   58.8758 H   0  0  0  0  0
   10.0475  -28.8805   59.1299 H   0  0  0  0  0
   15.4837  -28.7946   58.7346 H   0  0  0  0  0
   18.2581  -25.3131   57.8839 H   0  0  0  0  0
   20.6954  -25.4883   57.8875 H   0  0  0  0  0
   21.8474  -27.2972   59.1071 H   0  0  0  0  0
   21.7802  -29.2383   60.4658 H   0  0  0  0  0
   20.4965  -30.9134   61.7603 H   0  0  0  0  0
   18.0274  -30.8463   61.8129 H   0  0  0  0  0
   16.7653  -29.0624   60.6719 H   0  0  0  0  0
  1  2  2  0  0  0
  2  3  2  0  0  0
  2  4  1  0  0  0
  2  5  1  0  0  0
  5  6  4  0  0  0
  5  9  4  0  0  0
  6  7  4  0  0  0
  7  8  4  0  0  0
  7 10  1  0  0  0
  8  9  4  0  0  0
 10 11  4  0  0  0
 10 14  4  0  0  0
 11 12  4  0  0  0
 12 13  4  0  0  0
 12 15  1  0  0  0
 13 14  4  0  0  0
 15 16  4  0  0  0
 15 20  4  0  0  0
 16 17  4  0  0  0
 17 18  4  0  0  0
 18 19  4  0  0  0
 19 20  4  0  0  0
 19 21  4  0  0  0
 20 24  4  0  0  0
 21 22  4  0  0  0
 22 23  4  0  0  0
 23 24  4  0  0  0
  4 25  1  0  0  0
  4 26  1  0  0  0
  8 27  1  0  0  0
  9 28  1  0  0  0
 11 29  1  0  0  0
 16 30  1  0  0  0
 17 31  1  0  0  0
 18 32  1  0  0  0
 21 33  1  0  0  0
 22 34  1  0  0  0
 23 35  1  0  0  0
 24 36  1  0  0  0
M  END
$$$$
