4yt6_ligand
  -I-interpret- 

 65 68  0  0  0  0  0  0  0  0999 V2000
    9.3310   34.2950   28.7430 C   0  0  0  0  0
    9.8610   33.5230   29.9000 C   0  0  0  0  0
    9.1730   34.6640   26.3590 C   0  0  0  0  0
    3.6550   34.5520   22.9310 C   0  0  0  0  0
    2.8170   33.5790   22.2640 C   0  0  0  0  0
    1.6990   36.5460   28.7330 C   0  0  0  0  0
    8.0510   36.1470   27.8720 C   0  0  0  0  0
    8.5270   35.4130   28.9390 C   0  0  0  0  0
    9.4970   39.6360   18.7660 C   0  0  0  0  0
   10.0830   38.9680   19.8160 C   0  0  0  0  0
    7.8210   36.4780   25.4900 N   0  0  0  0  0
    6.9400   37.6340   25.6170 C   0  0  0  0  0
    5.4860   37.1780   25.7310 C   0  0  0  0  0
    7.0100   38.5320   24.4190 C   0  0  0  0  0
    4.7290   37.4820   26.8530 C   0  0  0  0  0
    3.4380   37.0190   27.0380 C   0  0  0  0  0
    2.8490   36.2590   26.0370 C   0  0  0  0  0
    3.5950   35.9150   24.9180 C   0  0  0  0  0
    4.8930   36.3770   24.7570 C   0  0  0  0  0
    8.3560   35.7740   26.5700 C   0  0  0  0  0
    9.6560   33.9360   27.4350 C   0  0  0  0  0
    2.8650   37.2930   28.2620 O   0  0  0  0  0
    9.7240   34.0510   31.1370 N   0  0  0  0  0
   10.3550   32.3570   29.6630 N   0  0  0  0  0
    5.2610   38.3100   27.7730 F   0  0  0  0  0
    2.9680   34.9970   24.1040 O   0  0  0  0  0
    1.7530   36.4150   30.2240 C   0  0  0  0  0
    0.5180   37.3360   28.2730 C   0  0  0  0  0
    6.1740   39.5780   24.2330 N   0  0  0  0  0
    6.4840   40.1310   23.0270 C   0  0  0  0  0
    7.5390   39.4170   22.5360 C   0  0  0  0  0
    7.8540   38.4010   23.4120 N   0  0  0  0  0
    8.2040   39.4810   21.2260 C   0  0  0  0  0
    9.4190   38.8390   21.0210 C   0  0  0  0  0
    8.2540   40.2110   18.9280 C   0  0  0  0  0
    7.6140   40.1530   20.1570 C   0  0  0  0  0
    9.4331   34.3673   25.3429 H   0  0  0  0  0
    3.8540   35.3946   22.2688 H   0  0  0  0  0
    4.6107   34.1033   23.2018 H   0  0  0  0  0
    2.6330   32.7395   22.9344 H   0  0  0  0  0
    1.8690   34.0433   21.9923 H   0  0  0  0  0
    3.3200   33.2239   21.3646 H   0  0  0  0  0
    1.6537   35.5293   28.3427 H   0  0  0  0  0
    7.4315   37.0254   28.0525 H   0  0  0  0  0
    8.2683   35.7147   29.9539 H   0  0  0  0  0
   10.0134   39.7106   17.8090 H   0  0  0  0  0
   11.0774   38.5377   19.6968 H   0  0  0  0  0
    8.0618   36.1636   24.5500 H   0  0  0  0  0
    7.2695   38.1722   26.5057 H   0  0  0  0  0
    1.8120   35.9358   26.1286 H   0  0  0  0  0
    5.4539   36.1112   23.8610 H   0  0  0  0  0
   10.2973   33.0728   27.2569 H   0  0  0  0  0
   10.0208   33.5183   31.9546 H   0  0  0  0  0
    9.3239   34.9821   31.2526 H   0  0  0  0  0
   10.6718   31.7707   30.4352 H   0  0  0  0  0
    2.6619   35.8847   30.5082 H   0  0  0  0  0
    1.7538   37.4074   30.6749 H   0  0  0  0  0
    0.8825   35.8579   30.5703 H   0  0  0  0  0
    0.5583   38.3344   28.7086 H   0  0  0  0  0
    0.5343   37.4117   27.1858 H   0  0  0  0  0
   -0.3975   36.8365   28.5901 H   0  0  0  0  0
    5.9881   40.9758   22.5490 H   0  0  0  0  0
    9.8509   38.2301   21.8152 H   0  0  0  0  0
    7.7733   40.7123   18.0879 H   0  0  0  0  0
    6.6452   40.6352   20.2875 H   0  0  0  0  0
  1  2  1  0  0  0
  8  1  4  0  0  0
 21  1  4  0  0  0
  2 23  1  0  0  0
  2 24  2  0  0  0
 20  3  4  0  0  0
  3 21  4  0  0  0
  4  5  1  0  0  0
 26  4  1  0  0  0
 22  6  1  0  0  0
  6 27  1  0  0  0
  6 28  1  0  0  0
  7  8  4  0  0  0
 20  7  4  0  0  0
 10  9  4  0  0  0
  9 35  4  0  0  0
 34 10  4  0  0  0
 12 11  1  0  0  0
 11 20  1  0  0  0
 12 13  1  0  0  0
 14 12  1  0  0  0
 13 15  4  0  0  0
 13 19  4  0  0  0
 14 29  4  0  0  0
 32 14  4  0  0  0
 15 16  4  0  0  0
 15 25  1  0  0  0
 16 17  4  0  0  0
 16 22  1  0  0  0
 18 17  4  0  0  0
 19 18  4  0  0  0
 18 26  1  0  0  0
 30 29  4  0  0  0
 31 30  4  0  0  0
 31 32  4  0  0  0
 33 31  1  0  0  0
 33 34  4  0  0  0
 33 36  4  0  0  0
 35 36  4  0  0  0
  3 37  1  0  0  0
  4 38  1  0  0  0
  4 39  1  0  0  0
  5 40  1  0  0  0
  5 41  1  0  0  0
  5 42  1  0  0  0
  6 43  1  0  0  0
  7 44  1  0  0  0
  8 45  1  0  0  0
  9 46  1  0  0  0
 10 47  1  0  0  0
 11 48  1  0  0  0
 12 49  1  0  0  0
 17 50  1  0  0  0
 19 51  1  0  0  0
 21 52  1  0  0  0
 23 53  1  0  0  0
 23 54  1  0  0  0
 24 55  1  0  0  0
 27 56  1  0  0  0
 27 57  1  0  0  0
 27 58  1  0  0  0
 28 59  1  0  0  0
 28 60  1  0  0  0
 28 61  1  0  0  0
 30 62  1  0  0  0
 34 63  1  0  0  0
 35 64  1  0  0  0
 36 65  1  0  0  0
M  END
$$$$
