3fej_ligand
  -I-interpret- 

 51 53  0  0  0  0  0  0  0  0999 V2000
    6.7330   24.1690   17.1050 N   0  0  0  0  0
    7.0120   24.4000   15.8520 C   0  0  0  0  0
    7.6150   26.0030   15.5000 S   0  0  0  0  0
    6.9720   25.2660   17.8680 C   0  0  0  0  0
    7.4530   26.3440   17.1970 C   0  0  0  0  0
   -1.2690   28.4770   20.0010 C   0  0  0  0  0
    2.4520   27.6830   20.4590 C   0  0  0  0  0
    1.0520   28.1220   20.7880 C   0  0  0  0  0
    6.8290   23.4120   14.7980 C   0  0  0  0  0
    3.3860   28.6040   19.9710 C   0  0  0  0  0
    0.1180   28.0780   19.5730 C   0  0  0  0  0
    4.6960   28.2030   19.7420 C   0  0  0  0  0
   -1.5900   29.7030   19.9690 O   0  0  0  0  0
    2.8340   26.3560   20.6780 C   0  0  0  0  0
    7.1460   23.7110   13.4670 C   0  0  0  0  0
    6.3110   22.1470   15.1080 C   0  0  0  0  0
    6.7030   25.2430   19.3420 C   0  0  0  0  0
    5.0730   26.8850   19.9860 C   0  0  0  0  0
    6.3890   26.5540   19.7850 O   0  0  0  0  0
   -2.0470   27.5760   20.4340 O   0  0  0  0  0
    6.4030   21.5220   12.7850 C   0  0  0  0  0
    4.1440   25.9470   20.4400 C   0  0  0  0  0
    6.9340   22.7730   12.4650 C   0  0  0  0  0
    6.0980   21.2070   14.1100 C   0  0  0  0  0
    6.1080   20.3430   11.5180 Cl  0  0  0  0  0
    0.5940   28.9380   18.5370 O   0  0  0  0  0
    3.0150   30.0380   19.7160 C   0  0  0  0  0
    0.1630   28.5100   17.2480 C   0  0  0  0  0
    0.7000   29.4520   16.1700 C   0  0  0  0  0
    7.7044   27.2976   17.6612 H   0  0  0  0  0
    1.0979   29.1533   21.1380 H   0  0  0  0  0
    0.6553   27.4403   21.5403 H   0  0  0  0  0
    0.0940   27.0635   19.1751 H   0  0  0  0  0
    5.4287   28.9199   19.3714 H   0  0  0  0  0
   -0.8620   30.2139   19.6076 H   0  0  0  0  0
    2.1001   25.6351   21.0382 H   0  0  0  0  0
    7.5620   24.6867   13.2158 H   0  0  0  0  0
    6.0733   21.8995   16.1426 H   0  0  0  0  0
    7.5877   24.8836   19.8676 H   0  0  0  0  0
    5.8639   24.5786   19.5483 H   0  0  0  0  0
    4.4392   24.9109   20.6056 H   0  0  0  0  0
    7.1816   23.0129   11.4310 H   0  0  0  0  0
    5.6939   20.2260   14.3599 H   0  0  0  0  0
    2.2149   30.0790   18.9770 H   0  0  0  0  0
    2.6764   30.4952   20.6457 H   0  0  0  0  0
    3.8856   30.5760   19.3410 H   0  0  0  0  0
   -0.9265   28.5168   17.2163 H   0  0  0  0  0
    0.5400   27.5043   17.0621 H   0  0  0  0  0
    0.3296   30.4606   16.3533 H   0  0  0  0  0
    1.7896   29.4527   16.1998 H   0  0  0  0  0
    0.3623   29.1119   15.1910 H   0  0  0  0  0
  1  2  4  0  0  0
  4  1  4  0  0  0
  3  2  4  0  0  0
  2  9  1  0  0  0
  5  3  4  0  0  0
  4  5  4  0  0  0
 17  4  1  0  0  0
 11  6  1  0  0  0
  6 13  1  0  0  0
  6 20  2  0  0  0
  7  8  1  0  0  0
 10  7  4  0  0  0
  7 14  4  0  0  0
  8 11  1  0  0  0
  9 15  4  0  0  0
  9 16  4  0  0  0
 12 10  4  0  0  0
 10 27  1  0  0  0
 11 26  1  0  0  0
 18 12  4  0  0  0
 14 22  4  0  0  0
 15 23  4  0  0  0
 16 24  4  0  0  0
 19 17  1  0  0  0
 18 19  1  0  0  0
 18 22  4  0  0  0
 23 21  4  0  0  0
 21 24  4  0  0  0
 21 25  1  0  0  0
 26 28  1  0  0  0
 28 29  1  0  0  0
  5 30  1  0  0  0
  8 31  1  0  0  0
  8 32  1  0  0  0
 11 33  1  0  0  0
 12 34  1  0  0  0
 13 35  1  0  0  0
 14 36  1  0  0  0
 15 37  1  0  0  0
 16 38  1  0  0  0
 17 39  1  0  0  0
 17 40  1  0  0  0
 22 41  1  0  0  0
 23 42  1  0  0  0
 24 43  1  0  0  0
 27 44  1  0  0  0
 27 45  1  0  0  0
 27 46  1  0  0  0
 28 47  1  0  0  0
 28 48  1  0  0  0
 29 49  1  0  0  0
 29 50  1  0  0  0
 29 51  1  0  0  0
M  END
$$$$
