2a4q_ligand
  -I-interpret- 

111114  0  0  0  0  0  0  0  0999 V2000
  192.9860  -10.8280   49.0130 C   0  0  0  0  0
  193.7240  -11.4620   49.7830 O   0  0  0  0  0
  191.5090  -11.2000   48.8630 C   0  0  0  0  0
  190.5580  -10.0970   49.2930 C   0  0  0  0  0
  189.7820  -10.5070   50.5340 C   0  0  0  0  0
  190.7190  -10.8790   51.6820 C   0  0  0  0  0
  190.0190  -10.8260   53.0470 C   0  0  0  0  0
  191.0220  -10.9990   54.1960 C   0  0  0  0  0
  192.2070  -10.0870   53.9580 C   0  0  0  0  0
  193.4090   -9.7890   48.2940 N   0  0  0  0  0
  194.8010   -9.3410   48.3130 C   0  0  0  0  0
  195.1160   -8.4430   47.0790 C   0  0  0  0  0
  196.6030   -8.0670   47.0370 C   0  0  0  0  0
  194.7680   -9.1630   45.7660 C   0  0  0  0  0
  196.9810   -7.2480   45.8060 C   0  0  0  0  0
  195.1120   -8.3570   44.5160 C   0  0  0  0  0
  196.5920   -7.9790   44.5160 C   0  0  0  0  0
  195.1730   -8.5600   49.5680 C   0  0  0  0  0
  194.7560   -7.4090   49.7270 O   0  0  0  0  0
  195.9490   -9.1750   50.4580 N   0  0  0  0  0
  196.3830   -8.4810   51.6700 C   0  0  0  0  0
  196.9300   -9.4680   52.7150 C   0  0  0  0  0
  195.8820  -10.3760   53.2880 C   0  0  0  0  0
  194.5900   -9.9270   53.4550 C   0  0  0  0  0
  196.1560  -11.7150   53.5530 C   0  0  0  0  0
  195.1340  -12.5810   53.9630 C   0  0  0  0  0
  193.8280  -12.0980   54.1050 C   0  0  0  0  0
  193.5710  -10.7580   53.8560 C   0  0  0  0  0
  197.4550   -7.4790   51.2490 C   0  0  0  0  0
  198.5180   -7.8590   50.7480 O   0  0  0  0  0
  197.1500   -6.1960   51.4110 N   0  0  0  0  0
  198.0850   -5.1400   51.0290 C   0  0  0  0  0
  197.4300   -4.1650   50.0330 C   0  0  0  0  0
  196.2500   -4.7390   49.2410 C   0  0  0  0  0
  196.2400   -4.3280   47.7790 C   0  0  0  0  0
  199.6330   -5.4240   52.9160 O   0  0  0  0  0
  198.8470   -4.4360   52.2250 C   0  0  0  0  0
  199.5520   -2.5090   51.0500 O   0  0  0  0  0
  201.2350   -3.8430   51.6840 N   0  0  0  0  0
  201.9030   -4.7740   50.7850 C   0  0  0  0  0
  202.7950   -4.1820   49.7130 C   0  0  0  0  0
  202.4930   -4.2970   48.5260 O   0  0  0  0  0
  199.9440   -3.5270   51.6050 C   0  0  0  0  0
  203.8820   -3.5380   50.1400 N   0  0  0  0  0
  204.8790   -2.9110   49.2620 C   0  0  0  0  0
  204.4660   -2.1550   47.9310 C   0  0  0  0  0
  204.2650   -2.6600   46.6090 C   0  0  0  0  0
  204.3310   -0.7520   48.0750 C   0  0  0  0  0
  203.9560   -1.8410   45.5110 C   0  0  0  0  0
  204.0240    0.0860   46.9960 C   0  0  0  0  0
  203.8380   -0.4640   45.7140 C   0  0  0  0  0
  206.0760   -3.8210   48.9680 C   0  0  0  0  0
  205.9150   -4.9370   48.4530 O   0  0  0  0  0
  207.2210   -3.4490   49.2560 O   0  0  0  0  0
  191.3220  -12.0613   49.5043 H   0  0  0  0  0
  191.3267  -11.3953   47.8063 H   0  0  0  0  0
  189.8525   -9.9061   48.4844 H   0  0  0  0  0
  191.1374   -9.2022   49.5204 H   0  0  0  0  0
  189.1733  -11.3774   50.2890 H   0  0  0  0  0
  189.1658   -9.6653   50.8499 H   0  0  0  0  0
  191.5392  -10.1612   51.6948 H   0  0  0  0  0
  191.0644  -11.8999   51.5189 H   0  0  0  0  0
  189.2925  -11.6371   53.0958 H   0  0  0  0  0
  189.5362   -9.8544   53.1516 H   0  0  0  0  0
  191.3582  -12.0350   54.2374 H   0  0  0  0  0
  190.5450  -10.7423   55.1419 H   0  0  0  0  0
  192.2590   -9.4272   54.8241 H   0  0  0  0  0
  192.0322   -9.6102   52.9936 H   0  0  0  0  0
  192.7387   -9.2888   47.7101 H   0  0  0  0  0
  195.3926  -10.2562   48.2914 H   0  0  0  0  0
  194.5081   -7.5439   47.1797 H   0  0  0  0  0
  197.1773   -8.9930   47.0070 H   0  0  0  0  0
  196.8151   -7.4589   47.9164 H   0  0  0  0  0
  193.6908   -9.3297   45.7607 H   0  0  0  0  0
  195.3528  -10.0822   45.7329 H   0  0  0  0  0
  198.0600   -7.0937   45.8076 H   0  0  0  0  0
  196.4486   -6.2976   45.8424 H   0  0  0  0  0
  194.5132   -7.4463   44.5051 H   0  0  0  0  0
  194.9003   -8.9620   43.6344 H   0  0  0  0  0
  197.1830   -8.8920   44.4432 H   0  0  0  0  0
  196.7805   -7.3161   43.6715 H   0  0  0  0  0
  196.2431  -10.1377   50.2933 H   0  0  0  0  0
  195.5413   -7.9724   52.1400 H   0  0  0  0  0
  197.3393   -8.8808   53.5371 H   0  0  0  0  0
  197.6697  -10.0950   52.2173 H   0  0  0  0  0
  194.3684   -8.8772   53.2626 H   0  0  0  0  0
  197.1725  -12.0921   53.4407 H   0  0  0  0  0
  195.3552  -13.6279   54.1708 H   0  0  0  0  0
  193.0225  -12.7670   54.4077 H   0  0  0  0  0
  196.2458   -5.9433   51.8097 H   0  0  0  0  0
  198.9039   -5.6380   50.5099 H   0  0  0  0  0
  198.1963   -3.8985   49.3051 H   0  0  0  0  0
  197.0393   -3.3333   50.6192 H   0  0  0  0  0
  195.3356   -4.3558   49.6940 H   0  0  0  0  0
  196.3324   -5.8254   49.2741 H   0  0  0  0  0
  196.1818   -3.2418   47.7086 H   0  0  0  0  0
  197.1546   -4.6760   47.2988 H   0  0  0  0  0
  195.3765   -4.7722   47.2839 H   0  0  0  0  0
  200.1000   -5.0077   53.6442 H   0  0  0  0  0
  198.1231   -3.9232   52.8583 H   0  0  0  0  0
  201.7905   -3.4061   52.4195 H   0  0  0  0  0
  201.1067   -5.2947   50.2531 H   0  0  0  0  0
  202.5575   -5.3760   51.4153 H   0  0  0  0  0
  204.0316   -3.4765   51.1471 H   0  0  0  0  0
  205.1203   -2.0799   49.9247 H   0  0  0  0  0
  204.3561   -3.7338   46.4451 H   0  0  0  0  0
  204.4711   -0.3091   49.0610 H   0  0  0  0  0
  203.8111   -2.2712   44.5200 H   0  0  0  0  0
  203.9294    1.1611   47.1485 H   0  0  0  0  0
  203.6003    0.1887   44.8740 H   0  0  0  0  0
  204.9801   -5.0807   48.2892 H   0  0  0  0  0
  1  2  2  0  0  0
  1  3  1  0  0  0
 10  1  1  0  0  0
  3  4  1  0  0  0
  4  5  1  0  0  0
  6  5  1  0  0  0
  7  6  1  0  0  0
  8  7  1  0  0  0
  9  8  1  0  0  0
 28  9  1  0  0  0
 11 10  1  0  0  0
 11 12  1  0  0  0
 18 11  1  0  0  0
 12 13  1  0  0  0
 12 14  1  0  0  0
 13 15  1  0  0  0
 14 16  1  0  0  0
 15 17  1  0  0  0
 16 17  1  0  0  0
 18 19  2  0  0  0
 20 18  1  0  0  0
 21 20  1  0  0  0
 21 22  1  0  0  0
 29 21  1  0  0  0
 22 23  1  0  0  0
 23 24  4  0  0  0
 23 25  4  0  0  0
 24 28  4  0  0  0
 25 26  4  0  0  0
 26 27  4  0  0  0
 28 27  4  0  0  0
 29 30  2  0  0  0
 31 29  1  0  0  0
 32 31  1  0  0  0
 32 33  1  0  0  0
 37 32  1  0  0  0
 33 34  1  0  0  0
 34 35  1  0  0  0
 37 36  1  0  0  0
 43 37  1  0  0  0
 43 38  2  0  0  0
 39 40  1  0  0  0
 39 43  1  0  0  0
 40 41  1  0  0  0
 41 42  2  0  0  0
 41 44  1  0  0  0
 44 45  1  0  0  0
 45 46  1  0  0  0
 45 52  1  0  0  0
 46 47  4  0  0  0
 46 48  4  0  0  0
 47 49  4  0  0  0
 48 50  4  0  0  0
 49 51  4  0  0  0
 50 51  4  0  0  0
 52 53  1  0  0  0
 52 54  2  0  0  0
  3 55  1  0  0  0
  3 56  1  0  0  0
  4 57  1  0  0  0
  4 58  1  0  0  0
  5 59  1  0  0  0
  5 60  1  0  0  0
  6 61  1  0  0  0
  6 62  1  0  0  0
  7 63  1  0  0  0
  7 64  1  0  0  0
  8 65  1  0  0  0
  8 66  1  0  0  0
  9 67  1  0  0  0
  9 68  1  0  0  0
 10 69  1  0  0  0
 11 70  1  0  0  0
 12 71  1  0  0  0
 13 72  1  0  0  0
 13 73  1  0  0  0
 14 74  1  0  0  0
 14 75  1  0  0  0
 15 76  1  0  0  0
 15 77  1  0  0  0
 16 78  1  0  0  0
 16 79  1  0  0  0
 17 80  1  0  0  0
 17 81  1  0  0  0
 20 82  1  0  0  0
 21 83  1  0  0  0
 22 84  1  0  0  0
 22 85  1  0  0  0
 24 86  1  0  0  0
 25 87  1  0  0  0
 26 88  1  0  0  0
 27 89  1  0  0  0
 31 90  1  0  0  0
 32 91  1  0  0  0
 33 92  1  0  0  0
 33 93  1  0  0  0
 34 94  1  0  0  0
 34 95  1  0  0  0
 35 96  1  0  0  0
 35 97  1  0  0  0
 35 98  1  0  0  0
 36 99  1  0  0  0
 37100  1  0  0  0
 39101  1  0  0  0
 40102  1  0  0  0
 40103  1  0  0  0
 44104  1  0  0  0
 45105  1  0  0  0
 47106  1  0  0  0
 48107  1  0  0  0
 49108  1  0  0  0
 50109  1  0  0  0
 51110  1  0  0  0
 53111  1  0  0  0
M  END
$$$$
