3zpq_ligand
  -I-interpret- 

 30 32  0  0  0  0  0  0  0  0999 V2000
  -23.2730  -13.1210   25.4160 C   0  0  0  0  0
  -24.5210  -13.4610   24.7220 C   0  0  0  0  0
  -25.4270  -12.3120   24.8520 N   0  3  0  0  0
  -24.9050  -11.1550   24.1290 C   0  0  0  0  0
  -23.5970  -10.6470   24.6480 C   0  0  0  0  0
  -22.7090  -11.7700   25.0810 N   0  0  0  0  0
  -21.3810  -11.5560   25.2700 C   0  0  0  0  0
  -20.7630  -11.9770   26.3940 C   0  0  0  0  0
  -21.1960  -12.6190   27.4870 C   0  0  0  0  0
  -20.1700  -12.8040   28.3160 C   0  0  0  0  0
  -19.0830  -12.2710   27.7530 N   0  0  0  0  0
  -19.4410  -11.7620   26.5690 C   0  0  0  0  0
  -18.6940  -11.1350   25.6520 C   0  0  0  0  0
  -19.2610  -10.6770   24.4790 C   0  0  0  0  0
  -20.6190  -10.8980   24.2850 C   0  0  0  0  0
  -22.5307  -13.8573   25.1080 H   0  0  0  0  0
  -23.4979  -13.1127   26.4825 H   0  0  0  0  0
  -24.9703  -14.3518   25.1610 H   0  0  0  0  0
  -24.3261  -13.6753   23.6712 H   0  0  0  0  0
  -25.5131  -12.0712   25.8394 H   0  0  0  0  0
  -26.3345  -12.5628   24.4597 H   0  0  0  0  0
  -25.6309  -10.3500   24.2431 H   0  0  0  0  0
  -24.7425  -11.4668   23.0973 H   0  0  0  0  0
  -23.7910  -10.0072   25.5089 H   0  0  0  0  0
  -23.0972  -10.0983   23.8497 H   0  0  0  0  0
  -22.2222  -12.9384   27.6687 H   0  0  0  0  0
  -20.2107  -13.3030   29.2842 H   0  0  0  0  0
  -17.6296  -10.9847   25.8326 H   0  0  0  0  0
  -18.6626  -10.1589   23.7296 H   0  0  0  0  0
  -21.0972  -10.5603   23.3655 H   0  0  0  0  0
  1  2  1  0  0  0
  1  6  1  0  0  0
  2  3  1  0  0  0
  3  4  1  0  0  0
  4  5  1  0  0  0
  5  6  1  0  0  0
  6  7  1  0  0  0
  7  8  4  0  0  0
  7 15  4  0  0  0
  8  9  4  0  0  0
  8 12  4  0  0  0
  9 10  4  0  0  0
 10 11  4  0  0  0
 11 12  4  0  0  0
 12 13  4  0  0  0
 13 14  4  0  0  0
 14 15  4  0  0  0
  1 16  1  0  0  0
  1 17  1  0  0  0
  2 18  1  0  0  0
  2 19  1  0  0  0
  3 20  1  0  0  0
  3 21  1  0  0  0
  4 22  1  0  0  0
  4 23  1  0  0  0
  5 24  1  0  0  0
  5 25  1  0  0  0
  9 26  1  0  0  0
 10 27  1  0  0  0
 13 28  1  0  0  0
 14 29  1  0  0  0
 15 30  1  0  0  0
M  END
$$$$
