2fxr_ligand
  -I-interpret- 

 79 83  0  0  0  0  0  0  0  0999 V2000
    1.8100   18.3770   71.4840 C   0  0  0  0  0
   -0.3230   21.1540   70.4240 C   0  0  0  0  0
    3.0780   18.5930   71.1310 C   0  0  0  0  0
    0.7880   19.4620   71.6510 C   0  0  0  0  0
    0.6050   20.1570   70.3700 O   0  0  0  0  0
   -0.9670   21.4720   71.4340 O   0  0  0  0  0
   -1.4500   22.8230   68.9160 C   0  0  0  0  0
   -0.8320   23.9540   68.0420 C   0  0  0  0  0
   -0.4670   21.7330   69.1890 N   0  0  0  0  0
    0.3650   24.6560   68.7080 C   0  0  0  0  0
    0.9390   25.7870   67.8480 C   0  0  0  0  0
    1.5810   25.3580   66.5290 C   0  0  0  0  0
    2.5060   26.5180   66.1730 C   0  0  0  0  0
    2.5690   27.3610   67.4060 N   0  3  0  0  0
    2.0770   26.5030   68.5210 C   0  0  0  0  0
   -2.7390   22.1420   68.2560 C   0  0  0  0  0
   -3.6200   23.0780   67.8580 O   0  0  0  0  0
   -3.4040   21.2530   69.2830 C   0  0  0  0  0
   -4.4300   21.6110   70.0820 N   0  0  0  0  0
   -4.6540   20.4510   70.8580 O   0  0  0  0  0
   -3.7340   19.5200   70.4390 C   0  0  0  0  0
   -3.7360   18.1920   71.1030 C   0  0  0  0  0
   -5.0430   17.4360   70.9940 C   0  0  0  0  0
   -6.1540   17.7660   71.8320 C   0  0  0  0  0
   -7.3720   17.0500   71.7300 C   0  0  0  0  0
   -7.5070   15.9820   70.7870 C   0  0  0  0  0
   -6.4060   15.6450   69.9410 C   0  0  0  0  0
   -5.1880   16.3680   70.0470 C   0  0  0  0  0
   -8.7910   15.2530   70.7270 C   0  0  0  0  0
   -9.6270   15.4580   71.5750 O   0  0  0  0  0
   -8.9480   14.3600   69.6820 N   0  0  0  0  0
  -10.1290   13.5440   69.4380 C   0  0  0  0  0
  -10.1320   12.8710   68.0460 C   0  0  0  0  0
  -11.0750   11.7360   68.2690 C   0  0  0  0  0
  -11.7960   10.9820   67.3070 C   0  0  0  0  0
  -12.6400    9.9350   67.7680 C   0  0  0  0  0
  -12.7540    9.6580   69.1690 C   0  0  0  0  0
  -12.0230   10.4260   70.1250 C   0  0  0  0  0
  -11.1880   11.4610   69.6590 C   0  0  0  0  0
  -10.3290   12.3960   70.4630 C   0  0  0  0  0
   -2.9480   19.9570   69.4800 N   0  0  0  0  0
    1.4971   17.3482   71.6622 H   0  0  0  0  0
    3.4264   19.6089   70.9447 H   0  0  0  0  0
    3.7658   17.7536   71.0288 H   0  0  0  0  0
    1.1282   20.1710   72.4057 H   0  0  0  0  0
   -0.1592   19.0257   71.9683 H   0  0  0  0  0
   -1.7416   23.3241   69.8390 H   0  0  0  0  0
   -1.6055   24.7049   67.8813 H   0  0  0  0  0
   -0.4735   23.4976   67.1193 H   0  0  0  0  0
    0.1228   21.4048   68.4243 H   0  0  0  0  0
    1.1501   23.9140   68.8534 H   0  0  0  0  0
    0.0192   25.0906   69.6459 H   0  0  0  0  0
    0.0461   26.3908   67.6857 H   0  0  0  0  0
    0.8404   25.1672   65.7523 H   0  0  0  0  0
    2.1186   24.4141   66.6194 H   0  0  0  0  0
    2.1329   27.0824   65.3184 H   0  0  0  0  0
    3.4940   26.1676   65.8743 H   0  0  0  0  0
    1.9975   28.2001   67.3076 H   0  0  0  0  0
    3.5202   27.6842   67.5826 H   0  0  0  0  0
    2.8351   25.8377   68.9343 H   0  0  0  0  0
    1.7841   27.0599   69.4110 H   0  0  0  0  0
   -2.4242   21.5610   67.3891 H   0  0  0  0  0
   -4.3845   22.6500   67.4656 H   0  0  0  0  0
   -3.5563   18.3661   72.1639 H   0  0  0  0  0
   -2.9761   17.5873   70.6081 H   0  0  0  0  0
   -6.0627   18.5759   72.5558 H   0  0  0  0  0
   -8.2113   17.3140   72.3735 H   0  0  0  0  0
   -6.5004   14.8359   69.2168 H   0  0  0  0  0
   -4.3510   16.1076   69.3992 H   0  0  0  0  0
   -8.1713   14.2653   69.0276 H   0  0  0  0  0
  -10.9353   14.2724   69.5236 H   0  0  0  0  0
   -9.1435   12.5585   67.7093 H   0  0  0  0  0
  -10.4338   13.5380   67.2385 H   0  0  0  0  0
  -11.7051   11.1998   66.2429 H   0  0  0  0  0
  -13.2042    9.3390   67.0507 H   0  0  0  0  0
  -13.4055    8.8527   69.5084 H   0  0  0  0  0
  -12.1088   10.2165   71.1912 H   0  0  0  0  0
  -10.7745   12.7121   71.4062 H   0  0  0  0  0
   -9.4009   11.9518   70.8228 H   0  0  0  0  0
  1  3  2  0  0  0
  4  1  1  0  0  0
  2  5  1  0  0  0
  2  6  2  0  0  0
  9  2  1  0  0  0
  5  4  1  0  0  0
  7  8  1  0  0  0
  7  9  1  0  0  0
  7 16  1  0  0  0
  8 10  1  0  0  0
 10 11  1  0  0  0
 11 12  1  0  0  0
 11 15  1  0  0  0
 12 13  1  0  0  0
 13 14  1  0  0  0
 14 15  1  0  0  0
 16 17  1  0  0  0
 16 18  1  0  0  0
 18 19  4  0  0  0
 18 41  4  0  0  0
 19 20  4  0  0  0
 20 21  4  0  0  0
 21 22  1  0  0  0
 21 41  4  0  0  0
 22 23  1  0  0  0
 23 24  4  0  0  0
 23 28  4  0  0  0
 24 25  4  0  0  0
 25 26  4  0  0  0
 26 27  4  0  0  0
 26 29  1  0  0  0
 27 28  4  0  0  0
 29 30  2  0  0  0
 29 31  1  0  0  0
 31 32  1  0  0  0
 32 33  1  0  0  0
 32 40  1  0  0  0
 33 34  1  0  0  0
 34 35  4  0  0  0
 34 39  4  0  0  0
 35 36  4  0  0  0
 36 37  4  0  0  0
 37 38  4  0  0  0
 38 39  4  0  0  0
 39 40  1  0  0  0
  1 42  1  0  0  0
  3 43  1  0  0  0
  3 44  1  0  0  0
  4 45  1  0  0  0
  4 46  1  0  0  0
  7 47  1  0  0  0
  8 48  1  0  0  0
  8 49  1  0  0  0
  9 50  1  0  0  0
 10 51  1  0  0  0
 10 52  1  0  0  0
 11 53  1  0  0  0
 12 54  1  0  0  0
 12 55  1  0  0  0
 13 56  1  0  0  0
 13 57  1  0  0  0
 14 58  1  0  0  0
 14 59  1  0  0  0
 15 60  1  0  0  0
 15 61  1  0  0  0
 16 62  1  0  0  0
 17 63  1  0  0  0
 22 64  1  0  0  0
 22 65  1  0  0  0
 24 66  1  0  0  0
 25 67  1  0  0  0
 27 68  1  0  0  0
 28 69  1  0  0  0
 31 70  1  0  0  0
 32 71  1  0  0  0
 33 72  1  0  0  0
 33 73  1  0  0  0
 35 74  1  0  0  0
 36 75  1  0  0  0
 37 76  1  0  0  0
 38 77  1  0  0  0
 40 78  1  0  0  0
 40 79  1  0  0  0
M  END
$$$$
