1uyg_ligand
  -I-interpret- 

 35 37  0  0  0  0  0  0  0  0999 V2000
    7.6810   10.0890   22.8450 C   0  0  0  0  0
    2.2600    9.9580   25.3190 N   0  0  0  0  0
    1.0480   10.0930   25.7560 C   0  0  0  0  0
    0.5710    9.6940   26.9140 N   0  0  0  0  0
   -0.7110    9.9290   27.0940 C   0  0  0  0  0
    3.5150   10.5050   23.2700 C   0  0  0  0  0
   -1.5560   10.4980   26.2430 N   0  0  0  0  0
    0.2840   10.6970   24.8250 C   0  0  0  0  0
   -1.0660   10.8650   25.0730 C   0  0  0  0  0
   -1.9680   11.4750   24.1540 N   0  0  0  0  0
    1.0320   10.9440   23.7520 N   0  0  0  0  0
    2.2550   10.4610   24.0760 C   0  0  0  0  0
    5.7960   11.5440   23.4120 C   0  0  0  0  0
    4.4370   11.6390   23.6640 C   0  0  0  0  0
    3.9210   12.7510   24.2870 C   0  0  0  0  0
    6.6830   12.5560   23.7270 C   0  0  0  0  0
    6.1770   13.6970   24.3390 C   0  0  0  0  0
    4.8010   13.7840   24.6080 C   0  0  0  0  0
   -1.3040    9.4820   28.5200 F   0  0  0  0  0
    4.2350   14.9180   25.2610 O   0  0  0  0  0
    6.2690   10.3840   22.8050 O   0  0  0  0  0
    5.0310   16.0220   25.7110 C   0  0  0  0  0
    8.2328   10.8931   22.3581 H   0  0  0  0  0
    8.0034   10.0018   23.8826 H   0  0  0  0  0
    7.8696    9.1501   22.3245 H   0  0  0  0  0
    3.2346   10.6549   22.2274 H   0  0  0  0  0
    4.0493    9.5706   23.4418 H   0  0  0  0  0
   -2.9452   11.6111   24.4127 H   0  0  0  0  0
   -1.6365   11.7756   23.2374 H   0  0  0  0  0
    2.8591   12.8226   24.5222 H   0  0  0  0  0
    7.7456   12.4624   23.5027 H   0  0  0  0  0
    6.8424   14.5174   24.6079 H   0  0  0  0  0
    5.7636   15.6682   26.4364 H   0  0  0  0  0
    5.5463   16.4675   24.8600 H   0  0  0  0  0
    4.3863   16.7668   26.1775 H   0  0  0  0  0
 21  1  1  0  0  0
  2  3  4  0  0  0
 12  2  4  0  0  0
  3  4  4  0  0  0
  8  3  4  0  0  0
  4  5  4  0  0  0
  7  5  4  0  0  0
  5 19  1  0  0  0
  6 12  1  0  0  0
 14  6  1  0  0  0
  9  7  4  0  0  0
  8  9  4  0  0  0
 11  8  4  0  0  0
  9 10  1  0  0  0
 12 11  4  0  0  0
 13 14  4  0  0  0
 13 16  4  0  0  0
 13 21  1  0  0  0
 14 15  4  0  0  0
 15 18  4  0  0  0
 16 17  4  0  0  0
 17 18  4  0  0  0
 18 20  1  0  0  0
 20 22  1  0  0  0
  1 23  1  0  0  0
  1 24  1  0  0  0
  1 25  1  0  0  0
  6 26  1  0  0  0
  6 27  1  0  0  0
 10 28  1  0  0  0
 10 29  1  0  0  0
 15 30  1  0  0  0
 16 31  1  0  0  0
 17 32  1  0  0  0
 22 33  1  0  0  0
 22 34  1  0  0  0
 22 35  1  0  0  0
M  END
$$$$
