6ghp_ligand
  -I-interpret- 

100103  0  0  0  0  0  0  0  0999 V2000
  -23.4350  -21.0990    4.1060 C   0  0  0  0  0
  -21.5000  -20.5890    2.9020 C   0  0  0  0  0
  -20.0060  -20.3100    3.0960 C   0  0  0  0  0
  -19.3150  -21.5730    3.6070 C   0  0  0  0  0
  -17.9220  -21.4860    3.0390 C   0  0  0  0  0
  -18.1030  -20.9240    1.6200 C   0  0  0  0  0
  -18.0720  -21.9020    0.4290 C   0  0  0  0  0
  -19.4660  -22.3530    0.0680 C   0  0  0  0  0
  -17.2610  -21.5260   -0.8200 C   0  0  0  0  0
  -17.8260  -20.3180   -1.6610 C   0  0  0  0  0
  -17.6400  -20.3390   -4.0600 C   0  0  0  0  0
  -17.7590  -17.9180   -4.3350 C   0  0  0  0  0
  -18.9500  -16.9570   -4.7010 C   0  0  0  0  0
  -20.2630  -16.5380   -6.6950 C   0  0  0  0  0
  -19.3270  -15.5280   -7.3660 C   0  0  0  0  0
  -21.2140  -15.7730   -5.7680 C   0  0  0  0  0
  -21.0940  -17.2250   -7.7400 C   0  0  0  0  0
  -22.1510  -17.9620   -7.4190 C   0  0  0  0  0
  -16.7310  -17.9550   -5.4930 C   0  0  0  0  0
  -15.7990  -19.1810   -5.3460 C   0  0  0  0  0
  -16.6720  -20.4400   -5.2640 C   0  0  0  0  0
  -17.7480  -19.0760   -0.8230 C   0  0  0  0  0
  -16.6930  -18.3120   -0.4970 C   0  0  0  0  0
  -17.1550  -16.9990    0.0720 C   0  0  0  0  0
  -18.6700  -16.9540   -0.2750 C   0  0  0  0  0
  -19.0550  -18.4660   -0.2700 C   0  0  0  0  0
  -20.2070  -18.5450   -1.2650 C   0  0  0  0  0
  -19.6010  -18.9570    1.0460 C   0  0  0  0  0
  -19.3230  -20.0540    1.7610 C   0  0  0  0  0
  -15.2240  -18.5990   -0.6000 C   0  0  0  0  0
  -14.5530  -18.5800    0.7650 C   0  0  0  0  0
  -14.5560  -17.5410   -1.5100 C   0  0  0  0  0
  -12.2440  -17.0580   -2.2030 C   0  0  0  0  0
  -10.9060  -17.5540   -2.7540 C   0  0  0  0  0
  -13.2630  -17.9860   -2.0340 N   0  0  0  0  0
  -22.0590  -20.8390    4.1800 O   0  0  0  0  0
  -17.1670  -22.5860   -1.7120 O   0  0  0  0  0
  -17.0080  -20.3120   -2.8090 O   0  0  0  0  0
  -18.3970  -19.1730   -4.1560 O   0  0  0  0  0
  -19.5390  -17.4520   -5.8830 O   0  0  0  0  0
  -15.9250  -16.8270   -5.3330 O   0  0  0  0  0
  -15.0620  -19.3040   -6.5260 O   0  0  0  0  0
  -15.8650  -21.5510   -5.0860 O   0  0  0  0  0
  -19.4130  -16.2250    0.6560 O   0  0  0  0  0
  -12.4250  -15.8720   -1.9280 O   0  0  0  0  0
  -23.9434  -20.2378    3.6724 H   0  0  0  0  0
  -23.6047  -21.9755    3.4807 H   0  0  0  0  0
  -23.8227  -21.2851    5.1076 H   0  0  0  0  0
  -21.6443  -21.4498    2.2490 H   0  0  0  0  0
  -21.9886  -19.7344    2.4340 H   0  0  0  0  0
  -19.9313  -19.4595    3.7736 H   0  0  0  0  0
  -19.8315  -22.4804    3.2939 H   0  0  0  0  0
  -19.3131  -21.6297    4.6955 H   0  0  0  0  0
  -17.4297  -22.4585    3.0277 H   0  0  0  0  0
  -17.2783  -20.8492    3.6458 H   0  0  0  0  0
  -17.2205  -20.3703    1.2995 H   0  0  0  0  0
  -17.4809  -22.7270    0.8266 H   0  0  0  0  0
  -19.9844  -21.5467   -0.4509 H   0  0  0  0  0
  -19.4071  -23.2262   -0.5817 H   0  0  0  0  0
  -20.0099  -22.6107    0.9768 H   0  0  0  0  0
  -16.2989  -21.2416   -0.3939 H   0  0  0  0  0
  -18.8734  -20.3877   -1.9545 H   0  0  0  0  0
  -18.2484  -21.2419   -4.1123 H   0  0  0  0  0
  -17.1981  -17.6106   -3.4524 H   0  0  0  0  0
  -18.5895  -15.9391   -4.8496 H   0  0  0  0  0
  -19.6803  -16.9266   -3.8924 H   0  0  0  0  0
  -19.9168  -14.8147   -7.9417 H   0  0  0  0  0
  -18.7584  -14.9982   -6.6018 H   0  0  0  0  0
  -18.6421  -16.0550   -8.0303 H   0  0  0  0  0
  -20.6343  -15.2417   -5.0131 H   0  0  0  0  0
  -21.7928  -15.0583   -6.3530 H   0  0  0  0  0
  -21.8888  -16.4768   -5.2809 H   0  0  0  0  0
  -20.8224  -17.1159   -8.7900 H   0  0  0  0  0
  -22.4354  -18.0808   -6.3735 H   0  0  0  0  0
  -22.7342  -18.4482   -8.2010 H   0  0  0  0  0
  -17.2481  -17.9947   -6.4517 H   0  0  0  0  0
  -15.1621  -19.0661   -4.4690 H   0  0  0  0  0
  -17.2427  -20.5305   -6.1882 H   0  0  0  0  0
  -16.6094  -16.1523   -0.3445 H   0  0  0  0  0
  -16.9734  -16.9255    1.1443 H   0  0  0  0  0
  -18.8768  -16.4506   -1.2194 H   0  0  0  0  0
  -19.9407  -18.0009   -2.1712 H   0  0  0  0  0
  -20.4023  -19.5888   -1.5106 H   0  0  0  0  0
  -21.0989  -18.1015   -0.8223 H   0  0  0  0  0
  -20.3524  -18.3062    1.4931 H   0  0  0  0  0
  -15.1047  -19.5959   -1.0243 H   0  0  0  0  0
  -14.6813  -17.5969    1.2179 H   0  0  0  0  0
  -15.0084  -19.3375    1.4029 H   0  0  0  0  0
  -13.4901  -18.7921    0.6489 H   0  0  0  0  0
  -14.3861  -16.6444   -0.9138 H   0  0  0  0  0
  -15.2177  -17.3609   -2.3573 H   0  0  0  0  0
  -10.6896  -17.0441   -3.6928 H   0  0  0  0  0
  -10.1165  -17.3414   -2.0332 H   0  0  0  0  0
  -10.9618  -18.6287   -2.9273 H   0  0  0  0  0
  -13.1126  -18.9664   -2.2721 H   0  0  0  0  0
  -16.6550  -22.3143   -2.4773 H   0  0  0  0  0
  -15.2667  -16.8038   -6.0313 H   0  0  0  0  0
  -14.4748  -20.0604   -6.4578 H   0  0  0  0  0
  -15.2585  -21.6265   -5.8263 H   0  0  0  0  0
  -20.3377  -16.2272    0.3980 H   0  0  0  0  0
 36  1  1  0  0  0
  3  2  1  0  0  0
  2 36  1  0  0  0
  3  4  1  0  0  0
 29  3  1  0  0  0
  5  4  1  0  0  0
  6  5  1  0  0  0
  7  6  1  0  0  0
 29  6  1  0  0  0
  7  8  1  0  0  0
  9  7  1  0  0  0
 10  9  1  0  0  0
  9 37  1  0  0  0
 22 10  1  0  0  0
 10 38  1  0  0  0
 11 21  1  0  0  0
 38 11  1  0  0  0
 11 39  1  0  0  0
 12 13  1  0  0  0
 12 19  1  0  0  0
 39 12  1  0  0  0
 13 40  1  0  0  0
 14 15  1  0  0  0
 14 16  1  0  0  0
 14 17  1  0  0  0
 40 14  1  0  0  0
 17 18  2  0  0  0
 20 19  1  0  0  0
 19 41  1  0  0  0
 21 20  1  0  0  0
 20 42  1  0  0  0
 21 43  1  0  0  0
 23 22  2  0  0  0
 22 26  1  0  0  0
 23 24  1  0  0  0
 30 23  1  0  0  0
 24 25  1  0  0  0
 25 26  1  0  0  0
 25 44  1  0  0  0
 26 27  1  0  0  0
 26 28  1  0  0  0
 28 29  2  0  0  0
 30 31  1  0  0  0
 32 30  1  0  0  0
 35 32  1  0  0  0
 33 34  1  0  0  0
 33 35  1  0  0  0
 33 45  2  0  0  0
  1 46  1  0  0  0
  1 47  1  0  0  0
  1 48  1  0  0  0
  2 49  1  0  0  0
  2 50  1  0  0  0
  3 51  1  0  0  0
  4 52  1  0  0  0
  4 53  1  0  0  0
  5 54  1  0  0  0
  5 55  1  0  0  0
  6 56  1  0  0  0
  7 57  1  0  0  0
  8 58  1  0  0  0
  8 59  1  0  0  0
  8 60  1  0  0  0
  9 61  1  0  0  0
 10 62  1  0  0  0
 11 63  1  0  0  0
 12 64  1  0  0  0
 13 65  1  0  0  0
 13 66  1  0  0  0
 15 67  1  0  0  0
 15 68  1  0  0  0
 15 69  1  0  0  0
 16 70  1  0  0  0
 16 71  1  0  0  0
 16 72  1  0  0  0
 17 73  1  0  0  0
 18 74  1  0  0  0
 18 75  1  0  0  0
 19 76  1  0  0  0
 20 77  1  0  0  0
 21 78  1  0  0  0
 24 79  1  0  0  0
 24 80  1  0  0  0
 25 81  1  0  0  0
 27 82  1  0  0  0
 27 83  1  0  0  0
 27 84  1  0  0  0
 28 85  1  0  0  0
 30 86  1  0  0  0
 31 87  1  0  0  0
 31 88  1  0  0  0
 31 89  1  0  0  0
 32 90  1  0  0  0
 32 91  1  0  0  0
 34 92  1  0  0  0
 34 93  1  0  0  0
 34 94  1  0  0  0
 35 95  1  0  0  0
 37 96  1  0  0  0
 41 97  1  0  0  0
 42 98  1  0  0  0
 43 99  1  0  0  0
 44100  1  0  0  0
M  END
$$$$
