6mo2_ligand
  -I-interpret- 

 62 66  0  0  0  0  0  0  0  0999 V2000
  -56.1450   24.5070    9.2000 N   0  3  0  0  0
  -57.4140   23.9620    8.6600 C   0  0  0  0  0
  -57.5040   24.2340    7.1490 C   0  0  0  0  0
  -58.5030   23.5540    6.4040 C   0  0  0  0  0
  -58.5910   23.6910    5.0100 C   0  0  0  0  0
  -57.6930   24.6230    4.3980 C   0  0  0  0  0
  -56.7060   25.3920    5.1030 C   0  0  0  0  0
  -56.5980   25.2020    6.5630 C   0  0  0  0  0
  -57.8630   24.8420    2.9240 C   0  0  0  0  0
  -58.0350   26.1550    2.5150 N   0  0  0  0  0
  -58.2010   26.5380    1.1610 C   0  0  0  0  0
  -58.1850   25.5690    0.1880 C   0  0  0  0  0
  -58.4180   25.9610   -1.1600 O   0  0  0  0  0
  -58.6950   24.7540   -2.0500 C   0  0  0  0  0
  -57.4610   24.6890   -2.9790 C   0  0  0  0  0
  -56.9500   23.2810   -3.4780 C   0  0  0  0  0
  -55.9090   23.4070   -4.6150 C   0  0  0  0  0
  -56.4450   24.4180   -5.6410 N   0  3  0  0  0
  -56.5850   25.7760   -5.0200 C   0  0  0  0  0
  -57.8200   25.7060   -4.0780 C   0  0  0  0  0
  -58.0150   24.2340    0.5610 N   0  0  0  0  0
  -57.9070   23.8030    1.9500 C   0  0  0  0  0
  -57.6310   22.3050    2.3150 C   0  0  0  0  0
  -56.7910   21.9850    3.4210 C   0  0  0  0  0
  -56.4720   20.6060    3.6980 C   0  0  0  0  0
  -57.0080   19.5520    2.8400 C   0  0  0  0  0
  -57.7820   19.8520    1.6880 C   0  0  0  0  0
  -58.0790   21.2280    1.4280 C   0  0  0  0  0
  -56.5840   18.1320    3.2090 C   0  0  0  0  0
  -56.0080   17.2110    2.2650 C   0  0  0  0  0
  -55.7220   16.0160    3.0010 N   0  0  0  0  0
  -56.0860   16.3040    4.4010 N   0  0  0  0  0
  -56.6140   17.5890    4.5430 C   0  0  0  0  0
  -56.0956   24.3213   10.2017 H   0  0  0  0  0
  -55.3574   24.0598    8.7309 H   0  0  0  0  0
  -56.1122   25.5134    9.0375 H   0  0  0  0  0
  -58.2530   24.4444    9.1613 H   0  0  0  0  0
  -57.4439   22.8862    8.8326 H   0  0  0  0  0
  -59.2150   22.9135    6.9244 H   0  0  0  0  0
  -59.3073   23.1165    4.4226 H   0  0  0  0  0
  -56.0578   26.0931    4.5772 H   0  0  0  0  0
  -55.8789   25.7572    7.1653 H   0  0  0  0  0
  -58.3393   27.5861    0.8956 H   0  0  0  0  0
  -59.6275   24.8536   -2.6055 H   0  0  0  0  0
  -58.8305   23.8376   -1.4756 H   0  0  0  0  0
  -56.5523   24.9321   -2.4283 H   0  0  0  0  0
  -57.8060   22.7259   -3.8617 H   0  0  0  0  0
  -56.4748   22.7752   -2.6375 H   0  0  0  0  0
  -55.7502   22.4383   -5.0888 H   0  0  0  0  0
  -54.9540   23.7475   -4.2148 H   0  0  0  0  0
  -57.3607   24.1065   -5.9648 H   0  0  0  0  0
  -55.7898   24.4769   -6.4205 H   0  0  0  0  0
  -56.7197   26.5421   -5.7836 H   0  0  0  0  0
  -55.6862   26.0459   -4.4655 H   0  0  0  0  0
  -58.0464   26.6833   -3.6518 H   0  0  0  0  0
  -58.7135   25.3995   -4.6218 H   0  0  0  0  0
  -56.3920   22.7778    4.0538 H   0  0  0  0  0
  -55.8336   20.3512    4.5440 H   0  0  0  0  0
  -58.1373   19.0628    1.0254 H   0  0  0  0  0
  -58.6579   21.4832    0.5404 H   0  0  0  0  0
  -55.8262   17.3871    1.2048 H   0  0  0  0  0
  -56.9678   18.0708    5.4545 H   0  0  0  0  0
  1  2  1  0  0  0
  2  3  1  0  0  0
  3  4  4  0  0  0
  3  8  4  0  0  0
  4  5  4  0  0  0
  5  6  4  0  0  0
  6  7  4  0  0  0
  6  9  1  0  0  0
  7  8  4  0  0  0
  9 10  4  0  0  0
  9 22  4  0  0  0
 10 11  4  0  0  0
 11 12  4  0  0  0
 12 13  1  0  0  0
 12 21  4  0  0  0
 13 14  1  0  0  0
 14 15  1  0  0  0
 15 16  1  0  0  0
 15 20  1  0  0  0
 16 17  1  0  0  0
 17 18  1  0  0  0
 18 19  1  0  0  0
 19 20  1  0  0  0
 21 22  4  0  0  0
 22 23  1  0  0  0
 23 24  4  0  0  0
 23 28  4  0  0  0
 24 25  4  0  0  0
 25 26  4  0  0  0
 26 27  4  0  0  0
 26 29  1  0  0  0
 27 28  4  0  0  0
 29 30  4  0  0  0
 29 33  4  0  0  0
 30 31  4  0  0  0
 31 32  4  0  0  0
 32 33  4  0  0  0
  1 34  1  0  0  0
  1 35  1  0  0  0
  1 36  1  0  0  0
  2 37  1  0  0  0
  2 38  1  0  0  0
  4 39  1  0  0  0
  5 40  1  0  0  0
  7 41  1  0  0  0
  8 42  1  0  0  0
 11 43  1  0  0  0
 14 44  1  0  0  0
 14 45  1  0  0  0
 15 46  1  0  0  0
 16 47  1  0  0  0
 16 48  1  0  0  0
 17 49  1  0  0  0
 17 50  1  0  0  0
 18 51  1  0  0  0
 18 52  1  0  0  0
 19 53  1  0  0  0
 19 54  1  0  0  0
 20 55  1  0  0  0
 20 56  1  0  0  0
 24 57  1  0  0  0
 25 58  1  0  0  0
 27 59  1  0  0  0
 28 60  1  0  0  0
 30 61  1  0  0  0
 33 62  1  0  0  0
M  END
$$$$
