4cd4_ligand
  -I-interpret- 

 45 46  0  0  0  0  0  0  0  0999 V2000
   12.2490   20.3440   15.0440 C   0  0  0  0  0
   13.4370   19.9450   15.8790 C   0  0  0  0  0
   13.0320   20.0210   17.3450 C   0  0  0  0  0
   12.5690   21.4380   17.6640 C   0  0  0  0  0
   11.4970   21.9160   16.6740 C   0  0  0  0  0
   11.1680   23.4010   16.8460 C   0  0  0  0  0
   14.5570   20.8140   15.6450 O   0  0  0  0  0
   14.1650   19.6440   18.1680 O   0  0  0  0  0
   12.0170   21.4980   18.9910 O   0  0  0  0  0
   11.9380   21.7260   15.3170 O   0  0  0  0  0
   12.3170   24.2210   16.7040 O   0  0  0  0  0
   12.6400   20.3480   13.6860 O   0  0  0  0  0
   11.7210   19.9690   12.6670 C   0  0  0  0  0
   10.4140   20.7680   12.7210 C   0  0  0  0  0
    9.5900   20.3610   13.8230 O   0  0  0  0  0
    9.5740   20.5150   11.4610 C   0  0  0  0  0
   10.3440   20.7780   10.2380 N   0  3  0  0  0
   11.5380   19.9470   10.1570 C   0  0  0  0  0
   12.4360   20.2670   11.3490 C   0  0  0  0  0
   13.7650   19.5290   11.2240 C   0  0  0  0  0
   13.6060   18.1080   11.2230 O   0  0  0  0  0
   11.4216   19.6667   15.2555 H   0  0  0  0  0
   13.7399   18.9333   15.6091 H   0  0  0  0  0
   12.2097   19.3357   17.5506 H   0  0  0  0  0
   13.4427   22.0852   17.5871 H   0  0  0  0  0
   10.6072   21.3223   16.8832 H   0  0  0  0  0
   10.7675   23.5470   17.8492 H   0  0  0  0  0
   10.4514   23.6825   16.0744 H   0  0  0  0  0
   14.8110   20.7649   14.7205 H   0  0  0  0  0
   14.4358   18.7498   17.9475 H   0  0  0  0  0
   12.6753   21.2019   19.6239 H   0  0  0  0  0
   12.0682   25.1411   16.8186 H   0  0  0  0  0
   11.4432   18.9217   12.7854 H   0  0  0  0  0
   10.7040   21.8144   12.8159 H   0  0  0  0  0
    8.7826   20.8803   13.8263 H   0  0  0  0  0
    8.7149   21.1856   11.4787 H   0  0  0  0  0
    9.2654   19.4696   11.4563 H   0  0  0  0  0
   10.6353   21.7555   10.2480 H   0  0  0  0  0
    9.7515   20.5649    9.4355 H   0  0  0  0  0
   12.0692   20.1503    9.2271 H   0  0  0  0  0
   11.2588   18.8935   10.1750 H   0  0  0  0  0
   12.6579   21.3342   11.3499 H   0  0  0  0  0
   14.3801   19.7974   12.0829 H   0  0  0  0  0
   14.2208   19.8165   10.2765 H   0  0  0  0  0
   14.4669   17.6909   11.1427 H   0  0  0  0  0
  1  2  1  0  0  0
  1 10  1  0  0  0
  1 12  1  0  0  0
  2  3  1  0  0  0
  2  7  1  0  0  0
  3  4  1  0  0  0
  3  8  1  0  0  0
  4  5  1  0  0  0
  4  9  1  0  0  0
  5  6  1  0  0  0
  5 10  1  0  0  0
  6 11  1  0  0  0
 12 13  1  0  0  0
 13 14  1  0  0  0
 13 19  1  0  0  0
 14 15  1  0  0  0
 14 16  1  0  0  0
 16 17  1  0  0  0
 17 18  1  0  0  0
 18 19  1  0  0  0
 19 20  1  0  0  0
 20 21  1  0  0  0
  1 22  1  0  0  0
  2 23  1  0  0  0
  3 24  1  0  0  0
  4 25  1  0  0  0
  5 26  1  0  0  0
  6 27  1  0  0  0
  6 28  1  0  0  0
  7 29  1  0  0  0
  8 30  1  0  0  0
  9 31  1  0  0  0
 11 32  1  0  0  0
 13 33  1  0  0  0
 14 34  1  0  0  0
 15 35  1  0  0  0
 16 36  1  0  0  0
 16 37  1  0  0  0
 17 38  1  0  0  0
 17 39  1  0  0  0
 18 40  1  0  0  0
 18 41  1  0  0  0
 19 42  1  0  0  0
 20 43  1  0  0  0
 20 44  1  0  0  0
 21 45  1  0  0  0
M  END
$$$$
