### 
### Created by X-TOOL on Mon Sep 10 21:13:25 2018
### 

@<TRIPOS>MOLECULE
5aer_ligand
  254   256     1     0     0
SMALL
GAST_HUCK


@<TRIPOS>ATOM
      1 N           0.2180   28.6160  -34.8450 N.4       1 ASN         0.2396
      2 CA         -0.1090   30.0670  -34.8230 C.3       1 ASN         0.0818
      3 C          -0.6120   30.4760  -33.4400 C.2       1 ASN         0.2291
      4 O          -1.5750   29.9090  -32.9300 O.2       1 ASN        -0.3905
      5 CB         -1.1550   30.3830  -35.8980 C.3       1 ASN         0.0972
      6 CG         -1.6230   31.8210  -35.8460 C.2       1 ASN         0.1813
      7 OD1        -2.2830   32.2280  -34.9010 O.2       1 ASN        -0.3969
      8 ND2        -1.2890   32.5960  -36.8690 N.am      1 ASN        -0.3006
      9 N           0.0380   31.4600  -32.8310 N.am      1 ILE        -0.2606
     10 CA         -0.2800   31.8060  -31.4540 C.3       1 ILE         0.1336
     11 C          -1.6860   32.4120  -31.3020 C.2       1 ILE         0.2042
     12 O          -2.3220   32.2340  -30.2640 O.2       1 ILE        -0.3944
     13 CB          0.7950   32.7260  -30.8170 C.3       1 ILE        -0.0037
     14 CG1         0.6770   32.6900  -29.2870 C.3       1 ILE        -0.0491
     15 CG2         0.6790   34.1520  -31.3310 C.3       1 ILE        -0.0582
     16 CD1         1.6970   33.5360  -28.5470 C.3       1 ILE        -0.0648
     17 N          -2.1800   33.1100  -32.3200 N.am      1 GLU        -0.2636
     18 CA         -3.5210   33.7050  -32.2280 C.3       1 GLU         0.1325
     19 C          -4.6150   32.6440  -32.3710 C.2       1 GLU         0.2041
     20 O          -5.6620   32.7350  -31.7230 O.2       1 GLU        -0.3944
     21 CB         -3.7140   34.8310  -33.2500 C.3       1 GLU        -0.0008
     22 CG         -2.8870   36.0810  -32.9540 C.3       1 GLU         0.0044
     23 CD         -3.4770   36.9600  -31.8590 C.2       1 GLU         0.0350
     24 OE1        -4.7150   37.0140  -31.7220 O.co2     1 GLU        -0.5690
     25 OE2        -2.7020   37.6420  -31.1580 O.co2     1 GLU        -0.5690
     26 N          -4.3730   31.6370  -33.2050 N.am      1 PHE        -0.2619
     27 CA         -5.2680   30.4820  -33.2670 C.3       1 PHE         0.1404
     28 C          -5.2680   29.7370  -31.9330 C.2       1 PHE         0.2060
     29 O          -6.3220   29.4350  -31.3830 O.2       1 PHE        -0.3942
     30 CB         -4.8600   29.5250  -34.3870 C.3       1 PHE         0.0214
     31 CG         -5.4840   28.1600  -34.2710 C.ar      1 PHE        -0.0386
     32 CD1        -6.7680   27.9250  -34.7430 C.ar      1 PHE        -0.0601
     33 CD2        -4.8010   27.1210  -33.6590 C.ar      1 PHE        -0.0601
     34 CE1        -7.3470   26.6750  -34.6270 C.ar      1 PHE        -0.0686
     35 CE2        -5.3710   25.8650  -33.5520 C.ar      1 PHE        -0.0686
     36 CZ         -6.6470   25.6430  -34.0350 C.ar      1 PHE        -0.0687
     37 N          -4.0760   29.4250  -31.4320 N.am      1 ARG        -0.2636
     38 CA         -3.9220   28.6960  -30.1620 C.3       1 ARG         0.1311
     39 C          -4.5220   29.4640  -28.9990 C.2       1 ARG         0.2039
     40 O          -5.2160   28.8990  -28.1580 O.2       1 ARG        -0.3944
     41 CB         -2.4470   28.4290  -29.8830 C.3       1 ARG        -0.0092
     42 CG         -1.8320   27.4110  -30.8240 C.3       1 ARG        -0.0156
     43 CD         -0.3530   27.2100  -30.5440 C.3       1 ARG         0.0627
     44 NE          0.2650   26.4180  -31.5960 N.pl3     1 ARG        -0.2723
     45 CZ          1.3550   25.6760  -31.4460 C.cat     1 ARG         0.2882
     46 NH1         1.9690   25.5980  -30.2760 N.pl3     1 ARG        -0.2849
     47 NH2         1.8210   24.9900  -32.4730 N.pl3     1 ARG        -0.2849
     48 N          -4.2740   30.7660  -28.9720 N.am      1 LYS        -0.2637
     49 CA         -4.8640   31.6240  -27.9630 C.3       1 LYS         0.1310
     50 C          -6.4020   31.6130  -28.0490 C.2       1 LYS         0.2039
     51 O          -7.0920   31.5610  -27.0240 O.2       1 LYS        -0.3944
     52 CB         -4.3130   33.0390  -28.1190 C.3       1 LYS        -0.0122
     53 CG         -4.7050   33.9980  -27.0190 C.3       1 LYS        -0.0440
     54 CD         -3.7220   35.1590  -26.9300 C.3       1 LYS        -0.0124
     55 CE         -3.5850   35.9010  -28.2550 C.3       1 LYS        -0.0354
     56 NZ         -3.0200   37.2730  -28.0760 N.4       1 LYS         0.2185
     57 N          -6.9380   31.6290  -29.2670 N.am      1 ALA        -0.2640
     58 CA         -8.3870   31.6910  -29.4500 C.3       1 ALA         0.1282
     59 C          -9.0670   30.4690  -28.8420 C.2       1 ALA         0.2037
     60 O         -10.0800   30.5970  -28.1590 O.2       1 ALA        -0.3944
     61 CB         -8.7580   31.8240  -30.9190 C.3       1 ALA        -0.0244
     62 N          -8.5230   29.2820  -29.0620 N.am      1 PHE        -0.2619
     63 CA         -9.2210   28.1190  -28.5550 C.3       1 PHE         0.1404
     64 C          -8.9790   27.8960  -27.0600 C.2       1 PHE         0.2060
     65 O          -9.8720   27.4360  -26.3610 O.2       1 PHE        -0.3942
     66 CB         -8.9860   26.8710  -29.4260 C.3       1 PHE         0.0214
     67 CG         -7.7940   26.0430  -29.0450 C.ar      1 PHE        -0.0386
     68 CD1        -7.8630   25.1540  -27.9820 C.ar      1 PHE        -0.0601
     69 CD2        -6.6890   25.9910  -29.8740 C.ar      1 PHE        -0.0601
     70 CE1        -6.7940   24.3280  -27.6730 C.ar      1 PHE        -0.0686
     71 CE2        -5.6190   25.1590  -29.5780 C.ar      1 PHE        -0.0686
     72 CZ         -5.6670   24.3300  -28.4740 C.ar      1 PHE        -0.0687
     73 N          -7.8150   28.2910  -26.5550 N.am      1 LEU        -0.2636
     74 CA         -7.5710   28.2370  -25.1160 C.3       1 LEU         0.1312
     75 C          -8.5060   29.1960  -24.3630 C.2       1 LEU         0.2039
     76 O          -8.9610   28.8860  -23.2640 O.2       1 LEU        -0.3944
     77 CB         -6.1070   28.5530  -24.7900 C.3       1 LEU        -0.0101
     78 CG         -5.0880   27.4660  -25.1230 C.3       1 LEU        -0.0425
     79 CD1        -3.6790   27.9360  -24.7980 C.3       1 LEU        -0.0625
     80 CD2        -5.3930   26.1770  -24.3870 C.3       1 LEU        -0.0625
     81 N          -8.8130   30.3370  -24.9790 N.am      1 LYS        -0.2637
     82 CA         -9.7280   31.3100  -24.4010 C.3       1 LYS         0.1310
     83 C         -11.1210   30.7290  -24.2440 C.2       1 LYS         0.2039
     84 O         -11.7690   30.9380  -23.2160 O.2       1 LYS        -0.3944
     85 CB         -9.7870   32.5780  -25.2500 C.3       1 LYS        -0.0122
     86 CG         -8.6860   33.5590  -24.9040 C.3       1 LYS        -0.0440
     87 CD         -8.7070   34.7850  -25.8000 C.3       1 LYS        -0.0124
     88 CE         -9.5730   35.8910  -25.2270 C.3       1 LYS        -0.0354
     89 NZ         -9.4760   37.1140  -26.0730 N.4       1 LYS         0.2185
     90 N         -11.5820   30.0160  -25.2680 N.am      1 ILE        -0.2635
     91 CA        -12.8610   29.3260  -25.1930 C.3       1 ILE         0.1335
     92 C         -12.8780   28.3550  -24.0060 C.2       1 ILE         0.2042
     93 O         -13.8740   28.2480  -23.2990 O.2       1 ILE        -0.3944
     94 CB        -13.1770   28.5810  -26.5040 C.3       1 ILE        -0.0037
     95 CG1       -13.5580   29.5890  -27.5930 C.3       1 ILE        -0.0491
     96 CG2       -14.2880   27.5600  -26.2810 C.3       1 ILE        -0.0582
     97 CD1       -13.8250   28.9740  -28.9500 C.3       1 ILE        -0.0648
     98 N         -11.7610   27.6830  -23.7560 N.am      1 LEU        -0.2637
     99 CA        -11.7010   26.7240  -22.6610 C.3       1 LEU         0.1312
    100 C         -11.5440   27.3890  -21.2950 C.2       1 LEU         0.2040
    101 O         -12.1060   26.9060  -20.3120 O.2       1 LEU        -0.3944
    102 CB        -10.5360   25.7470  -22.8790 C.3       1 LEU        -0.0101
    103 CG        -10.5920   24.8980  -24.1530 C.3       1 LEU        -0.0425
    104 CD1        -9.3300   24.0630  -24.2860 C.3       1 LEU        -0.0625
    105 CD2       -11.8190   23.9930  -24.1630 C.3       1 LEU        -0.0625
    106 N         -10.7590   28.4690  -21.2230 N.am      1 HIS        -0.2625
    107 CA        -10.2450   28.9710  -19.9290 C.3       1 HIS         0.1369
    108 C         -10.4650   30.4310  -19.6260 C.2       1 HIS         0.2049
    109 O         -10.1060   30.8840  -18.5410 O.2       1 HIS        -0.3943
    110 CB         -8.7340   28.7430  -19.8400 C.3       1 HIS         0.0145
    111 CG         -8.3410   27.3130  -19.9890 C.2       1 HIS        -0.0027
    112 ND1        -8.6910   26.3510  -19.0700 N.2       1 HIS        -0.3252
    113 CD2        -7.6590   26.6730  -20.9660 C.2       1 HIS         0.0291
    114 CE1        -8.2420   25.1760  -19.4750 C.2       1 HIS         0.0907
    115 NE2        -7.6070   25.3450  -20.6200 N.pl3     1 HIS        -0.2752
    116 N         -10.9690   31.1920  -20.5910 N.am      1 SER        -0.2671
    117 CA        -11.0580   32.6370  -20.4140 C.3       1 SER         0.1173
    118 C         -12.4860   33.1180  -20.5730 C.2       1 SER         0.0623
    119 O         -12.7450   33.9570  -21.4260 O.co2     1 SER        -0.5665
    120 CB        -10.1380   33.3570  -21.4090 C.3       1 SER         0.0789
    121 OG        -10.0310   34.7310  -21.0910 O.3       1 SER        -0.3910
    122 OXT       -13.3890   32.7050  -19.8430 O.co2     1 SER        -0.5665
    123 H1          0.5483   28.3599  -35.7623 H         1 ASN         0.2017
    124 H2         -0.6079   28.0820  -34.6241 H         1 ASN         0.2017
    125 H3          0.9353   28.4228  -34.1636 H         1 ASN         0.2017
    126 H4          0.8049   30.6375  -35.0449 H         1 ASN         0.1125
    127 H5         -2.0232   29.7239  -35.7500 H         1 ASN         0.0585
    128 H6         -0.7134   30.1913  -36.8871 H         1 ASN         0.0585
    129 H7         -1.5734   33.5546  -36.8838 H         1 ASN         0.1814
    130 H8         -0.7528   32.2218  -37.6256 H         1 ASN         0.1814
    131 H9          0.7488   31.9653  -33.3203 H         1 ILE         0.1885
    132 H10        -0.2752   30.8651  -30.8842 H         1 ILE         0.0803
    133 H11         1.7868   32.3415  -31.0973 H         1 ILE         0.0345
    134 H12         0.7965   31.6467  -28.9596 H         1 ILE         0.0267
    135 H13        -0.3266   33.0476  -29.0132 H         1 ILE         0.0267
    136 H14         0.7661   34.1547  -32.4275 H         1 ILE         0.0235
    137 H15         1.4834   34.7645  -30.8978 H         1 ILE         0.0235
    138 H16        -0.2965   34.5686  -31.0397 H         1 ILE         0.0235
    139 H17         1.5318   33.4451  -27.4633 H         1 ILE         0.0230
    140 H18         1.5877   34.5885  -28.8475 H         1 ILE         0.0230
    141 H19         2.7107   33.1876  -28.7938 H         1 ILE         0.0230
    142 H20        -1.6374   33.2307  -33.1513 H         1 GLU         0.1883
    143 H21        -3.6166   34.1478  -31.2256 H         1 GLU         0.0801
    144 H22        -4.7772   35.1128  -33.2589 H         1 GLU         0.0330
    145 H23        -3.4267   34.4521  -34.2419 H         1 GLU         0.0330
    146 H24        -2.8151   36.6763  -33.8762 H         1 GLU         0.0433
    147 H25        -1.8805   35.7657  -32.6416 H         1 GLU         0.0433
    148 H26        -3.5683   31.6699  -33.7977 H         1 PHE         0.1885
    149 H27        -6.2870   30.8433  -33.4695 H         1 PHE         0.0823
    150 H28        -3.7662   29.4102  -34.3651 H         1 PHE         0.0474
    151 H29        -5.1633   29.9653  -35.3483 H         1 PHE         0.0474
    152 H30        -7.3234   28.7313  -35.2082 H         1 PHE         0.0557
    153 H31        -3.8084   27.2945  -33.2594 H         1 PHE         0.0557
    154 H32        -8.3503   26.5053  -35.0008 H         1 PHE         0.0599
    155 H33        -4.8175   25.0557  -33.0898 H         1 PHE         0.0599
    156 H34        -7.0970   24.6606  -33.9491 H         1 PHE         0.0559
    157 H35        -3.2554   29.6951  -31.9357 H         1 ARG         0.1883
    158 H36        -4.4454   27.7326  -30.2509 H         1 ARG         0.0800
    159 H37        -2.3487   28.0559  -28.8529 H         1 ARG         0.0313
    160 H38        -1.8958   29.3755  -29.9844 H         1 ARG         0.0313
    161 H39        -1.9544   27.7625  -31.8591 H         1 ARG         0.0301
    162 H40        -2.3524   26.4499  -30.6992 H         1 ARG         0.0301
    163 H41        -0.2348   26.6888  -29.5826 H         1 ARG         0.0689
    164 H42         0.1417   28.1911  -30.4925 H         1 ARG         0.0689
    165 H43        -0.1762   26.4343  -32.5266 H         1 ARG         0.2642
    166 H44         2.8141   25.0178  -30.1755 H         1 ARG         0.2615
    167 H45         1.6017   26.1175  -29.4660 H         1 ARG         0.2615
    168 H46         1.3485   25.0457  -33.3865 H         1 ARG         0.2615
    169 H47         2.6571   24.3990  -32.3608 H         1 ARG         0.2615
    170 H48        -3.6683   31.1641  -29.6609 H         1 LYS         0.1883
    171 H49        -4.5750   31.2450  -26.9716 H         1 LYS         0.0800
    172 H50        -4.6792   33.4453  -29.0734 H         1 LYS         0.0312
    173 H51        -3.2150   32.9776  -28.1438 H         1 LYS         0.0312
    174 H52        -4.7142   33.4603  -26.0594 H         1 LYS         0.0269
    175 H53        -5.7102   34.3931  -27.2276 H         1 LYS         0.0269
    176 H54        -2.7360   34.7669  -26.6401 H         1 LYS         0.0317
    177 H55        -4.0757   35.8646  -26.1639 H         1 LYS         0.0317
    178 H56        -4.5788   35.9846  -28.7190 H         1 LYS         0.0813
    179 H57        -2.9190   35.3268  -28.9158 H         1 LYS         0.0813
    180 H58        -2.9469   37.7260  -28.9735 H         1 LYS         0.1994
    181 H59        -2.1055   37.2078  -27.6571 H         1 LYS         0.1994
    182 H60        -3.6265   37.8106  -27.4768 H         1 LYS         0.1994
    183 H61        -6.3409   31.5982  -30.0686 H         1 ALA         0.1883
    184 H62        -8.7555   32.5841  -28.9242 H         1 ALA         0.0797
    185 H63        -9.8526   31.8676  -31.0182 H         1 ALA         0.0277
    186 H64        -8.3739   30.9556  -31.4743 H         1 ALA         0.0277
    187 H65        -8.3159   32.7449  -31.3269 H         1 ALA         0.0277
    188 H66        -7.6608   29.1919  -29.5605 H         1 PHE         0.1885
    189 H67       -10.2931   28.3465  -28.6488 H         1 PHE         0.0823
    190 H68        -8.8522   27.2020  -30.4664 H         1 PHE         0.0474
    191 H69        -9.8798   26.2336  -29.3561 H         1 PHE         0.0474
    192 H70        -8.7662   25.1048  -27.3845 H         1 PHE         0.0557
    193 H71        -6.6582   26.6072  -30.7653 H         1 PHE         0.0557
    194 H72        -6.8413   23.6812  -26.8044 H         1 PHE         0.0599
    195 H73        -4.7421   25.1594  -30.2153 H         1 PHE         0.0599
    196 H74        -4.8276   23.6861  -28.2375 H         1 PHE         0.0559
    197 H75        -7.0991   28.6285  -27.1662 H         1 LEU         0.1883
    198 H76        -7.7835   27.2133  -24.7741 H         1 LEU         0.0800
    199 H77        -6.0404   28.7549  -23.7108 H         1 LEU         0.0315
    200 H78        -5.8269   29.4573  -25.3502 H         1 LEU         0.0315
    201 H79        -5.1445   27.2650  -26.2030 H         1 LEU         0.0298
    202 H80        -2.9610   27.1400  -25.0446 H         1 LEU         0.0232
    203 H81        -3.6096   28.1731  -23.7261 H         1 LEU         0.0232
    204 H82        -3.4470   28.8348  -25.3882 H         1 LEU         0.0232
    205 H83        -6.4141   25.8484  -24.6307 H         1 LEU         0.0232
    206 H84        -5.3109   26.3454  -23.3031 H         1 LEU         0.0232
    207 H85        -4.6755   25.4014  -24.6930 H         1 LEU         0.0232
    208 H86        -8.4005   30.5314  -25.8690 H         1 LYS         0.1883
    209 H87        -9.3525   31.5797  -23.4029 H         1 LYS         0.0800
    210 H88       -10.7589   33.0667  -25.0872 H         1 LYS         0.0312
    211 H89        -9.6901   32.2982  -26.3094 H         1 LYS         0.0312
    212 H90        -7.7146   33.0552  -25.0160 H         1 LYS         0.0269
    213 H91        -8.8138   33.8811  -23.8600 H         1 LYS         0.0269
    214 H92        -9.1027   34.4983  -26.7855 H         1 LYS         0.0317
    215 H93        -7.6793   35.1606  -25.9126 H         1 LYS         0.0317
    216 H94        -9.2332   36.1269  -24.2077 H         1 LYS         0.0813
    217 H95       -10.6194   35.5534  -25.1958 H         1 LYS         0.0813
    218 H96       -10.0554   37.8401  -25.6816 H         1 LYS         0.1994
    219 H97        -9.7887   36.9018  -27.0075 H         1 LYS         0.1994
    220 H98        -8.5184   37.4274  -26.1021 H         1 LYS         0.1994
    221 H99       -11.0392   29.9529  -26.1055 H         1 ILE         0.1883
    222 H100      -13.6458   30.0798  -25.0321 H         1 ILE         0.0803
    223 H101      -12.2740   28.0432  -26.8285 H         1 ILE         0.0345
    224 H102      -12.7335   30.3095  -27.6983 H         1 ILE         0.0267
    225 H103      -14.4673   30.1170  -27.2699 H         1 ILE         0.0267
    226 H104      -13.9838   26.8528  -25.4953 H         1 ILE         0.0235
    227 H105      -14.4748   27.0112  -27.2159 H         1 ILE         0.0235
    228 H106      -15.2067   28.0795  -25.9710 H         1 ILE         0.0235
    229 H107      -14.0898   29.7661  -29.6658 H         1 ILE         0.0230
    230 H108      -14.6565   28.2583  -28.8710 H         1 ILE         0.0230
    231 H109      -12.9227   28.4508  -29.2994 H         1 ILE         0.0230
    232 H110      -10.9529   27.8365  -24.3247 H         1 LEU         0.1883
    233 H111      -12.6423   26.1548  -22.6580 H         1 LEU         0.0800
    234 H112      -10.5088   25.0607  -22.0198 H         1 LEU         0.0315
    235 H113       -9.6066   26.3347  -22.9085 H         1 LEU         0.0315
    236 H114      -10.6553   25.5761  -25.0168 H         1 LEU         0.0298
    237 H115       -9.3847   23.4596  -25.2041 H         1 LEU         0.0232
    238 H116       -9.2370   23.3977  -23.4150 H         1 LEU         0.0232
    239 H117       -8.4544   24.7270  -24.3353 H         1 LEU         0.0232
    240 H118      -12.7274   24.6058  -24.0663 H         1 LEU         0.0232
    241 H119      -11.7613   23.2876  -23.3209 H         1 LEU         0.0232
    242 H120      -11.8537   23.4327  -25.1090 H         1 LEU         0.0232
    243 H121      -10.5130   28.9497  -22.0647 H         1 HIS         0.1885
    244 H122      -10.7429   28.3883  -19.1400 H         1 HIS         0.0817
    245 H123       -8.3846   29.1002  -18.8600 H         1 HIS         0.0420
    246 H124       -8.2463   29.3234  -20.6370 H         1 HIS         0.0420
    247 H125       -7.2314   27.1258  -21.8593 H         1 HIS         0.0729
    248 H126       -8.3734   24.2293  -18.9530 H         1 HIS         0.1199
    249 H127       -7.1473   24.6017  -21.1652 H         1 HIS         0.2361
    250 H128      -11.2882   30.7731  -21.4411 H         1 SER         0.1876
    251 H129      -10.7240   32.8802  -19.3946 H         1 SER         0.0749
    252 H130      -10.5516   33.2528  -22.4229 H         1 SER         0.0599
    253 H131       -9.1384   32.8995  -21.3719 H         1 SER         0.0599
    254 H132      -10.8921   35.1308  -21.1250 H         1 SER         0.2096
@<TRIPOS>BOND
     1    1    2 1  
     2    2    3 1  
     3    2    5 1  
     4    3    4 2  
     5    3    9 am 
     6    5    6 1  
     7    6    7 2  
     8    6    8 am 
     9    9   10 1  
    10   10   11 1  
    11   10   13 1  
    12   11   12 2  
    13   11   17 am 
    14   13   14 1  
    15   13   15 1  
    16   14   16 1  
    17   17   18 1  
    18   18   19 1  
    19   18   21 1  
    20   19   20 2  
    21   19   26 am 
    22   21   22 1  
    23   22   23 1  
    24   23   24 ar 
    25   23   25 ar 
    26   26   27 1  
    27   27   28 1  
    28   27   30 1  
    29   28   29 2  
    30   28   37 am 
    31   30   31 1  
    32   31   32 ar 
    33   31   33 ar 
    34   32   34 ar 
    35   33   35 ar 
    36   34   36 ar 
    37   35   36 ar 
    38   37   38 1  
    39   38   39 1  
    40   38   41 1  
    41   39   40 2  
    42   39   48 am 
    43   41   42 1  
    44   42   43 1  
    45   43   44 1  
    46   44   45 ar 
    47   45   46 ar 
    48   45   47 ar 
    49   48   49 1  
    50   49   50 1  
    51   49   52 1  
    52   50   51 2  
    53   50   57 am 
    54   52   53 1  
    55   53   54 1  
    56   54   55 1  
    57   55   56 1  
    58   57   58 1  
    59   58   59 1  
    60   58   61 1  
    61   59   60 2  
    62   59   62 am 
    63   62   63 1  
    64   63   64 1  
    65   63   66 1  
    66   64   65 2  
    67   64   73 am 
    68   66   67 1  
    69   67   68 ar 
    70   67   69 ar 
    71   68   70 ar 
    72   69   71 ar 
    73   70   72 ar 
    74   71   72 ar 
    75   73   74 1  
    76   74   75 1  
    77   74   77 1  
    78   75   76 2  
    79   75   81 am 
    80   77   78 1  
    81   78   79 1  
    82   78   80 1  
    83   81   82 1  
    84   82   83 1  
    85   82   85 1  
    86   83   84 2  
    87   83   90 am 
    88   85   86 1  
    89   86   87 1  
    90   87   88 1  
    91   88   89 1  
    92   90   91 1  
    93   91   92 1  
    94   91   94 1  
    95   92   93 2  
    96   92   98 am 
    97   94   95 1  
    98   94   96 1  
    99   95   97 1  
   100   98   99 1  
   101   99  100 1  
   102   99  102 1  
   103  100  101 2  
   104  100  106 am 
   105  102  103 1  
   106  103  104 1  
   107  103  105 1  
   108  106  107 1  
   109  107  108 1  
   110  107  110 1  
   111  108  109 2  
   112  108  116 am 
   113  110  111 1  
   114  111  112 1  
   115  111  113 2  
   116  112  114 2  
   117  113  115 1  
   118  114  115 1  
   119  116  117 1  
   120  117  118 1  
   121  117  120 1  
   122  118  119 ar 
   123  118  122 ar 
   124  120  121 1  
   125    1  123 1  
   126    1  124 1  
   127    1  125 1  
   128    2  126 1  
   129    5  127 1  
   130    5  128 1  
   131    8  129 1  
   132    8  130 1  
   133    9  131 1  
   134   10  132 1  
   135   13  133 1  
   136   14  134 1  
   137   14  135 1  
   138   15  136 1  
   139   15  137 1  
   140   15  138 1  
   141   16  139 1  
   142   16  140 1  
   143   16  141 1  
   144   17  142 1  
   145   18  143 1  
   146   21  144 1  
   147   21  145 1  
   148   22  146 1  
   149   22  147 1  
   150   26  148 1  
   151   27  149 1  
   152   30  150 1  
   153   30  151 1  
   154   32  152 1  
   155   33  153 1  
   156   34  154 1  
   157   35  155 1  
   158   36  156 1  
   159   37  157 1  
   160   38  158 1  
   161   41  159 1  
   162   41  160 1  
   163   42  161 1  
   164   42  162 1  
   165   43  163 1  
   166   43  164 1  
   167   44  165 1  
   168   46  166 1  
   169   46  167 1  
   170   47  168 1  
   171   47  169 1  
   172   48  170 1  
   173   49  171 1  
   174   52  172 1  
   175   52  173 1  
   176   53  174 1  
   177   53  175 1  
   178   54  176 1  
   179   54  177 1  
   180   55  178 1  
   181   55  179 1  
   182   56  180 1  
   183   56  181 1  
   184   56  182 1  
   185   57  183 1  
   186   58  184 1  
   187   61  185 1  
   188   61  186 1  
   189   61  187 1  
   190   62  188 1  
   191   63  189 1  
   192   66  190 1  
   193   66  191 1  
   194   68  192 1  
   195   69  193 1  
   196   70  194 1  
   197   71  195 1  
   198   72  196 1  
   199   73  197 1  
   200   74  198 1  
   201   77  199 1  
   202   77  200 1  
   203   78  201 1  
   204   79  202 1  
   205   79  203 1  
   206   79  204 1  
   207   80  205 1  
   208   80  206 1  
   209   80  207 1  
   210   81  208 1  
   211   82  209 1  
   212   85  210 1  
   213   85  211 1  
   214   86  212 1  
   215   86  213 1  
   216   87  214 1  
   217   87  215 1  
   218   88  216 1  
   219   88  217 1  
   220   89  218 1  
   221   89  219 1  
   222   89  220 1  
   223   90  221 1  
   224   91  222 1  
   225   94  223 1  
   226   95  224 1  
   227   95  225 1  
   228   96  226 1  
   229   96  227 1  
   230   96  228 1  
   231   97  229 1  
   232   97  230 1  
   233   97  231 1  
   234   98  232 1  
   235   99  233 1  
   236  102  234 1  
   237  102  235 1  
   238  103  236 1  
   239  104  237 1  
   240  104  238 1  
   241  104  239 1  
   242  105  240 1  
   243  105  241 1  
   244  105  242 1  
   245  106  243 1  
   246  107  244 1  
   247  110  245 1  
   248  110  246 1  
   249  113  247 1  
   250  114  248 1  
   251  115  249 1  
   252  116  250 1  
   253  117  251 1  
   254  120  252 1  
   255  120  253 1  
   256  121  254 1  
@<TRIPOS>SUBSTRUCTURE
     1 ASN         1

