5aer_ligand
  -I-interpret- 

254256  0  0  0  0  0  0  0  0999 V2000
    0.2180   28.6160  -34.8450 N   0  3  0  0  0
   -0.1090   30.0670  -34.8230 C   0  0  0  0  0
   -0.6120   30.4760  -33.4400 C   0  0  0  0  0
   -1.5750   29.9090  -32.9300 O   0  0  0  0  0
   -1.1550   30.3830  -35.8980 C   0  0  0  0  0
   -1.6230   31.8210  -35.8460 C   0  0  0  0  0
   -2.2830   32.2280  -34.9010 O   0  0  0  0  0
   -1.2890   32.5960  -36.8690 N   0  0  0  0  0
    0.0380   31.4600  -32.8310 N   0  0  0  0  0
   -0.2800   31.8060  -31.4540 C   0  0  0  0  0
   -1.6860   32.4120  -31.3020 C   0  0  0  0  0
   -2.3220   32.2340  -30.2640 O   0  0  0  0  0
    0.7950   32.7260  -30.8170 C   0  0  0  0  0
    0.6770   32.6900  -29.2870 C   0  0  0  0  0
    0.6790   34.1520  -31.3310 C   0  0  0  0  0
    1.6970   33.5360  -28.5470 C   0  0  0  0  0
   -2.1800   33.1100  -32.3200 N   0  0  0  0  0
   -3.5210   33.7050  -32.2280 C   0  0  0  0  0
   -4.6150   32.6440  -32.3710 C   0  0  0  0  0
   -5.6620   32.7350  -31.7230 O   0  0  0  0  0
   -3.7140   34.8310  -33.2500 C   0  0  0  0  0
   -2.8870   36.0810  -32.9540 C   0  0  0  0  0
   -3.4770   36.9600  -31.8590 C   0  0  0  0  0
   -4.7150   37.0140  -31.7220 O   0  0  0  0  0
   -2.7020   37.6420  -31.1580 O   0  0  0  0  0
   -4.3730   31.6370  -33.2050 N   0  0  0  0  0
   -5.2680   30.4820  -33.2670 C   0  0  0  0  0
   -5.2680   29.7370  -31.9330 C   0  0  0  0  0
   -6.3220   29.4350  -31.3830 O   0  0  0  0  0
   -4.8600   29.5250  -34.3870 C   0  0  0  0  0
   -5.4840   28.1600  -34.2710 C   0  0  0  0  0
   -6.7680   27.9250  -34.7430 C   0  0  0  0  0
   -4.8010   27.1210  -33.6590 C   0  0  0  0  0
   -7.3470   26.6750  -34.6270 C   0  0  0  0  0
   -5.3710   25.8650  -33.5520 C   0  0  0  0  0
   -6.6470   25.6430  -34.0350 C   0  0  0  0  0
   -4.0760   29.4250  -31.4320 N   0  0  0  0  0
   -3.9220   28.6960  -30.1620 C   0  0  0  0  0
   -4.5220   29.4640  -28.9990 C   0  0  0  0  0
   -5.2160   28.8990  -28.1580 O   0  0  0  0  0
   -2.4470   28.4290  -29.8830 C   0  0  0  0  0
   -1.8320   27.4110  -30.8240 C   0  0  0  0  0
   -0.3530   27.2100  -30.5440 C   0  0  0  0  0
    0.2650   26.4180  -31.5960 N   0  0  0  0  0
    1.3550   25.6760  -31.4460 C   0  0  0  0  0
    1.9690   25.5980  -30.2760 N   0  0  0  0  0
    1.8210   24.9900  -32.4730 N   0  0  0  0  0
   -4.2740   30.7660  -28.9720 N   0  0  0  0  0
   -4.8640   31.6240  -27.9630 C   0  0  0  0  0
   -6.4020   31.6130  -28.0490 C   0  0  0  0  0
   -7.0920   31.5610  -27.0240 O   0  0  0  0  0
   -4.3130   33.0390  -28.1190 C   0  0  0  0  0
   -4.7050   33.9980  -27.0190 C   0  0  0  0  0
   -3.7220   35.1590  -26.9300 C   0  0  0  0  0
   -3.5850   35.9010  -28.2550 C   0  0  0  0  0
   -3.0200   37.2730  -28.0760 N   0  3  0  0  0
   -6.9380   31.6290  -29.2670 N   0  0  0  0  0
   -8.3870   31.6910  -29.4500 C   0  0  0  0  0
   -9.0670   30.4690  -28.8420 C   0  0  0  0  0
  -10.0800   30.5970  -28.1590 O   0  0  0  0  0
   -8.7580   31.8240  -30.9190 C   0  0  0  0  0
   -8.5230   29.2820  -29.0620 N   0  0  0  0  0
   -9.2210   28.1190  -28.5550 C   0  0  0  0  0
   -8.9790   27.8960  -27.0600 C   0  0  0  0  0
   -9.8720   27.4360  -26.3610 O   0  0  0  0  0
   -8.9860   26.8710  -29.4260 C   0  0  0  0  0
   -7.7940   26.0430  -29.0450 C   0  0  0  0  0
   -7.8630   25.1540  -27.9820 C   0  0  0  0  0
   -6.6890   25.9910  -29.8740 C   0  0  0  0  0
   -6.7940   24.3280  -27.6730 C   0  0  0  0  0
   -5.6190   25.1590  -29.5780 C   0  0  0  0  0
   -5.6670   24.3300  -28.4740 C   0  0  0  0  0
   -7.8150   28.2910  -26.5550 N   0  0  0  0  0
   -7.5710   28.2370  -25.1160 C   0  0  0  0  0
   -8.5060   29.1960  -24.3630 C   0  0  0  0  0
   -8.9610   28.8860  -23.2640 O   0  0  0  0  0
   -6.1070   28.5530  -24.7900 C   0  0  0  0  0
   -5.0880   27.4660  -25.1230 C   0  0  0  0  0
   -3.6790   27.9360  -24.7980 C   0  0  0  0  0
   -5.3930   26.1770  -24.3870 C   0  0  0  0  0
   -8.8130   30.3370  -24.9790 N   0  0  0  0  0
   -9.7280   31.3100  -24.4010 C   0  0  0  0  0
  -11.1210   30.7290  -24.2440 C   0  0  0  0  0
  -11.7690   30.9380  -23.2160 O   0  0  0  0  0
   -9.7870   32.5780  -25.2500 C   0  0  0  0  0
   -8.6860   33.5590  -24.9040 C   0  0  0  0  0
   -8.7070   34.7850  -25.8000 C   0  0  0  0  0
   -9.5730   35.8910  -25.2270 C   0  0  0  0  0
   -9.4760   37.1140  -26.0730 N   0  3  0  0  0
  -11.5820   30.0160  -25.2680 N   0  0  0  0  0
  -12.8610   29.3260  -25.1930 C   0  0  0  0  0
  -12.8780   28.3550  -24.0060 C   0  0  0  0  0
  -13.8740   28.2480  -23.2990 O   0  0  0  0  0
  -13.1770   28.5810  -26.5040 C   0  0  0  0  0
  -13.5580   29.5890  -27.5930 C   0  0  0  0  0
  -14.2880   27.5600  -26.2810 C   0  0  0  0  0
  -13.8250   28.9740  -28.9500 C   0  0  0  0  0
  -11.7610   27.6830  -23.7560 N   0  0  0  0  0
  -11.7010   26.7240  -22.6610 C   0  0  0  0  0
  -11.5440   27.3890  -21.2950 C   0  0  0  0  0
  -12.1060   26.9060  -20.3120 O   0  0  0  0  0
  -10.5360   25.7470  -22.8790 C   0  0  0  0  0
  -10.5920   24.8980  -24.1530 C   0  0  0  0  0
   -9.3300   24.0630  -24.2860 C   0  0  0  0  0
  -11.8190   23.9930  -24.1630 C   0  0  0  0  0
  -10.7590   28.4690  -21.2230 N   0  0  0  0  0
  -10.2450   28.9710  -19.9290 C   0  0  0  0  0
  -10.4650   30.4310  -19.6260 C   0  0  0  0  0
  -10.1060   30.8840  -18.5410 O   0  0  0  0  0
   -8.7340   28.7430  -19.8400 C   0  0  0  0  0
   -8.3410   27.3130  -19.9890 C   0  0  0  0  0
   -8.6910   26.3510  -19.0700 N   0  0  0  0  0
   -7.6590   26.6730  -20.9660 C   0  0  0  0  0
   -8.2420   25.1760  -19.4750 C   0  0  0  0  0
   -7.6070   25.3450  -20.6200 N   0  0  0  0  0
  -10.9690   31.1920  -20.5910 N   0  0  0  0  0
  -11.0580   32.6370  -20.4140 C   0  0  0  0  0
  -12.4860   33.1180  -20.5730 C   0  0  0  0  0
  -12.7450   33.9570  -21.4260 O   0  0  0  0  0
  -10.1380   33.3570  -21.4090 C   0  0  0  0  0
  -10.0310   34.7310  -21.0910 O   0  0  0  0  0
  -13.3890   32.7050  -19.8430 O   0  0  0  0  0
    0.9141   28.4147  -34.1272 H   0  0  0  0  0
   -0.6273   28.0754  -34.6617 H   0  0  0  0  0
    0.5906   28.3665  -35.7612 H   0  0  0  0  0
    0.7936   30.6386  -35.0388 H   0  0  0  0  0
   -2.0192   29.7416  -35.7252 H   0  0  0  0  0
   -0.6975   30.2132  -36.8727 H   0  0  0  0  0
   -1.5843   33.5721  -36.8871 H   0  0  0  0  0
   -0.7368   32.2159  -37.6378 H   0  0  0  0  0
    0.7630   31.9755  -33.3301 H   0  0  0  0  0
   -0.2769   30.8646  -30.9046 H   0  0  0  0  0
    1.7776   32.3524  -31.1052 H   0  0  0  0  0
    0.8433   31.6568  -28.9820 H   0  0  0  0  0
   -0.3056   33.0901  -29.0369 H   0  0  0  0  0
    0.8134   34.1590  -32.4127 H   0  0  0  0  0
   -0.3063   34.5471  -31.0835 H   0  0  0  0  0
    1.4470   34.7687  -30.8641 H   0  0  0  0  0
    2.7010   33.1898  -28.7924 H   0  0  0  0  0
    1.5877   34.5786  -28.8456 H   0  0  0  0  0
    1.5323   33.4451  -27.4734 H   0  0  0  0  0
   -1.6265   33.2331  -33.1679 H   0  0  0  0  0
   -3.6076   34.1440  -31.2341 H   0  0  0  0  0
   -4.7642   35.1213  -33.2193 H   0  0  0  0  0
   -3.3911   34.4496  -34.2187 H   0  0  0  0  0
   -2.8556   36.6750  -33.8674 H   0  0  0  0  0
   -1.9061   35.7498  -32.6131 H   0  0  0  0  0
   -1.7953   37.4596  -31.4153 H   0  0  0  0  0
   -3.5522   31.6705  -33.8096 H   0  0  0  0  0
   -6.2718   30.8519  -33.4758 H   0  0  0  0  0
   -3.7792   29.3961  -34.3290 H   0  0  0  0  0
   -5.1980   29.9599  -35.3276 H   0  0  0  0  0
   -7.3265   28.7358  -35.2107 H   0  0  0  0  0
   -3.8029   27.2955  -33.2572 H   0  0  0  0  0
   -8.3558   26.5044  -35.0028 H   0  0  0  0  0
   -4.8144   25.0512  -33.0872 H   0  0  0  0  0
   -7.0995   24.6551  -33.9486 H   0  0  0  0  0
   -3.2390   29.7005  -31.9457 H   0  0  0  0  0
   -4.4565   27.7513  -30.2614 H   0  0  0  0  0
   -2.3704   28.0304  -28.8714 H   0  0  0  0  0
   -1.9112   29.3684  -30.0188 H   0  0  0  0  0
   -1.9419   27.7764  -31.8450 H   0  0  0  0  0
   -2.3416   26.4582  -30.6802 H   0  0  0  0  0
   -0.2416   26.6849  -29.5953 H   0  0  0  0  0
    0.1341   28.1843  -30.5034 H   0  0  0  0  0
   -0.1719   26.4341  -32.5175 H   0  0  0  0  0
    2.7965   25.0107  -30.1724 H   0  0  0  0  0
    1.6147   26.1252  -29.4779 H   0  0  0  0  0
    1.3439   25.0326  -33.3735 H   0  0  0  0  0
   -3.6561   31.1721  -29.6747 H   0  0  0  0  0
   -4.5976   31.2449  -26.9764 H   0  0  0  0  0
   -4.7236   33.4375  -29.0467 H   0  0  0  0  0
   -3.2262   32.9592  -28.0961 H   0  0  0  0  0
   -4.6998   33.4621  -26.0698 H   0  0  0  0  0
   -5.6961   34.3952  -27.2383 H   0  0  0  0  0
   -2.7446   34.7561  -26.6644 H   0  0  0  0  0
   -4.0942   35.8619  -26.1847 H   0  0  0  0  0
   -4.5777   35.9971  -28.6948 H   0  0  0  0  0
   -2.9064   35.3347  -28.8929 H   0  0  0  0  0
   -2.9465   37.7303  -28.9848 H   0  0  0  0  0
   -3.6346   37.8160  -27.4695 H   0  0  0  0  0
   -2.0947   37.2057  -27.6520 H   0  0  0  0  0
   -6.3290   31.5975  -30.0846 H   0  0  0  0  0
   -8.7416   32.5809  -28.9300 H   0  0  0  0  0
   -8.3193   32.7368  -31.3220 H   0  0  0  0  0
   -8.3768   30.9630  -31.4681 H   0  0  0  0  0
   -9.8428   31.8671  -31.0160 H   0  0  0  0  0
   -7.6436   29.1901  -29.5705 H   0  0  0  0  0
  -10.2882   28.3249  -28.6370 H   0  0  0  0  0
   -8.8095   27.2260  -30.4413 H   0  0  0  0  0
   -9.8621   26.2341  -29.3040 H   0  0  0  0  0
   -8.7712   25.1046  -27.3812 H   0  0  0  0  0
   -6.6580   26.6106  -30.7702 H   0  0  0  0  0
   -6.8416   23.6776  -26.7996 H   0  0  0  0  0
   -4.7373   25.1594  -30.2188 H   0  0  0  0  0
   -4.8230   23.6825  -28.2362 H   0  0  0  0  0
   -7.0848   28.6353  -27.1785 H   0  0  0  0  0
   -7.7815   27.2201  -24.7848 H   0  0  0  0  0
   -6.0603   28.6912  -23.7098 H   0  0  0  0  0
   -5.8401   29.4156  -25.4006 H   0  0  0  0  0
   -5.1556   27.2673  -26.1926 H   0  0  0  0  0
   -3.4504   28.8266  -25.3834 H   0  0  0  0  0
   -3.6116   28.1707  -23.7357 H   0  0  0  0  0
   -2.9685   27.1465  -25.0428 H   0  0  0  0  0
   -5.3668   26.3587  -23.3126 H   0  0  0  0  0
   -6.3833   25.8225  -24.6728 H   0  0  0  0  0
   -4.6475   25.4259  -24.6481 H   0  0  0  0  0
   -8.3923   30.5353  -25.8868 H   0  0  0  0  0
   -9.3466   31.5672  -23.4128 H   0  0  0  0  0
  -10.7435   33.0653  -25.0609 H   0  0  0  0  0
   -9.6649   32.2898  -26.2941 H   0  0  0  0  0
   -7.7287   33.0560  -25.0402 H   0  0  0  0  0
   -8.8360   33.8880  -23.8757 H   0  0  0  0  0
   -9.1192   34.4946  -26.7663 H   0  0  0  0  0
   -7.6876   35.1607  -25.8884 H   0  0  0  0  0
   -9.2293   36.1266  -24.2198 H   0  0  0  0  0
  -10.6098   35.5555  -25.2037 H   0  0  0  0  0
  -10.0626   37.8480  -25.6760 H   0  0  0  0  0
   -8.5066   37.4301  -26.1017 H   0  0  0  0  0
   -9.7926   36.8981  -27.0183 H   0  0  0  0  0
  -11.0283   29.9517  -26.1222 H   0  0  0  0  0
  -13.6361   30.0775  -25.0427 H   0  0  0  0  0
  -12.2904   28.0388  -26.8328 H   0  0  0  0  0
  -12.7128   30.2672  -27.7103 H   0  0  0  0  0
  -14.4820   30.0708  -27.2732 H   0  0  0  0  0
  -13.9702   26.8375  -25.5292 H   0  0  0  0  0
  -15.1868   28.0722  -25.9376 H   0  0  0  0  0
  -14.4981   27.0432  -27.2174 H   0  0  0  0  0
  -12.9303   28.4559  -29.2951 H   0  0  0  0  0
  -14.6491   28.2650  -28.8704 H   0  0  0  0  0
  -14.0873   29.7598  -29.6584 H   0  0  0  0  0
  -10.9368   27.8395  -24.3361 H   0  0  0  0  0
  -12.6528   26.1929  -22.6619 H   0  0  0  0  0
  -10.5677   25.0458  -22.0451 H   0  0  0  0  0
   -9.6378   26.3590  -22.9611 H   0  0  0  0  0
  -10.6641   25.5768  -25.0028 H   0  0  0  0  0
   -8.4632   24.7221  -24.3347 H   0  0  0  0  0
   -9.2390   23.4042  -23.4224 H   0  0  0  0  0
   -9.3854   23.4656  -25.1960 H   0  0  0  0  0
  -11.7834   23.3253  -23.3022 H   0  0  0  0  0
  -12.7201   24.6042  -24.1133 H   0  0  0  0  0
  -11.8276   23.4048  -25.0806 H   0  0  0  0  0
  -10.5081   28.9593  -22.0815 H   0  0  0  0  0
  -10.8278   28.4040  -19.2031 H   0  0  0  0  0
   -8.4099   29.0715  -18.8525 H   0  0  0  0  0
   -8.2695   29.2979  -20.6551 H   0  0  0  0  0
   -7.2310   27.1262  -21.8602 H   0  0  0  0  0
   -8.3736   24.2285  -18.9526 H   0  0  0  0  0
  -11.2946   30.7647  -21.4581 H   0  0  0  0  0
  -10.7316   32.8733  -19.4012 H   0  0  0  0  0
  -10.5584   33.2598  -22.4099 H   0  0  0  0  0
   -9.1465   32.9068  -21.3599 H   0  0  0  0  0
   -9.4521   35.1609  -21.7248 H   0  0  0  0  0
  -13.0329   32.0568  -19.2309 H   0  0  0  0  0
  1  2  1  0  0  0
  2  3  1  0  0  0
  2  5  1  0  0  0
  3  4  2  0  0  0
  3  9  1  0  0  0
  5  6  1  0  0  0
  6  7  2  0  0  0
  6  8  1  0  0  0
  9 10  1  0  0  0
 10 11  1  0  0  0
 10 13  1  0  0  0
 11 12  2  0  0  0
 11 17  1  0  0  0
 13 14  1  0  0  0
 13 15  1  0  0  0
 14 16  1  0  0  0
 17 18  1  0  0  0
 18 19  1  0  0  0
 18 21  1  0  0  0
 19 20  2  0  0  0
 19 26  1  0  0  0
 21 22  1  0  0  0
 22 23  1  0  0  0
 23 24  2  0  0  0
 23 25  1  0  0  0
 26 27  1  0  0  0
 27 28  1  0  0  0
 27 30  1  0  0  0
 28 29  2  0  0  0
 28 37  1  0  0  0
 30 31  1  0  0  0
 31 32  4  0  0  0
 31 33  4  0  0  0
 32 34  4  0  0  0
 33 35  4  0  0  0
 34 36  4  0  0  0
 35 36  4  0  0  0
 37 38  1  0  0  0
 38 39  1  0  0  0
 38 41  1  0  0  0
 39 40  2  0  0  0
 39 48  1  0  0  0
 41 42  1  0  0  0
 42 43  1  0  0  0
 43 44  1  0  0  0
 44 45  1  0  0  0
 45 46  1  0  0  0
 45 47  2  0  0  0
 48 49  1  0  0  0
 49 50  1  0  0  0
 49 52  1  0  0  0
 50 51  2  0  0  0
 50 57  1  0  0  0
 52 53  1  0  0  0
 53 54  1  0  0  0
 54 55  1  0  0  0
 55 56  1  0  0  0
 57 58  1  0  0  0
 58 59  1  0  0  0
 58 61  1  0  0  0
 59 60  2  0  0  0
 59 62  1  0  0  0
 62 63  1  0  0  0
 63 64  1  0  0  0
 63 66  1  0  0  0
 64 65  2  0  0  0
 64 73  1  0  0  0
 66 67  1  0  0  0
 67 68  4  0  0  0
 67 69  4  0  0  0
 68 70  4  0  0  0
 69 71  4  0  0  0
 70 72  4  0  0  0
 71 72  4  0  0  0
 73 74  1  0  0  0
 74 75  1  0  0  0
 74 77  1  0  0  0
 75 76  2  0  0  0
 75 81  1  0  0  0
 77 78  1  0  0  0
 78 79  1  0  0  0
 78 80  1  0  0  0
 81 82  1  0  0  0
 82 83  1  0  0  0
 82 85  1  0  0  0
 83 84  2  0  0  0
 83 90  1  0  0  0
 85 86  1  0  0  0
 86 87  1  0  0  0
 87 88  1  0  0  0
 88 89  1  0  0  0
 90 91  1  0  0  0
 91 92  1  0  0  0
 91 94  1  0  0  0
 92 93  2  0  0  0
 92 98  1  0  0  0
 94 95  1  0  0  0
 94 96  1  0  0  0
 95 97  1  0  0  0
 98 99  1  0  0  0
 99100  1  0  0  0
 99102  1  0  0  0
100101  2  0  0  0
100106  1  0  0  0
102103  1  0  0  0
103104  1  0  0  0
103105  1  0  0  0
106107  1  0  0  0
107108  1  0  0  0
107110  1  0  0  0
108109  2  0  0  0
108116  1  0  0  0
110111  1  0  0  0
111112  4  0  0  0
111113  4  0  0  0
112114  4  0  0  0
113115  4  0  0  0
114115  4  0  0  0
116117  1  0  0  0
117118  1  0  0  0
117120  1  0  0  0
118119  2  0  0  0
118122  1  0  0  0
120121  1  0  0  0
  1123  1  0  0  0
  1124  1  0  0  0
  1125  1  0  0  0
  2126  1  0  0  0
  5127  1  0  0  0
  5128  1  0  0  0
  8129  1  0  0  0
  8130  1  0  0  0
  9131  1  0  0  0
 10132  1  0  0  0
 13133  1  0  0  0
 14134  1  0  0  0
 14135  1  0  0  0
 15136  1  0  0  0
 15137  1  0  0  0
 15138  1  0  0  0
 16139  1  0  0  0
 16140  1  0  0  0
 16141  1  0  0  0
 17142  1  0  0  0
 18143  1  0  0  0
 21144  1  0  0  0
 21145  1  0  0  0
 22146  1  0  0  0
 22147  1  0  0  0
 25148  1  0  0  0
 26149  1  0  0  0
 27150  1  0  0  0
 30151  1  0  0  0
 30152  1  0  0  0
 32153  1  0  0  0
 33154  1  0  0  0
 34155  1  0  0  0
 35156  1  0  0  0
 36157  1  0  0  0
 37158  1  0  0  0
 38159  1  0  0  0
 41160  1  0  0  0
 41161  1  0  0  0
 42162  1  0  0  0
 42163  1  0  0  0
 43164  1  0  0  0
 43165  1  0  0  0
 44166  1  0  0  0
 46167  1  0  0  0
 46168  1  0  0  0
 47169  1  0  0  0
 48170  1  0  0  0
 49171  1  0  0  0
 52172  1  0  0  0
 52173  1  0  0  0
 53174  1  0  0  0
 53175  1  0  0  0
 54176  1  0  0  0
 54177  1  0  0  0
 55178  1  0  0  0
 55179  1  0  0  0
 56180  1  0  0  0
 56181  1  0  0  0
 56182  1  0  0  0
 57183  1  0  0  0
 58184  1  0  0  0
 61185  1  0  0  0
 61186  1  0  0  0
 61187  1  0  0  0
 62188  1  0  0  0
 63189  1  0  0  0
 66190  1  0  0  0
 66191  1  0  0  0
 68192  1  0  0  0
 69193  1  0  0  0
 70194  1  0  0  0
 71195  1  0  0  0
 72196  1  0  0  0
 73197  1  0  0  0
 74198  1  0  0  0
 77199  1  0  0  0
 77200  1  0  0  0
 78201  1  0  0  0
 79202  1  0  0  0
 79203  1  0  0  0
 79204  1  0  0  0
 80205  1  0  0  0
 80206  1  0  0  0
 80207  1  0  0  0
 81208  1  0  0  0
 82209  1  0  0  0
 85210  1  0  0  0
 85211  1  0  0  0
 86212  1  0  0  0
 86213  1  0  0  0
 87214  1  0  0  0
 87215  1  0  0  0
 88216  1  0  0  0
 88217  1  0  0  0
 89218  1  0  0  0
 89219  1  0  0  0
 89220  1  0  0  0
 90221  1  0  0  0
 91222  1  0  0  0
 94223  1  0  0  0
 95224  1  0  0  0
 95225  1  0  0  0
 96226  1  0  0  0
 96227  1  0  0  0
 96228  1  0  0  0
 97229  1  0  0  0
 97230  1  0  0  0
 97231  1  0  0  0
 98232  1  0  0  0
 99233  1  0  0  0
102234  1  0  0  0
102235  1  0  0  0
103236  1  0  0  0
104237  1  0  0  0
104238  1  0  0  0
104239  1  0  0  0
105240  1  0  0  0
105241  1  0  0  0
105242  1  0  0  0
106243  1  0  0  0
107244  1  0  0  0
110245  1  0  0  0
110246  1  0  0  0
113247  1  0  0  0
114248  1  0  0  0
116249  1  0  0  0
117250  1  0  0  0
120251  1  0  0  0
120252  1  0  0  0
121253  1  0  0  0
122254  1  0  0  0
M  END
$$$$
