### 
### Created by X-TOOL on Mon Sep 10 21:13:10 2018
### 

@<TRIPOS>MOLECULE
3v49_ligand
   44    46     1     0     0
SMALL
GAST_HUCK


@<TRIPOS>ATOM
      1 N4         28.8800   -0.1250    3.4150 N.am      1 PK0        -0.2772
      2 C31        31.0210    0.8540    3.7490 C.3       1 PK0        -0.0602
      3 C4         29.0160   -1.4320    2.7480 C.3       1 PK0         0.0130
      4 O2         29.7270    2.6550    5.3940 O.2       1 PK0        -0.3474
      5 C2         29.2620    1.8410    4.6850 C.2       1 PK0         0.2367
      6 O5         26.9340    0.6940    2.3810 O.2       1 PK0        -0.3816
      7 C5         27.8920    0.8500    3.0940 C.2       1 PK0         0.3121
      8 C3         29.7090    0.4640    4.4360 C.3       1 PK0         0.1234
      9 C1B        29.7180   -0.2290    5.7660 C.ar      1 PK0        -0.0305
     10 C2B        30.7980   -0.1350    6.6420 C.ar      1 PK0        -0.0436
     11 C3B        30.7290   -0.8260    7.8520 C.ar      1 PK0         0.0019
     12 C4B        29.6280   -1.5550    8.2690 C.ar      1 PK0         0.1267
     13 C5B        28.5580   -1.6410    7.3670 C.ar      1 PK0         0.0019
     14 C6B        28.6120   -0.9800    6.1510 C.ar      1 PK0        -0.0436
     15 O4         29.6210   -2.2520    9.4890 O.3       1 PK0        -0.3074
     16 N1         28.3030    2.0430    3.7420 N.am      1 PK0        -0.1143
     17 C1A        27.4050    3.1250    3.7130 C.ar      1 PK0         0.1322
     18 C2A        27.9180    4.4260    3.5800 C.ar      1 PK0         0.0019
     19 C3A        27.1080    5.5460    3.5580 C.ar      1 PK0        -0.0246
     20 C4A        25.7240    5.3740    3.6490 C.ar      1 PK0         0.0268
     21 C5A        25.1930    4.1120    3.7780 C.ar      1 PK0         0.0502
     22 C6A        26.0170    2.9880    3.8080 C.ar      1 PK0         0.0015
     23 C41        24.8800    6.6060    3.5210 C.2       1 PK0         0.0263
     24 N41        24.3950    7.7410    3.5160 N.2       1 PK0        -0.3406
     25 C51        23.7290    3.9800    3.9090 C.3       1 PK0         0.3732
     26 F1         23.0130    4.6640    3.1690 F         1 PK0        -0.2234
     27 F2         23.2030    4.2520    4.9990 F         1 PK0        -0.2234
     28 F3         23.2040    2.8810    3.6770 F         1 PK0        -0.2234
     29 H1         31.6982    1.3120    4.4850 H         1 PK0         0.0131
     30 H2         30.8134    1.5741    2.9439 H         1 PK0         0.0131
     31 H3         31.4939   -0.0440    3.3248 H         1 PK0         0.0131
     32 H4         28.2038   -1.5567    2.0167 H         1 PK0         0.0473
     33 H5         28.9599   -2.2343    3.4985 H         1 PK0         0.0473
     34 H6         29.9856   -1.4807    2.2309 H         1 PK0         0.0473
     35 H7         31.6687    0.4594    6.3898 H         1 PK0         0.0823
     36 H8         31.5918   -0.7900    8.5072 H         1 PK0         0.0655
     37 H9         27.6834   -2.2282    7.6228 H         1 PK0         0.0655
     38 H10        27.7653   -1.0501    5.4777 H         1 PK0         0.0823
     39 H11        28.8772   -1.9709   10.0088 H         1 PK0         0.2636
     40 H12        28.9904    4.5567    3.4912 H         1 PK0         0.0781
     41 H13        27.5376    6.5375    3.4719 H         1 PK0         0.0743
     42 H14        25.5787    2.0014    3.9056 H         1 PK0         0.0774
     43 H15        24.0074    6.1055    3.1038 H         1 PK0         0.1114
     44 H16        23.4569    7.8867    3.1773 H         1 PK0         0.1319
@<TRIPOS>BOND
     1    1    3 1  
     2    1    7 am 
     3    8    1 1  
     4    8    2 1  
     5    5    4 2  
     6    5    8 1  
     7    5   16 am 
     8    7    6 2  
     9    7   16 am 
    10    8    9 1  
    11    9   10 ar 
    12    9   14 ar 
    13   10   11 ar 
    14   11   12 ar 
    15   12   13 ar 
    16   12   15 1  
    17   13   14 ar 
    18   16   17 1  
    19   17   18 ar 
    20   17   22 ar 
    21   18   19 ar 
    22   19   20 ar 
    23   20   21 ar 
    24   20   23 1  
    25   21   22 ar 
    26   21   25 1  
    27   23   24 2  
    28   25   26 1  
    29   25   27 1  
    30   25   28 1  
    31    2   29 1  
    32    2   30 1  
    33    2   31 1  
    34    3   32 1  
    35    3   33 1  
    36    3   34 1  
    37   10   35 1  
    38   11   36 1  
    39   13   37 1  
    40   14   38 1  
    41   15   39 1  
    42   18   40 1  
    43   19   41 1  
    44   22   42 1  
    45   23   43 1  
    46   24   44 1  
@<TRIPOS>SUBSTRUCTURE
     1 PK0         1

