5nho_ligand
  -I-interpret- 

 53 56  0  0  0  0  0  0  0  0999 V2000
  -17.4540   10.9980   40.5800 C   0  0  0  0  0
  -18.8020   10.7120   40.7320 C   0  0  0  0  0
  -19.1070   12.5080   42.0760 C   0  0  0  0  0
  -20.5110   15.3620   43.8800 N   0  0  0  0  0
  -13.4200   13.0870   40.9770 C   0  0  0  0  0
  -13.8840   13.7520   42.0750 C   0  0  0  0  0
  -13.0230   14.6530   42.9020 C   0  0  0  0  0
  -12.0000   15.3380   41.9510 C   0  0  0  0  0
  -12.0460   13.2260   40.5550 C   0  0  0  0  0
   -9.9420   14.4650   40.7420 C   0  0  0  0  0
   -9.6060   15.5720   39.7640 C   0  0  0  0  0
  -10.3560   16.4310   37.7620 C   0  0  0  0  0
  -12.7220   16.4490   41.1650 C   0  0  0  0  0
  -19.6560   14.3230   43.7480 C   0  0  0  0  0
  -21.7760   15.6210   43.1970 C   0  0  0  0  0
  -11.5890   12.4910   39.6940 O   0  0  0  0  0
  -14.4990   12.3540   40.4540 C   0  0  0  0  0
  -11.3680   14.3220   41.0530 N   0  0  0  0  0
  -10.1130   15.2790   38.4940 O   0  0  0  0  0
  -15.1980   13.4600   42.2560 N   0  0  0  0  0
  -15.5960   12.5940   41.2580 C   0  0  0  0  0
  -16.9910   12.1370   41.2610 C   0  0  0  0  0
  -16.5790   10.1060   39.7370 C   0  0  0  0  0
  -17.8020   12.8970   42.0120 N   0  0  0  0  0
  -19.6550   11.4450   41.4660 N   0  0  0  0  0
  -19.9430   13.2920   42.8550 N   0  0  0  0  0
  -20.0550   16.2550   44.8070 N   0  0  0  0  0
  -18.9040   15.7390   45.2300 C   0  0  0  0  0
  -18.6040   14.5400   44.6070 C   0  0  0  0  0
  -19.1960    9.8332   40.2215 H   0  0  0  0  0
  -12.5018   14.0795   43.6685 H   0  0  0  0  0
  -13.6335   15.4032   43.4045 H   0  0  0  0  0
  -11.1928   15.7948   42.5235 H   0  0  0  0  0
   -9.4395   14.7096   41.6778 H   0  0  0  0  0
   -9.6264   13.5302   40.2787 H   0  0  0  0  0
   -8.5222   15.6672   39.6978 H   0  0  0  0  0
  -10.0529   16.5016   40.1164 H   0  0  0  0  0
  -11.0836   17.0482   38.2891 H   0  0  0  0  0
   -9.4259   16.9864   37.6416 H   0  0  0  0  0
  -10.7489   16.1610   36.7818 H   0  0  0  0  0
  -12.0055   16.9640   40.5251 H   0  0  0  0  0
  -13.5069   16.0068   40.5514 H   0  0  0  0  0
  -13.1627   17.1595   41.8644 H   0  0  0  0  0
  -21.6007   15.6874   42.1232 H   0  0  0  0  0
  -22.4719   14.8078   43.4033 H   0  0  0  0  0
  -22.1959   16.5604   43.5566 H   0  0  0  0  0
  -14.4745   11.7123   39.5733 H   0  0  0  0  0
  -16.5876    9.0967   40.1486 H   0  0  0  0  0
  -16.9592   10.0865   38.7156 H   0  0  0  0  0
  -15.5596   10.4920   39.7393 H   0  0  0  0  0
  -20.9358   13.0786   42.7586 H   0  0  0  0  0
  -18.2691   16.2074   45.9821 H   0  0  0  0  0
  -17.7292   13.9086   44.7625 H   0  0  0  0  0
  1  2  4  0  0  0
 22  1  4  0  0  0
  1 23  1  0  0  0
  2 25  4  0  0  0
  3 24  4  0  0  0
 25  3  4  0  0  0
  3 26  1  0  0  0
 14  4  4  0  0  0
  4 15  1  0  0  0
  4 27  4  0  0  0
  6  5  4  0  0  0
  5  9  1  0  0  0
 17  5  4  0  0  0
  6  7  1  0  0  0
 20  6  4  0  0  0
  7  8  1  0  0  0
  8 13  1  0  0  0
  8 18  1  0  0  0
  9 16  2  0  0  0
  9 18  1  0  0  0
 10 11  1  0  0  0
 18 10  1  0  0  0
 11 19  1  0  0  0
 19 12  1  0  0  0
 26 14  1  0  0  0
 14 29  4  0  0  0
 21 17  4  0  0  0
 21 20  4  0  0  0
 21 22  1  0  0  0
 22 24  4  0  0  0
 27 28  4  0  0  0
 28 29  4  0  0  0
  2 30  1  0  0  0
  7 31  1  0  0  0
  7 32  1  0  0  0
  8 33  1  0  0  0
 10 34  1  0  0  0
 10 35  1  0  0  0
 11 36  1  0  0  0
 11 37  1  0  0  0
 12 38  1  0  0  0
 12 39  1  0  0  0
 12 40  1  0  0  0
 13 41  1  0  0  0
 13 42  1  0  0  0
 13 43  1  0  0  0
 15 44  1  0  0  0
 15 45  1  0  0  0
 15 46  1  0  0  0
 17 47  1  0  0  0
 23 48  1  0  0  0
 23 49  1  0  0  0
 23 50  1  0  0  0
 26 51  1  0  0  0
 28 52  1  0  0  0
 29 53  1  0  0  0
M  END
$$$$
