5zqq_ligand
  -I-interpret- 

 51 55  0  0  0  0  0  0  0  0999 V2000
    2.9690  -11.7410   -7.8880 C   0  0  0  0  0
    3.0670  -10.2580   -7.5120 C   0  0  0  0  0
    2.9440   -8.7570   -5.5280 C   0  0  0  0  0
    2.7090  -11.3900   -5.5420 C   0  0  0  0  0
    4.1060  -12.7340  -16.1650 C   0  0  0  0  0
    3.9000  -12.4380  -14.7330 C   0  0  0  0  0
    2.5220  -12.2580  -14.2740 C   0  0  0  0  0
    3.4890  -11.8860  -12.0650 C   0  0  0  0  0
    1.9530  -11.3720  -10.1420 C   0  0  0  0  0
    1.7560  -11.9880   -8.7690 C   0  0  0  0  0
    2.5090  -11.7410   -4.2300 C   0  0  0  0  0
    2.3450  -13.1070   -3.9760 C   0  0  0  0  0
    2.3880  -14.0590   -4.9850 C   0  0  0  0  0
    2.5910  -13.6950   -6.3160 C   0  0  0  0  0
    2.7500  -12.3690   -6.5700 C   0  0  0  0  0
    4.2750  -12.2220   -8.5330 C   0  0  0  0  0
    4.4690  -11.5110   -9.8520 C   0  0  0  0  0
    4.9320  -12.3280  -13.8470 C   0  0  0  0  0
    6.3860  -12.5210  -14.2630 C   0  0  0  0  0
    6.6180  -12.7760  -15.7500 C   0  0  0  0  0
    5.4760  -12.2800  -16.6610 C   0  0  0  0  0
    2.3660  -11.9760  -12.8990 N   0  0  0  0  0
    3.2960  -11.6020  -10.7140 N   0  0  0  0  0
    2.8890  -10.1260   -6.1060 N   0  0  0  0  0
    4.7480  -12.0590  -12.5050 N   0  0  0  0  0
    1.4940  -12.3200  -14.9330 O   0  0  0  0  0
    3.2410   -9.2720   -8.2050 O   0  0  0  0  0
    2.0038   -8.5400   -5.0211 H   0  0  0  0  0
    3.7653   -8.6983   -4.8138 H   0  0  0  0  0
    3.1031   -8.0328   -6.3269 H   0  0  0  0  0
    3.3464  -12.1971  -16.7333 H   0  0  0  0  0
    4.0391  -13.8136  -16.2995 H   0  0  0  0  0
    1.8261  -10.2947  -10.0353 H   0  0  0  0  0
    1.2308  -11.8373  -10.8128 H   0  0  0  0  0
    0.8832  -11.5325   -8.3013 H   0  0  0  0  0
    1.6171  -13.0631   -8.8827 H   0  0  0  0  0
    2.4797  -10.9986   -3.4325 H   0  0  0  0  0
    2.1776  -13.4350   -2.9501 H   0  0  0  0  0
    2.2606  -15.1116   -4.7323 H   0  0  0  0  0
    2.6207  -14.4374   -7.1135 H   0  0  0  0  0
    4.2254  -13.2978   -8.7012 H   0  0  0  0  0
    5.1127  -12.0009   -7.8716 H   0  0  0  0  0
    5.3037  -11.9841  -10.3692 H   0  0  0  0  0
    4.6509  -10.4570   -9.6421 H   0  0  0  0  0
    6.7434  -13.4066  -13.7375 H   0  0  0  0  0
    6.9024  -11.5913  -14.0240 H   0  0  0  0  0
    6.6913  -13.8552  -15.8841 H   0  0  0  0  0
    7.5172  -12.2293  -16.0341 H   0  0  0  0  0
    5.4923  -11.1901  -16.6631 H   0  0  0  0  0
    5.6313  -12.6952  -17.6568 H   0  0  0  0  0
    5.5418  -11.9936  -11.8678 H   0  0  0  0  0
  1  2  1  0  0  0
 10  1  1  0  0  0
  1 15  1  0  0  0
  1 16  1  0  0  0
  2 24  1  0  0  0
  2 27  2  0  0  0
 24  3  1  0  0  0
  4 11  4  0  0  0
 15  4  4  0  0  0
  4 24  1  0  0  0
  6  5  1  0  0  0
  5 21  1  0  0  0
  7  6  1  0  0  0
  6 18  2  0  0  0
 22  7  1  0  0  0
  7 26  2  0  0  0
  8 22  4  0  0  0
 23  8  1  0  0  0
  8 25  1  0  0  0
  9 10  1  0  0  0
  9 23  1  0  0  0
 11 12  4  0  0  0
 12 13  4  0  0  0
 13 14  4  0  0  0
 14 15  4  0  0  0
 16 17  1  0  0  0
 17 23  1  0  0  0
 18 19  1  0  0  0
 18 25  1  0  0  0
 19 20  1  0  0  0
 20 21  1  0  0  0
  3 28  1  0  0  0
  3 29  1  0  0  0
  3 30  1  0  0  0
  5 31  1  0  0  0
  5 32  1  0  0  0
  9 33  1  0  0  0
  9 34  1  0  0  0
 10 35  1  0  0  0
 10 36  1  0  0  0
 11 37  1  0  0  0
 12 38  1  0  0  0
 13 39  1  0  0  0
 14 40  1  0  0  0
 16 41  1  0  0  0
 16 42  1  0  0  0
 17 43  1  0  0  0
 17 44  1  0  0  0
 19 45  1  0  0  0
 19 46  1  0  0  0
 20 47  1  0  0  0
 20 48  1  0  0  0
 21 49  1  0  0  0
 21 50  1  0  0  0
 25 51  1  0  0  0
M  END
$$$$
