1kf6_ligand
  -I-interpret- 

 39 40  0  0  0  0  0  0  0  0999 V2000
   25.0950   16.1830  -54.7110 C   0  0  0  0  0
   24.3460   16.5860  -55.6420 O   0  0  0  0  0
   25.9340   17.1060  -54.0530 C   0  0  0  0  0
   26.7890   16.6710  -52.9970 C   0  0  0  0  0
   26.8000   15.3390  -52.6140 N   0  3  0  0  0
   27.5440   14.9840  -51.6990 O   0  0  0  0  0
   25.9890   14.4010  -53.2440 C   0  0  0  0  0
   26.0070   13.0160  -52.8500 C   0  0  0  0  0
   25.1750   12.0740  -53.5100 C   0  0  0  0  0
   24.3120   12.4970  -54.5730 C   0  0  0  0  0
   24.2760   13.8540  -54.9770 C   0  0  0  0  0
   25.1060   14.8140  -54.3250 C   0  0  0  0  0
   27.6270   17.6070  -52.3440 C   0  0  0  0  0
   29.9850   17.7090  -53.2420 C   0  0  0  0  0
   28.5760   18.3220  -53.3330 C   0  0  0  0  0
   30.9470   18.7290  -52.6560 C   0  0  0  0  0
   32.1480   17.9680  -52.1110 C   0  0  0  0  0
   33.3800   18.8790  -52.2700 C   0  0  0  0  0
   34.4870   18.4300  -51.2950 C   0  0  0  0  0
   25.9292   18.1542  -54.3519 H   0  0  0  0  0
   26.6619   12.6898  -52.0420 H   0  0  0  0  0
   25.1926   11.0269  -53.2077 H   0  0  0  0  0
   23.6771   11.7673  -55.0755 H   0  0  0  0  0
   23.6145   14.1648  -55.7857 H   0  0  0  0  0
   28.2348   17.0706  -51.6153 H   0  0  0  0  0
   26.9952   18.3599  -51.8727 H   0  0  0  0  0
   30.3215   17.4244  -54.2389 H   0  0  0  0  0
   29.9562   16.8279  -52.6010 H   0  0  0  0  0
   28.6274   19.3811  -53.0803 H   0  0  0  0  0
   28.1959   18.2011  -54.3474 H   0  0  0  0  0
   30.4628   19.2956  -51.8607 H   0  0  0  0  0
   31.2615   19.4388  -53.4211 H   0  0  0  0  0
   32.2893   17.0350  -52.6566 H   0  0  0  0  0
   31.9947   17.7116  -51.0627 H   0  0  0  0  0
   33.0992   19.9087  -52.0487 H   0  0  0  0  0
   33.7500   18.8113  -53.2930 H   0  0  0  0  0
   34.1171   18.4964  -50.2718 H   0  0  0  0  0
   34.7674   17.4000  -51.5152 H   0  0  0  0  0
   35.3562   19.0773  -51.4112 H   0  0  0  0  0
  1  2  2  0  0  0
  1  3  1  0  0  0
  1 12  1  0  0  0
  3  4  2  0  0  0
  4  5  1  0  0  0
  4 13  1  0  0  0
  5  6  2  0  0  0
  5  7  1  0  0  0
  7  8  4  0  0  0
  7 12  4  0  0  0
  8  9  4  0  0  0
  9 10  4  0  0  0
 10 11  4  0  0  0
 11 12  4  0  0  0
 13 15  1  0  0  0
 15 14  1  0  0  0
 14 16  1  0  0  0
 16 17  1  0  0  0
 17 18  1  0  0  0
 18 19  1  0  0  0
  3 20  1  0  0  0
  8 21  1  0  0  0
  9 22  1  0  0  0
 10 23  1  0  0  0
 11 24  1  0  0  0
 13 25  1  0  0  0
 13 26  1  0  0  0
 14 27  1  0  0  0
 14 28  1  0  0  0
 15 29  1  0  0  0
 15 30  1  0  0  0
 16 31  1  0  0  0
 16 32  1  0  0  0
 17 33  1  0  0  0
 17 34  1  0  0  0
 18 35  1  0  0  0
 18 36  1  0  0  0
 19 37  1  0  0  0
 19 38  1  0  0  0
 19 39  1  0  0  0
M  END
$$$$
