5kau_ligand
  -I-interpret- 

 65 68  0  0  0  0  0  0  0  0999 V2000
    1.7750  -12.1680  -18.2180 C   0  0  0  0  0
    2.8410  -11.2860  -18.0690 C   0  0  0  0  0
    3.9640  -11.4910  -18.9220 C   0  0  0  0  0
    4.0050  -12.4940  -19.8400 C   0  0  0  0  0
    2.8890  -13.3830  -19.9700 C   0  0  0  0  0
    1.7800  -13.2070  -19.1320 C   0  0  0  0  0
    0.6680  -12.0350  -17.4470 O   0  0  0  0  0
    0.5690  -11.0330  -16.5210 C   0  0  0  0  0
    1.6220  -10.1280  -16.3300 C   0  0  0  0  0
    2.7430  -10.2520  -17.1410 C   0  0  0  0  0
   -0.6020  -10.9830  -15.7990 C   0  0  0  0  0
   -0.7530   -9.9940  -14.8210 C   0  0  0  0  0
    0.3140   -9.0540  -14.6000 C   0  0  0  0  0
    1.4520   -9.1240  -15.3340 C   0  0  0  0  0
   -1.8810   -9.9060  -14.0710 N   0  0  0  0  0
    3.8590   -9.3850  -16.8940 C   0  0  0  0  0
    4.4180   -9.7400  -15.6740 C   0  0  0  0  0
    5.5280   -9.1020  -15.1890 C   0  0  0  0  0
    6.0820   -8.1360  -15.9770 C   0  0  0  0  0
    5.5430   -7.7840  -17.2320 C   0  0  0  0  0
    4.4120   -8.4080  -17.7450 C   0  0  0  0  0
    0.1740   -7.9870  -13.5780 C   0  0  0  0  0
    5.1960  -12.6360  -20.7380 C   0  0  0  0  0
   -3.1100  -10.6610  -14.3360 C   0  0  0  0  0
   -3.8310  -10.1510  -15.5750 C   0  0  0  0  0
    2.9830  -14.3980  -20.8820 N   0  0  0  0  0
    1.9030  -15.3300  -21.2300 C   0  0  0  0  0
    2.3330  -16.2550  -22.3600 C   0  0  0  0  0
    4.1220   -8.3600  -19.1950 C   0  0  0  0  0
    2.8790   -8.7440  -19.5180 O   0  0  0  0  0
    4.9650   -8.5470  -20.0630 O   0  0  0  0  0
    4.7450   -7.7170  -21.1750 C   0  0  0  0  0
    6.0420   -7.6010  -21.9490 C   0  0  0  0  0
    4.8195  -10.8211  -18.8359 H   0  0  0  0  0
    0.9278  -13.8832  -19.1995 H   0  0  0  0  0
    2.3343   -9.7693  -18.0287 H   0  0  0  0  0
   -1.3990  -11.7026  -15.9863 H   0  0  0  0  0
    2.2488   -8.4010  -15.1592 H   0  0  0  0  0
   -1.8733   -9.2734  -13.2709 H   0  0  0  0  0
    3.9647  -10.5418  -15.0912 H   0  0  0  0  0
    5.9503   -9.3547  -14.2164 H   0  0  0  0  0
    6.9734   -7.6174  -15.6240 H   0  0  0  0  0
    6.0269   -7.0009  -17.8157 H   0  0  0  0  0
   -0.6805   -7.3576  -13.8265 H   0  0  0  0  0
    0.0199   -8.4412  -12.5992 H   0  0  0  0  0
    1.0801   -7.3814  -13.5604 H   0  0  0  0  0
    5.3126  -11.7288  -21.3309 H   0  0  0  0  0
    6.0889  -12.7935  -20.1330 H   0  0  0  0  0
    5.0499  -13.4887  -21.4011 H   0  0  0  0  0
   -3.7750  -10.5440  -13.4803 H   0  0  0  0  0
   -2.8419  -11.7046  -14.5010 H   0  0  0  0  0
   -4.0962   -9.1032  -15.4340 H   0  0  0  0  0
   -3.1759  -10.2480  -16.4408 H   0  0  0  0  0
   -4.7356  -10.7378  -15.7347 H   0  0  0  0  0
    3.8764  -14.5173  -21.3594 H   0  0  0  0  0
    1.0345  -14.7571  -21.5550 H   0  0  0  0  0
    1.6619  -15.9324  -20.3542 H   0  0  0  0  0
    2.5830  -15.6609  -23.2390 H   0  0  0  0  0
    3.2059  -16.8278  -22.0467 H   0  0  0  0  0
    1.5169  -16.9364  -22.6006 H   0  0  0  0  0
    4.4178   -6.7309  -20.8455 H   0  0  0  0  0
    3.9683   -8.1427  -21.8103 H   0  0  0  0  0
    6.8096   -7.1693  -21.3067 H   0  0  0  0  0
    6.3568   -8.5912  -22.2784 H   0  0  0  0  0
    5.8896   -6.9594  -22.8169 H   0  0  0  0  0
  1  2  4  0  0  0
  1  6  4  0  0  0
  1  7  1  0  0  0
  2  3  4  0  0  0
  2 10  1  0  0  0
  3  4  4  0  0  0
  4  5  4  0  0  0
  4 23  1  0  0  0
  5  6  4  0  0  0
  5 26  1  0  0  0
  7  8  1  0  0  0
  8  9  4  0  0  0
  8 11  4  0  0  0
  9 10  1  0  0  0
  9 14  4  0  0  0
 10 16  1  0  0  0
 11 12  4  0  0  0
 12 13  4  0  0  0
 12 15  1  0  0  0
 13 14  4  0  0  0
 13 22  1  0  0  0
 15 24  1  0  0  0
 16 17  4  0  0  0
 16 21  4  0  0  0
 17 18  4  0  0  0
 18 19  4  0  0  0
 19 20  4  0  0  0
 20 21  4  0  0  0
 21 29  1  0  0  0
 24 25  1  0  0  0
 26 27  1  0  0  0
 27 28  1  0  0  0
 29 30  2  0  0  0
 29 31  1  0  0  0
 31 32  1  0  0  0
 32 33  1  0  0  0
  3 34  1  0  0  0
  6 35  1  0  0  0
 10 36  1  0  0  0
 11 37  1  0  0  0
 14 38  1  0  0  0
 15 39  1  0  0  0
 17 40  1  0  0  0
 18 41  1  0  0  0
 19 42  1  0  0  0
 20 43  1  0  0  0
 22 44  1  0  0  0
 22 45  1  0  0  0
 22 46  1  0  0  0
 23 47  1  0  0  0
 23 48  1  0  0  0
 23 49  1  0  0  0
 24 50  1  0  0  0
 24 51  1  0  0  0
 25 52  1  0  0  0
 25 53  1  0  0  0
 25 54  1  0  0  0
 26 55  1  0  0  0
 27 56  1  0  0  0
 27 57  1  0  0  0
 28 58  1  0  0  0
 28 59  1  0  0  0
 28 60  1  0  0  0
 32 61  1  0  0  0
 32 62  1  0  0  0
 33 63  1  0  0  0
 33 64  1  0  0  0
 33 65  1  0  0  0
M  END
$$$$
