6jb4_ligand
  -I-interpret- 

 45 46  0  0  0  0  0  0  0  0999 V2000
   -6.5930  -32.5360  -13.8220 C   0  0  0  0  0
   -7.9670  -32.2300  -13.1810 C   0  0  0  0  0
   -8.7280  -31.2690  -14.0340 C   0  0  0  0  0
   -7.9440  -29.9650  -14.2550 C   0  0  0  0  0
   -6.6290  -30.3510  -14.9440 C   0  0  0  0  0
   -5.7230  -29.1450  -15.0150 C   0  0  0  0  0
   -6.8250  -33.3560  -14.9550 O   0  0  0  0  0
   -8.7730  -33.3950  -13.0790 O   0  0  0  0  0
   -9.9970  -30.9330  -13.3440 O   0  0  0  0  0
   -8.6550  -29.0140  -15.0250 O   0  0  0  0  0
   -5.9080  -31.3110  -14.1670 O   0  0  0  0  0
   -4.5940  -29.3670  -15.9020 O   0  0  0  0  0
   -5.5170  -36.6980  -16.8200 C   0  0  0  0  0
   -5.3080  -36.7350  -15.3100 C   0  0  0  0  0
   -6.1420  -35.6730  -14.6490 C   0  0  0  0  0
   -5.7940  -34.3280  -15.2400 C   0  0  0  0  0
   -5.7190  -34.2860  -16.7200 C   0  0  0  0  0
   -4.7150  -33.1340  -16.9960 C   0  0  0  0  0
   -6.8230  -36.9340  -17.2330 O   0  0  0  0  0
   -5.6940  -38.0580  -14.8120 O   0  0  0  0  0
   -5.7580  -35.6540  -13.2770 O   0  0  0  0  0
   -5.0540  -35.4220  -17.2990 O   0  0  0  0  0
   -4.6580  -32.8980  -18.3310 O   0  0  0  0  0
   -5.9435  -33.0608  -13.1214 H   0  0  0  0  0
   -7.7624  -31.8239  -12.1904 H   0  0  0  0  0
   -8.9057  -31.7367  -15.0024 H   0  0  0  0  0
   -7.7686  -29.4812  -13.2941 H   0  0  0  0  0
   -6.8857  -30.7451  -15.9273 H   0  0  0  0  0
   -5.3380  -28.9474  -14.0146 H   0  0  0  0  0
   -6.3011  -28.3055  -15.4012 H   0  0  0  0  0
   -8.3237  -34.0471  -12.5363 H   0  0  0  0  0
  -10.5021  -31.7360  -13.1966 H   0  0  0  0  0
   -9.4727  -28.7873  -14.5760 H   0  0  0  0  0
   -4.0435  -28.5807  -15.9204 H   0  0  0  0  0
   -4.9453  -37.5212  -17.2484 H   0  0  0  0  0
   -4.2597  -36.5460  -15.0787 H   0  0  0  0  0
   -7.2053  -35.8724  -14.7819 H   0  0  0  0  0
   -4.8213  -34.1211  -14.7939 H   0  0  0  0  0
   -6.7305  -34.2130  -17.1194 H   0  0  0  0  0
   -3.7268  -33.4169  -16.6333 H   0  0  0  0  0
   -5.0442  -32.2320  -16.4801 H   0  0  0  0  0
   -6.8668  -36.8930  -18.1911 H   0  0  0  0  0
   -5.5657  -38.0907  -13.8612 H   0  0  0  0  0
   -6.2679  -34.9864  -12.8124 H   0  0  0  0  0
   -4.0375  -32.1859  -18.5027 H   0  0  0  0  0
  1  2  1  0  0  0
  7  1  1  0  0  0
  1 11  1  0  0  0
  2  3  1  0  0  0
  2  8  1  0  0  0
  3  4  1  0  0  0
  3  9  1  0  0  0
  5  4  1  0  0  0
  4 10  1  0  0  0
  5  6  1  0  0  0
 11  5  1  0  0  0
  6 12  1  0  0  0
 16  7  1  0  0  0
 13 14  1  0  0  0
 13 19  1  0  0  0
 22 13  1  0  0  0
 15 14  1  0  0  0
 14 20  1  0  0  0
 16 15  1  0  0  0
 15 21  1  0  0  0
 17 16  1  0  0  0
 18 17  1  0  0  0
 17 22  1  0  0  0
 23 18  1  0  0  0
  1 24  1  0  0  0
  2 25  1  0  0  0
  3 26  1  0  0  0
  4 27  1  0  0  0
  5 28  1  0  0  0
  6 29  1  0  0  0
  6 30  1  0  0  0
  8 31  1  0  0  0
  9 32  1  0  0  0
 10 33  1  0  0  0
 12 34  1  0  0  0
 13 35  1  0  0  0
 14 36  1  0  0  0
 15 37  1  0  0  0
 16 38  1  0  0  0
 17 39  1  0  0  0
 18 40  1  0  0  0
 18 41  1  0  0  0
 19 42  1  0  0  0
 20 43  1  0  0  0
 21 44  1  0  0  0
 23 45  1  0  0  0
M  END
$$$$
