5ufr_ligand
  -I-interpret- 

 58 62  0  0  0  0  0  0  0  0999 V2000
   18.0710   14.1530  -22.0340 C   0  0  0  0  0
   17.1240   15.1350  -22.2130 C   0  0  0  0  0
   18.6890   14.0110  -20.8150 C   0  0  0  0  0
   16.7930   15.9830  -21.1810 C   0  0  0  0  0
   18.3590   14.8590  -19.7850 C   0  0  0  0  0
   16.8850   20.6730  -15.8950 C   0  0  0  0  0
   16.6010   19.3330  -15.7600 C   0  0  0  0  0
   20.0790   22.6000  -16.5500 C   0  0  0  0  0
   18.5060   23.5680  -15.0730 C   0  0  0  0  0
   17.5220   20.2950  -18.1410 C   0  0  0  0  0
   21.0610   22.9050  -15.6360 C   0  0  0  0  0
   19.5560   23.8340  -14.2200 C   0  0  0  0  0
   15.2150   23.3800  -16.8120 C   0  0  0  0  0
   15.4380   25.4530  -17.1920 C   0  0  0  0  0
   17.2340   18.9550  -17.9940 C   0  0  0  0  0
   17.4100   15.8390  -19.9610 C   0  0  0  0  0
   17.1230   16.7220  -18.8650 C   0  0  0  0  0
   17.3450   21.1680  -17.0910 C   0  0  0  0  0
   18.7750   22.9400  -16.2610 C   0  0  0  0  0
   16.7700   18.4510  -16.8020 C   0  0  0  0  0
   17.3990   18.0580  -19.0180 C   0  0  0  0  0
   16.5440   23.5470  -17.1260 C   0  0  0  0  0
   16.6490   16.2870  -17.6490 C   0  0  0  0  0
   17.8680   25.5920  -17.7540 C   0  0  0  0  0
   15.4130   14.3270  -18.3320 C   0  0  0  0  0
   16.2490   14.6280  -16.0370 C   0  0  0  0  0
   17.6770   22.6180  -17.2270 C   0  0  0  0  0
   20.8270   23.5180  -14.4750 N   0  0  0  0  0
   14.5300   24.5670  -16.8530 N   0  0  0  0  0
   16.4730   17.1550  -16.6460 N   0  0  0  0  0
   16.6650   24.8840  -17.3630 N   0  0  0  0  0
   16.3860   14.9190  -17.4500 N   0  0  0  0  0
   18.2380   22.8220  -18.5090 O   0  0  0  0  0
   17.9680   18.6130  -20.5450 Cl  0  0  0  0  0
   18.3306   13.4886  -22.8581 H   0  0  0  0  0
   16.6321   15.2421  -23.1798 H   0  0  0  0  0
   19.4358   13.2312  -20.6659 H   0  0  0  0  0
   16.0468   16.7634  -21.3299 H   0  0  0  0  0
   18.8540   14.7540  -18.8196 H   0  0  0  0  0
   16.7442   21.3450  -15.0484 H   0  0  0  0  0
   16.2330   18.9615  -14.8036 H   0  0  0  0  0
   20.3277   22.0987  -17.4854 H   0  0  0  0  0
   17.4868   23.8503  -14.8089 H   0  0  0  0  0
   17.8929   20.6666  -19.0962 H   0  0  0  0  0
   22.0885   22.6300  -15.8743 H   0  0  0  0  0
   19.3337   24.3342  -13.2774 H   0  0  0  0  0
   14.7618   22.4209  -16.5612 H   0  0  0  0  0
   15.2350   26.5161  -17.3212 H   0  0  0  0  0
   17.7138   26.0577  -18.7274 H   0  0  0  0  0
   18.0928   26.3600  -17.0139 H   0  0  0  0  0
   18.6987   24.8888  -17.8137 H   0  0  0  0  0
   14.4582   14.8393  -18.2138 H   0  0  0  0  0
   15.7532   14.4231  -19.3631 H   0  0  0  0  0
   15.2940   13.2722  -18.0841 H   0  0  0  0  0
   17.1734   14.8897  -15.5222 H   0  0  0  0  0
   15.4249   15.2108  -15.6256 H   0  0  0  0  0
   16.0460   13.5653  -15.9042 H   0  0  0  0  0
   18.4588   23.7501  -18.6164 H   0  0  0  0  0
  2  1  4  0  0  0
  3  1  4  0  0  0
  4  2  4  0  0  0
  5  3  4  0  0  0
 16  4  4  0  0  0
 16  5  4  0  0  0
  6  7  4  0  0  0
 18  6  4  0  0  0
  7 20  4  0  0  0
  8 11  4  0  0  0
 19  8  4  0  0  0
  9 12  4  0  0  0
 19  9  4  0  0  0
 10 15  4  0  0  0
 18 10  4  0  0  0
 11 28  4  0  0  0
 12 28  4  0  0  0
 22 13  4  0  0  0
 13 29  4  0  0  0
 29 14  4  0  0  0
 14 31  4  0  0  0
 15 20  4  0  0  0
 15 21  4  0  0  0
 17 16  1  0  0  0
 21 17  4  0  0  0
 17 23  4  0  0  0
 27 18  1  0  0  0
 27 19  1  0  0  0
 20 30  4  0  0  0
 21 34  1  0  0  0
 22 27  1  0  0  0
 22 31  4  0  0  0
 23 30  4  0  0  0
 23 32  1  0  0  0
 31 24  1  0  0  0
 32 25  1  0  0  0
 32 26  1  0  0  0
 27 33  1  0  0  0
  1 35  1  0  0  0
  2 36  1  0  0  0
  3 37  1  0  0  0
  4 38  1  0  0  0
  5 39  1  0  0  0
  6 40  1  0  0  0
  7 41  1  0  0  0
  8 42  1  0  0  0
  9 43  1  0  0  0
 10 44  1  0  0  0
 11 45  1  0  0  0
 12 46  1  0  0  0
 13 47  1  0  0  0
 14 48  1  0  0  0
 24 49  1  0  0  0
 24 50  1  0  0  0
 24 51  1  0  0  0
 25 52  1  0  0  0
 25 53  1  0  0  0
 25 54  1  0  0  0
 26 55  1  0  0  0
 26 56  1  0  0  0
 26 57  1  0  0  0
 33 58  1  0  0  0
M  END
$$$$
