3uvn_ligand
  -I-interpret- 

125126  0  0  0  0  0  0  0  0999 V2000
   -3.4810   18.8410    3.7960 N   0  3  0  0  0
   -3.9660   18.1240    2.6340 C   0  0  0  0  0
   -4.6100   16.7880    2.9650 C   0  0  0  0  0
   -4.7320   16.3730    4.1300 O   0  0  0  0  0
   -5.0230   16.1080    1.9100 N   0  0  0  0  0
   -5.5390   14.7510    2.0060 C   0  0  0  0  0
   -4.8650   14.0270    0.8640 C   0  0  0  0  0
   -4.4190   14.6870   -0.0740 O   0  0  0  0  0
   -7.0690   14.7200    1.8850 C   0  0  0  0  0
   -7.4850   15.0640    0.5700 O   0  0  0  0  0
   -4.8060   12.6930    0.9150 N   0  0  0  0  0
   -4.1910   11.9180   -0.1770 C   0  0  0  0  0
   -4.8580   12.2080   -1.5090 C   0  0  0  0  0
   -4.1630   12.4430   -2.5010 O   0  0  0  0  0
   -4.2470   10.4450    0.1250 C   0  0  0  0  0
   -6.2080   12.2960   -1.5350 N   0  0  0  0  0
   -6.8900   12.5810   -2.8050 C   0  0  0  0  0
   -6.5620   13.9610   -3.4000 C   0  0  0  0  0
   -6.4130   14.0640   -4.6210 O   0  0  0  0  0
   -8.4240   12.4050   -2.6590 C   0  0  0  0  0
   -9.1470   12.3750   -4.0070 C   0  0  0  0  0
  -10.6410   12.1980   -3.7910 C   0  0  0  0  0
  -10.9650   10.9310   -3.1280 N   0  0  0  0  0
  -11.1160    9.7840   -3.7670 C   0  0  0  0  0
  -11.0030    9.7330   -5.0940 N   0  0  0  0  0
  -11.4000    8.6780   -3.0930 N   0  0  0  0  0
   -6.4940   15.0110   -2.5520 N   0  0  0  0  0
   -6.2150   16.3960   -2.9970 C   0  0  0  0  0
   -4.7520   16.6390   -3.3650 C   0  0  0  0  0
   -4.4590   17.5880   -4.0830 O   0  0  0  0  0
   -6.7290   17.4300   -1.9880 C   0  0  0  0  0
   -6.0280   17.3930   -0.7560 O   0  0  0  0  0
   -3.8470   15.7610   -2.9260 N   0  0  0  0  0
   -2.4040   15.8260   -3.2460 C   0  0  0  0  0
   -2.1580   15.3840   -4.6940 C   0  0  0  0  0
   -1.4110   16.0480   -5.4170 O   0  0  0  0  0
   -1.6060   14.9240   -2.2880 C   0  0  0  0  0
   -2.7840   14.2740   -5.1180 N   0  0  0  0  0
   -2.6260   13.7680   -6.4780 C   0  0  0  0  0
   -1.4690   12.7920   -6.6890 C   0  0  0  0  0
   -0.7100   12.5020   -5.7540 O   0  0  0  0  0
   -1.3490   12.2760   -7.9330 N   0  0  0  0  0
   -0.3980   11.2660   -8.3820 C   0  0  0  0  0
    0.9760   11.7970   -8.8080 C   0  0  0  0  0
    1.0570   12.7740   -9.5480 O   0  0  0  0  0
   -1.0300   10.4840   -9.5630 C   0  0  0  0  0
   -0.1790    9.3660  -10.1360 C   0  0  0  0  0
    0.1770    8.2690   -9.3590 C   0  0  0  0  0
    0.2420    9.3900  -11.4690 C   0  0  0  0  0
    0.9470    7.2310   -9.8820 C   0  0  0  0  0
    1.0070    8.3510  -12.0060 C   0  0  0  0  0
    1.3650    7.2770  -11.2020 C   0  0  0  0  0
    2.1290    6.2490  -11.7050 O   0  0  0  0  0
    2.0480   11.0610   -8.4330 N   0  0  0  0  0
    3.4270   11.3460   -8.8410 C   0  0  0  0  0
    4.1440   10.1040   -9.3330 C   0  0  0  0  0
    4.3990   10.0010  -10.5280 O   0  0  0  0  0
    4.2330   12.0610   -7.7470 C   0  0  0  0  0
    3.7720   13.4830   -7.5720 C   0  0  0  0  0
    4.1660   14.4780   -8.4630 C   0  0  0  0  0
    2.8460   13.8170   -6.5890 C   0  0  0  0  0
    3.6900   15.7780   -8.3480 C   0  0  0  0  0
    2.3850   15.1200   -6.4460 C   0  0  0  0  0
    2.8090   16.1000   -7.3290 C   0  0  0  0  0
    2.3210   17.3780   -7.2220 O   0  0  0  0  0
    4.4724    9.1926   -8.5273 O   0  0  0  0  0
   -3.0637   19.7234    3.4999 H   0  0  0  0  0
   -4.2592   19.0269    4.4286 H   0  0  0  0  0
   -2.7798   18.2756    4.2747 H   0  0  0  0  0
   -3.1072   17.9220    1.9939 H   0  0  0  0  0
   -4.7277   18.7449    2.1625 H   0  0  0  0  0
   -4.9783   16.5517    0.9926 H   0  0  0  0  0
   -5.3293   14.2873    2.9699 H   0  0  0  0  0
   -7.4891   15.4430    2.5842 H   0  0  0  0  0
   -7.4163   13.7112    2.1082 H   0  0  0  0  0
   -8.4434   15.0371    0.5215 H   0  0  0  0  0
   -5.1926   12.2037    1.7222 H   0  0  0  0  0
   -3.1474   12.2237   -0.2518 H   0  0  0  0  0
   -3.7067   10.2443    1.0501 H   0  0  0  0  0
   -5.2868   10.1374    0.2360 H   0  0  0  0  0
   -3.7880    9.8900   -0.6931 H   0  0  0  0  0
   -6.7481   12.1655   -0.6796 H   0  0  0  0  0
   -6.5032   11.8492   -3.5142 H   0  0  0  0  0
   -8.8057   13.2553   -2.0938 H   0  0  0  0  0
   -8.6053   11.4524   -2.1612 H   0  0  0  0  0
   -8.7687   11.5413   -4.5986 H   0  0  0  0  0
   -8.9689   13.3142   -4.5307 H   0  0  0  0  0
  -11.1251   12.2004   -4.7676 H   0  0  0  0  0
  -10.9875   13.0105   -3.1524 H   0  0  0  0  0
  -11.0806   10.9351   -2.1146 H   0  0  0  0  0
  -11.1348    8.8478   -5.5834 H   0  0  0  0  0
  -10.7848   10.5791   -5.6202 H   0  0  0  0  0
  -11.5025    8.7110   -2.0787 H   0  0  0  0  0
   -6.6420   14.8416   -1.5571 H   0  0  0  0  0
   -6.7749   16.5272   -3.9230 H   0  0  0  0  0
   -7.7754   17.2041   -1.7830 H   0  0  0  0  0
   -6.5868   18.4193   -2.4228 H   0  0  0  0  0
   -6.3884   18.0572   -0.1640 H   0  0  0  0  0
   -4.1709   14.9972   -2.3326 H   0  0  0  0  0
   -2.0711   16.8572   -3.1278 H   0  0  0  0  0
   -1.7601   15.2593   -1.2624 H   0  0  0  0  0
   -1.9487   13.8944   -2.3904 H   0  0  0  0  0
   -0.5459   14.9817   -2.5351 H   0  0  0  0  0
   -3.3884   13.7691   -4.4698 H   0  0  0  0  0
   -2.4201   14.6332   -7.1082 H   0  0  0  0  0
   -3.5391   13.2211   -6.7129 H   0  0  0  0  0
   -1.9961   12.6332   -8.6359 H   0  0  0  0  0
   -0.2043   10.6328   -7.5162 H   0  0  0  0  0
   -1.1792   11.2041  -10.3676 H   0  0  0  0  0
   -1.9363   10.0175   -9.1768 H   0  0  0  0  0
   -0.1523    8.2197   -8.3211 H   0  0  0  0  0
   -0.0315   10.2348  -12.1012 H   0  0  0  0  0
    1.2199    6.3839   -9.2527 H   0  0  0  0  0
    1.3207    8.3835  -13.0494 H   0  0  0  0  0
    2.3363    6.4266  -12.6254 H   0  0  0  0  0
    1.8861   10.2562   -7.8276 H   0  0  0  0  0
    3.3549   12.0368   -9.6810 H   0  0  0  0  0
    5.2833   12.0693   -8.0383 H   0  0  0  0  0
    4.0887   11.5304   -6.8059 H   0  0  0  0  0
    4.8610   14.2322   -9.2659 H   0  0  0  0  0
    2.4751   13.0419   -5.9183 H   0  0  0  0  0
    4.0087   16.5419   -9.0572 H   0  0  0  0  0
    1.6925   15.3702   -5.6423 H   0  0  0  0  0
    1.7284   17.4310   -6.4686 H   0  0  0  0  0
    4.1976    9.4367   -7.6405 H   0  0  0  0  0
  1  2  1  0  0  0
  2  3  1  0  0  0
  3  4  2  0  0  0
  3  5  1  0  0  0
  5  6  1  0  0  0
  6  7  1  0  0  0
  6  9  1  0  0  0
  7  8  2  0  0  0
  7 11  1  0  0  0
  9 10  1  0  0  0
 11 12  1  0  0  0
 12 13  1  0  0  0
 12 15  1  0  0  0
 13 14  2  0  0  0
 13 16  1  0  0  0
 16 17  1  0  0  0
 17 18  1  0  0  0
 17 20  1  0  0  0
 18 19  2  0  0  0
 18 27  1  0  0  0
 20 21  1  0  0  0
 21 22  1  0  0  0
 22 23  1  0  0  0
 23 24  1  0  0  0
 24 25  1  0  0  0
 24 26  2  0  0  0
 27 28  1  0  0  0
 28 29  1  0  0  0
 28 31  1  0  0  0
 29 30  2  0  0  0
 29 33  1  0  0  0
 31 32  1  0  0  0
 33 34  1  0  0  0
 34 35  1  0  0  0
 34 37  1  0  0  0
 35 36  2  0  0  0
 35 38  1  0  0  0
 38 39  1  0  0  0
 39 40  1  0  0  0
 40 41  2  0  0  0
 40 42  1  0  0  0
 42 43  1  0  0  0
 43 44  1  0  0  0
 43 46  1  0  0  0
 44 45  2  0  0  0
 44 54  1  0  0  0
 46 47  1  0  0  0
 47 48  4  0  0  0
 47 49  4  0  0  0
 48 50  4  0  0  0
 49 51  4  0  0  0
 50 52  4  0  0  0
 51 52  4  0  0  0
 52 53  1  0  0  0
 54 55  1  0  0  0
 55 56  1  0  0  0
 55 58  1  0  0  0
 56 57  2  0  0  0
 58 59  1  0  0  0
 59 60  4  0  0  0
 59 61  4  0  0  0
 60 62  4  0  0  0
 61 63  4  0  0  0
 62 64  4  0  0  0
 63 64  4  0  0  0
 64 65  1  0  0  0
 56 66  1  0  0  0
  1 67  1  0  0  0
  1 68  1  0  0  0
  1 69  1  0  0  0
  2 70  1  0  0  0
  2 71  1  0  0  0
  5 72  1  0  0  0
  6 73  1  0  0  0
  9 74  1  0  0  0
  9 75  1  0  0  0
 10 76  1  0  0  0
 11 77  1  0  0  0
 12 78  1  0  0  0
 15 79  1  0  0  0
 15 80  1  0  0  0
 15 81  1  0  0  0
 16 82  1  0  0  0
 17 83  1  0  0  0
 20 84  1  0  0  0
 20 85  1  0  0  0
 21 86  1  0  0  0
 21 87  1  0  0  0
 22 88  1  0  0  0
 22 89  1  0  0  0
 23 90  1  0  0  0
 25 91  1  0  0  0
 25 92  1  0  0  0
 26 93  1  0  0  0
 27 94  1  0  0  0
 28 95  1  0  0  0
 31 96  1  0  0  0
 31 97  1  0  0  0
 32 98  1  0  0  0
 33 99  1  0  0  0
 34100  1  0  0  0
 37101  1  0  0  0
 37102  1  0  0  0
 37103  1  0  0  0
 38104  1  0  0  0
 39105  1  0  0  0
 39106  1  0  0  0
 42107  1  0  0  0
 43108  1  0  0  0
 46109  1  0  0  0
 46110  1  0  0  0
 48111  1  0  0  0
 49112  1  0  0  0
 50113  1  0  0  0
 51114  1  0  0  0
 53115  1  0  0  0
 54116  1  0  0  0
 55117  1  0  0  0
 58118  1  0  0  0
 58119  1  0  0  0
 60120  1  0  0  0
 61121  1  0  0  0
 62122  1  0  0  0
 63123  1  0  0  0
 65124  1  0  0  0
 66125  1  0  0  0
M  END
$$$$
