### 
### Created by X-TOOL on Mon Sep 10 21:13:06 2018
### 

@<TRIPOS>MOLECULE
3uvn_ligand
  125   126     1     0     0
SMALL
GAST_HUCK


@<TRIPOS>ATOM
      1 N          -3.4810   18.8410    3.7960 N.4       1 GLY         0.2357
      2 CA         -3.9660   18.1240    2.6340 C.3       1 GLY         0.0545
      3 C          -4.6100   16.7880    2.9650 C.2       1 GLY         0.2237
      4 O          -4.7320   16.3730    4.1300 O.2       1 GLY        -0.3910
      5 N          -5.0230   16.1080    1.9100 N.am      1 SER        -0.2591
      6 CA         -5.5390   14.7510    2.0060 C.3       1 SER         0.1540
      7 C          -4.8650   14.0270    0.8640 C.2       1 SER         0.2062
      8 O          -4.4190   14.6870   -0.0740 O.2       1 SER        -0.3943
      9 CB         -7.0690   14.7200    1.8850 C.3       1 SER         0.0843
     10 OG         -7.4850   15.0640    0.5700 O.3       1 SER        -0.3903
     11 N          -4.8060   12.6930    0.9150 N.am      1 ALA        -0.2639
     12 CA         -4.1910   11.9180   -0.1770 C.3       1 ALA         0.1282
     13 C          -4.8580   12.2080   -1.5090 C.2       1 ALA         0.2036
     14 O          -4.1630   12.4430   -2.5010 O.2       1 ALA        -0.3944
     15 CB         -4.2470   10.4450    0.1250 C.3       1 ALA        -0.0244
     16 N          -6.2080   12.2960   -1.5350 N.am      1 ARG        -0.2637
     17 CA         -6.8900   12.5810   -2.8050 C.3       1 ARG         0.1311
     18 C          -6.5620   13.9610   -3.4000 C.2       1 ARG         0.2040
     19 O          -6.4130   14.0640   -4.6210 O.2       1 ARG        -0.3944
     20 CB         -8.4240   12.4050   -2.6590 C.3       1 ARG        -0.0092
     21 CG         -9.1470   12.3750   -4.0070 C.3       1 ARG        -0.0156
     22 CD        -10.6410   12.1980   -3.7910 C.3       1 ARG         0.0627
     23 NE        -10.9650   10.9310   -3.1280 N.pl3     1 ARG        -0.2723
     24 CZ        -11.1160    9.7840   -3.7670 C.cat     1 ARG         0.2882
     25 NH1       -11.0030    9.7330   -5.0940 N.pl3     1 ARG        -0.2849
     26 NH2       -11.4000    8.6780   -3.0930 N.pl3     1 ARG        -0.2849
     27 N          -6.4940   15.0110   -2.5520 N.am      1 SER        -0.2616
     28 CA         -6.2150   16.3960   -2.9970 C.3       1 SER         0.1539
     29 C          -4.7520   16.6390   -3.3650 C.2       1 SER         0.2062
     30 O          -4.4590   17.5880   -4.0830 O.2       1 SER        -0.3943
     31 CB         -6.7290   17.4300   -1.9880 C.3       1 SER         0.0843
     32 OG         -6.0280   17.3930   -0.7560 O.3       1 SER        -0.3903
     33 N          -3.8470   15.7610   -2.9260 N.am      1 GLU        -0.2639
     34 CA         -2.4040   15.8260   -3.2460 C.3       1 GLU         0.1282
     35 C          -2.1580   15.3840   -4.6940 C.2       1 GLU         0.2034
     36 O          -1.4110   16.0480   -5.4170 O.2       1 GLU        -0.3944
     37 CB         -1.6060   14.9240   -2.2880 C.3       1 GLU        -0.0244
     38 N          -2.7840   14.2740   -5.1180 N.am      1 GLY        -0.2664
     39 CA         -2.6260   13.7680   -6.4780 C.3       1 GLY         0.1201
     40 C          -1.4690   12.7920   -6.6890 C.2       1 GLY         0.2009
     41 O          -0.7100   12.5020   -5.7540 O.2       1 GLY        -0.3947
     42 N          -1.3490   12.2760   -7.9330 N.am      1 TYR        -0.2624
     43 CA         -0.3980   11.2660   -8.3820 C.3       1 TYR         0.1390
     44 C           0.9760   11.7970   -8.8080 C.2       1 TYR         0.2053
     45 O           1.0570   12.7740   -9.5480 O.2       1 TYR        -0.3942
     46 CB         -1.0300   10.4840   -9.5630 C.3       1 TYR         0.0163
     47 CG         -0.1790    9.3660  -10.1360 C.ar      1 TYR        -0.0493
     48 CD1         0.1770    8.2690   -9.3590 C.ar      1 TYR        -0.0685
     49 CD2         0.2420    9.3900  -11.4690 C.ar      1 TYR        -0.0685
     50 CE1         0.9470    7.2310   -9.8820 C.ar      1 TYR        -0.0398
     51 CE2         1.0070    8.3510  -12.0060 C.ar      1 TYR        -0.0398
     52 CZ          1.3650    7.2770  -11.2020 C.ar      1 TYR         0.0805
     53 OH          2.1290    6.2490  -11.7050 O.3       1 TYR        -0.3376
     54 N           2.0480   11.0610   -8.4330 N.am      1 TYR        -0.2678
     55 CA          3.4270   11.3460   -8.8410 C.3       1 TYR         0.1025
     56 C           4.1440   10.1040   -9.3330 C.2       1 TYR         0.0619
     57 O           4.3990   10.0010  -10.5280 O.co2     1 TYR        -0.5665
     58 CB          4.2330   12.0610   -7.7470 C.3       1 TYR         0.0108
     59 CG          3.7720   13.4830   -7.5720 C.ar      1 TYR        -0.0499
     60 CD1         4.1660   14.4780   -8.4630 C.ar      1 TYR        -0.0686
     61 CD2         2.8460   13.8170   -6.5890 C.ar      1 TYR        -0.0686
     62 CE1         3.6900   15.7780   -8.3480 C.ar      1 TYR        -0.0398
     63 CE2         2.3850   15.1200   -6.4460 C.ar      1 TYR        -0.0398
     64 CZ          2.8090   16.1000   -7.3290 C.ar      1 TYR         0.0805
     65 OH          2.3210   17.3780   -7.2220 O.3       1 TYR        -0.3376
     66 H          -3.0637   19.7234    3.4999 H         1 GLY         0.2012
     67 H          -4.2592   19.0269    4.4286 H         1 GLY         0.2012
     68 H          -2.7798   18.2756    4.2747 H         1 GLY         0.2012
     69 H          -3.1072   17.9220    1.9939 H         1 GLY         0.1061
     70 H          -4.7277   18.7449    2.1625 H         1 GLY         0.1061
     71 H          -4.9783   16.5517    0.9926 H         1 SER         0.1885
     72 H          -5.3293   14.2873    2.9699 H         1 SER         0.0823
     73 H          -7.4891   15.4430    2.5842 H         1 SER         0.0606
     74 H          -7.4163   13.7112    2.1082 H         1 SER         0.0606
     75 H          -7.1775   15.9487    0.3595 H         1 SER         0.2097
     76 H          -5.1926   12.2037    1.7222 H         1 ALA         0.1883
     77 H          -3.1474   12.2237   -0.2518 H         1 ALA         0.0797
     78 H          -3.7067   10.2443    1.0501 H         1 ALA         0.0277
     79 H          -5.2868   10.1374    0.2360 H         1 ALA         0.0277
     80 H          -3.7880    9.8900   -0.6931 H         1 ALA         0.0277
     81 H          -6.7481   12.1655   -0.6796 H         1 ARG         0.1883
     82 H          -6.5032   11.8492   -3.5142 H         1 ARG         0.0800
     83 H          -8.8057   13.2553   -2.0938 H         1 ARG         0.0313
     84 H          -8.6053   11.4524   -2.1612 H         1 ARG         0.0313
     85 H          -8.7687   11.5413   -4.5986 H         1 ARG         0.0301
     86 H          -8.9689   13.3142   -4.5307 H         1 ARG         0.0301
     87 H         -11.1251   12.2004   -4.7676 H         1 ARG         0.0689
     88 H         -10.9875   13.0105   -3.1524 H         1 ARG         0.0689
     89 H         -11.0806   10.9351   -2.1146 H         1 ARG         0.2642
     90 H         -10.7990   10.5819   -5.6215 H         1 ARG         0.2615
     91 H         -11.1205    8.8451   -5.5821 H         1 ARG         0.2615
     92 H         -11.5025    8.7110   -2.0787 H         1 ARG         0.2615
     93 H         -11.5160    7.7942   -3.5888 H         1 ARG         0.2615
     94 H          -6.6420   14.8416   -1.5571 H         1 SER         0.1884
     95 H          -6.7749   16.5272   -3.9230 H         1 SER         0.0823
     96 H          -7.7754   17.2041   -1.7830 H         1 SER         0.0606
     97 H          -6.5868   18.4193   -2.4228 H         1 SER         0.0606
     98 H          -6.1245   16.5238   -0.3602 H         1 SER         0.2097
     99 H          -4.1709   14.9972   -2.3326 H         1 GLU         0.1883
    100 H          -2.0711   16.8572   -3.1278 H         1 GLU         0.0797
    101 H          -1.7601   15.2593   -1.2624 H         1 GLU         0.0277
    102 H          -1.9487   13.8944   -2.3904 H         1 GLU         0.0277
    103 H          -0.5459   14.9817   -2.5351 H         1 GLU         0.0277
    104 H          -3.3884   13.7691   -4.4698 H         1 GLY         0.1881
    105 H          -2.4201   14.6332   -7.1082 H         1 GLY         0.0763
    106 H          -3.5391   13.2211   -6.7129 H         1 GLY         0.0763
    107 H          -1.9961   12.6332   -8.6359 H         1 TYR         0.1885
    108 H          -0.2043   10.6328   -7.5162 H         1 TYR         0.0821
    109 H          -1.1792   11.2041  -10.3676 H         1 TYR         0.0453
    110 H          -1.9363   10.0175   -9.1768 H         1 TYR         0.0453
    111 H          -0.1523    8.2197   -8.3211 H         1 TYR         0.0530
    112 H          -0.0315   10.2348  -12.1012 H         1 TYR         0.0530
    113 H           1.2199    6.3839   -9.2527 H         1 TYR         0.0525
    114 H           1.3207    8.3835  -13.0494 H         1 TYR         0.0525
    115 H           2.2798    5.5973  -11.0164 H         1 TYR         0.2458
    116 H           1.8861   10.2562   -7.8276 H         1 TYR         0.1877
    117 H           3.3549   12.0368   -9.6810 H         1 TYR         0.0747
    118 O           4.4724    9.1926   -8.5273 O.co2     1 TYR        -0.5665
    119 H           5.2833   12.0693   -8.0383 H         1 TYR         0.0446
    120 H           4.0887   11.5304   -6.8059 H         1 TYR         0.0446
    121 H           4.8610   14.2322   -9.2659 H         1 TYR         0.0530
    122 H           2.4751   13.0419   -5.9183 H         1 TYR         0.0530
    123 H           4.0087   16.5419   -9.0572 H         1 TYR         0.0525
    124 H           1.6925   15.3702   -5.6423 H         1 TYR         0.0525
    125 H           2.7136   17.9274   -7.9043 H         1 TYR         0.2458
@<TRIPOS>BOND
     1    1    2 1  
     2    2    3 1  
     3    3    4 2  
     4    3    5 am 
     5    5    6 1  
     6    6    7 1  
     7    6    9 1  
     8    7    8 2  
     9    7   11 am 
    10    9   10 1  
    11   11   12 1  
    12   12   13 1  
    13   12   15 1  
    14   13   14 2  
    15   13   16 am 
    16   16   17 1  
    17   17   18 1  
    18   17   20 1  
    19   18   19 2  
    20   18   27 am 
    21   20   21 1  
    22   21   22 1  
    23   22   23 1  
    24   23   24 ar 
    25   24   25 ar 
    26   24   26 ar 
    27   27   28 1  
    28   28   29 1  
    29   28   31 1  
    30   29   30 2  
    31   29   33 am 
    32   31   32 1  
    33   33   34 1  
    34   34   35 1  
    35   34   37 1  
    36   35   36 2  
    37   35   38 am 
    38   38   39 1  
    39   39   40 1  
    40   40   41 2  
    41   40   42 am 
    42   42   43 1  
    43   43   44 1  
    44   43   46 1  
    45   44   45 2  
    46   44   54 am 
    47   46   47 1  
    48   47   48 ar 
    49   47   49 ar 
    50   48   50 ar 
    51   49   51 ar 
    52   50   52 ar 
    53   51   52 ar 
    54   52   53 1  
    55   54   55 1  
    56   55   56 1  
    57   55   58 1  
    58   56   57 ar 
    59   58   59 1  
    60   59   60 ar 
    61   59   61 ar 
    62   60   62 ar 
    63   61   63 ar 
    64   62   64 ar 
    65   63   64 ar 
    66   64   65 1  
    67    1   66 1  
    68    1   67 1  
    69    1   68 1  
    70    2   69 1  
    71    2   70 1  
    72    5   71 1  
    73    6   72 1  
    74    9   73 1  
    75    9   74 1  
    76   10   75 1  
    77   11   76 1  
    78   12   77 1  
    79   15   78 1  
    80   15   79 1  
    81   15   80 1  
    82   16   81 1  
    83   17   82 1  
    84   20   83 1  
    85   20   84 1  
    86   21   85 1  
    87   21   86 1  
    88   22   87 1  
    89   22   88 1  
    90   23   89 1  
    91   25   90 1  
    92   25   91 1  
    93   26   92 1  
    94   26   93 1  
    95   27   94 1  
    96   28   95 1  
    97   31   96 1  
    98   31   97 1  
    99   32   98 1  
   100   33   99 1  
   101   34  100 1  
   102   37  101 1  
   103   37  102 1  
   104   37  103 1  
   105   38  104 1  
   106   39  105 1  
   107   39  106 1  
   108   42  107 1  
   109   43  108 1  
   110   46  109 1  
   111   46  110 1  
   112   48  111 1  
   113   49  112 1  
   114   50  113 1  
   115   51  114 1  
   116   53  115 1  
   117   54  116 1  
   118   55  117 1  
   119   56  118 ar 
   120   58  119 1  
   121   58  120 1  
   122   60  121 1  
   123   61  122 1  
   124   62  123 1  
   125   63  124 1  
   126   65  125 1  
@<TRIPOS>SUBSTRUCTURE
     1 GLY         1

