### 
### Created by X-TOOL on Mon Sep 10 21:12:50 2018
### 

@<TRIPOS>MOLECULE
1lv8_ligand
   33    34     1     0     0
SMALL
GAST_HUCK


@<TRIPOS>ATOM
      1 N9        -40.2740   -8.6830  220.9790 N.pl3     1 9PP        -0.2248
      2 C8        -39.1920   -9.1180  220.2040 C.2       1 9PP         0.1046
      3 N7        -39.6140   -9.9630  219.2480 N.2       1 9PP        -0.3043
      4 C5        -41.0010  -10.0900  219.3890 C.ar      1 9PP         0.0915
      5 C6        -42.0150  -10.8630  218.6410 C.ar      1 9PP         0.1178
      6 N6        -41.8310  -11.6210  217.6560 N.pl3     1 9PP        -0.3173
      7 N1        -43.3520  -10.6790  219.1480 N.ar      1 9PP        -0.2565
      8 C2        -43.6720   -9.8540  220.2470 C.ar      1 9PP         0.1516
      9 N2        -44.9630   -9.7620  220.6220 N.pl3     1 9PP        -0.3115
     10 N3        -42.7250   -9.1360  220.9500 N.ar      1 9PP        -0.2647
     11 C4        -41.4300   -9.2940  220.4760 C.ar      1 9PP         0.1422
     12 C10       -40.2480   -7.7790  222.0580 C.3       1 9PP         0.0855
     13 C11       -39.3670   -8.1830  223.2580 C.3       1 9PP         0.0849
     14 C12       -40.0600   -9.3570  223.9560 C.3       1 9PP        -0.0360
     15 O13       -39.2820   -7.0650  224.2000 O.3       1 9PP        -0.3569
     16 P         -38.3820   -4.7290  224.5810 P.3       1 9PP         0.0846
     17 C14       -38.2090   -6.1120  223.8810 C.3       1 9PP         0.1181
     18 O2P       -37.3310   -3.7990  224.1260 O.co2     1 9PP        -0.5607
     19 O3P       -39.7090   -4.0880  224.2380 O.co2     1 9PP        -0.5607
     20 O1P       -38.3250   -4.8750  226.0510 O.co2     1 9PP        -0.5607
     21 H1        -38.1569   -8.8150  220.3544 H         1 9PP         0.1309
     22 H2        -42.6300  -12.1052  217.2224 H         1 9PP         0.1820
     23 H3        -40.8811  -11.7582  217.2821 H         1 9PP         0.1820
     24 H4        -45.6863  -10.2889  220.1119 H         1 9PP         0.1808
     25 H5        -45.2265   -9.1648  221.4188 H         1 9PP         0.1808
     26 H6        -41.2790   -7.6603  222.4225 H         1 9PP         0.0638
     27 H7        -39.8794   -6.8141  221.6798 H         1 9PP         0.0638
     28 H8        -38.3615   -8.4716  222.9180 H         1 9PP         0.0621
     29 H9        -39.4597   -9.6753  224.8210 H         1 9PP         0.0255
     30 H10       -40.1604  -10.1953  223.2509 H         1 9PP         0.0255
     31 H11       -41.0576   -9.0435  224.2974 H         1 9PP         0.0255
     32 H12       -38.1959   -5.9529  222.7927 H         1 9PP         0.0753
     33 H13       -37.2501   -6.5467  224.1997 H         1 9PP         0.0753
@<TRIPOS>BOND
     1    1    2 1  
     2    1   11 1  
     3   12    1 1  
     4    2    3 2  
     5    4    3 1  
     6    4    5 ar 
     7   11    4 ar 
     8    5    6 1  
     9    5    7 ar 
    10    8    7 ar 
    11    8    9 1  
    12   10    8 ar 
    13   11   10 ar 
    14   13   12 1  
    15   13   14 1  
    16   15   13 1  
    17   17   15 1  
    18   16   20 ar 
    19   16   19 ar 
    20   16   18 ar 
    21   17   16 1  
    22    2   21 1  
    23    6   22 1  
    24    6   23 1  
    25    9   24 1  
    26    9   25 1  
    27   12   26 1  
    28   12   27 1  
    29   13   28 1  
    30   14   29 1  
    31   14   30 1  
    32   14   31 1  
    33   17   32 1  
    34   17   33 1  
@<TRIPOS>SUBSTRUCTURE
     1 9PP         1

