1lv8_ligand
  -I-interpret- 

 35 36  0  0  0  0  0  0  0  0999 V2000
  -40.2740   -8.6830  220.9790 N   0  0  0  0  0
  -39.1920   -9.1180  220.2040 C   0  0  0  0  0
  -39.6140   -9.9630  219.2480 N   0  0  0  0  0
  -41.0010  -10.0900  219.3890 C   0  0  0  0  0
  -42.0150  -10.8630  218.6410 C   0  0  0  0  0
  -41.8310  -11.6210  217.6560 N   0  0  0  0  0
  -43.3520  -10.6790  219.1480 N   0  0  0  0  0
  -43.6720   -9.8540  220.2470 C   0  0  0  0  0
  -44.9630   -9.7620  220.6220 N   0  0  0  0  0
  -42.7250   -9.1360  220.9500 N   0  0  0  0  0
  -41.4300   -9.2940  220.4760 C   0  0  0  0  0
  -40.2480   -7.7790  222.0580 C   0  0  0  0  0
  -39.3670   -8.1830  223.2580 C   0  0  0  0  0
  -40.0600   -9.3570  223.9560 C   0  0  0  0  0
  -39.2820   -7.0650  224.2000 O   0  0  0  0  0
  -38.3820   -4.7290  224.5810 P   0  0  0  0  0
  -38.2090   -6.1120  223.8810 C   0  0  0  0  0
  -37.3310   -3.7990  224.1260 O   0  0  0  0  0
  -39.7090   -4.0880  224.2380 O   0  0  0  0  0
  -38.3250   -4.8750  226.0510 O   0  0  0  0  0
  -38.1559   -8.8147  220.3545 H   0  0  0  0  0
  -40.8903  -11.7569  217.2857 H   0  0  0  0  0
  -42.6223  -12.1005  217.2266 H   0  0  0  0  0
  -45.6796  -10.2813  220.1149 H   0  0  0  0  0
  -45.2236   -9.1731  221.4130 H   0  0  0  0  0
  -41.2695   -7.7218  222.4339 H   0  0  0  0  0
  -39.8289   -6.8508  221.6695 H   0  0  0  0  0
  -38.3646   -8.4517  222.9247 H   0  0  0  0  0
  -41.0483   -9.0451  224.2938 H   0  0  0  0  0
  -40.1589  -10.1869  223.2563 H   0  0  0  0  0
  -39.4643   -9.6715  224.8129 H   0  0  0  0  0
  -38.2303   -5.9409  222.8047 H   0  0  0  0  0
  -37.2712   -6.5431  224.2316 H   0  0  0  0  0
  -40.4236   -4.6642  224.5190 H   0  0  0  0  0
  -39.0117   -5.4813  226.3381 H   0  0  0  0  0
  1  2  4  0  0  0
  1 11  4  0  0  0
 12  1  1  0  0  0
  2  3  4  0  0  0
  4  3  4  0  0  0
  4  5  4  0  0  0
 11  4  4  0  0  0
  5  6  1  0  0  0
  5  7  4  0  0  0
  8  7  4  0  0  0
  8  9  1  0  0  0
 10  8  4  0  0  0
 11 10  4  0  0  0
 13 12  1  0  0  0
 13 14  1  0  0  0
 15 13  1  0  0  0
 17 15  1  0  0  0
 16 20  1  0  0  0
 16 19  1  0  0  0
 16 18  2  0  0  0
 17 16  1  0  0  0
  2 21  1  0  0  0
  6 22  1  0  0  0
  6 23  1  0  0  0
  9 24  1  0  0  0
  9 25  1  0  0  0
 12 26  1  0  0  0
 12 27  1  0  0  0
 13 28  1  0  0  0
 14 29  1  0  0  0
 14 30  1  0  0  0
 14 31  1  0  0  0
 17 32  1  0  0  0
 17 33  1  0  0  0
 19 34  1  0  0  0
 20 35  1  0  0  0
M  END
$$$$
