4bdh_ligand
  -I-interpret- 

 20 21  0  0  0  0  0  0  0  0999 V2000
  -36.2360   35.6300    9.1240 C   0  0  0  0  0
  -38.5520   32.6990    5.7840 N   0  0  0  0  0
  -37.8690   33.6750    6.3860 C   0  0  0  0  0
  -37.5210   33.7750    7.7780 C   0  0  0  0  0
  -36.8250   34.9700    7.9180 C   0  0  0  0  0
  -36.7460   35.5230    6.6970 N   0  0  0  0  0
  -37.0140   32.4990    9.9650 C   0  0  0  0  0
  -37.7900   32.7530    8.8040 C   0  0  0  0  0
  -39.1280   31.6710    8.7210 S   0  0  0  0  0
  -38.6740   30.9080   10.1890 C   0  0  0  0  0
  -37.3690   34.7690    5.7450 N   0  0  0  0  0
  -37.5550   31.4350   10.7310 C   0  0  0  0  0
  -37.0253   35.8315    9.8482 H   0  0  0  0  0
  -35.4914   34.9707    9.5702 H   0  0  0  0  0
  -35.7635   36.5671    8.8294 H   0  0  0  0  0
  -38.8920   31.9049    6.3264 H   0  0  0  0  0
  -38.7340   32.7472    4.7815 H   0  0  0  0  0
  -36.1145   33.0526   10.2343 H   0  0  0  0  0
  -39.2302   30.0846   10.6370 H   0  0  0  0  0
  -37.1130   31.0792   11.6616 H   0  0  0  0  0
  5  1  1  0  0  0
  3  2  1  0  0  0
  4  3  4  0  0  0
  3 11  4  0  0  0
  4  5  4  0  0  0
  4  8  1  0  0  0
  5  6  4  0  0  0
  6 11  4  0  0  0
  8  7  4  0  0  0
  7 12  4  0  0  0
  8  9  4  0  0  0
  9 10  4  0  0  0
 10 12  4  0  0  0
  1 13  1  0  0  0
  1 14  1  0  0  0
  1 15  1  0  0  0
  2 16  1  0  0  0
  2 17  1  0  0  0
  7 18  1  0  0  0
 10 19  1  0  0  0
 12 20  1  0  0  0
M  END
$$$$
