3msl_ligand
  -I-interpret- 

 52 54  0  0  0  0  0  0  0  0999 V2000
   16.1240  -39.8010    9.4860 C   0  0  0  0  0
   16.3290  -40.1780   10.8120 C   0  0  0  0  0
   16.7120  -39.2160   11.7480 C   0  0  0  0  0
   16.8960  -37.8790   11.3850 C   0  0  0  0  0
   16.7030  -37.4520   10.0710 C   0  0  0  0  0
   16.3210  -38.3730    9.1020 C   0  0  0  0  0
   16.0640  -38.2780    7.7840 N   0  0  0  0  0
   15.7430  -39.5300    7.4130 C   0  0  0  0  0
   15.7630  -40.4650    8.3790 N   0  0  0  0  0
   15.4230  -39.7900    6.1210 N   0  0  0  0  0
   17.3890  -36.6830   12.6280 Cl  0  0  0  0  0
   15.4640  -41.9290    8.3070 C   0  0  0  0  0
   14.0700  -42.1990    7.7390 C   0  0  0  0  0
   12.9790  -41.6580    8.6390 C   0  0  0  0  0
   16.5270  -42.6560    7.4810 C   0  0  0  0  0
   17.9150  -42.3890    8.0250 C   0  0  0  0  0
   18.7410  -41.7300    7.2110 N   0  0  0  0  0
   18.2320  -42.7680    9.1430 O   0  0  0  0  0
   20.1270  -41.3260    7.4290 C   0  0  0  0  0
   20.0900  -39.9460    8.0830 C   0  0  0  0  0
   19.5460  -38.9000    7.1070 C   0  0  0  0  0
   19.5480  -37.5000    7.7230 C   0  0  0  0  0
   20.9360  -37.1020    8.2270 C   0  0  0  0  0
   21.5370  -38.1630    9.1510 C   0  0  0  0  0
   21.5040  -39.5570    8.5210 C   0  0  0  0  0
   16.1913  -41.2158   11.1157 H   0  0  0  0  0
   16.8710  -39.5139   12.7844 H   0  0  0  0  0
   16.8505  -36.4050    9.8062 H   0  0  0  0  0
   15.4262  -39.0367    5.4333 H   0  0  0  0  0
   15.1791  -40.7388    5.8370 H   0  0  0  0  0
   15.4839  -42.3150    9.3262 H   0  0  0  0  0
   13.9389  -43.2777    7.6534 H   0  0  0  0  0
   13.9929  -41.7022    6.7719 H   0  0  0  0  0
   13.0477  -42.1337    9.6173 H   0  0  0  0  0
   13.1009  -40.5804    8.7482 H   0  0  0  0  0
   12.0058  -41.8719    8.1971 H   0  0  0  0  0
   16.4789  -42.2945    6.4538 H   0  0  0  0  0
   16.3335  -43.7276    7.5282 H   0  0  0  0  0
   18.3478  -41.4711    6.3061 H   0  0  0  0  0
   20.6726  -41.2922    6.4860 H   0  0  0  0  0
   20.6425  -42.0428    8.0681 H   0  0  0  0  0
   19.4308  -39.9840    8.9502 H   0  0  0  0  0
   18.5187  -39.1644    6.8563 H   0  0  0  0  0
   20.1845  -38.8884    6.2236 H   0  0  0  0  0
   18.8626  -37.4981    8.5706 H   0  0  0  0  0
   19.2455  -36.7879    6.9552 H   0  0  0  0  0
   20.8405  -36.1740    8.7908 H   0  0  0  0  0
   21.5926  -36.9904    7.3641 H   0  0  0  0  0
   20.9483  -38.1894   10.0679 H   0  0  0  0  0
   22.5774  -37.8995    9.3412 H   0  0  0  0  0
   22.1472  -39.5518    7.6410 H   0  0  0  0  0
   21.8443  -40.2782    9.2641 H   0  0  0  0  0
  1  2  4  0  0  0
  1  6  4  0  0  0
  1  9  4  0  0  0
  2  3  4  0  0  0
  3  4  4  0  0  0
  4  5  4  0  0  0
  4 11  1  0  0  0
  5  6  4  0  0  0
  6  7  4  0  0  0
  7  8  4  0  0  0
  8  9  4  0  0  0
  8 10  1  0  0  0
  9 12  1  0  0  0
 12 13  1  0  0  0
 12 15  1  0  0  0
 13 14  1  0  0  0
 15 16  1  0  0  0
 16 17  1  0  0  0
 16 18  2  0  0  0
 17 19  1  0  0  0
 19 20  1  0  0  0
 20 21  1  0  0  0
 20 25  1  0  0  0
 21 22  1  0  0  0
 22 23  1  0  0  0
 23 24  1  0  0  0
 24 25  1  0  0  0
  2 26  1  0  0  0
  3 27  1  0  0  0
  5 28  1  0  0  0
 10 29  1  0  0  0
 10 30  1  0  0  0
 12 31  1  0  0  0
 13 32  1  0  0  0
 13 33  1  0  0  0
 14 34  1  0  0  0
 14 35  1  0  0  0
 14 36  1  0  0  0
 15 37  1  0  0  0
 15 38  1  0  0  0
 17 39  1  0  0  0
 19 40  1  0  0  0
 19 41  1  0  0  0
 20 42  1  0  0  0
 21 43  1  0  0  0
 21 44  1  0  0  0
 22 45  1  0  0  0
 22 46  1  0  0  0
 23 47  1  0  0  0
 23 48  1  0  0  0
 24 49  1  0  0  0
 24 50  1  0  0  0
 25 51  1  0  0  0
 25 52  1  0  0  0
M  END
$$$$
