3jvk_ligand
  -I-interpret- 

 54 53  0  0  0  0  0  0  0  0999 V2000
   10.2550  -12.2020  -11.9700 N   0  3  0  0  0
   11.2130  -11.0930  -11.7670 C   0  0  0  0  0
   12.0010  -11.5490  -10.5610 C   0  0  0  0  0
   12.1440  -12.7630  -10.3530 O   0  0  0  0  0
   12.5010  -10.6080   -9.7530 N   0  0  0  0  0
   13.1760  -10.9650   -8.5050 C   0  0  0  0  0
   14.0390   -9.9030   -7.8430 C   0  0  0  0  0
   14.9050   -9.3060   -8.4980 O   0  0  0  0  0
   14.6650   -4.4940    0.2770 O   0  0  0  0  0
   13.4390   -5.1340    0.4100 C   0  0  0  0  0
   12.4130   -4.1890    0.9300 C   0  0  0  0  0
   13.3230   -6.5030    0.0320 N   0  0  0  0  0
   13.2510   -6.5630   -1.4350 C   0  0  0  0  0
   13.7640   -7.8360   -2.0470 C   0  0  0  0  0
   14.0270   -7.7260   -3.5450 C   0  0  0  0  0
   13.8900   -9.1090   -4.1660 C   0  0  0  0  0
   14.6760   -9.3860   -5.4410 C   0  0  0  0  0
   13.7050   -9.6250   -6.5710 N   0  0  0  0  0
   15.5160  -10.6040   -5.0890 C   0  0  0  0  0
   14.9830  -11.7160   -4.9020 O   0  0  0  0  0
   16.8240  -10.4430   -4.9570 N   0  0  0  0  0
   17.7120  -11.5990   -5.1760 C   0  0  0  0  0
   17.5920  -12.6870   -4.1300 C   0  0  0  0  0
   17.4950  -13.8750   -4.4970 O   0  0  0  0  0
   19.1850  -11.1630   -5.3550 C   0  0  0  0  0
   17.5902  -12.3959   -2.9041 O   0  0  0  0  0
    9.6623  -11.9949  -12.7739 H   0  0  0  0  0
   10.7687  -13.0669  -12.1387 H   0  0  0  0  0
    9.6758  -12.3061  -11.1369 H   0  0  0  0  0
   10.7231  -10.1312  -11.6152 H   0  0  0  0  0
   11.8403  -10.9088  -12.6392 H   0  0  0  0  0
   12.4103   -9.6253  -10.0110 H   0  0  0  0  0
   13.8565  -11.7767   -8.7621 H   0  0  0  0  0
   12.3796  -11.1807   -7.7928 H   0  0  0  0  0
   12.7261   -3.8151    1.9048 H   0  0  0  0  0
   12.3049   -3.3547    0.2370 H   0  0  0  0  0
   11.4594   -4.7078    1.0277 H   0  0  0  0  0
   13.2949   -7.3006    0.6672 H   0  0  0  0  0
   13.8801   -5.7572   -1.8132 H   0  0  0  0  0
   12.1964   -6.4899   -1.7006 H   0  0  0  0  0
   13.0003   -8.6003   -1.9031 H   0  0  0  0  0
   14.7118   -8.0737   -1.5640 H   0  0  0  0  0
   15.0316   -7.3399   -3.7177 H   0  0  0  0  0
   13.3085   -7.0432   -3.9984 H   0  0  0  0  0
   12.8397   -9.2052   -4.4412 H   0  0  0  0  0
   14.2797   -9.8049   -3.4231 H   0  0  0  0  0
   15.3143   -8.5688   -5.7770 H   0  0  0  0  0
   12.7105   -9.5710   -6.3509 H   0  0  0  0  0
   17.2110   -9.5328   -4.7076 H   0  0  0  0  0
   17.3637  -12.0461   -6.1071 H   0  0  0  0  0
   19.2643  -10.5005   -6.2169 H   0  0  0  0  0
   19.5186  -10.6381   -4.4598 H   0  0  0  0  0
   19.8066  -12.0441   -5.5139 H   0  0  0  0  0
   17.6722  -11.4449   -2.8021 H   0  0  0  0  0
  2  1  1  0  0  0
  3  2  1  0  0  0
  3  4  2  0  0  0
  5  3  1  0  0  0
  6  5  1  0  0  0
  7  6  1  0  0  0
  7  8  2  0  0  0
 18  7  1  0  0  0
 10  9  2  0  0  0
 10 11  1  0  0  0
 12 10  1  0  0  0
 13 12  1  0  0  0
 14 13  1  0  0  0
 15 14  1  0  0  0
 16 15  1  0  0  0
 17 16  1  0  0  0
 17 18  1  0  0  0
 17 19  1  0  0  0
 19 20  2  0  0  0
 19 21  1  0  0  0
 21 22  1  0  0  0
 22 23  1  0  0  0
 22 25  1  0  0  0
 23 24  2  0  0  0
 23 26  1  0  0  0
  1 27  1  0  0  0
  1 28  1  0  0  0
  1 29  1  0  0  0
  2 30  1  0  0  0
  2 31  1  0  0  0
  5 32  1  0  0  0
  6 33  1  0  0  0
  6 34  1  0  0  0
 11 35  1  0  0  0
 11 36  1  0  0  0
 11 37  1  0  0  0
 12 38  1  0  0  0
 13 39  1  0  0  0
 13 40  1  0  0  0
 14 41  1  0  0  0
 14 42  1  0  0  0
 15 43  1  0  0  0
 15 44  1  0  0  0
 16 45  1  0  0  0
 16 46  1  0  0  0
 17 47  1  0  0  0
 18 48  1  0  0  0
 21 49  1  0  0  0
 22 50  1  0  0  0
 25 51  1  0  0  0
 25 52  1  0  0  0
 25 53  1  0  0  0
 26 54  1  0  0  0
M  END
$$$$
