### 
### Created by X-TOOL on Mon Sep 10 21:13:17 2018
### 

@<TRIPOS>MOLECULE
4w4z_ligand
  187   192     1     0     0
SMALL
GAST_HUCK


@<TRIPOS>ATOM
      1 N          -9.7810  -34.6200  -18.3270 N.4       1 ALA         0.2377
      2 CA         -9.0430  -33.3360  -18.5600 C.3       1 ALA         0.0623
      3 C          -9.9970  -32.1880  -18.3200 C.2       1 ALA         0.2289
      4 O         -11.1980  -32.4150  -18.1640 O.2       1 ALA        -0.3905
      5 CB         -8.4790  -33.2890  -19.9790 C.3       1 ALA        -0.0040
      6 N          -9.4790  -30.9510  -18.2610 N.am      1 PRO        -0.2471
      7 CA        -10.4520  -29.8690  -18.2710 C.3       1 PRO         0.1339
      8 C         -11.1300  -29.8050  -19.6410 C.2       1 PRO         0.2042
      9 O         -10.4720  -29.9980  -20.6640 O.2       1 PRO        -0.3944
     10 CB         -9.6010  -28.6100  -17.9970 C.3       1 PRO        -0.0104
     11 CG         -8.2150  -28.9780  -18.3730 C.3       1 PRO        -0.0281
     12 CD         -8.0930  -30.4570  -18.1160 C.3       1 PRO         0.0371
     13 N         -12.4390  -29.5590  -19.6370 N.am      1 TYR        -0.2621
     14 CA        -13.1990  -29.3490  -20.8560 C.3       1 TYR         0.1390
     15 C         -12.7090  -28.0640  -21.5390 C.2       1 TYR         0.2058
     16 O         -12.4990  -28.0680  -22.7580 O.2       1 TYR        -0.3942
     17 CB        -14.7130  -29.3150  -20.5280 C.3       1 TYR         0.0163
     18 CG        -15.6750  -29.2080  -21.7140 C.ar      1 TYR        -0.0493
     19 CD1       -15.5730  -30.0600  -22.8160 C.ar      1 TYR        -0.0685
     20 CD2       -16.7120  -28.2630  -21.7100 C.ar      1 TYR        -0.0685
     21 CE1       -16.4590  -29.9530  -23.8940 C.ar      1 TYR        -0.0398
     22 CE2       -17.5930  -28.1480  -22.7730 C.ar      1 TYR        -0.0398
     23 CZ        -17.4680  -28.9900  -23.8630 C.ar      1 TYR         0.0805
     24 OH        -18.3580  -28.8710  -24.9080 O.3       1 TYR        -0.3376
     25 N         -12.5050  -26.9960  -20.7510 N.am      1 CYS        -0.2628
     26 CA        -11.9590  -25.7060  -21.2360 C.3       1 CYS         0.1406
     27 C         -10.6780  -25.2560  -20.5190 C.2       1 CYS         0.2047
     28 O         -10.5390  -25.4610  -19.3200 O.2       1 CYS        -0.3944
     29 CB        -12.9590  -24.5680  -21.0230 C.3       1 CYS         0.0443
     30 SG        -14.6480  -24.8590  -21.5520 S.3       1 CYS        -0.0882
     31 N          -9.8020  -24.5710  -21.2610 N.am      1 VAL        -0.2634
     32 CA         -8.5500  -24.0230  -20.7550 C.3       1 VAL         0.1333
     33 C          -8.4540  -22.5160  -21.0440 C.2       1 VAL         0.2043
     34 O          -8.4930  -22.0950  -22.2080 O.2       1 VAL        -0.3944
     35 CB         -7.3470  -24.7170  -21.4270 C.3       1 VAL        -0.0063
     36 CG1        -6.0190  -24.1310  -20.9530 C.3       1 VAL        -0.0584
     37 CG2        -7.3760  -26.2190  -21.1580 C.3       1 VAL        -0.0584
     38 N          -8.2970  -21.7010  -19.9980 N.am      1 TYR        -0.2621
     39 CA         -8.0340  -20.2740  -20.1950 C.3       1 TYR         0.1390
     40 C          -6.5830  -20.0290  -20.5650 C.2       1 TYR         0.2057
     41 O          -5.6860  -20.3220  -19.7960 O.2       1 TYR        -0.3942
     42 CB         -8.3950  -19.4650  -18.9610 C.3       1 TYR         0.0163
     43 CG         -8.3510  -17.9810  -19.2120 C.ar      1 TYR        -0.0493
     44 CD1        -9.1330  -17.4100  -20.2180 C.ar      1 TYR        -0.0685
     45 CD2        -7.5380  -17.1470  -18.4500 C.ar      1 TYR        -0.0685
     46 CE1        -9.1000  -16.0500  -20.4620 C.ar      1 TYR        -0.0398
     47 CE2        -7.4950  -15.7910  -18.6840 C.ar      1 TYR        -0.0398
     48 CZ         -8.2770  -15.2430  -19.6880 C.ar      1 TYR         0.0805
     49 OH         -8.2450  -13.8980  -19.9250 O.3       1 TYR        -0.3376
     50 N          -6.3490  -19.5200  -21.7690 N.am      1 ARG        -0.2636
     51 CA         -4.9980  -19.2410  -22.2240 C.3       1 ARG         0.1309
     52 C          -4.7590  -17.7460  -22.4360 C.2       1 ARG         0.2018
     53 O          -3.7710  -17.3690  -23.0290 O.2       1 ARG        -0.3945
     54 CB         -4.6990  -20.0840  -23.4690 C.3       1 ARG        -0.0092
     55 CG         -4.6440  -21.5770  -23.1340 C.3       1 ARG        -0.0156
     56 CD         -4.3310  -22.4400  -24.3300 C.3       1 ARG         0.0627
     57 NE         -2.8990  -22.5270  -24.6210 N.pl3     1 ARG        -0.2723
     58 CZ         -2.3890  -23.0810  -25.7200 C.cat     1 ARG         0.2882
     59 NH1        -3.2050  -23.5820  -26.6490 N.pl3     1 ARG        -0.2849
     60 NH2        -1.0650  -23.1160  -25.9030 N.pl3     1 ARG        -0.2849
     61 N          -5.6560  -16.8990  -21.9000 N.am      1 BAL        -0.2828
     62 CB         -5.5480  -15.4600  -22.0100 C.3       1 BAL         0.0477
     63 CA         -6.0680  -14.8850  -23.3330 C.3       1 BAL         0.0575
     64 C          -7.5690  -15.0250  -23.3850 C.2       1 BAL         0.1802
     65 O          -8.2330  -14.2110  -22.7650 O.2       1 BAL        -0.3969
     66 N          -8.0510  -16.0680  -24.0940 N.am      1 SER        -0.2634
     67 CA         -9.4440  -16.4520  -24.2360 C.3       1 SER         0.1538
     68 C          -9.6100  -17.8870  -23.7350 C.2       1 SER         0.2063
     69 O          -8.6500  -18.6570  -23.7250 O.2       1 SER        -0.3943
     70 CB         -9.8480  -16.4230  -25.7130 C.3       1 SER         0.0843
     71 OG         -9.6070  -15.1580  -26.3060 O.3       1 SER        -0.3903
     72 N         -10.8290  -18.2290  -23.3320 N.am      1 TRP        -0.2626
     73 CA        -11.1780  -19.5930  -23.0220 C.3       1 TRP         0.1352
     74 C         -11.2260  -20.4760  -24.2880 C.2       1 TRP         0.2052
     75 O         -11.7960  -20.1020  -25.3160 O.2       1 TRP        -0.3942
     76 CB        -12.5320  -19.6620  -22.3290 C.3       1 TRP         0.0042
     77 CG        -12.5420  -19.3040  -20.8780 C.2       1 TRP        -0.0418
     78 CD1       -12.9490  -18.1280  -20.3380 C.2       1 TRP         0.0167
     79 CD2       -12.1920  -20.1550  -19.7760 C.ar      1 TRP        -0.0214
     80 NE1       -12.8580  -18.1790  -18.9670 N.pl3     1 TRP        -0.2890
     81 CE2       -12.3940  -19.4110  -18.5940 C.ar      1 TRP         0.0603
     82 CE3       -11.7230  -21.4700  -19.6760 C.ar      1 TRP        -0.0747
     83 CZ2       -12.1380  -19.9350  -17.3130 C.ar      1 TRP        -0.0443
     84 CZ3       -11.4640  -21.9980  -18.4030 C.ar      1 TRP        -0.0792
     85 CH2       -11.6670  -21.2190  -17.2350 C.ar      1 TRP        -0.0768
     86 N         -10.6680  -21.6680  -24.1710 N.am      1 SER        -0.2615
     87 CA        -10.5810  -22.5990  -25.2600 C.3       1 SER         0.1539
     88 C         -11.1940  -23.9080  -24.7910 C.2       1 SER         0.2062
     89 O         -10.6360  -24.5420  -23.9040 O.2       1 SER        -0.3943
     90 CB         -9.1080  -22.8050  -25.6110 C.3       1 SER         0.0843
     91 OG         -8.9740  -23.3730  -26.8880 O.3       1 SER        -0.3903
     92 N         -12.3440  -24.2840  -25.3610 N.am      1 CYS        -0.2628
     93 CA        -13.0490  -25.5260  -24.9990 C.3       1 CYS         0.1403
     94 C         -13.0540  -26.5210  -26.1530 C.2       1 CYS         0.2000
     95 O         -12.4600  -26.2760  -27.2120 O.2       1 CYS        -0.3947
     96 CB        -14.5030  -25.2380  -24.5780 C.3       1 CYS         0.0443
     97 SG        -14.7390  -23.9040  -23.3680 S.3       1 CYS        -0.0882
     98 N         -13.7370  -27.6500  -25.9840 N.am      1 NH2        -0.2989
     99 H          -9.1592  -35.3979  -18.4828 H         1 ALA         0.2015
    100 H         -10.5602  -34.6800  -18.9636 H         1 ALA         0.2015
    101 H         -10.1197  -34.6454  -17.3780 H         1 ALA         0.2015
    102 H          -8.2081  -33.2651  -17.8473 H         1 ALA         0.1095
    103 H          -7.9423  -32.3406  -20.1290 H         1 ALA         0.0310
    104 H          -9.3032  -33.3625  -20.7038 H         1 ALA         0.0310
    105 H          -7.7854  -34.1300  -20.1259 H         1 ALA         0.0310
    106 H         -11.2113  -30.0067  -17.4871 H         1 PRO         0.0802
    107 H          -9.6507  -28.3368  -16.9326 H         1 PRO         0.0313
    108 H          -9.9541  -27.7669  -18.6089 H         1 PRO         0.0313
    109 H          -7.4919  -28.4224  -17.7578 H         1 PRO         0.0287
    110 H          -8.0366  -28.7590  -19.4361 H         1 PRO         0.0287
    111 H          -7.4283  -30.9302  -18.8537 H         1 PRO         0.0524
    112 H          -7.7116  -30.6492  -17.1023 H         1 PRO         0.0524
    113 H         -12.9172  -29.5173  -18.7597 H         1 TYR         0.1885
    114 H         -13.0161  -30.1922  -21.5383 H         1 TYR         0.0821
    115 H         -14.8925  -28.4482  -19.8750 H         1 TYR         0.0453
    116 H         -14.9565  -30.2400  -19.9848 H         1 TYR         0.0453
    117 H         -14.7959  -30.8155  -22.8366 H         1 TYR         0.0530
    118 H         -16.8266  -27.6071  -20.8546 H         1 TYR         0.0530
    119 H         -16.3619  -30.6141  -24.7476 H         1 TYR         0.0525
    120 H         -18.3777  -27.4005  -22.7505 H         1 TYR         0.0525
    121 H         -19.2402  -29.0231  -24.5900 H         1 TYR         0.2458
    122 H         -12.7347  -27.0755  -19.7810 H         1 CYS         0.1884
    123 H         -11.7475  -25.8136  -22.3101 H         1 CYS         0.0808
    124 H         -12.5857  -23.6910  -21.5721 H         1 CYS         0.0432
    125 H         -12.9824  -24.3439  -19.9463 H         1 CYS         0.0432
    126 H         -10.0200  -24.4251  -22.2260 H         1 VAL         0.1883
    127 H          -8.5050  -24.1874  -19.6683 H         1 VAL         0.0802
    128 H          -7.4245  -24.5571  -22.5125 H         1 VAL         0.0343
    129 H          -5.1892  -24.6512  -21.4538 H         1 VAL         0.0234
    130 H          -5.9289  -24.2602  -19.8643 H         1 VAL         0.0234
    131 H          -5.9822  -23.0596  -21.1995 H         1 VAL         0.0234
    132 H          -8.3348  -26.6346  -21.5016 H         1 VAL         0.0234
    133 H          -7.2634  -26.4005  -20.0789 H         1 VAL         0.0234
    134 H          -6.5508  -26.7045  -21.6996 H         1 VAL         0.0234
    135 H          -8.3597  -22.0690  -19.0703 H         1 TYR         0.1885
    136 H          -8.6637  -19.9270  -21.0275 H         1 TYR         0.0821
    137 H          -7.6829  -19.7084  -18.1587 H         1 TYR         0.0453
    138 H          -9.4121  -19.7393  -18.6443 H         1 TYR         0.0453
    139 H          -9.7765  -18.0437  -20.8174 H         1 TYR         0.0530
    140 H          -6.9292  -17.5717  -17.6600 H         1 TYR         0.0530
    141 H          -9.7092  -15.6187  -21.2481 H         1 TYR         0.0525
    142 H          -6.8525  -15.1551  -18.0857 H         1 TYR         0.0525
    143 H          -8.8345  -13.6895  -20.6402 H         1 TYR         0.2458
    144 H          -7.1196  -19.3245  -22.3756 H         1 ARG         0.1883
    145 H          -4.3062  -19.5656  -21.4328 H         1 ARG         0.0800
    146 H          -3.7290  -19.7750  -23.8858 H         1 ARG         0.0313
    147 H          -5.4895  -19.9137  -24.2147 H         1 ARG         0.0313
    148 H          -5.6203  -21.8811  -22.7287 H         1 ARG         0.0301
    149 H          -3.8654  -21.7368  -22.3736 H         1 ARG         0.0301
    150 H          -4.8409  -22.0179  -25.2085 H         1 ARG         0.0689
    151 H          -4.7107  -23.4544  -24.1379 H         1 ARG         0.0689
    152 H          -2.2429  -22.1342  -23.9310 H         1 ARG         0.2642
    153 H          -2.8146  -24.0111  -27.5001 H         1 ARG         0.2615
    154 H          -4.2254  -23.5397  -26.5152 H         1 ARG         0.2615
    155 H          -0.4355  -22.7291  -25.1854 H         1 ARG         0.2615
    156 H          -0.6745  -23.5299  -26.7616 H         1 ARG         0.2615
    157 H          -6.4342  -17.2817  -21.4020 H         1 BAL         0.1853
    158 H          -4.4875  -15.1858  -21.9090 H         1 BAL         0.0545
    159 H          -6.1234  -15.0080  -21.1887 H         1 BAL         0.0545
    160 H          -5.6190  -15.4344  -24.1736 H         1 BAL         0.0522
    161 H          -5.7961  -13.8214  -23.4029 H         1 BAL         0.0522
    162 H          -7.3790  -16.6347  -24.5707 H         1 SER         0.1883
    163 H         -10.0818  -15.7683  -23.6566 H         1 SER         0.0823
    164 H         -10.9207  -16.6534  -25.7921 H         1 SER         0.0606
    165 H          -9.2683  -17.1850  -26.2546 H         1 SER         0.0606
    166 H          -9.8701  -15.1820  -27.2185 H         1 SER         0.2097
    167 H         -11.5262  -17.5180  -23.2409 H         1 TRP         0.1884
    168 H         -10.4123  -19.9961  -22.3429 H         1 TRP         0.0815
    169 H         -12.9074  -20.6915  -22.4246 H         1 TRP         0.0397
    170 H         -13.2130  -18.9734  -22.8506 H         1 TRP         0.0397
    171 H         -13.2974  -17.2679  -20.9079 H         1 TRP         0.0795
    172 H         -13.1004  -17.4122  -18.3235 H         1 TRP         0.2216
    173 H         -11.5631  -22.0687  -20.5654 H         1 TRP         0.0540
    174 H         -12.3074  -19.3438  -16.4203 H         1 TRP         0.0541
    175 H         -11.1035  -23.0161  -18.3101 H         1 TRP         0.0510
    176 H         -11.4456  -21.6471  -16.2640 H         1 TRP         0.0530
    177 H         -10.2894  -21.9333  -23.2843 H         1 SER         0.1884
    178 H         -11.1255  -22.2176  -26.1364 H         1 SER         0.0823
    179 H          -8.6508  -23.4755  -24.8685 H         1 SER         0.0606
    180 H          -8.5937  -21.8328  -25.5931 H         1 SER         0.0606
    181 H          -8.0523  -23.4920  -27.0853 H         1 SER         0.2097
    182 H         -12.7432  -23.6958  -26.0644 H         1 CYS         0.1884
    183 H         -12.5220  -25.9817  -24.1478 H         1 CYS         0.0808
    184 H         -14.9159  -26.1609  -24.1446 H         1 CYS         0.0432
    185 H         -15.0684  -24.9733  -25.4837 H         1 CYS         0.0432
    186 H         -13.7668  -28.3307  -26.7160 H         1 NH2         0.1815
    187 H         -14.2206  -27.8180  -25.1250 H         1 NH2         0.1815
@<TRIPOS>BOND
     1    1    2 1  
     2    2    3 1  
     3    2    5 1  
     4    3    4 2  
     5    3    6 am 
     6    6    7 1  
     7    6   12 1  
     8    7    8 1  
     9    7   10 1  
    10    8    9 2  
    11    8   13 am 
    12   10   11 1  
    13   11   12 1  
    14   13   14 1  
    15   14   15 1  
    16   14   17 1  
    17   15   16 2  
    18   15   25 am 
    19   17   18 1  
    20   18   19 ar 
    21   18   20 ar 
    22   19   21 ar 
    23   20   22 ar 
    24   21   23 ar 
    25   22   23 ar 
    26   23   24 1  
    27   25   26 1  
    28   26   27 1  
    29   26   29 1  
    30   27   28 2  
    31   27   31 am 
    32   29   30 1  
    33   30   97 1  
    34   31   32 1  
    35   32   33 1  
    36   32   35 1  
    37   33   34 2  
    38   33   38 am 
    39   35   36 1  
    40   35   37 1  
    41   38   39 1  
    42   39   40 1  
    43   39   42 1  
    44   40   41 2  
    45   40   50 am 
    46   42   43 1  
    47   43   44 ar 
    48   43   45 ar 
    49   44   46 ar 
    50   45   47 ar 
    51   46   48 ar 
    52   47   48 ar 
    53   48   49 1  
    54   50   51 1  
    55   51   52 1  
    56   51   54 1  
    57   52   53 2  
    58   52   61 am 
    59   54   55 1  
    60   55   56 1  
    61   56   57 1  
    62   57   58 ar 
    63   58   59 ar 
    64   58   60 ar 
    65   61   62 1  
    66   62   63 1  
    67   63   64 1  
    68   64   65 2  
    69   64   66 am 
    70   66   67 1  
    71   67   68 1  
    72   67   70 1  
    73   68   69 2  
    74   68   72 am 
    75   70   71 1  
    76   72   73 1  
    77   73   74 1  
    78   73   76 1  
    79   74   75 2  
    80   74   86 am 
    81   76   77 1  
    82   77   78 2  
    83   77   79 1  
    84   78   80 1  
    85   79   81 ar 
    86   79   82 ar 
    87   80   81 1  
    88   81   83 ar 
    89   82   84 ar 
    90   83   85 ar 
    91   84   85 ar 
    92   86   87 1  
    93   87   88 1  
    94   87   90 1  
    95   88   89 2  
    96   88   92 am 
    97   90   91 1  
    98   92   93 1  
    99   93   94 1  
   100   93   96 1  
   101   94   95 2  
   102   94   98 am 
   103   96   97 1  
   104    1   99 1  
   105    1  100 1  
   106    1  101 1  
   107    2  102 1  
   108    5  103 1  
   109    5  104 1  
   110    5  105 1  
   111    7  106 1  
   112   10  107 1  
   113   10  108 1  
   114   11  109 1  
   115   11  110 1  
   116   12  111 1  
   117   12  112 1  
   118   13  113 1  
   119   14  114 1  
   120   17  115 1  
   121   17  116 1  
   122   19  117 1  
   123   20  118 1  
   124   21  119 1  
   125   22  120 1  
   126   24  121 1  
   127   25  122 1  
   128   26  123 1  
   129   29  124 1  
   130   29  125 1  
   131   31  126 1  
   132   32  127 1  
   133   35  128 1  
   134   36  129 1  
   135   36  130 1  
   136   36  131 1  
   137   37  132 1  
   138   37  133 1  
   139   37  134 1  
   140   38  135 1  
   141   39  136 1  
   142   42  137 1  
   143   42  138 1  
   144   44  139 1  
   145   45  140 1  
   146   46  141 1  
   147   47  142 1  
   148   49  143 1  
   149   50  144 1  
   150   51  145 1  
   151   54  146 1  
   152   54  147 1  
   153   55  148 1  
   154   55  149 1  
   155   56  150 1  
   156   56  151 1  
   157   57  152 1  
   158   59  153 1  
   159   59  154 1  
   160   60  155 1  
   161   60  156 1  
   162   61  157 1  
   163   62  158 1  
   164   62  159 1  
   165   63  160 1  
   166   63  161 1  
   167   66  162 1  
   168   67  163 1  
   169   70  164 1  
   170   70  165 1  
   171   71  166 1  
   172   72  167 1  
   173   73  168 1  
   174   76  169 1  
   175   76  170 1  
   176   78  171 1  
   177   80  172 1  
   178   82  173 1  
   179   83  174 1  
   180   84  175 1  
   181   85  176 1  
   182   86  177 1  
   183   87  178 1  
   184   90  179 1  
   185   90  180 1  
   186   91  181 1  
   187   92  182 1  
   188   93  183 1  
   189   96  184 1  
   190   96  185 1  
   191   98  186 1  
   192   98  187 1  
@<TRIPOS>SUBSTRUCTURE
     1 ALA         1

