4w4z_ligand
  -I-interpret- 

185190  0  0  0  0  0  0  0  0999 V2000
   -9.7810  -34.6200  -18.3270 N   0  3  0  0  0
   -9.0430  -33.3360  -18.5600 C   0  0  0  0  0
   -9.9970  -32.1880  -18.3200 C   0  0  0  0  0
  -11.1980  -32.4150  -18.1640 O   0  0  0  0  0
   -8.4790  -33.2890  -19.9790 C   0  0  0  0  0
   -9.4790  -30.9510  -18.2610 N   0  0  0  0  0
  -10.4520  -29.8690  -18.2710 C   0  0  0  0  0
  -11.1300  -29.8050  -19.6410 C   0  0  0  0  0
  -10.4720  -29.9980  -20.6640 O   0  0  0  0  0
   -9.6010  -28.6100  -17.9970 C   0  0  0  0  0
   -8.2150  -28.9780  -18.3730 C   0  0  0  0  0
   -8.0930  -30.4570  -18.1160 C   0  0  0  0  0
  -12.4390  -29.5590  -19.6370 N   0  0  0  0  0
  -13.1990  -29.3490  -20.8560 C   0  0  0  0  0
  -12.7090  -28.0640  -21.5390 C   0  0  0  0  0
  -12.4990  -28.0680  -22.7580 O   0  0  0  0  0
  -14.7130  -29.3150  -20.5280 C   0  0  0  0  0
  -15.6750  -29.2080  -21.7140 C   0  0  0  0  0
  -15.5730  -30.0600  -22.8160 C   0  0  0  0  0
  -16.7120  -28.2630  -21.7100 C   0  0  0  0  0
  -16.4590  -29.9530  -23.8940 C   0  0  0  0  0
  -17.5930  -28.1480  -22.7730 C   0  0  0  0  0
  -17.4680  -28.9900  -23.8630 C   0  0  0  0  0
  -18.3580  -28.8710  -24.9080 O   0  0  0  0  0
  -12.5050  -26.9960  -20.7510 N   0  0  0  0  0
  -11.9590  -25.7060  -21.2360 C   0  0  0  0  0
  -10.6780  -25.2560  -20.5190 C   0  0  0  0  0
  -10.5390  -25.4610  -19.3200 O   0  0  0  0  0
  -12.9590  -24.5680  -21.0230 C   0  0  0  0  0
  -14.6480  -24.8590  -21.5520 S   0  0  0  0  0
   -9.8020  -24.5710  -21.2610 N   0  0  0  0  0
   -8.5500  -24.0230  -20.7550 C   0  0  0  0  0
   -8.4540  -22.5160  -21.0440 C   0  0  0  0  0
   -8.4930  -22.0950  -22.2080 O   0  0  0  0  0
   -7.3470  -24.7170  -21.4270 C   0  0  0  0  0
   -6.0190  -24.1310  -20.9530 C   0  0  0  0  0
   -7.3760  -26.2190  -21.1580 C   0  0  0  0  0
   -8.2970  -21.7010  -19.9980 N   0  0  0  0  0
   -8.0340  -20.2740  -20.1950 C   0  0  0  0  0
   -6.5830  -20.0290  -20.5650 C   0  0  0  0  0
   -5.6860  -20.3220  -19.7960 O   0  0  0  0  0
   -8.3950  -19.4650  -18.9610 C   0  0  0  0  0
   -8.3510  -17.9810  -19.2120 C   0  0  0  0  0
   -9.1330  -17.4100  -20.2180 C   0  0  0  0  0
   -7.5380  -17.1470  -18.4500 C   0  0  0  0  0
   -9.1000  -16.0500  -20.4620 C   0  0  0  0  0
   -7.4950  -15.7910  -18.6840 C   0  0  0  0  0
   -8.2770  -15.2430  -19.6880 C   0  0  0  0  0
   -8.2450  -13.8980  -19.9250 O   0  0  0  0  0
   -6.3490  -19.5200  -21.7690 N   0  0  0  0  0
   -4.9980  -19.2410  -22.2240 C   0  0  0  0  0
   -4.7590  -17.7460  -22.4360 C   0  0  0  0  0
   -3.7710  -17.3690  -23.0290 O   0  0  0  0  0
   -4.6990  -20.0840  -23.4690 C   0  0  0  0  0
   -4.6440  -21.5770  -23.1340 C   0  0  0  0  0
   -4.3310  -22.4400  -24.3300 C   0  0  0  0  0
   -2.8990  -22.5270  -24.6210 N   0  0  0  0  0
   -2.3890  -23.0810  -25.7200 C   0  0  0  0  0
   -3.2050  -23.5820  -26.6490 N   0  0  0  0  0
   -1.0650  -23.1160  -25.9030 N   0  0  0  0  0
   -5.6560  -16.8990  -21.9000 N   0  0  0  0  0
   -5.5480  -15.4600  -22.0100 C   0  0  0  0  0
   -6.0680  -14.8850  -23.3330 C   0  0  0  0  0
   -7.5690  -15.0250  -23.3850 C   0  0  0  0  0
   -8.2330  -14.2110  -22.7650 O   0  0  0  0  0
   -8.0510  -16.0680  -24.0940 N   0  0  0  0  0
   -9.4440  -16.4520  -24.2360 C   0  0  0  0  0
   -9.6100  -17.8870  -23.7350 C   0  0  0  0  0
   -8.6500  -18.6570  -23.7250 O   0  0  0  0  0
   -9.8480  -16.4230  -25.7130 C   0  0  0  0  0
   -9.6070  -15.1580  -26.3060 O   0  0  0  0  0
  -10.8290  -18.2290  -23.3320 N   0  0  0  0  0
  -11.1780  -19.5930  -23.0220 C   0  0  0  0  0
  -11.2260  -20.4760  -24.2880 C   0  0  0  0  0
  -11.7960  -20.1020  -25.3160 O   0  0  0  0  0
  -12.5320  -19.6620  -22.3290 C   0  0  0  0  0
  -12.5420  -19.3040  -20.8780 C   0  0  0  0  0
  -12.9490  -18.1280  -20.3380 C   0  0  0  0  0
  -12.1920  -20.1550  -19.7760 C   0  0  0  0  0
  -12.8580  -18.1790  -18.9670 N   0  0  0  0  0
  -12.3940  -19.4110  -18.5940 C   0  0  0  0  0
  -11.7230  -21.4700  -19.6760 C   0  0  0  0  0
  -12.1380  -19.9350  -17.3130 C   0  0  0  0  0
  -11.4640  -21.9980  -18.4030 C   0  0  0  0  0
  -11.6670  -21.2190  -17.2350 C   0  0  0  0  0
  -10.6680  -21.6680  -24.1710 N   0  0  0  0  0
  -10.5810  -22.5990  -25.2600 C   0  0  0  0  0
  -11.1940  -23.9080  -24.7910 C   0  0  0  0  0
  -10.6360  -24.5420  -23.9040 O   0  0  0  0  0
   -9.1080  -22.8050  -25.6110 C   0  0  0  0  0
   -8.9740  -23.3730  -26.8880 O   0  0  0  0  0
  -12.3440  -24.2840  -25.3610 N   0  0  0  0  0
  -13.0490  -25.5260  -24.9990 C   0  0  0  0  0
  -13.0540  -26.5210  -26.1530 C   0  0  0  0  0
  -12.4600  -26.2760  -27.2120 O   0  0  0  0  0
  -14.5030  -25.2380  -24.5780 C   0  0  0  0  0
  -14.7390  -23.9040  -23.3680 S   0  0  0  0  0
  -13.7370  -27.6500  -25.9840 N   0  0  0  0  0
  -10.1490  -34.6315  -17.3758 H   0  0  0  0  0
  -10.5512  -34.6935  -18.9917 H   0  0  0  0  0
   -9.1432  -35.4055  -18.4556 H   0  0  0  0  0
   -8.2001  -33.2618  -17.8729 H   0  0  0  0  0
   -9.2970  -33.3568  -20.6962 H   0  0  0  0  0
   -7.9431  -32.3511  -20.1247 H   0  0  0  0  0
   -7.7959  -34.1257  -20.1250 H   0  0  0  0  0
  -11.2512  -29.9859  -17.5391 H   0  0  0  0  0
   -9.6636  -28.3057  -16.9522 H   0  0  0  0  0
   -9.9568  -27.7550  -18.5719 H   0  0  0  0  0
   -7.4856  -28.4150  -17.7907 H   0  0  0  0  0
   -8.0136  -28.7412  -19.4177 H   0  0  0  0  0
   -7.4028  -30.9441  -18.8048 H   0  0  0  0  0
   -7.6731  -30.6761  -17.1343 H   0  0  0  0  0
  -12.9267  -29.5165  -18.7422 H   0  0  0  0  0
  -13.0441  -30.1714  -21.5545 H   0  0  0  0  0
  -14.8699  -28.4149  -19.9337 H   0  0  0  0  0
  -14.9361  -30.2674  -20.0471 H   0  0  0  0  0
  -14.7916  -30.8197  -22.8367 H   0  0  0  0  0
  -16.8273  -27.6034  -20.8499 H   0  0  0  0  0
  -16.3614  -30.6178  -24.7523 H   0  0  0  0  0
  -18.3821  -27.3964  -22.7503 H   0  0  0  0  0
  -18.9785  -28.1632  -24.7193 H   0  0  0  0  0
  -12.7393  -27.0771  -19.7616 H   0  0  0  0  0
  -11.7473  -25.8940  -22.2886 H   0  0  0  0  0
  -12.5968  -23.7364  -21.6275 H   0  0  0  0  0
  -13.0073  -24.4119  -19.9453 H   0  0  0  0  0
  -10.0244  -24.4222  -22.2453 H   0  0  0  0  0
   -8.5312  -24.1941  -19.6787 H   0  0  0  0  0
   -7.4295  -24.5419  -22.4997 H   0  0  0  0  0
   -5.9838  -23.0694  -21.1977 H   0  0  0  0  0
   -5.9310  -24.2596  -19.8742 H   0  0  0  0  0
   -5.1976  -24.6472  -21.4499 H   0  0  0  0  0
   -7.3316  -26.3953  -20.0833 H   0  0  0  0  0
   -8.2976  -26.6409  -21.5589 H   0  0  0  0  0
   -6.5194  -26.6898  -21.6404 H   0  0  0  0  0
   -8.3609  -22.0764  -19.0517 H   0  0  0  0  0
   -8.6663  -19.9450  -21.0197 H   0  0  0  0  0
   -7.6681  -19.6963  -18.1824 H   0  0  0  0  0
   -9.4128  -19.7275  -18.6724 H   0  0  0  0  0
   -9.7801  -18.0472  -20.8208 H   0  0  0  0  0
   -6.9259  -17.5741  -17.6557 H   0  0  0  0  0
   -9.7126  -15.6163  -21.2524 H   0  0  0  0  0
   -6.8489  -15.1516  -18.0824 H   0  0  0  0  0
   -7.6339  -13.4809  -19.3133 H   0  0  0  0  0
   -7.1350  -19.3206  -22.3877 H   0  0  0  0  0
   -4.2915  -19.5291  -21.4456 H   0  0  0  0  0
   -3.7296  -19.7827  -23.8659 H   0  0  0  0  0
   -5.4950  -19.9218  -24.1958 H   0  0  0  0  0
   -5.6260  -21.8695  -22.7622 H   0  0  0  0  0
   -3.8491  -21.7234  -22.4026 H   0  0  0  0  0
   -4.8170  -21.9916  -25.1965 H   0  0  0  0  0
   -4.6850  -23.4475  -24.1115 H   0  0  0  0  0
   -2.2492  -22.1380  -23.9377 H   0  0  0  0  0
   -4.2155  -23.5401  -26.5165 H   0  0  0  0  0
   -0.6783  -23.5259  -26.7532 H   0  0  0  0  0
   -0.4416  -22.7328  -25.1924 H   0  0  0  0  0
   -6.4498  -17.2893  -21.3921 H   0  0  0  0  0
   -4.4881  -15.2132  -21.9486 H   0  0  0  0  0
   -6.1569  -15.0318  -21.2138 H   0  0  0  0  0
   -5.6228  -15.4289  -24.1661 H   0  0  0  0  0
   -5.7982  -13.8312  -23.4028 H   0  0  0  0  0
   -7.3656  -16.6461  -24.5802 H   0  0  0  0  0
  -10.0643  -15.7598  -23.6666 H   0  0  0  0  0
  -10.9159  -16.6315  -25.7779 H   0  0  0  0  0
   -9.2529  -17.1665  -26.2433 H   0  0  0  0  0
   -9.8729  -15.1823  -27.2281 H   0  0  0  0  0
  -11.5402  -17.5038  -23.2390 H   0  0  0  0  0
  -10.4006  -19.9701  -22.3576 H   0  0  0  0  0
  -12.8558  -20.7009  -22.3910 H   0  0  0  0  0
  -13.1702  -18.9336  -22.8292 H   0  0  0  0  0
  -13.2977  -17.2671  -20.9085 H   0  0  0  0  0
  -11.5622  -22.0720  -20.5703 H   0  0  0  0  0
  -12.3084  -19.3406  -16.4154 H   0  0  0  0  0
  -11.1015  -23.0217  -18.3096 H   0  0  0  0  0
  -11.4444  -21.6495  -16.2587 H   0  0  0  0  0
  -10.2819  -21.9386  -23.2665 H   0  0  0  0  0
  -11.1072  -22.2331  -26.1417 H   0  0  0  0  0
   -8.6632  -23.4786  -24.8785 H   0  0  0  0  0
   -8.6062  -21.8374  -25.6025 H   0  0  0  0  0
   -8.0427  -23.4933  -27.0874 H   0  0  0  0  0
  -12.7512  -23.6841  -26.0784 H   0  0  0  0  0
  -12.5091  -25.9605  -24.1577 H   0  0  0  0  0
  -14.8679  -26.1483  -24.1022 H   0  0  0  0  0
  -15.0250  -24.9245  -25.4821 H   0  0  0  0  0
  -13.7800  -28.3375  -26.7363 H   0  0  0  0  0
  -14.2177  -27.8281  -25.1022 H   0  0  0  0  0
  1  2  1  0  0  0
  2  3  1  0  0  0
  2  5  1  0  0  0
  3  4  2  0  0  0
  3  6  1  0  0  0
  6  7  1  0  0  0
  6 12  1  0  0  0
  7  8  1  0  0  0
  7 10  1  0  0  0
  8  9  2  0  0  0
  8 13  1  0  0  0
 10 11  1  0  0  0
 11 12  1  0  0  0
 13 14  1  0  0  0
 14 15  1  0  0  0
 14 17  1  0  0  0
 15 16  2  0  0  0
 15 25  1  0  0  0
 17 18  1  0  0  0
 18 19  4  0  0  0
 18 20  4  0  0  0
 19 21  4  0  0  0
 20 22  4  0  0  0
 21 23  4  0  0  0
 22 23  4  0  0  0
 23 24  1  0  0  0
 25 26  1  0  0  0
 26 27  1  0  0  0
 26 29  1  0  0  0
 27 28  2  0  0  0
 27 31  1  0  0  0
 29 30  1  0  0  0
 30 97  1  0  0  0
 31 32  1  0  0  0
 32 33  1  0  0  0
 32 35  1  0  0  0
 33 34  2  0  0  0
 33 38  1  0  0  0
 35 36  1  0  0  0
 35 37  1  0  0  0
 38 39  1  0  0  0
 39 40  1  0  0  0
 39 42  1  0  0  0
 40 41  2  0  0  0
 40 50  1  0  0  0
 42 43  1  0  0  0
 43 44  4  0  0  0
 43 45  4  0  0  0
 44 46  4  0  0  0
 45 47  4  0  0  0
 46 48  4  0  0  0
 47 48  4  0  0  0
 48 49  1  0  0  0
 50 51  1  0  0  0
 51 52  1  0  0  0
 51 54  1  0  0  0
 52 53  2  0  0  0
 52 61  1  0  0  0
 54 55  1  0  0  0
 55 56  1  0  0  0
 56 57  1  0  0  0
 57 58  1  0  0  0
 58 59  2  0  0  0
 58 60  1  0  0  0
 61 62  1  0  0  0
 62 63  1  0  0  0
 63 64  1  0  0  0
 64 65  2  0  0  0
 64 66  1  0  0  0
 66 67  1  0  0  0
 67 68  1  0  0  0
 67 70  1  0  0  0
 68 69  2  0  0  0
 68 72  1  0  0  0
 70 71  1  0  0  0
 72 73  1  0  0  0
 73 74  1  0  0  0
 73 76  1  0  0  0
 74 75  2  0  0  0
 74 86  1  0  0  0
 76 77  1  0  0  0
 77 78  4  0  0  0
 77 79  4  0  0  0
 78 80  4  0  0  0
 79 81  4  0  0  0
 79 82  4  0  0  0
 80 81  4  0  0  0
 81 83  4  0  0  0
 82 84  4  0  0  0
 83 85  4  0  0  0
 84 85  4  0  0  0
 86 87  1  0  0  0
 87 88  1  0  0  0
 87 90  1  0  0  0
 88 89  2  0  0  0
 88 92  1  0  0  0
 90 91  1  0  0  0
 92 93  1  0  0  0
 93 94  1  0  0  0
 93 96  1  0  0  0
 94 95  2  0  0  0
 94 98  1  0  0  0
 96 97  1  0  0  0
  1 99  1  0  0  0
  1100  1  0  0  0
  1101  1  0  0  0
  2102  1  0  0  0
  5103  1  0  0  0
  5104  1  0  0  0
  5105  1  0  0  0
  7106  1  0  0  0
 10107  1  0  0  0
 10108  1  0  0  0
 11109  1  0  0  0
 11110  1  0  0  0
 12111  1  0  0  0
 12112  1  0  0  0
 13113  1  0  0  0
 14114  1  0  0  0
 17115  1  0  0  0
 17116  1  0  0  0
 19117  1  0  0  0
 20118  1  0  0  0
 21119  1  0  0  0
 22120  1  0  0  0
 24121  1  0  0  0
 25122  1  0  0  0
 26123  1  0  0  0
 29124  1  0  0  0
 29125  1  0  0  0
 31126  1  0  0  0
 32127  1  0  0  0
 35128  1  0  0  0
 36129  1  0  0  0
 36130  1  0  0  0
 36131  1  0  0  0
 37132  1  0  0  0
 37133  1  0  0  0
 37134  1  0  0  0
 38135  1  0  0  0
 39136  1  0  0  0
 42137  1  0  0  0
 42138  1  0  0  0
 44139  1  0  0  0
 45140  1  0  0  0
 46141  1  0  0  0
 47142  1  0  0  0
 49143  1  0  0  0
 50144  1  0  0  0
 51145  1  0  0  0
 54146  1  0  0  0
 54147  1  0  0  0
 55148  1  0  0  0
 55149  1  0  0  0
 56150  1  0  0  0
 56151  1  0  0  0
 57152  1  0  0  0
 59153  1  0  0  0
 60154  1  0  0  0
 60155  1  0  0  0
 61156  1  0  0  0
 62157  1  0  0  0
 62158  1  0  0  0
 63159  1  0  0  0
 63160  1  0  0  0
 66161  1  0  0  0
 67162  1  0  0  0
 70163  1  0  0  0
 70164  1  0  0  0
 71165  1  0  0  0
 72166  1  0  0  0
 73167  1  0  0  0
 76168  1  0  0  0
 76169  1  0  0  0
 78170  1  0  0  0
 82171  1  0  0  0
 83172  1  0  0  0
 84173  1  0  0  0
 85174  1  0  0  0
 86175  1  0  0  0
 87176  1  0  0  0
 90177  1  0  0  0
 90178  1  0  0  0
 91179  1  0  0  0
 92180  1  0  0  0
 93181  1  0  0  0
 96182  1  0  0  0
 96183  1  0  0  0
 98184  1  0  0  0
 98185  1  0  0  0
M  END
$$$$
