5qtt_ligand
  -I-interpret- 

 72 76  0  0  0  0  0  0  0  0999 V2000
   43.1070  -24.2020   29.8330 C   0  0  0  0  0
   42.5870  -21.1410   29.0300 C   0  0  0  0  0
   43.9560  -21.1800   28.7800 C   0  0  0  0  0
   44.3750  -20.9660   27.4660 C   0  0  0  0  0
   49.0310  -22.0270   32.9940 C   0  0  0  0  0
   50.8870  -22.0750   34.4610 C   0  0  0  0  0
   39.7500  -22.5310   27.5720 C   0  0  0  0  0
   40.5260  -23.7630   28.0370 C   0  0  0  0  0
   40.2220  -21.2090   28.1820 C   0  0  0  0  0
   35.3250  -15.0270   28.4320 C   0  0  0  0  0
   34.6730  -13.8550   28.7460 C   0  0  0  0  0
   33.3320  -13.8840   29.8470 Cl  0  0  0  0  0
   44.6980  -22.5700   30.7890 C   0  0  0  0  0
   44.9250  -21.5330   29.8550 C   0  0  0  0  0
   46.1420  -20.8470   29.9070 C   0  0  0  0  0
   47.1050  -21.1750   30.8440 C   0  0  0  0  0
   46.8640  -22.1800   31.7830 C   0  0  0  0  0
   45.6670  -22.8950   31.7340 C   0  0  0  0  0
   43.4840  -23.3100   30.7810 N   0  0  0  0  0
   47.7690  -22.5000   32.8260 N   0  0  0  0  0
   41.7000  -20.9540   27.9810 C   0  0  0  0  0
   39.4680  -20.0980   27.6240 N   0  0  0  0  0
   42.1000  -20.7270   26.7180 N   0  0  0  0  0
   43.4250  -20.7490   26.4840 C   0  0  0  0  0
   49.6420  -21.3310   32.2140 O   0  0  0  0  0
   49.5350  -22.4930   34.1460 O   0  0  0  0  0
   40.5870  -23.9680   29.5620 C   0  0  0  0  0
   41.7500  -24.8480   30.0560 C   0  0  0  0  0
   43.7810  -24.4350   28.8320 O   0  0  0  0  0
   41.7060  -26.2400   29.4230 C   0  0  0  0  0
   39.2250  -18.9860   28.3290 C   0  0  0  0  0
   39.7420  -18.7410   29.4160 O   0  0  0  0  0
   36.2490  -12.6310   27.4190 C   0  0  0  0  0
   35.1160  -12.6510   28.2240 C   0  0  0  0  0
   36.4400  -15.0050   27.6190 C   0  0  0  0  0
   36.9310  -13.8030   27.1220 C   0  0  0  0  0
   37.1440  -16.2130   27.4300 N   0  0  0  0  0
   37.9130  -16.8790   28.3310 C   0  0  0  0  0
   38.3350  -18.0340   27.7070 C   0  0  0  0  0
   37.7310  -17.9890   26.4340 C   0  0  0  0  0
   37.0270  -16.8920   26.2510 N   0  0  0  0  0
   38.1240  -16.4560   29.6120 N   0  0  0  0  0
   34.9390  -16.1760   29.0070 F   0  0  0  0  0
   42.2136  -21.2571   30.0474 H   0  0  0  0  0
   45.4362  -20.9698   27.2169 H   0  0  0  0  0
   51.5626  -22.4122   33.6749 H   0  0  0  0  0
   50.9228  -20.9878   34.5310 H   0  0  0  0  0
   51.1885  -22.5118   35.4131 H   0  0  0  0  0
   38.7150  -22.6721   27.8834 H   0  0  0  0  0
   39.8955  -22.4528   26.4946 H   0  0  0  0  0
   41.5538  -23.6293   27.6994 H   0  0  0  0  0
   40.0085  -24.6301   27.6267 H   0  0  0  0  0
   40.0464  -21.2897   29.2547 H   0  0  0  0  0
   46.3349  -20.0415   29.1984 H   0  0  0  0  0
   48.0579  -20.6458   30.8495 H   0  0  0  0  0
   45.4903  -23.7093   32.4367 H   0  0  0  0  0
   42.8402  -23.1560   31.5570 H   0  0  0  0  0
   47.4351  -23.1593   33.5290 H   0  0  0  0  0
   39.1146  -20.1677   26.6697 H   0  0  0  0  0
   43.7693  -20.5866   25.4626 H   0  0  0  0  0
   39.6657  -24.4756   29.8478 H   0  0  0  0  0
   40.7282  -22.9826   30.0060 H   0  0  0  0  0
   41.6168  -24.9540   31.1326 H   0  0  0  0  0
   40.7672  -26.7276   29.6856 H   0  0  0  0  0
   41.7781  -26.1474   28.3393 H   0  0  0  0  0
   42.5415  -26.8333   29.7946 H   0  0  0  0  0
   36.6063  -11.6834   27.0160 H   0  0  0  0  0
   34.5807  -11.7270   28.4426 H   0  0  0  0  0
   37.8336  -13.7813   26.5113 H   0  0  0  0  0
   37.8353  -18.7744   25.6854 H   0  0  0  0  0
   37.6923  -15.5926   29.9416 H   0  0  0  0  0
   38.7133  -17.0034   30.2393 H   0  0  0  0  0
  1 19  1  0  0  0
 28  1  1  0  0  0
  1 29  2  0  0  0
  2  3  4  0  0  0
 21  2  4  0  0  0
  3  4  4  0  0  0
  3 14  1  0  0  0
 24  4  4  0  0  0
 20  5  1  0  0  0
  5 25  2  0  0  0
  5 26  1  0  0  0
 26  6  1  0  0  0
  7  8  1  0  0  0
  9  7  1  0  0  0
  8 27  1  0  0  0
  9 21  1  0  0  0
 22  9  1  0  0  0
 10 11  4  0  0  0
 35 10  4  0  0  0
 10 43  1  0  0  0
 11 12  1  0  0  0
 11 34  4  0  0  0
 14 13  4  0  0  0
 13 18  4  0  0  0
 13 19  1  0  0  0
 14 15  4  0  0  0
 15 16  4  0  0  0
 16 17  4  0  0  0
 18 17  4  0  0  0
 17 20  1  0  0  0
 21 23  4  0  0  0
 31 22  1  0  0  0
 23 24  4  0  0  0
 27 28  1  0  0  0
 28 30  1  0  0  0
 31 32  2  0  0  0
 39 31  1  0  0  0
 33 34  4  0  0  0
 36 33  4  0  0  0
 35 36  4  0  0  0
 37 35  1  0  0  0
 38 37  4  0  0  0
 37 41  4  0  0  0
 38 39  4  0  0  0
 38 42  1  0  0  0
 39 40  4  0  0  0
 40 41  4  0  0  0
  2 44  1  0  0  0
  4 45  1  0  0  0
  6 46  1  0  0  0
  6 47  1  0  0  0
  6 48  1  0  0  0
  7 49  1  0  0  0
  7 50  1  0  0  0
  8 51  1  0  0  0
  8 52  1  0  0  0
  9 53  1  0  0  0
 15 54  1  0  0  0
 16 55  1  0  0  0
 18 56  1  0  0  0
 19 57  1  0  0  0
 20 58  1  0  0  0
 22 59  1  0  0  0
 24 60  1  0  0  0
 27 61  1  0  0  0
 27 62  1  0  0  0
 28 63  1  0  0  0
 30 64  1  0  0  0
 30 65  1  0  0  0
 30 66  1  0  0  0
 33 67  1  0  0  0
 34 68  1  0  0  0
 36 69  1  0  0  0
 40 70  1  0  0  0
 42 71  1  0  0  0
 42 72  1  0  0  0
M  END
$$$$
