2jql_ligand
  -I-interpret- 

165165  0  0  0  0  0  0  0  0999 V2000
   13.4130  -22.8190   -0.6030 N   0  3  0  0  0
   12.0170  -22.9840   -0.1210 C   0  0  0  0  0
   11.1470  -23.6620   -1.1760 C   0  0  0  0  0
   10.7190  -23.0300   -2.1410 O   0  0  0  0  0
   11.4520  -21.6050    0.2210 C   0  0  0  0  0
   12.1930  -20.9430    1.3670 C   0  0  0  0  0
   12.6370  -19.8000    1.2560 O   0  0  0  0  0
   12.3330  -21.6610    2.4750 N   0  0  0  0  0
   10.8890  -24.9510   -0.9840 N   0  0  0  0  0
   10.0710  -25.7140   -1.9180 C   0  0  0  0  0
    8.6830  -25.9790   -1.3430 C   0  0  0  0  0
    8.5360  -26.6980   -0.3560 O   0  0  0  0  0
   10.7300  -27.0590   -2.2760 C   0  0  0  0  0
   12.1950  -26.8470   -2.6620 C   0  0  0  0  0
    9.9710  -27.7360   -3.4070 C   0  0  0  0  0
   12.3810  -25.9170   -3.8410 C   0  0  0  0  0
    7.6670  -25.3910   -1.9680 N   0  0  0  0  0
    6.2900  -25.5640   -1.5190 C   0  0  0  0  0
    5.6050  -24.2020   -1.2800 C   0  0  0  0  0
    4.1560  -24.3850   -0.8470 C   0  0  0  0  0
    6.3000  -23.4760   -0.3000 O   0  0  0  0  0
    6.5470  -24.1470    1.0890 P   0  0  0  0  0
    6.4580  -22.9820    2.1080 O   0  0  0  0  0
    8.0110  -24.6510    1.0250 O   0  0  0  0  0
    5.5710  -25.2460    1.3850 O   0  0  0  0  0
    5.4810  -26.3630   -2.5370 C   0  0  0  0  0
    5.7620  -26.3240   -3.7350 O   0  0  0  0  0
    4.4770  -27.0850   -2.0520 N   0  0  0  0  0
    3.6270  -27.8930   -2.9200 C   0  0  0  0  0
    2.8110  -27.0080   -3.8620 C   0  0  0  0  0
    2.2040  -26.0280   -3.4310 O   0  0  0  0  0
    2.6870  -28.7620   -2.0820 C   0  0  0  0  0
    3.3650  -29.4220   -0.8920 C   0  0  0  0  0
    2.8450  -30.8220   -0.6280 C   0  0  0  0  0
    2.5310  -31.5660   -1.5560 O   0  0  0  0  0
    2.7490  -31.1860    0.6460 N   0  0  0  0  0
    2.7820  -27.3410   -5.1670 N   0  0  0  0  0
    2.0310  -26.5650   -6.1620 C   0  0  0  0  0
    0.5570  -26.4320   -5.7970 C   0  0  0  0  0
    0.1590  -26.7070   -4.6640 O   0  0  0  0  0
    2.1900  -27.3760   -7.4510 C   0  0  0  0  0
    3.4210  -28.1880   -7.2450 C   0  0  0  0  0
    3.4740  -28.4920   -5.7750 C   0  0  0  0  0
   -0.2500  -26.0110   -6.7650 N   0  0  0  0  0
   -1.6820  -25.8420   -6.5490 C   0  0  0  0  0
   -2.3320  -25.0450   -7.6970 C   0  0  0  0  0
   -3.8320  -24.8950   -7.4840 C   0  0  0  0  0
   -1.7440  -23.7760   -7.7890 O   0  0  0  0  0
   -2.0470  -22.9160   -9.0540 P   0  0  0  0  0
   -0.8100  -21.9950   -9.2090 O   0  0  0  0  0
   -2.0720  -23.9320  -10.2250 O   0  0  0  0  0
   -3.3280  -22.1440   -8.9340 O   0  0  0  0  0
   -2.3770  -27.1960   -6.4190 C   0  0  0  0  0
   -1.8590  -28.2160   -6.8720 O   0  0  0  0  0
   -3.5530  -27.1950   -5.7980 N   0  0  0  0  0
   -4.3180  -28.4220   -5.6100 C   0  0  0  0  0
   -5.8100  -28.1690   -5.8060 C   0  0  0  0  0
   -6.2410  -27.0260   -5.9620 O   0  0  0  0  0
   -4.0590  -29.0000   -4.2160 C   0  0  0  0  0
   -3.4930  -30.4090   -4.2370 C   0  0  0  0  0
   -3.4600  -31.0450   -2.8610 C   0  0  0  0  0
   -4.3940  -31.7410   -2.4630 O   0  0  0  0  0
   -2.3800  -30.8080   -2.1250 N   0  0  0  0  0
   -6.5940  -29.2420   -5.7960 N   0  0  0  0  0
   -8.0380  -29.1360   -5.9730 C   0  0  0  0  0
   -8.7330  -28.8890   -4.6370 C   0  0  0  0  0
   -8.1610  -29.1320   -3.5740 O   0  0  0  0  0
   -8.5870  -30.4090   -6.6220 C   0  0  0  0  0
   -8.9100  -30.2480   -8.0990 C   0  0  0  0  0
   -8.6630  -31.5160   -8.8910 C   0  0  0  0  0
   -9.5390  -32.3740   -9.0020 O   0  0  0  0  0
   -7.4630  -31.6420   -9.4480 N   0  0  0  0  0
   -9.9680  -28.4040   -4.7000 N   0  0  0  0  0
  -10.7440  -28.1240   -3.4970 C   0  0  0  0  0
  -12.0760  -28.8650   -3.5240 C   0  0  0  0  0
  -12.4600  -29.4370   -4.5440 O   0  0  0  0  0
  -10.9860  -26.6200   -3.3590 C   0  0  0  0  0
   -9.8540  -25.9680   -2.8100 O   0  0  0  0  0
  -12.7800  -28.8510   -2.3960 N   0  0  0  0  0
  -14.0700  -29.5220   -2.2910 C   0  0  0  0  0
  -15.1850  -28.6460   -2.8540 C   0  0  0  0  0
  -15.1610  -27.4230   -2.6030 O   0  0  0  0  0
  -14.3690  -29.8740   -0.8330 C   0  0  0  0  0
  -13.2210  -30.4080   -0.2000 O   0  0  0  0  0
  -15.4890  -30.8790   -0.6780 C   0  0  0  0  0
  -16.0730  -29.1910   -3.5420 O   0  0  0  0  0
   13.8017  -23.7331   -0.8348 H   0  0  0  0  0
   13.4170  -22.2261   -1.4330 H   0  0  0  0  0
   13.9751  -22.3849    0.1291 H   0  0  0  0  0
   12.0171  -23.6198    0.7643 H   0  0  0  0  0
   10.4119  -21.7322    0.5213 H   0  0  0  0  0
   11.5568  -20.9704   -0.6590 H   0  0  0  0  0
   12.8247  -21.2689    3.2781 H   0  0  0  0  0
   11.9489  -22.6047    2.5231 H   0  0  0  0  0
   11.2729  -25.4181   -0.1626 H   0  0  0  0  0
    9.9796  -25.1115   -2.8218 H   0  0  0  0  0
   10.6948  -27.7085   -1.4013 H   0  0  0  0  0
   12.6031  -27.8178   -2.9434 H   0  0  0  0  0
   12.6968  -26.3951   -1.8064 H   0  0  0  0  0
    8.9419  -27.9156   -3.0958 H   0  0  0  0  0
    9.9790  -27.0908   -4.2855 H   0  0  0  0  0
   10.4501  -28.6851   -3.6473 H   0  0  0  0  0
   11.8703  -26.3291   -4.7113 H   0  0  0  0  0
   11.9618  -24.9399   -3.6010 H   0  0  0  0  0
   13.4445  -25.8144   -4.0570 H   0  0  0  0  0
    7.8552  -24.8047   -2.7812 H   0  0  0  0  0
    6.3244  -26.1124   -0.5776 H   0  0  0  0  0
    5.6189  -23.6504   -2.2200 H   0  0  0  0  0
    3.6102  -24.9185   -1.6252 H   0  0  0  0  0
    4.1246  -24.9589    0.0792 H   0  0  0  0  0
    3.7000  -23.4081   -0.6862 H   0  0  0  0  0
    7.0996  -22.3064    1.8767 H   0  0  0  0  0
    8.5943  -23.9129    0.8337 H   0  0  0  0  0
    4.2959  -27.0743   -1.0483 H   0  0  0  0  0
    4.2712  -28.5363   -3.5194 H   0  0  0  0  0
    2.3151  -29.5572   -2.7281 H   0  0  0  0  0
    1.9031  -28.1126   -1.6921 H   0  0  0  0  0
    3.1595  -28.8157   -0.0098 H   0  0  0  0  0
    4.4303  -29.4953   -1.1108 H   0  0  0  0  0
    2.4035  -32.1151    0.8863 H   0  0  0  0  0
    3.0208  -30.5363    1.3839 H   0  0  0  0  0
    2.4013  -25.5429   -6.2412 H   0  0  0  0  0
    2.2724  -26.7318   -8.3264 H   0  0  0  0  0
    1.3196  -28.0031   -7.6440 H   0  0  0  0  0
    4.3101  -27.6470   -7.5689 H   0  0  0  0  0
    3.3946  -29.1028   -7.8370 H   0  0  0  0  0
    3.0051  -29.4438   -5.5256 H   0  0  0  0  0
    4.4930  -28.6118   -5.4072 H   0  0  0  0  0
    0.1424  -25.8007   -7.6827 H   0  0  0  0  0
   -1.8032  -25.2842   -5.6204 H   0  0  0  0  0
   -2.1691  -25.5956   -8.6235 H   0  0  0  0  0
   -4.2922  -25.8822   -7.4416 H   0  0  0  0  0
   -4.0138  -24.3675   -6.5476 H   0  0  0  0  0
   -4.2602  -24.3283   -8.3108 H   0  0  0  0  0
   -0.0186  -22.5335   -9.2817 H   0  0  0  0  0
   -1.2339  -24.3989  -10.2600 H   0  0  0  0  0
   -3.9288  -26.3150   -5.4448 H   0  0  0  0  0
   -3.9924  -29.1441   -6.3588 H   0  0  0  0  0
   -5.0162  -29.0402   -3.6961 H   0  0  0  0  0
   -3.3237  -28.3599   -3.7285 H   0  0  0  0  0
   -2.4686  -30.3534   -4.6054 H   0  0  0  0  0
   -4.1348  -31.0187   -4.8729 H   0  0  0  0  0
   -2.3016  -31.2091   -1.1904 H   0  0  0  0  0
   -1.6290  -30.2249   -2.4944 H   0  0  0  0  0
   -6.1756  -30.1624   -5.6612 H   0  0  0  0  0
   -8.2389  -28.2878   -6.6274 H   0  0  0  0  0
   -9.5152  -30.6629   -6.1101 H   0  0  0  0  0
   -7.8182  -31.1770   -6.5372 H   0  0  0  0  0
   -8.2616  -29.4696   -8.5013 H   0  0  0  0  0
   -9.9676  -29.9989   -8.1859 H   0  0  0  0  0
   -7.2386  -32.4745   -9.9929 H   0  0  0  0  0
   -6.7664  -30.9062   -9.3306 H   0  0  0  0  0
  -10.3845  -28.2227   -5.6133 H   0  0  0  0  0
  -10.1724  -28.4730   -2.6370 H   0  0  0  0  0
  -11.8349  -26.4635   -2.6934 H   0  0  0  0  0
  -11.1803  -26.2063   -4.3485 H   0  0  0  0  0
  -10.0329  -25.0278   -2.7347 H   0  0  0  0  0
  -12.4082  -28.3585   -1.5839 H   0  0  0  0  0
  -14.0226  -30.4405   -2.8760 H   0  0  0  0  0
  -14.3941  -27.2237   -2.0610 H   0  0  0  0  0
  -14.6761  -28.9376   -0.3672 H   0  0  0  0  0
  -13.4302  -30.6216    0.7122 H   0  0  0  0  0
  -16.4025  -30.4730   -1.1125 H   0  0  0  0  0
  -15.2204  -31.8024   -1.1910 H   0  0  0  0  0
  -15.6483  -31.0832    0.3808 H   0  0  0  0  0
  1  2  1  0  0  0
  2  3  1  0  0  0
  2  5  1  0  0  0
  3  4  2  0  0  0
  3  9  1  0  0  0
  5  6  1  0  0  0
  6  7  2  0  0  0
  6  8  1  0  0  0
  9 10  1  0  0  0
 10 11  1  0  0  0
 10 13  1  0  0  0
 11 12  2  0  0  0
 11 17  1  0  0  0
 13 14  1  0  0  0
 13 15  1  0  0  0
 14 16  1  0  0  0
 17 18  1  0  0  0
 18 19  1  0  0  0
 18 26  1  0  0  0
 19 20  1  0  0  0
 19 21  1  0  0  0
 21 22  1  0  0  0
 22 23  1  0  0  0
 22 24  1  0  0  0
 22 25  2  0  0  0
 26 27  2  0  0  0
 26 28  1  0  0  0
 28 29  1  0  0  0
 29 30  1  0  0  0
 29 32  1  0  0  0
 30 31  2  0  0  0
 30 37  1  0  0  0
 32 33  1  0  0  0
 33 34  1  0  0  0
 34 35  2  0  0  0
 34 36  1  0  0  0
 37 38  1  0  0  0
 37 43  1  0  0  0
 38 39  1  0  0  0
 38 41  1  0  0  0
 39 40  2  0  0  0
 39 44  1  0  0  0
 41 42  1  0  0  0
 42 43  1  0  0  0
 44 45  1  0  0  0
 45 46  1  0  0  0
 45 53  1  0  0  0
 46 47  1  0  0  0
 46 48  1  0  0  0
 48 49  1  0  0  0
 49 50  1  0  0  0
 49 51  1  0  0  0
 49 52  2  0  0  0
 53 54  2  0  0  0
 53 55  1  0  0  0
 55 56  1  0  0  0
 56 57  1  0  0  0
 56 59  1  0  0  0
 57 58  2  0  0  0
 57 64  1  0  0  0
 59 60  1  0  0  0
 60 61  1  0  0  0
 61 62  2  0  0  0
 61 63  1  0  0  0
 64 65  1  0  0  0
 65 66  1  0  0  0
 65 68  1  0  0  0
 66 67  2  0  0  0
 66 73  1  0  0  0
 68 69  1  0  0  0
 69 70  1  0  0  0
 70 71  2  0  0  0
 70 72  1  0  0  0
 73 74  1  0  0  0
 74 75  1  0  0  0
 74 77  1  0  0  0
 75 76  2  0  0  0
 75 79  1  0  0  0
 77 78  1  0  0  0
 79 80  1  0  0  0
 80 81  1  0  0  0
 80 83  1  0  0  0
 81 82  1  0  0  0
 81 86  2  0  0  0
 83 84  1  0  0  0
 83 85  1  0  0  0
  1 87  1  0  0  0
  1 88  1  0  0  0
  1 89  1  0  0  0
  2 90  1  0  0  0
  5 91  1  0  0  0
  5 92  1  0  0  0
  8 93  1  0  0  0
  8 94  1  0  0  0
  9 95  1  0  0  0
 10 96  1  0  0  0
 13 97  1  0  0  0
 14 98  1  0  0  0
 14 99  1  0  0  0
 15100  1  0  0  0
 15101  1  0  0  0
 15102  1  0  0  0
 16103  1  0  0  0
 16104  1  0  0  0
 16105  1  0  0  0
 17106  1  0  0  0
 18107  1  0  0  0
 19108  1  0  0  0
 20109  1  0  0  0
 20110  1  0  0  0
 20111  1  0  0  0
 23112  1  0  0  0
 24113  1  0  0  0
 28114  1  0  0  0
 29115  1  0  0  0
 32116  1  0  0  0
 32117  1  0  0  0
 33118  1  0  0  0
 33119  1  0  0  0
 36120  1  0  0  0
 36121  1  0  0  0
 38122  1  0  0  0
 41123  1  0  0  0
 41124  1  0  0  0
 42125  1  0  0  0
 42126  1  0  0  0
 43127  1  0  0  0
 43128  1  0  0  0
 44129  1  0  0  0
 45130  1  0  0  0
 46131  1  0  0  0
 47132  1  0  0  0
 47133  1  0  0  0
 47134  1  0  0  0
 50135  1  0  0  0
 51136  1  0  0  0
 55137  1  0  0  0
 56138  1  0  0  0
 59139  1  0  0  0
 59140  1  0  0  0
 60141  1  0  0  0
 60142  1  0  0  0
 63143  1  0  0  0
 63144  1  0  0  0
 64145  1  0  0  0
 65146  1  0  0  0
 68147  1  0  0  0
 68148  1  0  0  0
 69149  1  0  0  0
 69150  1  0  0  0
 72151  1  0  0  0
 72152  1  0  0  0
 73153  1  0  0  0
 74154  1  0  0  0
 77155  1  0  0  0
 77156  1  0  0  0
 78157  1  0  0  0
 79158  1  0  0  0
 80159  1  0  0  0
 82160  1  0  0  0
 83161  1  0  0  0
 84162  1  0  0  0
 85163  1  0  0  0
 85164  1  0  0  0
 85165  1  0  0  0
M  END
$$$$
