### 
### Created by X-TOOL on Mon Sep 10 21:12:59 2018
### 

@<TRIPOS>MOLECULE
2jql_ligand
  160   160     1     0     0
SMALL
GAST_HUCK


@<TRIPOS>ATOM
      1 N          13.4130  -22.8190   -0.6030 N.4       1 ASN         0.2396
      2 CA         12.0170  -22.9840   -0.1210 C.3       1 ASN         0.0818
      3 C          11.1470  -23.6620   -1.1760 C.2       1 ASN         0.2291
      4 O          10.7190  -23.0300   -2.1410 O.2       1 ASN        -0.3905
      5 CB         11.4520  -21.6050    0.2210 C.3       1 ASN         0.0972
      6 CG         12.1930  -20.9430    1.3670 C.2       1 ASN         0.1813
      7 OD1        12.6370  -19.8000    1.2560 O.2       1 ASN        -0.3969
      8 ND2        12.3330  -21.6610    2.4750 N.am      1 ASN        -0.3006
      9 N          10.8890  -24.9510   -0.9840 N.am      1 ILE        -0.2606
     10 CA         10.0710  -25.7140   -1.9180 C.3       1 ILE         0.1336
     11 C           8.6830  -25.9790   -1.3430 C.2       1 ILE         0.2042
     12 O           8.5360  -26.6980   -0.3560 O.2       1 ILE        -0.3944
     13 CB         10.7300  -27.0590   -2.2760 C.3       1 ILE        -0.0037
     14 CG1        12.1950  -26.8470   -2.6620 C.3       1 ILE        -0.0491
     15 CG2         9.9710  -27.7360   -3.4070 C.3       1 ILE        -0.0582
     16 CD1        12.3810  -25.9170   -3.8410 C.3       1 ILE        -0.0648
     17 N           7.6670  -25.3910   -1.9680 N.am      1 TPO        -0.2611
     18 CA          6.2900  -25.5640   -1.5190 C.3       1 TPO         0.1612
     19 CB          5.6050  -24.2020   -1.2800 C.3       1 TPO         0.1262
     20 CG2         4.1560  -24.3850   -0.8470 C.3       1 TPO        -0.0298
     21 OG1         6.3000  -23.4760   -0.3000 O.3       1 TPO        -0.2685
     22 P           6.5470  -24.1470    1.0890 P.3       1 TPO         0.2014
     23 O1P         6.4580  -22.9820    2.1080 O.co2     1 TPO        -0.5537
     24 O2P         8.0110  -24.6510    1.0250 O.co2     1 TPO        -0.5537
     25 O3P         5.5710  -25.2460    1.3850 O.co2     1 TPO        -0.5537
     26 C           5.4810  -26.3630   -2.5370 C.2       1 TPO         0.2068
     27 O           5.7620  -26.3240   -3.7350 O.2       1 TPO        -0.3943
     28 N           4.4770  -27.0850   -2.0520 N.am      1 GLN        -0.2635
     29 CA          3.6270  -27.8930   -2.9200 C.3       1 GLN         0.1332
     30 C           2.8110  -27.0080   -3.8620 C.2       1 GLN         0.2065
     31 O           2.2040  -26.0280   -3.4310 O.2       1 GLN        -0.3942
     32 CB          2.6870  -28.7620   -2.0820 C.3       1 GLN         0.0045
     33 CG          3.3650  -29.4220   -0.8920 C.3       1 GLN         0.0412
     34 CD          2.8450  -30.8220   -0.6280 C.2       1 GLN         0.1737
     35 OE1         2.5310  -31.5660   -1.5560 O.2       1 GLN        -0.3973
     36 NE2         2.7490  -31.1860    0.6460 N.am      1 GLN        -0.3009
     37 N           2.7820  -27.3410   -5.1670 N.am      1 PRO        -0.2498
     38 CA          2.0310  -26.5650   -6.1620 C.3       1 PRO         0.1338
     39 C           0.5570  -26.4320   -5.7970 C.2       1 PRO         0.2042
     40 O           0.1590  -26.7070   -4.6640 O.2       1 PRO        -0.3944
     41 CB          2.1900  -27.3760   -7.4510 C.3       1 PRO        -0.0104
     42 CG          3.4210  -28.1880   -7.2450 C.3       1 PRO        -0.0281
     43 CD          3.4740  -28.4920   -5.7750 C.3       1 PRO         0.0369
     44 N          -0.2500  -26.0110   -6.7650 N.am      1 TPO        -0.2611
     45 CA         -1.6820  -25.8420   -6.5490 C.3       1 TPO         0.1612
     46 CB         -2.3320  -25.0450   -7.6970 C.3       1 TPO         0.1262
     47 CG2        -3.8320  -24.8950   -7.4840 C.3       1 TPO        -0.0298
     48 OG1        -1.7440  -23.7760   -7.7890 O.3       1 TPO        -0.2685
     49 P          -2.0470  -22.9160   -9.0540 P.3       1 TPO         0.2014
     50 O1P        -0.8100  -21.9950   -9.2090 O.co2     1 TPO        -0.5537
     51 O2P        -2.0720  -23.9320  -10.2250 O.co2     1 TPO        -0.5537
     52 O3P        -3.3280  -22.1440   -8.9340 O.co2     1 TPO        -0.5537
     53 C          -2.3770  -27.1960   -6.4190 C.2       1 TPO         0.2068
     54 O          -1.8590  -28.2160   -6.8720 O.2       1 TPO        -0.3943
     55 N          -3.5530  -27.1950   -5.7980 N.am      1 GLN        -0.2635
     56 CA         -4.3180  -28.4220   -5.6100 C.3       1 GLN         0.1330
     57 C          -5.8100  -28.1690   -5.8060 C.2       1 GLN         0.2040
     58 O          -6.2410  -27.0260   -5.9620 O.2       1 GLN        -0.3944
     59 CB         -4.0590  -29.0000   -4.2160 C.3       1 GLN         0.0045
     60 CG         -3.4930  -30.4090   -4.2370 C.3       1 GLN         0.0412
     61 CD         -3.4600  -31.0450   -2.8610 C.2       1 GLN         0.1737
     62 OE1        -4.3940  -31.7410   -2.4630 O.2       1 GLN        -0.3973
     63 NE2        -2.3800  -30.8080   -2.1250 N.am      1 GLN        -0.3009
     64 N          -6.5940  -29.2420   -5.7960 N.am      1 GLN        -0.2636
     65 CA         -8.0380  -29.1360   -5.9730 C.3       1 GLN         0.1330
     66 C          -8.7330  -28.8890   -4.6370 C.2       1 GLN         0.2041
     67 O          -8.1610  -29.1320   -3.5740 O.2       1 GLN        -0.3944
     68 CB         -8.5870  -30.4090   -6.6220 C.3       1 GLN         0.0045
     69 CG         -8.9100  -30.2480   -8.0990 C.3       1 GLN         0.0412
     70 CD         -8.6630  -31.5160   -8.8910 C.2       1 GLN         0.1737
     71 OE1        -9.5390  -32.3740   -9.0020 O.2       1 GLN        -0.3973
     72 NE2        -7.4630  -31.6420   -9.4480 N.am      1 GLN        -0.3009
     73 N          -9.9680  -28.4040   -4.7000 N.am      1 SER        -0.2616
     74 CA        -10.7440  -28.1240   -3.4970 C.3       1 SER         0.1539
     75 C         -12.0760  -28.8650   -3.5240 C.2       1 SER         0.2057
     76 O         -12.4600  -29.4370   -4.5440 O.2       1 SER        -0.3943
     77 CB        -10.9860  -26.6200   -3.3590 C.3       1 SER         0.0843
     78 OG         -9.8540  -25.9680   -2.8100 O.3       1 SER        -0.3903
     79 N         -12.7800  -28.8510   -2.3960 N.am      1 THR        -0.2669
     80 CA        -14.0700  -29.5220   -2.2910 C.3       1 THR         0.1198
     81 C         -15.1850  -28.6460   -2.8540 C.2       1 THR         0.0626
     82 O         -15.1610  -27.4230   -2.6030 O.co2     1 THR        -0.5665
     83 CB        -14.3690  -29.8740   -0.8330 C.3       1 THR         0.0869
     84 OG1       -13.2210  -30.4080   -0.2000 O.3       1 THR        -0.3880
     85 CG2       -15.4890  -30.8790   -0.6780 C.3       1 THR        -0.0352
     86 OXT       -16.0730  -29.1910   -3.5420 O.co2     1 THR        -0.5665
     87 H1         13.9642  -22.3699    0.1115 H         1 ASN         0.2017
     88 H2         13.4160  -22.2515   -1.4360 H         1 ASN         0.2017
     89 H3         13.8057  -23.7237   -0.8113 H         1 ASN         0.2017
     90 H4         12.0224  -23.6074    0.7853 H         1 ASN         0.1125
     91 H5         10.3944  -21.7166    0.5022 H         1 ASN         0.0585
     92 H6         11.5292  -20.9615   -0.6678 H         1 ASN         0.0585
     93 H7         12.8129  -21.2757    3.2632 H         1 ASN         0.1814
     94 H8         11.9585  -22.5871    2.5213 H         1 ASN         0.1814
     95 H9         11.2654  -25.4090   -0.1787 H         1 ILE         0.1885
     96 H10         9.9620  -25.1224   -2.8389 H         1 ILE         0.0803
     97 H11        10.6935  -27.7124   -1.3918 H         1 ILE         0.0345
     98 H12        12.6326  -27.8235   -2.9167 H         1 ILE         0.0267
     99 H13        12.7249  -26.4222   -1.7967 H         1 ILE         0.0267
    100 H14         8.9215  -27.8792   -3.1101 H         1 ILE         0.0235
    101 H15        10.4279  -28.7133   -3.6217 H         1 ILE         0.0235
    102 H16        10.0146  -27.1051   -4.3070 H         1 ILE         0.0235
    103 H17        13.4539  -25.8127   -4.0600 H         1 ILE         0.0230
    104 H18        11.9584  -24.9304   -3.6001 H         1 ILE         0.0230
    105 H19        11.8661  -26.3318   -4.7201 H         1 ILE         0.0230
    106 H20         7.8516  -24.8162   -2.7652 H         1 TPO         0.1884
    107 H21         6.3052  -26.1192   -0.5695 H         1 TPO         0.0830
    108 H22         5.6213  -23.6330   -2.2212 H         1 TPO         0.0695
    109 H23         3.6947  -23.3997   -0.6844 H         1 TPO         0.0260
    110 H24         4.1229  -24.9640    0.0877 H         1 TPO         0.0260
    111 H25         3.6040  -24.9233   -1.6316 H         1 TPO         0.0260
    112 H26         4.2994  -27.0745   -1.0679 H         1 GLN         0.1883
    113 H27         4.2697  -28.5498   -3.5246 H         1 GLN         0.0801
    114 H28         2.2744  -29.5507   -2.7282 H         1 GLN         0.0337
    115 H29         1.8689  -28.1287   -1.7085 H         1 GLN         0.0337
    116 H30         3.1870  -28.8057    0.0015 H         1 GLN         0.0504
    117 H31         4.4457  -29.4788   -1.0890 H         1 GLN         0.0504
    118 H32         2.4124  -32.0977    0.8815 H         1 GLN         0.1814
    119 H33         3.0133  -30.5483    1.3695 H         1 GLN         0.1814
    120 H34         2.4666  -25.5613   -6.2751 H         1 PRO         0.0802
    121 H35         2.3080  -26.7075   -8.3165 H         1 PRO         0.0313
    122 H36         1.3182  -28.0282   -7.6076 H         1 PRO         0.0313
    123 H37         4.3108  -27.6176   -7.5498 H         1 PRO         0.0287
    124 H38         3.3660  -29.1201   -7.8265 H         1 PRO         0.0287
    125 H39         2.9501  -29.4321   -5.5477 H         1 PRO         0.0524
    126 H40         4.5142  -28.5575   -5.4232 H         1 PRO         0.0524
    127 H41         0.1347  -25.8048   -7.6647 H         1 TPO         0.1884
    128 H42        -1.8242  -25.2835   -5.6121 H         1 TPO         0.0830
    129 H43        -2.1625  -25.5862   -8.6395 H         1 TPO         0.0695
    130 H44        -4.2654  -24.3232   -8.3178 H         1 TPO         0.0260
    131 H45        -4.0168  -24.3627   -6.5393 H         1 TPO         0.0260
    132 H46        -4.2977  -25.8906   -7.4411 H         1 TPO         0.0260
    133 H47        -3.9214  -26.3322   -5.4517 H         1 GLN         0.1883
    134 H48        -3.9881  -29.1557   -6.3602 H         1 GLN         0.0801
    135 H49        -5.0103  -29.0157   -3.6639 H         1 GLN         0.0337
    136 H50        -3.3439  -28.3459   -3.6958 H         1 GLN         0.0337
    137 H51        -2.4671  -30.3707   -4.6320 H         1 GLN         0.0504
    138 H52        -4.1171  -31.0295   -4.8969 H         1 GLN         0.0504
    139 H53        -2.3030  -31.2015   -1.2089 H         1 GLN         0.1814
    140 H54        -1.6439  -30.2360   -2.4870 H         1 GLN         0.1814
    141 H55        -6.1839  -30.1444   -5.6639 H         1 GLN         0.1883
    142 H56        -8.2461  -28.2846   -6.6377 H         1 GLN         0.0801
    143 H57        -9.5074  -30.6994   -6.0943 H         1 GLN         0.0337
    144 H58        -7.8361  -31.2057   -6.5150 H         1 GLN         0.0337
    145 H59        -8.2802  -29.4463   -8.5121 H         1 GLN         0.0504
    146 H60        -9.9696  -29.9705   -8.1997 H         1 GLN         0.0504
    147 H61        -7.2431  -32.4580   -9.9825 H         1 GLN         0.1814
    148 H62        -6.7800  -30.9208   -9.3326 H         1 GLN         0.1814
    149 H63       -10.3764  -28.2262   -5.5953 H         1 SER         0.1884
    150 H64       -10.1699  -28.4690   -2.6244 H         1 SER         0.0823
    151 H65       -11.8505  -26.4545   -2.6993 H         1 SER         0.0606
    152 H66       -11.1967  -26.1976   -4.3526 H         1 SER         0.0606
    153 H67       -10.0310  -25.0377   -2.7354 H         1 SER         0.2097
    154 H68       -12.4154  -28.3681   -1.5998 H         1 THR         0.1876
    155 H69       -14.0273  -30.4527   -2.8758 H         1 THR         0.0752
    156 H70       -14.6611  -28.9474   -0.3172 H         1 THR         0.0632
    157 H71       -13.4280  -30.6194    0.7027 H         1 THR         0.2100
    158 H72       -15.6507  -31.0859    0.3902 H         1 THR         0.0256
    159 H73       -15.2191  -31.8115   -1.1953 H         1 THR         0.0256
    160 H74       -16.4116  -30.4704   -1.1161 H         1 THR         0.0256
@<TRIPOS>BOND
     1    1    2 1  
     2    2    3 1  
     3    2    5 1  
     4    3    4 2  
     5    3    9 am 
     6    5    6 1  
     7    6    7 2  
     8    6    8 am 
     9    9   10 1  
    10   10   11 1  
    11   10   13 1  
    12   11   12 2  
    13   11   17 am 
    14   13   14 1  
    15   13   15 1  
    16   14   16 1  
    17   17   18 1  
    18   18   19 1  
    19   18   26 1  
    20   19   20 1  
    21   19   21 1  
    22   21   22 1  
    23   22   23 ar 
    24   22   24 ar 
    25   22   25 ar 
    26   26   27 2  
    27   26   28 am 
    28   28   29 1  
    29   29   30 1  
    30   29   32 1  
    31   30   31 2  
    32   30   37 am 
    33   32   33 1  
    34   33   34 1  
    35   34   35 2  
    36   34   36 am 
    37   37   38 1  
    38   37   43 1  
    39   38   39 1  
    40   38   41 1  
    41   39   40 2  
    42   39   44 am 
    43   41   42 1  
    44   42   43 1  
    45   44   45 1  
    46   45   46 1  
    47   45   53 1  
    48   46   47 1  
    49   46   48 1  
    50   48   49 1  
    51   49   50 ar 
    52   49   51 ar 
    53   49   52 ar 
    54   53   54 2  
    55   53   55 am 
    56   55   56 1  
    57   56   57 1  
    58   56   59 1  
    59   57   58 2  
    60   57   64 am 
    61   59   60 1  
    62   60   61 1  
    63   61   62 2  
    64   61   63 am 
    65   64   65 1  
    66   65   66 1  
    67   65   68 1  
    68   66   67 2  
    69   66   73 am 
    70   68   69 1  
    71   69   70 1  
    72   70   71 2  
    73   70   72 am 
    74   73   74 1  
    75   74   75 1  
    76   74   77 1  
    77   75   76 2  
    78   75   79 am 
    79   77   78 1  
    80   79   80 1  
    81   80   81 1  
    82   80   83 1  
    83   81   82 ar 
    84   81   86 ar 
    85   83   84 1  
    86   83   85 1  
    87    1   87 1  
    88    1   88 1  
    89    1   89 1  
    90    2   90 1  
    91    5   91 1  
    92    5   92 1  
    93    8   93 1  
    94    8   94 1  
    95    9   95 1  
    96   10   96 1  
    97   13   97 1  
    98   14   98 1  
    99   14   99 1  
   100   15  100 1  
   101   15  101 1  
   102   15  102 1  
   103   16  103 1  
   104   16  104 1  
   105   16  105 1  
   106   17  106 1  
   107   18  107 1  
   108   19  108 1  
   109   20  109 1  
   110   20  110 1  
   111   20  111 1  
   112   28  112 1  
   113   29  113 1  
   114   32  114 1  
   115   32  115 1  
   116   33  116 1  
   117   33  117 1  
   118   36  118 1  
   119   36  119 1  
   120   38  120 1  
   121   41  121 1  
   122   41  122 1  
   123   42  123 1  
   124   42  124 1  
   125   43  125 1  
   126   43  126 1  
   127   44  127 1  
   128   45  128 1  
   129   46  129 1  
   130   47  130 1  
   131   47  131 1  
   132   47  132 1  
   133   55  133 1  
   134   56  134 1  
   135   59  135 1  
   136   59  136 1  
   137   60  137 1  
   138   60  138 1  
   139   63  139 1  
   140   63  140 1  
   141   64  141 1  
   142   65  142 1  
   143   68  143 1  
   144   68  144 1  
   145   69  145 1  
   146   69  146 1  
   147   72  147 1  
   148   72  148 1  
   149   73  149 1  
   150   74  150 1  
   151   77  151 1  
   152   77  152 1  
   153   78  153 1  
   154   79  154 1  
   155   80  155 1  
   156   83  156 1  
   157   84  157 1  
   158   85  158 1  
   159   85  159 1  
   160   85  160 1  
@<TRIPOS>SUBSTRUCTURE
     1 ASN         1

