3dcv_ligand
  -I-interpret- 

 35 37  0  0  0  0  0  0  0  0999 V2000
   15.6870   33.5600   -0.3660 O   0  0  0  0  0
   16.3220   34.3240    0.3920 C   0  0  0  0  0
   17.2490   35.1470   -0.1400 N   0  0  0  0  0
   17.9630   35.9790    0.6450 C   0  0  0  0  0
   18.9470   36.9030    0.0370 C   0  0  0  0  0
   19.7620   37.7010    0.8270 C   0  0  0  0  0
   20.6520   38.5900    0.2310 C   0  0  0  0  0
   21.5540   39.4460    1.0830 C   0  0  0  0  0
   20.7100   38.6860   -1.1500 C   0  0  0  0  0
   21.5760   39.5480   -1.7550 O   0  0  0  0  0
   19.8770   37.9000   -1.9370 C   0  0  0  0  0
   18.9910   37.0130   -1.3450 C   0  0  0  0  0
   17.7250   36.0130    2.0040 C   0  0  0  0  0
   16.7730   35.1560    2.5420 C   0  0  0  0  0
   16.0820   34.3260    1.7250 N   0  0  0  0  0
   16.5200   35.1890    4.0120 C   0  0  0  0  0
   17.5440   34.9210    4.9160 C   0  0  0  0  0
   17.2890   34.9680    6.2880 C   0  0  0  0  0
   16.0190   35.2930    6.7630 C   0  0  0  0  0
   14.9980   35.5670    5.8570 C   0  0  0  0  0
   15.2510   35.5200    4.4860 C   0  0  0  0  0
   19.7054   37.6318    1.9133 H   0  0  0  0  0
   20.9470   40.0780    1.7312 H   0  0  0  0  0
   22.1919   38.8053    1.6919 H   0  0  0  0  0
   22.1731   40.0714    0.4398 H   0  0  0  0  0
   21.4793   39.4809   -2.7078 H   0  0  0  0  0
   19.9203   37.9811   -3.0231 H   0  0  0  0  0
   18.3314   36.4043   -1.9634 H   0  0  0  0  0
   18.2754   36.7015    2.6452 H   0  0  0  0  0
   15.3778   33.6997    2.1151 H   0  0  0  0  0
   18.5422   34.6751    4.5538 H   0  0  0  0  0
   18.0899   34.7487    6.9940 H   0  0  0  0  0
   15.8270   35.3322    7.8352 H   0  0  0  0  0
   14.0010   35.8182    6.2190 H   0  0  0  0  0
   14.4511   35.7436    3.7802 H   0  0  0  0  0
  1  2  2  0  0  0
  2  3  1  0  0  0
  2 15  1  0  0  0
  3  4  2  0  0  0
  4  5  1  0  0  0
  4 13  1  0  0  0
  5  6  4  0  0  0
  5 12  4  0  0  0
  6  7  4  0  0  0
  7  8  1  0  0  0
  7  9  4  0  0  0
  9 10  1  0  0  0
  9 11  4  0  0  0
 11 12  4  0  0  0
 13 14  2  0  0  0
 14 15  1  0  0  0
 14 16  1  0  0  0
 16 17  4  0  0  0
 16 21  4  0  0  0
 17 18  4  0  0  0
 18 19  4  0  0  0
 19 20  4  0  0  0
 20 21  4  0  0  0
  6 22  1  0  0  0
  8 23  1  0  0  0
  8 24  1  0  0  0
  8 25  1  0  0  0
 10 26  1  0  0  0
 11 27  1  0  0  0
 12 28  1  0  0  0
 13 29  1  0  0  0
 15 30  1  0  0  0
 17 31  1  0  0  0
 18 32  1  0  0  0
 19 33  1  0  0  0
 20 34  1  0  0  0
 21 35  1  0  0  0
M  END
$$$$
