5wqa_ligand
  -I-interpret- 

 67 72  0  0  0  0  0  0  0  0999 V2000
  -25.3660    5.3720   22.9130 O   0  0  0  0  0
  -25.4820    5.0370   24.0860 C   0  0  0  0  0
  -26.3110    5.8500   25.0140 C   0  0  0  0  0
  -26.4040    5.5310   26.3820 C   0  0  0  0  0
  -25.8150    4.4890   26.8740 C   0  0  0  0  0
  -25.2720    3.5240   27.3000 C   0  0  0  0  0
  -24.7050    2.4540   27.7480 C   0  0  0  0  0
  -25.1680    1.7790   28.8730 C   0  0  0  0  0
  -24.5140    0.6270   29.3190 C   0  0  0  0  0
  -23.4090    0.1420   28.6300 C   0  0  0  0  0
  -22.7710   -0.9880   29.0350 O   0  0  0  0  0
  -22.9540    0.8100   27.5020 C   0  0  0  0  0
  -23.5990    1.9590   27.0650 C   0  0  0  0  0
  -27.1950    6.3180   27.2230 C   0  0  0  0  0
  -27.8540    7.4170   26.6770 C   0  0  0  0  0
  -27.7650    7.7550   25.3360 C   0  0  0  0  0
  -26.9890    6.9620   24.5010 C   0  0  0  0  0
  -27.4880    6.2580   28.7070 C   0  0  0  0  0
  -28.4190    7.4270   28.8570 C   0  0  0  0  0
  -29.0380    7.9170   29.9970 C   0  0  0  0  0
  -29.8310    9.0570   29.9030 C   0  0  0  0  0
  -30.4420    9.5170   31.0310 O   0  0  0  0  0
  -29.9950    9.7110   28.6770 C   0  0  0  0  0
  -29.3620    9.2260   27.5300 C   0  0  0  0  0
  -28.5760    8.0820   27.6510 C   0  0  0  0  0
  -28.1420    4.9580   29.1320 C   0  0  0  0  0
  -28.9310    4.2570   28.2260 C   0  0  0  0  0
  -29.5440    3.0600   28.5740 C   0  0  0  0  0
  -29.3890    2.5390   29.8570 C   0  0  0  0  0
  -29.9680    1.3600   30.2570 O   0  0  0  0  0
  -31.0170    0.6880   29.5550 C   0  0  0  0  0
  -28.6080    3.2340   30.7750 C   0  0  0  0  0
  -27.9920    4.4330   30.4230 C   0  0  0  0  0
  -26.1960    6.5960   29.4430 C   0  0  0  0  0
  -25.3120    5.6100   29.8780 C   0  0  0  0  0
  -24.1430    5.9370   30.5490 C   0  0  0  0  0
  -23.8120    7.2610   30.7920 C   0  0  0  0  0
  -22.6760    7.5990   31.4730 O   0  0  0  0  0
  -21.3640    7.5280   30.9420 C   0  0  0  0  0
  -24.6770    8.2560   30.3750 C   0  0  0  0  0
  -25.8520    7.9290   29.7010 C   0  0  0  0  0
  -24.9768    4.1420   24.4492 H   0  0  0  0  0
  -26.0426    2.1493   29.4078 H   0  0  0  0  0
  -24.8713    0.1083   30.2086 H   0  0  0  0  0
  -22.0367   -1.1690   28.4437 H   0  0  0  0  0
  -22.0885    0.4318   26.9580 H   0  0  0  0  0
  -23.2353    2.4782   26.1783 H   0  0  0  0  0
  -28.2929    8.6248   24.9450 H   0  0  0  0  0
  -26.9075    7.2064   23.4419 H   0  0  0  0  0
  -28.9051    7.4153   30.9555 H   0  0  0  0  0
  -30.9519   10.3025   30.8198 H   0  0  0  0  0
  -30.6192   10.6025   28.6166 H   0  0  0  0  0
  -29.4795    9.7274   26.5693 H   0  0  0  0  0
  -29.0713    4.6555   27.2212 H   0  0  0  0  0
  -30.1485    2.5263   27.8407 H   0  0  0  0  0
  -31.8854    1.3433   29.4878 H   0  0  0  0  0
  -30.6752    0.4316   28.5522 H   0  0  0  0  0
  -31.2872   -0.2214   30.0917 H   0  0  0  0  0
  -28.4766    2.8359   31.7811 H   0  0  0  0  0
  -27.3887    4.9670   31.1572 H   0  0  0  0  0
  -25.5438    4.5622   29.6872 H   0  0  0  0  0
  -23.4771    5.1439   30.8891 H   0  0  0  0  0
  -21.1451    6.4998   30.6541 H   0  0  0  0  0
  -21.2918    8.1747   30.0676 H   0  0  0  0  0
  -20.6495    7.8551   31.6974 H   0  0  0  0  0
  -24.4387    9.3008   30.5744 H   0  0  0  0  0
  -26.5165    8.7263   29.3680 H   0  0  0  0  0
  1  2  2  0  0  0
  2  3  1  0  0  0
  3  4  4  0  0  0
  3 17  4  0  0  0
  4  5  1  0  0  0
  4 14  4  0  0  0
  5  6  3  0  0  0
  6  7  1  0  0  0
  7  8  4  0  0  0
  7 13  4  0  0  0
  8  9  4  0  0  0
  9 10  4  0  0  0
 10 11  1  0  0  0
 10 12  4  0  0  0
 12 13  4  0  0  0
 14 15  4  0  0  0
 14 18  1  0  0  0
 15 16  4  0  0  0
 15 25  1  0  0  0
 16 17  4  0  0  0
 18 19  1  0  0  0
 18 26  1  0  0  0
 18 34  1  0  0  0
 19 20  4  0  0  0
 19 25  4  0  0  0
 20 21  4  0  0  0
 21 22  1  0  0  0
 21 23  4  0  0  0
 23 24  4  0  0  0
 24 25  4  0  0  0
 26 27  4  0  0  0
 26 33  4  0  0  0
 27 28  4  0  0  0
 28 29  4  0  0  0
 29 30  1  0  0  0
 29 32  4  0  0  0
 30 31  1  0  0  0
 32 33  4  0  0  0
 34 35  4  0  0  0
 34 41  4  0  0  0
 35 36  4  0  0  0
 36 37  4  0  0  0
 37 38  1  0  0  0
 37 40  4  0  0  0
 38 39  1  0  0  0
 40 41  4  0  0  0
  2 42  1  0  0  0
  8 43  1  0  0  0
  9 44  1  0  0  0
 11 45  1  0  0  0
 12 46  1  0  0  0
 13 47  1  0  0  0
 16 48  1  0  0  0
 17 49  1  0  0  0
 20 50  1  0  0  0
 22 51  1  0  0  0
 23 52  1  0  0  0
 24 53  1  0  0  0
 27 54  1  0  0  0
 28 55  1  0  0  0
 31 56  1  0  0  0
 31 57  1  0  0  0
 31 58  1  0  0  0
 32 59  1  0  0  0
 33 60  1  0  0  0
 35 61  1  0  0  0
 36 62  1  0  0  0
 39 63  1  0  0  0
 39 64  1  0  0  0
 39 65  1  0  0  0
 40 66  1  0  0  0
 41 67  1  0  0  0
M  END
$$$$
