5ov9_ligand
  -I-interpret- 

 59 61  0  0  0  0  0  0  0  0999 V2000
   36.6580   29.8440    7.7330 C   0  0  0  0  0
   37.5310   30.5400    8.6930 C   0  0  0  0  0
   38.8430   30.1710    8.8450 C   0  0  0  0  0
   39.6050   30.8270    9.7820 C   0  0  0  0  0
   39.0540   31.8300   10.5510 C   0  0  0  0  0
   37.7400   32.1820   10.4020 C   0  0  0  0  0
   36.9780   31.5230    9.4690 C   0  0  0  0  0
   37.1060   29.4780    6.3760 C   0  0  0  0  0
   36.5690   28.3560    5.7930 C   0  0  0  0  0
   36.9690   27.9980    4.5310 C   0  0  0  0  0
   37.8960   28.7610    3.8720 C   0  0  0  0  0
   38.4350   29.8770    4.4590 C   0  0  0  0  0
   38.0390   30.2430    5.7160 C   0  0  0  0  0
   35.2140   29.8550    8.0410 C   0  0  0  0  0
   34.8120   29.6010    9.3310 C   0  0  0  0  0
   33.4750   29.6140    9.6440 C   0  0  0  0  0
   32.5480   29.8710    8.6680 C   0  0  0  0  0
   32.9480   30.1080    7.3690 C   0  0  0  0  0
   34.2890   30.1060    7.0540 C   0  0  0  0  0
   41.1960   32.0290   11.6790 C   0  0  0  0  0
   39.3130   33.5410   12.3100 C   0  0  0  0  0
   39.2990   29.1720    1.9070 C   0  0  0  0  0
   37.7470   27.2160    2.0020 C   0  0  0  0  0
   30.8650   29.6700   10.4030 C   0  0  0  0  0
   30.1750   29.9840    8.0270 C   0  0  0  0  0
   39.8340   32.4720   11.4970 N   0  0  0  0  0
   38.3040   28.3960    2.6080 N   0  0  0  0  0
   31.2110   29.8540    9.0210 N   0  0  0  0  0
   37.0088   28.8441    7.9887 H   0  0  0  0  0
   39.2720   29.3751    8.2362 H   0  0  0  0  0
   40.6511   30.5527    9.9180 H   0  0  0  0  0
   37.3054   32.9725   11.0139 H   0  0  0  0  0
   35.9269   31.7840    9.3455 H   0  0  0  0  0
   35.8325   27.7564    6.3280 H   0  0  0  0  0
   36.5513   27.1109    4.0549 H   0  0  0  0  0
   39.1770   30.4708    3.9253 H   0  0  0  0  0
   38.4582   31.1309    6.1893 H   0  0  0  0  0
   35.5522   29.3900   10.1028 H   0  0  0  0  0
   33.1517   29.4203   10.6668 H   0  0  0  0  0
   32.2049   30.2963    6.5941 H   0  0  0  0  0
   34.6143   30.3015    6.0322 H   0  0  0  0  0
   41.8753   32.8606   11.4916 H   0  0  0  0  0
   41.3277   31.6738   12.7011 H   0  0  0  0  0
   41.4097   31.2193   10.9813 H   0  0  0  0  0
   39.3607   33.2534   13.3603 H   0  0  0  0  0
   39.9083   34.4401   12.1508 H   0  0  0  0  0
   38.2772   33.7356   12.0319 H   0  0  0  0  0
   38.9378   30.1923    1.7783 H   0  0  0  0  0
   40.2232   29.1825    2.4848 H   0  0  0  0  0
   39.4847   28.7251    0.9303 H   0  0  0  0  0
   37.9750   26.3487    2.6216 H   0  0  0  0  0
   36.6663   27.3288    1.9162 H   0  0  0  0  0
   38.1792   27.0796    1.0107 H   0  0  0  0  0
   31.2554   28.7132   10.7497 H   0  0  0  0  0
   31.2977   30.4764   10.9950 H   0  0  0  0  0
   29.7802   29.6813   10.5093 H   0  0  0  0  0
   30.2873   30.9367    7.5095 H   0  0  0  0  0
   30.2570   29.1675    7.3096 H   0  0  0  0  0
   29.2001   29.9458    8.5130 H   0  0  0  0  0
  1  2  1  0  0  0
  1  8  1  0  0  0
  1 14  1  0  0  0
  2  3  4  0  0  0
  2  7  4  0  0  0
  3  4  4  0  0  0
  4  5  4  0  0  0
  5  6  4  0  0  0
  5 26  1  0  0  0
  6  7  4  0  0  0
  8  9  4  0  0  0
  8 13  4  0  0  0
  9 10  4  0  0  0
 10 11  4  0  0  0
 11 12  4  0  0  0
 11 27  1  0  0  0
 12 13  4  0  0  0
 14 15  4  0  0  0
 14 19  4  0  0  0
 15 16  4  0  0  0
 16 17  4  0  0  0
 17 18  4  0  0  0
 17 28  1  0  0  0
 18 19  4  0  0  0
 26 20  1  0  0  0
 26 21  1  0  0  0
 27 22  1  0  0  0
 27 23  1  0  0  0
 28 24  1  0  0  0
 28 25  1  0  0  0
  1 29  1  0  0  0
  3 30  1  0  0  0
  4 31  1  0  0  0
  6 32  1  0  0  0
  7 33  1  0  0  0
  9 34  1  0  0  0
 10 35  1  0  0  0
 12 36  1  0  0  0
 13 37  1  0  0  0
 15 38  1  0  0  0
 16 39  1  0  0  0
 18 40  1  0  0  0
 19 41  1  0  0  0
 20 42  1  0  0  0
 20 43  1  0  0  0
 20 44  1  0  0  0
 21 45  1  0  0  0
 21 46  1  0  0  0
 21 47  1  0  0  0
 22 48  1  0  0  0
 22 49  1  0  0  0
 22 50  1  0  0  0
 23 51  1  0  0  0
 23 52  1  0  0  0
 23 53  1  0  0  0
 24 54  1  0  0  0
 24 55  1  0  0  0
 24 56  1  0  0  0
 25 57  1  0  0  0
 25 58  1  0  0  0
 25 59  1  0  0  0
M  END
$$$$
