6pg4_ligand
  -I-interpret- 

 15 15  0  0  0  0  0  0  0  0999 V2000
   48.5540   -5.7490  101.7040 C   0  0  0  0  0
   49.9250   -5.0740  101.6360 C   0  0  0  0  0
   50.6830   -4.7520  102.6830 N   0  0  0  0  0
   50.5410   -4.6900  100.4930 N   0  0  0  0  0
   51.7210   -4.1480  100.8380 C   0  0  0  0  0
   51.7950   -4.1800  102.1840 C   0  0  0  0  0
   52.9540   -3.6380  103.0880 C   0  0  0  0  0
   54.1090   -3.2840  102.3450 O   0  0  0  0  0
   48.6510   -6.7171  102.1955 H   0  0  0  0  0
   47.8682   -5.1194  102.2709 H   0  0  0  0  0
   48.1693   -5.8898  100.6939 H   0  0  0  0  0
   52.4768   -3.7559  100.1574 H   0  0  0  0  0
   53.2335   -4.4293  103.7836 H   0  0  0  0  0
   52.5933   -2.7416  103.5925 H   0  0  0  0  0
   54.7860   -2.9595  102.9433 H   0  0  0  0  0
  1  2  1  0  0  0
  2  3  4  0  0  0
  2  4  4  0  0  0
  3  6  4  0  0  0
  4  5  4  0  0  0
  5  6  4  0  0  0
  6  7  1  0  0  0
  7  8  1  0  0  0
  1  9  1  0  0  0
  1 10  1  0  0  0
  1 11  1  0  0  0
  5 12  1  0  0  0
  7 13  1  0  0  0
  7 14  1  0  0  0
  8 15  1  0  0  0
M  END
$$$$
