4kmz_ligand
  -I-interpret- 

 50 52  0  0  0  0  0  0  0  0999 V2000
   36.9660   49.3040   52.1120 N   0  0  0  0  0
   36.4320   49.4830   53.3730 C   0  0  0  0  0
   37.1340   50.1320   54.3050 N   0  0  0  0  0
   35.1770   48.9850   53.6730 N   0  0  0  0  0
   34.4410   48.3080   52.7180 C   0  0  0  0  0
   33.3250   47.8520   52.9830 O   0  0  0  0  0
   34.9750   48.1300   51.4470 C   0  0  0  0  0
   34.2400   47.4580   50.4890 N   0  0  0  0  0
   34.7800   47.2790   49.2270 C   0  0  0  0  0
   36.0500   47.7810   48.9280 C   0  0  0  0  0
   36.7830   48.4570   49.8840 N   0  0  0  0  0
   36.2450   48.6290   51.1460 C   0  0  0  0  0
   33.9850   46.5620   48.1560 C   0  0  0  0  0
   33.3340   47.6190   47.3860 N   0  0  0  0  0
   29.8710   47.2070   45.1540 C   0  0  0  0  0
   30.5440   46.0720   45.6030 C   0  0  0  0  0
   31.7100   46.2010   46.3580 C   0  0  0  0  0
   32.2210   47.4640   46.6620 C   0  0  0  0  0
   31.5460   48.5980   46.2140 C   0  0  0  0  0
   30.3720   48.4710   45.4620 C   0  0  0  0  0
   28.6000   47.0700   44.3500 C   0  0  0  0  0
   28.4740   46.0340   43.3920 O   0  0  0  0  0
   27.6250   47.9580   44.5750 N   0  0  0  0  0
   26.2910   47.8610   44.0270 C   0  0  0  0  0
   25.3150   47.2210   45.0230 C   0  0  0  0  0
   25.8090   45.8830   45.5710 C   0  0  0  0  0
   24.7670   45.1910   46.4280 C   0  0  0  0  0
   23.8760   44.4750   45.8930 O   0  0  0  0  0
   24.7900   45.3020   47.6830 O   0  0  0  0  0
   25.8090   49.2420   43.6610 C   0  0  0  0  0
   26.5090   49.9910   42.9250 O   0  0  0  0  0
   24.7010   49.6600   44.0850 O   0  0  0  0  0
   37.8927   49.6701   51.8939 H   0  0  0  0  0
   36.7449   50.2608   55.2390 H   0  0  0  0  0
   36.4659   47.6376   47.9307 H   0  0  0  0  0
   33.2577   45.8751   48.5887 H   0  0  0  0  0
   34.6258   45.9442   47.5269 H   0  0  0  0  0
   33.7609   48.5452   47.4020 H   0  0  0  0  0
   30.1583   45.0810   45.3636 H   0  0  0  0  0
   32.2259   45.3089   46.7132 H   0  0  0  0  0
   31.9341   49.5888   46.4503 H   0  0  0  0  0
   29.8484   49.3624   45.1165 H   0  0  0  0  0
   27.8371   48.7566   45.1730 H   0  0  0  0  0
   26.3280   47.2242   43.1431 H   0  0  0  0  0
   24.3780   47.0378   44.4972 H   0  0  0  0  0
   25.2063   47.9040   45.8655 H   0  0  0  0  0
   26.6840   46.0747   46.1920 H   0  0  0  0  0
   26.0354   45.2343   44.7248 H   0  0  0  0  0
   23.9866   44.4878   44.9395 H   0  0  0  0  0
   27.3189   49.5351   42.6846 H   0  0  0  0  0
  1  2  1  0  0  0
 12  1  1  0  0  0
  2  3  2  0  0  0
  4  2  4  0  0  0
  5  4  1  0  0  0
  5  6  2  0  0  0
  7  5  1  0  0  0
  8  7  4  0  0  0
  7 12  4  0  0  0
  9  8  4  0  0  0
  9 10  4  0  0  0
 13  9  1  0  0  0
 10 11  4  0  0  0
 11 12  4  0  0  0
 14 13  1  0  0  0
 18 14  1  0  0  0
 16 15  4  0  0  0
 15 20  4  0  0  0
 15 21  1  0  0  0
 17 16  4  0  0  0
 17 18  4  0  0  0
 18 19  4  0  0  0
 19 20  4  0  0  0
 21 22  2  0  0  0
 21 23  1  0  0  0
 23 24  1  0  0  0
 24 25  1  0  0  0
 24 30  1  0  0  0
 25 26  1  0  0  0
 26 27  1  0  0  0
 27 28  1  0  0  0
 27 29  2  0  0  0
 30 31  1  0  0  0
 30 32  2  0  0  0
  1 33  1  0  0  0
  3 34  1  0  0  0
 10 35  1  0  0  0
 13 36  1  0  0  0
 13 37  1  0  0  0
 14 38  1  0  0  0
 16 39  1  0  0  0
 17 40  1  0  0  0
 19 41  1  0  0  0
 20 42  1  0  0  0
 23 43  1  0  0  0
 24 44  1  0  0  0
 25 45  1  0  0  0
 25 46  1  0  0  0
 26 47  1  0  0  0
 26 48  1  0  0  0
 28 49  1  0  0  0
 31 50  1  0  0  0
M  END
$$$$
