### 
### Created by X-TOOL on Mon Sep 10 21:13:12 2018
### 

@<TRIPOS>MOLECULE
2lsk_ligand
  264   266     1     0     0
SMALL
GAST_HUCK


@<TRIPOS>ATOM
      1 N          13.9420    8.6170   19.5850 N.4       1 GLN         0.2380
      2 CA         14.7020    7.4050   19.1870 C.3       1 GLN         0.0671
      3 C          15.4760    7.6650   17.8830 C.2       1 GLN         0.2269
      4 O          16.6970    7.4600   17.8400 O.2       1 GLN        -0.3907
      5 CB         13.7500    6.1850   19.0430 C.3       1 GLN         0.0247
      6 CG         13.0050    5.8090   20.3410 C.3       1 GLN         0.0443
      7 CD         12.0050    4.6600   20.1880 C.2       1 GLN         0.1738
      8 OE1        11.4340    4.4460   19.1150 O.2       1 GLN        -0.3973
      9 NE2        11.7690    3.9250   21.2670 N.am      1 GLN        -0.3009
     10 N          14.7450    8.1110   16.8340 N.am      1 SER        -0.2588
     11 CA         15.3090    8.5090   15.5290 C.3       1 SER         0.1540
     12 C          16.0290    7.3290   14.8430 C.2       1 SER         0.2063
     13 O          17.2370    7.1170   15.0290 O.2       1 SER        -0.3943
     14 CB         16.2370    9.7490   15.6680 C.3       1 SER         0.0843
     15 OG         16.7140   10.2000   14.4100 O.3       1 SER        -0.3903
     16 N          15.2600    6.5430   14.0690 N.am      1 THR        -0.2613
     17 CA         15.7900    5.4200   13.2690 C.3       1 THR         0.1565
     18 C          16.2510    5.8990   11.8680 C.2       1 THR         0.2063
     19 O          16.6090    5.0810   11.0100 O.2       1 THR        -0.3943
     20 CB         14.7110    4.2820   13.1400 C.3       1 THR         0.0924
     21 OG1        13.4890    4.8110   12.5910 O.3       1 THR        -0.3874
     22 CG2        14.4150    3.6210   14.5050 C.3       1 THR        -0.0346
     23 N          16.2600    7.2350   11.6580 N.am      1 GLY        -0.2663
     24 CA         16.6310    7.8400   10.3730 C.3       1 GLY         0.1201
     25 C          15.4490    7.8790    9.4250 C.2       1 GLY         0.2008
     26 O          14.8870    8.9400    9.1480 O.2       1 GLY        -0.3947
     27 N          15.0700    6.7010    8.9340 N.am      1 THR        -0.2616
     28 CA         13.8230    6.4800    8.2160 C.3       1 THR         0.1565
     29 C          13.0100    5.4820    9.0250 C.2       1 THR         0.2065
     30 O          13.5370    4.4480    9.4630 O.2       1 THR        -0.3943
     31 CB         14.0630    5.9480    6.7670 C.3       1 THR         0.0924
     32 OG1        15.0090    4.8760    6.7920 O.3       1 THR        -0.3874
     33 CG2        14.5710    7.0490    5.8280 C.3       1 THR        -0.0346
     34 N          11.7430    5.8150    9.2630 N.am      1 GLU        -0.2635
     35 CA         10.8100    4.9750   10.0280 C.3       1 GLU         0.1327
     36 C           9.6200    4.5300    9.1400 C.2       1 GLU         0.2065
     37 O           8.5900    5.2060    9.0990 O.2       1 GLU        -0.3942
     38 CB         10.3370    5.7310   11.3140 C.3       1 GLU        -0.0008
     39 CG          9.8210    7.1680   11.0800 C.3       1 GLU         0.0044
     40 CD          9.2650    7.8220   12.3510 C.2       1 GLU         0.0350
     41 OE1        10.0660    8.3350   13.1610 O.co2     1 GLU        -0.5690
     42 OE2         8.0300    7.8250   12.5500 O.co2     1 GLU        -0.5690
     43 N           9.7600    3.4060    8.3650 N.am      1 PRO        -0.2498
     44 CA          8.6280    2.8020    7.6310 C.3       1 PRO         0.1338
     45 C           7.7990    1.8570    8.5300 C.2       1 PRO         0.2042
     46 O           8.2060    1.5380    9.6570 O.2       1 PRO        -0.3944
     47 CB          9.3360    2.0620    6.4740 C.3       1 PRO        -0.0104
     48 CG         10.6690    1.6480    7.0330 C.3       1 PRO        -0.0281
     49 CD         11.0240    2.6560    8.1200 C.3       1 PRO         0.0369
     50 N           6.6150    1.4440    8.0480 N.am      1 PHE        -0.2619
     51 CA          5.8040    0.3930    8.6920 C.3       1 PHE         0.1404
     52 C           5.6470   -0.7690    7.7120 C.2       1 PHE         0.2061
     53 O           6.0890   -1.8810    7.9920 O.2       1 PHE        -0.3942
     54 CB          4.4150    0.9120    9.1480 C.3       1 PHE         0.0214
     55 CG          3.5730   -0.1650    9.8450 C.ar      1 PHE        -0.0386
     56 CD1         3.9000   -0.5960   11.1260 C.ar      1 PHE        -0.0601
     57 CD2         2.4790   -0.7680    9.2110 C.ar      1 PHE        -0.0601
     58 CE1         3.1600   -1.5790   11.7570 C.ar      1 PHE        -0.0686
     59 CE2         1.7410   -1.7550    9.8430 C.ar      1 PHE        -0.0686
     60 CZ          2.0830   -2.1610   11.1150 C.ar      1 PHE        -0.0687
     61 N           5.0300   -0.4760    6.5550 N.am      1 PHE        -0.2618
     62 CA          4.8040   -1.4580    5.4750 C.3       1 PHE         0.1404
     63 C           6.1480   -2.0580    5.0420 C.2       1 PHE         0.2060
     64 O           6.3640   -3.2660    5.1420 O.2       1 PHE        -0.3942
     65 CB          4.1450   -0.7460    4.2730 C.3       1 PHE         0.0214
     66 CG          3.5370   -1.6400    3.1890 C.ar      1 PHE        -0.0386
     67 CD1         4.2860   -2.5700    2.4710 C.ar      1 PHE        -0.0601
     68 CD2         2.2050   -1.5250    2.8850 C.ar      1 PHE        -0.0601
     69 CE1         3.6930   -3.3480    1.4970 C.ar      1 PHE        -0.0686
     70 CE2         1.6170   -2.2910    1.9210 C.ar      1 PHE        -0.0686
     71 CZ          2.3580   -3.1960    1.2260 C.ar      1 PHE        -0.0687
     72 N           7.0370   -1.1590    4.5830 N.am      1 LYS        -0.2636
     73 CA          8.3740   -1.4960    4.0700 C.3       1 LYS         0.1310
     74 C           9.2260   -2.1720    5.1600 C.2       1 LYS         0.2039
     75 O           9.9670   -3.1310    4.8770 O.2       1 LYS        -0.3944
     76 CB          9.0570   -0.2010    3.5560 C.3       1 LYS        -0.0122
     77 CG         10.5110   -0.3660    3.0590 C.3       1 LYS        -0.0440
     78 CD         11.1810    0.9870    2.7250 C.3       1 LYS        -0.0124
     79 CE         12.6580    0.8330    2.3280 C.3       1 LYS        -0.0354
     80 NZ         12.8370    0.0490    1.0740 N.4       1 LYS         0.2185
     81 N           9.0800   -1.6730    6.4070 N.am      1 GLN        -0.2636
     82 CA          9.7810   -2.2060    7.5850 C.3       1 GLN         0.1330
     83 C           9.4720   -3.7000    7.7350 C.2       1 GLN         0.2040
     84 O          10.3820   -4.5170    7.7290 O.2       1 GLN        -0.3944
     85 CB          9.3650   -1.4100    8.8580 C.3       1 GLN         0.0045
     86 CG         10.3430   -1.4790   10.0580 C.3       1 GLN         0.0412
     87 CD         10.3240   -2.7950   10.8540 C.2       1 GLN         0.1737
     88 OE1         9.2940   -3.4600   10.9590 O.2       1 GLN        -0.3973
     89 NE2        11.4600   -3.1670   11.4280 N.am      1 GLN        -0.3009
     90 N           8.1710   -4.0360    7.7840 N.am      1 LYS        -0.2637
     91 CA          7.7180   -5.4330    7.9600 C.3       1 LYS         0.1310
     92 C           8.0750   -6.2660    6.7130 C.2       1 LYS         0.2040
     93 O           8.4760   -7.4310    6.8210 O.2       1 LYS        -0.3944
     94 CB          6.1920   -5.5010    8.2170 C.3       1 LYS        -0.0122
     95 CG          5.6650   -4.6390    9.3830 C.3       1 LYS        -0.0440
     96 CD          6.3510   -4.9390   10.7310 C.3       1 LYS        -0.0124
     97 CE          5.9000   -3.9820   11.8450 C.3       1 LYS        -0.0354
     98 NZ          6.6350   -4.2260   13.1010 N.4       1 LYS         0.2185
     99 N           7.9790   -5.6090    5.5370 N.am      1 SER        -0.2616
    100 CA          8.2330   -6.2210    4.2190 C.3       1 SER         0.1539
    101 C           9.7400   -6.5240    4.0270 C.2       1 SER         0.2062
    102 O          10.1210   -7.1920    3.0570 O.2       1 SER        -0.3943
    103 CB          7.7170   -5.2850    3.0920 C.3       1 SER         0.0843
    104 OG          7.6750   -5.9300    1.8260 O.3       1 SER        -0.3903
    105 N          10.5940   -5.9940    4.9270 N.am      1 LEU        -0.2636
    106 CA         12.0300   -6.3300    4.9770 C.3       1 LEU         0.1312
    107 C          12.3860   -7.1320    6.2660 C.2       1 LEU         0.2039
    108 O          13.3930   -7.8480    6.2930 O.2       1 LEU        -0.3944
    109 CB         12.8600   -5.0160    4.8840 C.3       1 LEU        -0.0101
    110 CG         14.4000   -5.1800    4.6600 C.3       1 LEU        -0.0425
    111 CD1        14.7070   -5.9050    3.3300 C.3       1 LEU        -0.0625
    112 CD2        15.1270   -3.8180    4.7320 C.3       1 LEU        -0.0625
    113 N          11.5450   -7.0270    7.3200 N.am      1 LEU        -0.2637
    114 CA         11.8350   -7.5990    8.6600 C.3       1 LEU         0.1312
    115 C          11.4860   -9.0960    8.7360 C.2       1 LEU         0.2033
    116 O          12.1600   -9.8510    9.4510 O.2       1 LEU        -0.3944
    117 CB         11.0810   -6.7670    9.7640 C.3       1 LEU        -0.0101
    118 CG         11.4770   -6.9750   11.2760 C.3       1 LEU        -0.0425
    119 CD1        10.8260   -8.2260   11.9140 C.3       1 LEU        -0.0625
    120 CD2        13.0110   -6.9930   11.4380 C.3       1 LEU        -0.0625
    121 N          10.4330   -9.5000    7.9970 N.am      1 LEU        -0.2695
    122 CA          9.8540  -10.8740    8.0570 C.3       1 LEU         0.0946
    123 C          10.9310  -12.0010    7.8940 C.2       1 LEU         0.0601
    124 O          11.8420  -11.8700    7.0380 O.co2     1 LEU        -0.5666
    125 CB          8.7130  -11.0700    7.0110 C.3       1 LEU        -0.0156
    126 CG          9.1290  -11.2240    5.5070 C.3       1 LEU        -0.0431
    127 CD1         7.9460  -11.6730    4.6440 C.3       1 LEU        -0.0625
    128 CD2         9.7580   -9.9370    4.9450 C.3       1 LEU        -0.0625
    129 OXT        10.8500  -13.0200    8.6140 O.co2     1 LEU        -0.5666
    130 H          14.5834    9.4051   19.6741 H         1 GLN         0.2015
    131 H          13.2412    8.8261   18.8740 H         1 GLN         0.2015
    132 H          13.4812    8.4494   20.4794 H         1 GLN         0.2015
    133 H          15.4248    7.1721   19.9690 H         1 GLN         0.1100
    134 H          14.3640    5.3285   18.7644 H         1 GLN         0.0370
    135 H          12.9946    6.4514   18.3037 H         1 GLN         0.0370
    136 H          12.4376    6.6871   20.6493 H         1 GLN         0.0506
    137 H          13.7582    5.4834   21.0585 H         1 GLN         0.0506
    138 H          11.0989    3.1572   21.2245 H         1 GLN         0.1814
    139 H          12.2577    4.1278   22.1391 H         1 GLN         0.1814
    140 H          13.7342    8.1765   16.9538 H         1 SER         0.1885
    141 H          14.4787    8.7976   14.8845 H         1 SER         0.0823
    142 H          17.0959    9.4654   16.2763 H         1 SER         0.0606
    143 H          15.6622   10.5554   16.1235 H         1 SER         0.0606
    144 H          17.2133    9.4972   13.9877 H         1 SER         0.2097
    145 H          14.2584    6.7321   14.0324 H         1 THR         0.1884
    146 H          16.6607    5.0169   13.7862 H         1 THR         0.0826
    147 H          15.1167    3.5231   12.4710 H         1 THR         0.0639
    148 H          13.6629    5.1785   11.7213 H         1 THR         0.2101
    149 H          15.3312    3.1837   14.9018 H         1 THR         0.0257
    150 H          14.0404    4.3741   15.1983 H         1 THR         0.0257
    151 H          13.6654    2.8406   14.3744 H         1 THR         0.0257
    152 H          15.9970    7.8504   12.4277 H         1 GLY         0.1881
    153 H          17.4206    7.2400    9.9206 H         1 GLY         0.0763
    154 H          16.9669    8.8612   10.5530 H         1 GLY         0.0763
    155 H          15.6919    5.9039    9.0693 H         1 THR         0.1884
    156 H          13.2913    7.4252    8.1067 H         1 THR         0.0826
    157 H          13.1043    5.5952    6.3868 H         1 THR         0.0639
    158 H          14.6696    4.1639    7.3390 H         1 THR         0.2101
    159 H          13.8349    7.8514    5.7793 H         1 THR         0.0257
    160 H          15.5141    7.4420    6.2077 H         1 THR         0.0257
    161 H          14.7238    6.6334    4.8320 H         1 THR         0.0257
    162 H          11.4007    6.7022    8.8941 H         1 GLU         0.1883
    163 H          11.3240    4.0689   10.3486 H         1 GLU         0.0801
    164 H          11.2064    5.8131   11.9663 H         1 GLU         0.0330
    165 H           9.5023    5.1615   11.7225 H         1 GLU         0.0330
    166 H           9.0104    7.1146   10.3532 H         1 GLU         0.0433
    167 H          10.6626    7.7706   10.7384 H         1 GLU         0.0433
    168 H           7.8952    3.5285    7.2799 H         1 PRO         0.0802
    169 H           9.4467    2.6983    5.5960 H         1 PRO         0.0313
    170 H           8.7584    1.2038    6.1306 H         1 PRO         0.0313
    171 H          11.4296    1.6364    6.2523 H         1 PRO         0.0287
    172 H          10.6209    0.6387    7.4417 H         1 PRO         0.0287
    173 H          11.3902    2.1687    9.0236 H         1 PRO         0.0524
    174 H          11.8363    3.3155    7.8144 H         1 PRO         0.0524
    175 H           6.2596    1.8778    7.1960 H         1 PHE         0.1885
    176 H           6.3200    0.0634    9.5938 H         1 PHE         0.0823
    177 H           3.8725    1.2347    8.2593 H         1 PHE         0.0474
    178 H           4.5796    1.7190    9.8620 H         1 PHE         0.0474
    179 H           4.7524   -0.1523   11.6404 H         1 PHE         0.0557
    180 H           2.2040   -0.4553    8.2037 H         1 PHE         0.0557
    181 H           3.4271   -1.8963   12.7650 H         1 PHE         0.0599
    182 H           0.8907   -2.2102    9.3351 H         1 PHE         0.0599
    183 H           1.5054   -2.9394   11.6136 H         1 PHE         0.0559
    184 H           4.6989    0.4785    6.4145 H         1 PHE         0.1885
    185 H           4.1510   -2.2544    5.8319 H         1 PHE         0.0823
    186 H           4.9412   -0.1838    3.7851 H         1 PHE         0.0474
    187 H           3.3166   -0.1693    4.6844 H         1 PHE         0.0474
    188 H           5.3496   -2.6842    2.6803 H         1 PHE         0.0557
    189 H           1.5984   -0.8009    3.4290 H         1 PHE         0.0557
    190 H           4.2837   -4.0798    0.9460 H         1 PHE         0.0599
    191 H           0.5541   -2.1779    1.7078 H         1 PHE         0.0599
    192 H           1.8885   -3.8021    0.4512 H         1 PHE         0.0559
    193 H           6.7655   -0.1758    4.5912 H         1 LYS         0.1883
    194 H           8.2779   -2.2045    3.2473 H         1 LYS         0.0800
    195 H           9.0947    0.4859    4.4015 H         1 LYS         0.0312
    196 H           8.4736    0.1381    2.7000 H         1 LYS         0.0312
    197 H          10.4887   -0.9638    2.1478 H         1 LYS         0.0269
    198 H          11.0865   -0.8383    3.8551 H         1 LYS         0.0269
    199 H          11.1367    1.6124    3.6166 H         1 LYS         0.0317
    200 H          10.6502    1.4245    1.8795 H         1 LYS         0.0317
    201 H          13.1669    0.3004    3.1314 H         1 LYS         0.0813
    202 H          13.0655    1.8300    2.1606 H         1 LYS         0.0813
    203 H          13.8313   -0.0222    0.8579 H         1 LYS         0.1994
    204 H          12.4475   -0.8852    1.2000 H         1 LYS         0.1994
    205 H          12.3543    0.5195    0.3085 H         1 LYS         0.1994
    206 H           8.4486   -0.8828    6.5388 H         1 GLN         0.1883
    207 H          10.8571   -2.0907    7.4552 H         1 GLN         0.0801
    208 H           8.4299   -1.8524    9.2016 H         1 GLN         0.0337
    209 H           9.3211   -0.3622    8.5610 H         1 GLN         0.0337
    210 H          10.0402   -0.6934   10.7503 H         1 GLN         0.0504
    211 H          11.3472   -1.3805    9.6457 H         1 GLN         0.0504
    212 H          11.4971   -4.0267   11.9756 H         1 GLN         0.1814
    213 H          12.2968   -2.5934   11.3219 H         1 GLN         0.1814
    214 H           7.4702   -3.3000    7.6965 H         1 LYS         0.1883
    215 H           8.2290   -5.8445    8.8305 H         1 LYS         0.0800
    216 H           5.9706   -6.5362    8.4765 H         1 LYS         0.0312
    217 H           5.7119   -5.1226    7.3145 H         1 LYS         0.0312
    218 H           4.6041   -4.8602    9.4996 H         1 LYS         0.0269
    219 H           5.8687   -3.5968    9.1372 H         1 LYS         0.0269
    220 H           7.4257   -4.8166   10.5965 H         1 LYS         0.0317
    221 H           6.0812   -5.9525   11.0280 H         1 LYS         0.0317
    222 H           4.8382   -4.1448   12.0300 H         1 LYS         0.0813
    223 H           6.0988   -2.9600   11.5225 H         1 LYS         0.0813
    224 H           6.3104   -3.5745   13.8156 H         1 LYS         0.1994
    225 H           6.4679   -5.1833   13.4108 H         1 LYS         0.1994
    226 H           7.6330   -4.0882   12.9418 H         1 LYS         0.1994
    227 H           7.7133   -4.6245    5.5617 H         1 SER         0.1884
    228 H           7.6939   -7.1670    4.1685 H         1 SER         0.0823
    229 H           8.4015   -4.4401    3.0166 H         1 SER         0.0606
    230 H           6.7026   -4.9785    3.3473 H         1 SER         0.0606
    231 H           8.5579   -6.2222    1.5875 H         1 SER         0.2097
    232 H          10.2286   -5.3274    5.6072 H         1 LEU         0.1883
    233 H          12.2743   -6.9729    4.1314 H         1 LEU         0.0800
    234 H          12.7456   -4.5171    5.8463 H         1 LEU         0.0315
    235 H          12.4827   -4.4808    4.0126 H         1 LEU         0.0315
    236 H          14.7801   -5.8036    5.4692 H         1 LEU         0.0298
    237 H          14.2532   -6.8959    3.3447 H         1 LEU         0.0232
    238 H          14.2973   -5.3286    2.5005 H         1 LEU         0.0232
    239 H          15.7862   -5.9999    3.2101 H         1 LEU         0.0232
    240 H          14.7327   -3.1559    3.9611 H         1 LEU         0.0232
    241 H          14.9645   -3.3723    5.7134 H         1 LEU         0.0232
    242 H          16.1946   -3.9686    4.5722 H         1 LEU         0.0232
    243 H          10.6649   -6.5286    7.1878 H         1 LEU         0.1883
    244 H          12.9076   -7.5284    8.8404 H         1 LEU         0.0800
    245 H          10.0413   -7.0876    9.6980 H         1 LEU         0.0315
    246 H          11.3250   -5.7266    9.5490 H         1 LEU         0.0315
    247 H          11.0768   -6.1218   11.8238 H         1 LEU         0.0298
    248 H           9.7410   -8.1326   11.8684 H         1 LEU         0.0232
    249 H          11.1386   -9.1156   11.3672 H         1 LEU         0.0232
    250 H          11.1416   -8.3077   12.9541 H         1 LEU         0.0232
    251 H          13.4279   -7.8090   10.8477 H         1 LEU         0.0232
    252 H          13.4228   -6.0451   11.0917 H         1 LEU         0.0232
    253 H          13.2624   -7.1376   12.4887 H         1 LEU         0.0232
    254 H          10.0073   -8.8270    7.3596 H         1 LEU         0.1875
    255 H           9.4317  -10.9675    9.0575 H         1 LEU         0.0726
    256 H           8.1125  -10.1616    7.0579 H         1 LEU         0.0308
    257 H           8.2273  -12.0083    7.2788 H         1 LEU         0.0308
    258 H           9.8917  -12.0019    5.4700 H         1 LEU         0.0297
    259 H           7.5805  -12.6351    5.0030 H         1 LEU         0.0232
    260 H           7.1487  -10.9327    4.7092 H         1 LEU         0.0232
    261 H           8.2699  -11.7697    3.6077 H         1 LEU         0.0232
    262 H           9.0387   -9.1212    5.0168 H         1 LEU         0.0232
    263 H          10.6497   -9.6886    5.5205 H         1 LEU         0.0232
    264 H          10.0296  -10.0928    3.9009 H         1 LEU         0.0232
@<TRIPOS>BOND
     1    1    2 1  
     2    2    3 1  
     3    2    5 1  
     4    3    4 2  
     5    3   10 am 
     6    5    6 1  
     7    6    7 1  
     8    7    8 2  
     9    7    9 am 
    10   10   11 1  
    11   11   12 1  
    12   11   14 1  
    13   12   13 2  
    14   12   16 am 
    15   14   15 1  
    16   16   17 1  
    17   17   18 1  
    18   17   20 1  
    19   18   19 2  
    20   18   23 am 
    21   20   21 1  
    22   20   22 1  
    23   23   24 1  
    24   24   25 1  
    25   25   26 2  
    26   25   27 am 
    27   27   28 1  
    28   28   29 1  
    29   28   31 1  
    30   29   30 2  
    31   29   34 am 
    32   31   32 1  
    33   31   33 1  
    34   34   35 1  
    35   35   36 1  
    36   35   38 1  
    37   36   37 2  
    38   36   43 am 
    39   38   39 1  
    40   39   40 1  
    41   40   41 ar 
    42   40   42 ar 
    43   43   44 1  
    44   43   49 1  
    45   44   45 1  
    46   44   47 1  
    47   45   46 2  
    48   45   50 am 
    49   47   48 1  
    50   48   49 1  
    51   50   51 1  
    52   51   52 1  
    53   51   54 1  
    54   52   53 2  
    55   52   61 am 
    56   54   55 1  
    57   55   56 ar 
    58   55   57 ar 
    59   56   58 ar 
    60   57   59 ar 
    61   58   60 ar 
    62   59   60 ar 
    63   61   62 1  
    64   62   63 1  
    65   62   65 1  
    66   63   64 2  
    67   63   72 am 
    68   65   66 1  
    69   66   67 ar 
    70   66   68 ar 
    71   67   69 ar 
    72   68   70 ar 
    73   69   71 ar 
    74   70   71 ar 
    75   72   73 1  
    76   73   74 1  
    77   73   76 1  
    78   74   75 2  
    79   74   81 am 
    80   76   77 1  
    81   77   78 1  
    82   78   79 1  
    83   79   80 1  
    84   81   82 1  
    85   82   83 1  
    86   82   85 1  
    87   83   84 2  
    88   83   90 am 
    89   85   86 1  
    90   86   87 1  
    91   87   88 2  
    92   87   89 am 
    93   90   91 1  
    94   91   92 1  
    95   91   94 1  
    96   92   93 2  
    97   92   99 am 
    98   94   95 1  
    99   95   96 1  
   100   96   97 1  
   101   97   98 1  
   102   99  100 1  
   103  100  101 1  
   104  100  103 1  
   105  101  102 2  
   106  101  105 am 
   107  103  104 1  
   108  105  106 1  
   109  106  107 1  
   110  106  109 1  
   111  107  108 2  
   112  107  113 am 
   113  109  110 1  
   114  110  111 1  
   115  110  112 1  
   116  113  114 1  
   117  114  115 1  
   118  114  117 1  
   119  115  116 2  
   120  115  121 am 
   121  117  118 1  
   122  118  119 1  
   123  118  120 1  
   124  121  122 1  
   125  122  123 1  
   126  122  125 1  
   127  123  124 ar 
   128  123  129 ar 
   129  125  126 1  
   130  126  127 1  
   131  126  128 1  
   132    1  130 1  
   133    1  131 1  
   134    1  132 1  
   135    2  133 1  
   136    5  134 1  
   137    5  135 1  
   138    6  136 1  
   139    6  137 1  
   140    9  138 1  
   141    9  139 1  
   142   10  140 1  
   143   11  141 1  
   144   14  142 1  
   145   14  143 1  
   146   15  144 1  
   147   16  145 1  
   148   17  146 1  
   149   20  147 1  
   150   21  148 1  
   151   22  149 1  
   152   22  150 1  
   153   22  151 1  
   154   23  152 1  
   155   24  153 1  
   156   24  154 1  
   157   27  155 1  
   158   28  156 1  
   159   31  157 1  
   160   32  158 1  
   161   33  159 1  
   162   33  160 1  
   163   33  161 1  
   164   34  162 1  
   165   35  163 1  
   166   38  164 1  
   167   38  165 1  
   168   39  166 1  
   169   39  167 1  
   170   44  168 1  
   171   47  169 1  
   172   47  170 1  
   173   48  171 1  
   174   48  172 1  
   175   49  173 1  
   176   49  174 1  
   177   50  175 1  
   178   51  176 1  
   179   54  177 1  
   180   54  178 1  
   181   56  179 1  
   182   57  180 1  
   183   58  181 1  
   184   59  182 1  
   185   60  183 1  
   186   61  184 1  
   187   62  185 1  
   188   65  186 1  
   189   65  187 1  
   190   67  188 1  
   191   68  189 1  
   192   69  190 1  
   193   70  191 1  
   194   71  192 1  
   195   72  193 1  
   196   73  194 1  
   197   76  195 1  
   198   76  196 1  
   199   77  197 1  
   200   77  198 1  
   201   78  199 1  
   202   78  200 1  
   203   79  201 1  
   204   79  202 1  
   205   80  203 1  
   206   80  204 1  
   207   80  205 1  
   208   81  206 1  
   209   82  207 1  
   210   85  208 1  
   211   85  209 1  
   212   86  210 1  
   213   86  211 1  
   214   89  212 1  
   215   89  213 1  
   216   90  214 1  
   217   91  215 1  
   218   94  216 1  
   219   94  217 1  
   220   95  218 1  
   221   95  219 1  
   222   96  220 1  
   223   96  221 1  
   224   97  222 1  
   225   97  223 1  
   226   98  224 1  
   227   98  225 1  
   228   98  226 1  
   229   99  227 1  
   230  100  228 1  
   231  103  229 1  
   232  103  230 1  
   233  104  231 1  
   234  105  232 1  
   235  106  233 1  
   236  109  234 1  
   237  109  235 1  
   238  110  236 1  
   239  111  237 1  
   240  111  238 1  
   241  111  239 1  
   242  112  240 1  
   243  112  241 1  
   244  112  242 1  
   245  113  243 1  
   246  114  244 1  
   247  117  245 1  
   248  117  246 1  
   249  118  247 1  
   250  119  248 1  
   251  119  249 1  
   252  119  250 1  
   253  120  251 1  
   254  120  252 1  
   255  120  253 1  
   256  121  254 1  
   257  122  255 1  
   258  125  256 1  
   259  125  257 1  
   260  126  258 1  
   261  127  259 1  
   262  127  260 1  
   263  127  261 1  
   264  128  262 1  
   265  128  263 1  
   266  128  264 1  
@<TRIPOS>SUBSTRUCTURE
     1 GLN         1

