2lsk_ligand
  -I-interpret- 

266268  0  0  0  0  0  0  0  0999 V2000
   13.9420    8.6170   19.5850 N   0  3  0  0  0
   14.7020    7.4050   19.1870 C   0  0  0  0  0
   15.4760    7.6650   17.8830 C   0  0  0  0  0
   16.6970    7.4600   17.8400 O   0  0  0  0  0
   13.7500    6.1850   19.0430 C   0  0  0  0  0
   13.0050    5.8090   20.3410 C   0  0  0  0  0
   12.0050    4.6600   20.1880 C   0  0  0  0  0
   11.4340    4.4460   19.1150 O   0  0  0  0  0
   11.7690    3.9250   21.2670 N   0  0  0  0  0
   14.7450    8.1110   16.8340 N   0  0  0  0  0
   15.3090    8.5090   15.5290 C   0  0  0  0  0
   16.0290    7.3290   14.8430 C   0  0  0  0  0
   17.2370    7.1170   15.0290 O   0  0  0  0  0
   16.2370    9.7490   15.6680 C   0  0  0  0  0
   16.7140   10.2000   14.4100 O   0  0  0  0  0
   15.2600    6.5430   14.0690 N   0  0  0  0  0
   15.7900    5.4200   13.2690 C   0  0  0  0  0
   16.2510    5.8990   11.8680 C   0  0  0  0  0
   16.6090    5.0810   11.0100 O   0  0  0  0  0
   14.7110    4.2820   13.1400 C   0  0  0  0  0
   13.4890    4.8110   12.5910 O   0  0  0  0  0
   14.4150    3.6210   14.5050 C   0  0  0  0  0
   16.2600    7.2350   11.6580 N   0  0  0  0  0
   16.6310    7.8400   10.3730 C   0  0  0  0  0
   15.4490    7.8790    9.4250 C   0  0  0  0  0
   14.8870    8.9400    9.1480 O   0  0  0  0  0
   15.0700    6.7010    8.9340 N   0  0  0  0  0
   13.8230    6.4800    8.2160 C   0  0  0  0  0
   13.0100    5.4820    9.0250 C   0  0  0  0  0
   13.5370    4.4480    9.4630 O   0  0  0  0  0
   14.0630    5.9480    6.7670 C   0  0  0  0  0
   15.0090    4.8760    6.7920 O   0  0  0  0  0
   14.5710    7.0490    5.8280 C   0  0  0  0  0
   11.7430    5.8150    9.2630 N   0  0  0  0  0
   10.8100    4.9750   10.0280 C   0  0  0  0  0
    9.6200    4.5300    9.1400 C   0  0  0  0  0
    8.5900    5.2060    9.0990 O   0  0  0  0  0
   10.3370    5.7310   11.3140 C   0  0  0  0  0
    9.8210    7.1680   11.0800 C   0  0  0  0  0
    9.2650    7.8220   12.3510 C   0  0  0  0  0
   10.0660    8.3350   13.1610 O   0  0  0  0  0
    8.0300    7.8250   12.5500 O   0  0  0  0  0
    9.7600    3.4060    8.3650 N   0  0  0  0  0
    8.6280    2.8020    7.6310 C   0  0  0  0  0
    7.7990    1.8570    8.5300 C   0  0  0  0  0
    8.2060    1.5380    9.6570 O   0  0  0  0  0
    9.3360    2.0620    6.4740 C   0  0  0  0  0
   10.6690    1.6480    7.0330 C   0  0  0  0  0
   11.0240    2.6560    8.1200 C   0  0  0  0  0
    6.6150    1.4440    8.0480 N   0  0  0  0  0
    5.8040    0.3930    8.6920 C   0  0  0  0  0
    5.6470   -0.7690    7.7120 C   0  0  0  0  0
    6.0890   -1.8810    7.9920 O   0  0  0  0  0
    4.4150    0.9120    9.1480 C   0  0  0  0  0
    3.5730   -0.1650    9.8450 C   0  0  0  0  0
    3.9000   -0.5960   11.1260 C   0  0  0  0  0
    2.4790   -0.7680    9.2110 C   0  0  0  0  0
    3.1600   -1.5790   11.7570 C   0  0  0  0  0
    1.7410   -1.7550    9.8430 C   0  0  0  0  0
    2.0830   -2.1610   11.1150 C   0  0  0  0  0
    5.0300   -0.4760    6.5550 N   0  0  0  0  0
    4.8040   -1.4580    5.4750 C   0  0  0  0  0
    6.1480   -2.0580    5.0420 C   0  0  0  0  0
    6.3640   -3.2660    5.1420 O   0  0  0  0  0
    4.1450   -0.7460    4.2730 C   0  0  0  0  0
    3.5370   -1.6400    3.1890 C   0  0  0  0  0
    4.2860   -2.5700    2.4710 C   0  0  0  0  0
    2.2050   -1.5250    2.8850 C   0  0  0  0  0
    3.6930   -3.3480    1.4970 C   0  0  0  0  0
    1.6170   -2.2910    1.9210 C   0  0  0  0  0
    2.3580   -3.1960    1.2260 C   0  0  0  0  0
    7.0370   -1.1590    4.5830 N   0  0  0  0  0
    8.3740   -1.4960    4.0700 C   0  0  0  0  0
    9.2260   -2.1720    5.1600 C   0  0  0  0  0
    9.9670   -3.1310    4.8770 O   0  0  0  0  0
    9.0570   -0.2010    3.5560 C   0  0  0  0  0
   10.5110   -0.3660    3.0590 C   0  0  0  0  0
   11.1810    0.9870    2.7250 C   0  0  0  0  0
   12.6580    0.8330    2.3280 C   0  0  0  0  0
   12.8370    0.0490    1.0740 N   0  3  0  0  0
    9.0800   -1.6730    6.4070 N   0  0  0  0  0
    9.7810   -2.2060    7.5850 C   0  0  0  0  0
    9.4720   -3.7000    7.7350 C   0  0  0  0  0
   10.3820   -4.5170    7.7290 O   0  0  0  0  0
    9.3650   -1.4100    8.8580 C   0  0  0  0  0
   10.3430   -1.4790   10.0580 C   0  0  0  0  0
   10.3240   -2.7950   10.8540 C   0  0  0  0  0
    9.2940   -3.4600   10.9590 O   0  0  0  0  0
   11.4600   -3.1670   11.4280 N   0  0  0  0  0
    8.1710   -4.0360    7.7840 N   0  0  0  0  0
    7.7180   -5.4330    7.9600 C   0  0  0  0  0
    8.0750   -6.2660    6.7130 C   0  0  0  0  0
    8.4760   -7.4310    6.8210 O   0  0  0  0  0
    6.1920   -5.5010    8.2170 C   0  0  0  0  0
    5.6650   -4.6390    9.3830 C   0  0  0  0  0
    6.3510   -4.9390   10.7310 C   0  0  0  0  0
    5.9000   -3.9820   11.8450 C   0  0  0  0  0
    6.6350   -4.2260   13.1010 N   0  3  0  0  0
    7.9790   -5.6090    5.5370 N   0  0  0  0  0
    8.2330   -6.2210    4.2190 C   0  0  0  0  0
    9.7400   -6.5240    4.0270 C   0  0  0  0  0
   10.1210   -7.1920    3.0570 O   0  0  0  0  0
    7.7170   -5.2850    3.0920 C   0  0  0  0  0
    7.6750   -5.9300    1.8260 O   0  0  0  0  0
   10.5940   -5.9940    4.9270 N   0  0  0  0  0
   12.0300   -6.3300    4.9770 C   0  0  0  0  0
   12.3860   -7.1320    6.2660 C   0  0  0  0  0
   13.3930   -7.8480    6.2930 O   0  0  0  0  0
   12.8600   -5.0160    4.8840 C   0  0  0  0  0
   14.4000   -5.1800    4.6600 C   0  0  0  0  0
   14.7070   -5.9050    3.3300 C   0  0  0  0  0
   15.1270   -3.8180    4.7320 C   0  0  0  0  0
   11.5450   -7.0270    7.3200 N   0  0  0  0  0
   11.8350   -7.5990    8.6600 C   0  0  0  0  0
   11.4860   -9.0960    8.7360 C   0  0  0  0  0
   12.1600   -9.8510    9.4510 O   0  0  0  0  0
   11.0810   -6.7670    9.7640 C   0  0  0  0  0
   11.4770   -6.9750   11.2760 C   0  0  0  0  0
   10.8260   -8.2260   11.9140 C   0  0  0  0  0
   13.0110   -6.9930   11.4380 C   0  0  0  0  0
   10.4330   -9.5000    7.9970 N   0  0  0  0  0
    9.8540  -10.8740    8.0570 C   0  0  0  0  0
   10.9310  -12.0010    7.8940 C   0  0  0  0  0
   11.8420  -11.8700    7.0380 O   0  0  0  0  0
    8.7130  -11.0700    7.0110 C   0  0  0  0  0
    9.1290  -11.2240    5.5070 C   0  0  0  0  0
    7.9460  -11.6730    4.6440 C   0  0  0  0  0
    9.7580   -9.9370    4.9450 C   0  0  0  0  0
   10.8500  -13.0200    8.6140 O   0  0  0  0  0
   14.5834    9.4051   19.6741 H   0  0  0  0  0
   13.2412    8.8261   18.8740 H   0  0  0  0  0
   13.4812    8.4494   20.4794 H   0  0  0  0  0
   15.4248    7.1721   19.9690 H   0  0  0  0  0
   14.3640    5.3285   18.7644 H   0  0  0  0  0
   12.9946    6.4514   18.3037 H   0  0  0  0  0
   12.4376    6.6871   20.6493 H   0  0  0  0  0
   13.7582    5.4834   21.0585 H   0  0  0  0  0
   11.0989    3.1572   21.2245 H   0  0  0  0  0
   12.2577    4.1278   22.1391 H   0  0  0  0  0
   13.7342    8.1765   16.9538 H   0  0  0  0  0
   14.4787    8.7976   14.8845 H   0  0  0  0  0
   17.0959    9.4654   16.2763 H   0  0  0  0  0
   15.6622   10.5554   16.1235 H   0  0  0  0  0
   17.2810   10.9638   14.5391 H   0  0  0  0  0
   14.2584    6.7321   14.0324 H   0  0  0  0  0
   16.6607    5.0169   13.7862 H   0  0  0  0  0
   15.1167    3.5231   12.4710 H   0  0  0  0  0
   12.8409    4.1065   12.5182 H   0  0  0  0  0
   15.3312    3.1837   14.9018 H   0  0  0  0  0
   14.0404    4.3741   15.1983 H   0  0  0  0  0
   13.6654    2.8406   14.3744 H   0  0  0  0  0
   15.9970    7.8504   12.4277 H   0  0  0  0  0
   17.4206    7.2400    9.9206 H   0  0  0  0  0
   16.9669    8.8612   10.5530 H   0  0  0  0  0
   15.6919    5.9039    9.0693 H   0  0  0  0  0
   13.2913    7.4252    8.1067 H   0  0  0  0  0
   13.1043    5.5952    6.3868 H   0  0  0  0  0
   15.1508    4.5550    5.8985 H   0  0  0  0  0
   13.8349    7.8514    5.7793 H   0  0  0  0  0
   15.5141    7.4420    6.2077 H   0  0  0  0  0
   14.7238    6.6334    4.8320 H   0  0  0  0  0
   11.4007    6.7022    8.8941 H   0  0  0  0  0
   11.3240    4.0689   10.3486 H   0  0  0  0  0
   11.2064    5.8131   11.9663 H   0  0  0  0  0
    9.5023    5.1615   11.7225 H   0  0  0  0  0
    9.0104    7.1146   10.3532 H   0  0  0  0  0
   10.6626    7.7706   10.7384 H   0  0  0  0  0
    7.5882    7.3863   11.8193 H   0  0  0  0  0
    7.8952    3.5285    7.2799 H   0  0  0  0  0
    9.4467    2.6983    5.5960 H   0  0  0  0  0
    8.7584    1.2038    6.1306 H   0  0  0  0  0
   11.4296    1.6364    6.2523 H   0  0  0  0  0
   10.6209    0.6387    7.4417 H   0  0  0  0  0
   11.3902    2.1687    9.0236 H   0  0  0  0  0
   11.8363    3.3155    7.8144 H   0  0  0  0  0
    6.2596    1.8778    7.1960 H   0  0  0  0  0
    6.3200    0.0634    9.5938 H   0  0  0  0  0
    3.8725    1.2347    8.2593 H   0  0  0  0  0
    4.5796    1.7190    9.8620 H   0  0  0  0  0
    4.7524   -0.1523   11.6404 H   0  0  0  0  0
    2.2040   -0.4553    8.2037 H   0  0  0  0  0
    3.4271   -1.8963   12.7650 H   0  0  0  0  0
    0.8907   -2.2102    9.3351 H   0  0  0  0  0
    1.5054   -2.9394   11.6136 H   0  0  0  0  0
    4.6989    0.4785    6.4145 H   0  0  0  0  0
    4.1510   -2.2544    5.8319 H   0  0  0  0  0
    4.9412   -0.1838    3.7851 H   0  0  0  0  0
    3.3166   -0.1693    4.6844 H   0  0  0  0  0
    5.3496   -2.6842    2.6803 H   0  0  0  0  0
    1.5984   -0.8009    3.4290 H   0  0  0  0  0
    4.2837   -4.0798    0.9460 H   0  0  0  0  0
    0.5541   -2.1779    1.7078 H   0  0  0  0  0
    1.8885   -3.8021    0.4512 H   0  0  0  0  0
    6.7655   -0.1758    4.5912 H   0  0  0  0  0
    8.2779   -2.2045    3.2473 H   0  0  0  0  0
    9.0947    0.4859    4.4015 H   0  0  0  0  0
    8.4736    0.1381    2.7000 H   0  0  0  0  0
   10.4887   -0.9638    2.1478 H   0  0  0  0  0
   11.0865   -0.8383    3.8551 H   0  0  0  0  0
   11.1367    1.6124    3.6166 H   0  0  0  0  0
   10.6502    1.4245    1.8795 H   0  0  0  0  0
   13.1669    0.3004    3.1314 H   0  0  0  0  0
   13.0655    1.8300    2.1606 H   0  0  0  0  0
   13.8313   -0.0222    0.8579 H   0  0  0  0  0
   12.4475   -0.8852    1.2000 H   0  0  0  0  0
   12.3543    0.5195    0.3085 H   0  0  0  0  0
    8.4486   -0.8828    6.5388 H   0  0  0  0  0
   10.8571   -2.0907    7.4552 H   0  0  0  0  0
    8.4299   -1.8524    9.2016 H   0  0  0  0  0
    9.3211   -0.3622    8.5610 H   0  0  0  0  0
   10.0402   -0.6934   10.7503 H   0  0  0  0  0
   11.3472   -1.3805    9.6457 H   0  0  0  0  0
   11.4971   -4.0267   11.9756 H   0  0  0  0  0
   12.2968   -2.5934   11.3219 H   0  0  0  0  0
    7.4702   -3.3000    7.6965 H   0  0  0  0  0
    8.2290   -5.8445    8.8305 H   0  0  0  0  0
    5.9706   -6.5362    8.4765 H   0  0  0  0  0
    5.7119   -5.1226    7.3145 H   0  0  0  0  0
    4.6041   -4.8602    9.4996 H   0  0  0  0  0
    5.8687   -3.5968    9.1372 H   0  0  0  0  0
    7.4257   -4.8166   10.5965 H   0  0  0  0  0
    6.0812   -5.9525   11.0280 H   0  0  0  0  0
    4.8382   -4.1448   12.0300 H   0  0  0  0  0
    6.0988   -2.9600   11.5225 H   0  0  0  0  0
    6.3104   -3.5745   13.8156 H   0  0  0  0  0
    6.4679   -5.1833   13.4108 H   0  0  0  0  0
    7.6330   -4.0882   12.9418 H   0  0  0  0  0
    7.7133   -4.6245    5.5617 H   0  0  0  0  0
    7.6939   -7.1670    4.1685 H   0  0  0  0  0
    8.4015   -4.4401    3.0166 H   0  0  0  0  0
    6.7026   -4.9785    3.3473 H   0  0  0  0  0
    7.3511   -5.3139    1.1648 H   0  0  0  0  0
   10.2286   -5.3274    5.6072 H   0  0  0  0  0
   12.2743   -6.9729    4.1314 H   0  0  0  0  0
   12.7456   -4.5171    5.8463 H   0  0  0  0  0
   12.4827   -4.4808    4.0126 H   0  0  0  0  0
   14.7801   -5.8036    5.4692 H   0  0  0  0  0
   14.2532   -6.8959    3.3447 H   0  0  0  0  0
   14.2973   -5.3286    2.5005 H   0  0  0  0  0
   15.7862   -5.9999    3.2101 H   0  0  0  0  0
   14.7327   -3.1559    3.9611 H   0  0  0  0  0
   14.9645   -3.3723    5.7134 H   0  0  0  0  0
   16.1946   -3.9686    4.5722 H   0  0  0  0  0
   10.6649   -6.5286    7.1878 H   0  0  0  0  0
   12.9076   -7.5284    8.8404 H   0  0  0  0  0
   10.0413   -7.0876    9.6980 H   0  0  0  0  0
   11.3250   -5.7266    9.5490 H   0  0  0  0  0
   11.0768   -6.1218   11.8238 H   0  0  0  0  0
    9.7410   -8.1326   11.8684 H   0  0  0  0  0
   11.1386   -9.1156   11.3672 H   0  0  0  0  0
   11.1416   -8.3077   12.9541 H   0  0  0  0  0
   13.4279   -7.8090   10.8477 H   0  0  0  0  0
   13.4228   -6.0451   11.0917 H   0  0  0  0  0
   13.2624   -7.1376   12.4887 H   0  0  0  0  0
   10.0073   -8.8270    7.3596 H   0  0  0  0  0
    9.4317  -10.9675    9.0575 H   0  0  0  0  0
   11.7382  -11.0284    6.5881 H   0  0  0  0  0
    8.1125  -10.1616    7.0579 H   0  0  0  0  0
    8.2273  -12.0083    7.2788 H   0  0  0  0  0
    9.8917  -12.0019    5.4700 H   0  0  0  0  0
    7.5805  -12.6351    5.0030 H   0  0  0  0  0
    7.1487  -10.9327    4.7092 H   0  0  0  0  0
    8.2699  -11.7697    3.6077 H   0  0  0  0  0
    9.0387   -9.1212    5.0168 H   0  0  0  0  0
   10.6497   -9.6886    5.5205 H   0  0  0  0  0
   10.0296  -10.0928    3.9009 H   0  0  0  0  0
  1  2  1  0  0  0
  2  3  1  0  0  0
  2  5  1  0  0  0
  3  4  2  0  0  0
  3 10  1  0  0  0
  5  6  1  0  0  0
  6  7  1  0  0  0
  7  8  2  0  0  0
  7  9  1  0  0  0
 10 11  1  0  0  0
 11 12  1  0  0  0
 11 14  1  0  0  0
 12 13  2  0  0  0
 12 16  1  0  0  0
 14 15  1  0  0  0
 16 17  1  0  0  0
 17 18  1  0  0  0
 17 20  1  0  0  0
 18 19  2  0  0  0
 18 23  1  0  0  0
 20 21  1  0  0  0
 20 22  1  0  0  0
 23 24  1  0  0  0
 24 25  1  0  0  0
 25 26  2  0  0  0
 25 27  1  0  0  0
 27 28  1  0  0  0
 28 29  1  0  0  0
 28 31  1  0  0  0
 29 30  2  0  0  0
 29 34  1  0  0  0
 31 32  1  0  0  0
 31 33  1  0  0  0
 34 35  1  0  0  0
 35 36  1  0  0  0
 35 38  1  0  0  0
 36 37  2  0  0  0
 36 43  1  0  0  0
 38 39  1  0  0  0
 39 40  1  0  0  0
 40 41  2  0  0  0
 40 42  1  0  0  0
 43 44  1  0  0  0
 43 49  1  0  0  0
 44 45  1  0  0  0
 44 47  1  0  0  0
 45 46  2  0  0  0
 45 50  1  0  0  0
 47 48  1  0  0  0
 48 49  1  0  0  0
 50 51  1  0  0  0
 51 52  1  0  0  0
 51 54  1  0  0  0
 52 53  2  0  0  0
 52 61  1  0  0  0
 54 55  1  0  0  0
 55 56  4  0  0  0
 55 57  4  0  0  0
 56 58  4  0  0  0
 57 59  4  0  0  0
 58 60  4  0  0  0
 59 60  4  0  0  0
 61 62  1  0  0  0
 62 63  1  0  0  0
 62 65  1  0  0  0
 63 64  2  0  0  0
 63 72  1  0  0  0
 65 66  1  0  0  0
 66 67  4  0  0  0
 66 68  4  0  0  0
 67 69  4  0  0  0
 68 70  4  0  0  0
 69 71  4  0  0  0
 70 71  4  0  0  0
 72 73  1  0  0  0
 73 74  1  0  0  0
 73 76  1  0  0  0
 74 75  2  0  0  0
 74 81  1  0  0  0
 76 77  1  0  0  0
 77 78  1  0  0  0
 78 79  1  0  0  0
 79 80  1  0  0  0
 81 82  1  0  0  0
 82 83  1  0  0  0
 82 85  1  0  0  0
 83 84  2  0  0  0
 83 90  1  0  0  0
 85 86  1  0  0  0
 86 87  1  0  0  0
 87 88  2  0  0  0
 87 89  1  0  0  0
 90 91  1  0  0  0
 91 92  1  0  0  0
 91 94  1  0  0  0
 92 93  2  0  0  0
 92 99  1  0  0  0
 94 95  1  0  0  0
 95 96  1  0  0  0
 96 97  1  0  0  0
 97 98  1  0  0  0
 99100  1  0  0  0
100101  1  0  0  0
100103  1  0  0  0
101102  2  0  0  0
101105  1  0  0  0
103104  1  0  0  0
105106  1  0  0  0
106107  1  0  0  0
106109  1  0  0  0
107108  2  0  0  0
107113  1  0  0  0
109110  1  0  0  0
110111  1  0  0  0
110112  1  0  0  0
113114  1  0  0  0
114115  1  0  0  0
114117  1  0  0  0
115116  2  0  0  0
115121  1  0  0  0
117118  1  0  0  0
118119  1  0  0  0
118120  1  0  0  0
121122  1  0  0  0
122123  1  0  0  0
122125  1  0  0  0
123124  1  0  0  0
123129  2  0  0  0
125126  1  0  0  0
126127  1  0  0  0
126128  1  0  0  0
  1130  1  0  0  0
  1131  1  0  0  0
  1132  1  0  0  0
  2133  1  0  0  0
  5134  1  0  0  0
  5135  1  0  0  0
  6136  1  0  0  0
  6137  1  0  0  0
  9138  1  0  0  0
  9139  1  0  0  0
 10140  1  0  0  0
 11141  1  0  0  0
 14142  1  0  0  0
 14143  1  0  0  0
 15144  1  0  0  0
 16145  1  0  0  0
 17146  1  0  0  0
 20147  1  0  0  0
 21148  1  0  0  0
 22149  1  0  0  0
 22150  1  0  0  0
 22151  1  0  0  0
 23152  1  0  0  0
 24153  1  0  0  0
 24154  1  0  0  0
 27155  1  0  0  0
 28156  1  0  0  0
 31157  1  0  0  0
 32158  1  0  0  0
 33159  1  0  0  0
 33160  1  0  0  0
 33161  1  0  0  0
 34162  1  0  0  0
 35163  1  0  0  0
 38164  1  0  0  0
 38165  1  0  0  0
 39166  1  0  0  0
 39167  1  0  0  0
 42168  1  0  0  0
 44169  1  0  0  0
 47170  1  0  0  0
 47171  1  0  0  0
 48172  1  0  0  0
 48173  1  0  0  0
 49174  1  0  0  0
 49175  1  0  0  0
 50176  1  0  0  0
 51177  1  0  0  0
 54178  1  0  0  0
 54179  1  0  0  0
 56180  1  0  0  0
 57181  1  0  0  0
 58182  1  0  0  0
 59183  1  0  0  0
 60184  1  0  0  0
 61185  1  0  0  0
 62186  1  0  0  0
 65187  1  0  0  0
 65188  1  0  0  0
 67189  1  0  0  0
 68190  1  0  0  0
 69191  1  0  0  0
 70192  1  0  0  0
 71193  1  0  0  0
 72194  1  0  0  0
 73195  1  0  0  0
 76196  1  0  0  0
 76197  1  0  0  0
 77198  1  0  0  0
 77199  1  0  0  0
 78200  1  0  0  0
 78201  1  0  0  0
 79202  1  0  0  0
 79203  1  0  0  0
 80204  1  0  0  0
 80205  1  0  0  0
 80206  1  0  0  0
 81207  1  0  0  0
 82208  1  0  0  0
 85209  1  0  0  0
 85210  1  0  0  0
 86211  1  0  0  0
 86212  1  0  0  0
 89213  1  0  0  0
 89214  1  0  0  0
 90215  1  0  0  0
 91216  1  0  0  0
 94217  1  0  0  0
 94218  1  0  0  0
 95219  1  0  0  0
 95220  1  0  0  0
 96221  1  0  0  0
 96222  1  0  0  0
 97223  1  0  0  0
 97224  1  0  0  0
 98225  1  0  0  0
 98226  1  0  0  0
 98227  1  0  0  0
 99228  1  0  0  0
100229  1  0  0  0
103230  1  0  0  0
103231  1  0  0  0
104232  1  0  0  0
105233  1  0  0  0
106234  1  0  0  0
109235  1  0  0  0
109236  1  0  0  0
110237  1  0  0  0
111238  1  0  0  0
111239  1  0  0  0
111240  1  0  0  0
112241  1  0  0  0
112242  1  0  0  0
112243  1  0  0  0
113244  1  0  0  0
114245  1  0  0  0
117246  1  0  0  0
117247  1  0  0  0
118248  1  0  0  0
119249  1  0  0  0
119250  1  0  0  0
119251  1  0  0  0
120252  1  0  0  0
120253  1  0  0  0
120254  1  0  0  0
121255  1  0  0  0
122256  1  0  0  0
124257  1  0  0  0
125258  1  0  0  0
125259  1  0  0  0
126260  1  0  0  0
127261  1  0  0  0
127262  1  0  0  0
127263  1  0  0  0
128264  1  0  0  0
128265  1  0  0  0
128266  1  0  0  0
M  END
$$$$
