5o55_ligand
  -I-interpret- 

 49 51  0  0  0  0  0  0  0  0999 V2000
   10.9860  -12.2640    2.3630 C   0  0  0  0  0
    5.6890  -10.8410    2.8950 C   0  0  0  0  0
   10.7890  -11.5160   11.7170 C   0  0  0  0  0
   10.9780   -7.1950   10.0590 C   0  0  0  0  0
    8.7060  -11.1860   13.9860 C   0  0  0  0  0
   10.5040  -11.1400    6.9190 C   0  0  0  0  0
   10.3250  -11.7770    5.6860 C   0  0  0  0  0
    9.3970   -8.2050   12.1630 C   0  0  0  0  0
    8.3580  -10.0890    6.6710 C   0  0  0  0  0
    9.9790  -13.0620    3.1900 C   0  0  0  0  0
    9.6030   -9.6110    8.6230 C   0  0  0  0  0
    9.5100  -10.2970    7.4130 C   0  0  0  0  0
    6.8630  -11.0860    3.5840 C   0  0  0  0  0
   10.0600  -10.2290   12.1070 C   0  0  0  0  0
   10.2010   -9.0500   11.5300 C   0  0  0  0  0
    7.8260  -11.9410    3.0540 C   0  0  0  0  0
    8.1840  -10.7160    5.4470 C   0  0  0  0  0
    9.1600  -11.5690    4.9420 C   0  0  0  0  0
   11.1270   -8.6910   10.3570 C   0  0  0  0  0
    8.7790   -8.9120   13.1150 N   0  0  0  0  0
    7.0570  -10.4940    4.7650 N   0  0  0  0  0
   10.8370   -9.4560    9.1240 N   0  0  0  0  0
    9.1670  -10.1060   13.0850 N   0  0  0  0  0
    8.9590  -12.1620    3.7490 N   0  0  0  0  0
    8.5910   -9.1260    9.1220 O   0  0  0  0  0
    7.6520  -12.4920    1.9650 O   0  0  0  0  0
   10.4667  -11.7603    1.5477 H   0  0  0  0  0
   11.4710  -11.5235    2.9991 H   0  0  0  0  0
   11.7362  -12.9410    1.9543 H   0  0  0  0  0
    5.5131  -11.3183    1.9310 H   0  0  0  0  0
    4.9397  -10.1706    3.3160 H   0  0  0  0  0
   10.5520  -11.7673   10.6832 H   0  0  0  0  0
   11.8641  -11.3683   11.8191 H   0  0  0  0  0
   10.4685  -12.3263   12.3718 H   0  0  0  0  0
    9.9425   -6.9797    9.7953 H   0  0  0  0  0
   11.2563   -6.6204   10.9424 H   0  0  0  0  0
   11.6296   -6.9247    9.2281 H   0  0  0  0  0
    8.2503  -11.9806   13.3952 H   0  0  0  0  0
    9.5569  -11.5846   14.5384 H   0  0  0  0  0
    7.9724  -10.7854   14.6856 H   0  0  0  0  0
   11.4175  -11.3025    7.4911 H   0  0  0  0  0
   11.1001  -12.4406    5.3027 H   0  0  0  0  0
    9.2662   -7.1442   11.9491 H   0  0  0  0  0
    7.5817   -9.4263    7.0534 H   0  0  0  0  0
   10.5016  -13.5614    4.0058 H   0  0  0  0  0
    9.4940  -13.7989    2.5498 H   0  0  0  0  0
   12.1432   -8.9469   10.6571 H   0  0  0  0  0
    6.3444   -9.8720    5.1466 H   0  0  0  0  0
   11.6171   -9.8883    8.6290 H   0  0  0  0  0
 10  1  1  0  0  0
 13  2  2  0  0  0
 14  3  1  0  0  0
 19  4  1  0  0  0
 23  5  1  0  0  0
  6  7  4  0  0  0
 12  6  4  0  0  0
  7 18  4  0  0  0
 15  8  4  0  0  0
  8 20  4  0  0  0
 12  9  4  0  0  0
  9 17  4  0  0  0
 24 10  1  0  0  0
 11 12  1  0  0  0
 22 11  1  0  0  0
 11 25  2  0  0  0
 13 16  1  0  0  0
 21 13  1  0  0  0
 15 14  4  0  0  0
 14 23  4  0  0  0
 19 15  1  0  0  0
 24 16  1  0  0  0
 16 26  2  0  0  0
 17 18  4  0  0  0
 17 21  1  0  0  0
 18 24  1  0  0  0
 19 22  1  0  0  0
 20 23  4  0  0  0
  1 27  1  0  0  0
  1 28  1  0  0  0
  1 29  1  0  0  0
  2 30  1  0  0  0
  2 31  1  0  0  0
  3 32  1  0  0  0
  3 33  1  0  0  0
  3 34  1  0  0  0
  4 35  1  0  0  0
  4 36  1  0  0  0
  4 37  1  0  0  0
  5 38  1  0  0  0
  5 39  1  0  0  0
  5 40  1  0  0  0
  6 41  1  0  0  0
  7 42  1  0  0  0
  8 43  1  0  0  0
  9 44  1  0  0  0
 10 45  1  0  0  0
 10 46  1  0  0  0
 19 47  1  0  0  0
 21 48  1  0  0  0
 22 49  1  0  0  0
M  END
$$$$
