### 
### Created by X-TOOL on Mon Sep 10 21:12:49 2018
### 

@<TRIPOS>MOLECULE
1oai_ligand
  124   125     1     0     0
SMALL
GAST_HUCK


@<TRIPOS>ATOM
      1 N          -7.1970   43.7480  -10.8460 N.4       1 ASP         0.2391
      2 CA         -6.7680   42.3300  -10.6850 C.3       1 ASP         0.0764
      3 C          -5.5670   42.0240  -11.5780 C.2       1 ASP         0.2285
      4 O          -5.3940   40.8810  -12.0330 O.2       1 ASP        -0.3906
      5 CB         -7.9180   41.3510  -10.9770 C.3       1 ASP         0.0607
      6 CG         -9.2240   41.7580  -10.3120 C.2       1 ASP         0.0425
      7 OD1        -9.2200   42.7430   -9.5240 O.co2     1 ASP        -0.5686
      8 OD2       -10.3150   41.1550  -10.5230 O.co2     1 ASP        -0.5686
      9 N          -4.7540   43.0460  -11.8590 N.am      1 SER        -0.2588
     10 CA         -3.4900   42.8430  -12.5750 C.3       1 SER         0.1540
     11 C          -2.3730   42.4030  -11.6290 C.2       1 SER         0.2060
     12 O          -2.2840   42.8100  -10.4600 O.2       1 SER        -0.3943
     13 CB         -3.0490   44.1440  -13.3240 C.3       1 SER         0.0843
     14 OG         -2.9030   45.1880  -12.4110 O.3       1 SER        -0.3903
     15 N          -1.4780   41.6070  -12.1880 N.am      1 GLY        -0.2663
     16 CA         -0.2590   41.2280  -11.5460 C.3       1 GLY         0.1201
     17 C          -0.3500   39.8310  -10.9520 C.2       1 GLY         0.2009
     18 O          -1.1400   38.9990  -11.3840 O.2       1 GLY        -0.3947
     19 N           0.5050   39.5650   -9.9890 N.am      1 PHE        -0.2622
     20 CA          0.5740   38.2400   -9.3650 C.3       1 PHE         0.1404
     21 C          -0.5090   38.0630   -8.3420 C.2       1 PHE         0.2060
     22 O          -0.7230   38.9400   -7.5480 O.2       1 PHE        -0.3942
     23 CB          1.9500   38.0350   -8.7400 C.3       1 PHE         0.0214
     24 CG          2.1900   36.5930   -8.3770 C.ar      1 PHE        -0.0386
     25 CD1         2.6740   35.7020   -9.3240 C.ar      1 PHE        -0.0601
     26 CD2         1.8940   36.1060   -7.1150 C.ar      1 PHE        -0.0601
     27 CE1         2.8580   34.3780   -9.0300 C.ar      1 PHE        -0.0686
     28 CE2         2.1020   34.7950   -6.8160 C.ar      1 PHE        -0.0686
     29 CZ          2.5700   33.9270   -7.7460 C.ar      1 PHE        -0.0687
     30 N          -1.2030   36.9130   -8.3770 N.am      1 SER        -0.2614
     31 CA         -2.1080   36.5860   -7.3070 C.3       1 SER         0.1539
     32 C          -1.9530   35.1390   -6.8950 C.2       1 SER         0.2063
     33 O          -1.5970   34.2750   -7.7270 O.2       1 SER        -0.3943
     34 CB         -3.4760   36.9490   -7.5710 C.3       1 SER         0.0843
     35 OG         -3.9110   36.1480   -8.5050 O.3       1 SER        -0.3903
     36 N          -2.2230   34.8810   -5.6430 N.am      1 PHE        -0.2619
     37 CA         -2.1990   33.5090   -5.1170 C.3       1 PHE         0.1404
     38 C          -3.5740   32.8530   -5.1420 C.2       1 PHE         0.2058
     39 O          -4.5530   33.4490   -4.8980 O.2       1 PHE        -0.3942
     40 CB         -1.7280   33.5570   -3.6640 C.3       1 PHE         0.0214
     41 CG         -0.2970   33.9830   -3.4910 C.ar      1 PHE        -0.0386
     42 CD1         0.0270   35.3370   -3.3570 C.ar      1 PHE        -0.0601
     43 CD2         0.7190   33.0480   -3.3890 C.ar      1 PHE        -0.0601
     44 CE1         1.3490   35.7080   -3.1550 C.ar      1 PHE        -0.0686
     45 CE2         2.0490   33.4370   -3.1920 C.ar      1 PHE        -0.0686
     46 CZ          2.3390   34.7790   -3.0620 C.ar      1 PHE        -0.0687
     47 N          -3.6540   31.5620   -5.2530 N.am      1 GLY        -0.2663
     48 CA         -4.8880   30.7390   -5.2930 C.3       1 GLY         0.1201
     49 C          -5.8410   30.9510   -6.4620 C.2       1 GLY         0.2008
     50 O          -5.6450   31.8160   -7.3500 O.2       1 GLY        -0.3947
     51 N          -6.9290   30.1840   -6.4580 N.am      1 SER        -0.2618
     52 CA         -7.7920   30.0780   -7.6250 C.3       1 SER         0.1539
     53 C          -8.7980   31.2030   -7.8520 C.2       1 SER         0.2056
     54 O          -9.4480   31.2390   -8.8910 O.2       1 SER        -0.3943
     55 CB         -8.5850   28.8000   -7.4730 C.3       1 SER         0.0843
     56 OG         -9.4440   28.7950   -6.3080 O.3       1 SER        -0.3903
     57 N          -8.8910   32.1560   -6.9280 N.am      1 LYS        -0.2694
     58 CA         -9.8870   33.2290   -7.0720 C.3       1 LYS         0.0944
     59 C          -9.6700   34.0250   -8.3510 C.2       1 LYS         0.0601
     60 O          -8.5350   34.3100   -8.7120 O.co2     1 LYS        -0.5666
     61 CB         -9.8270   34.1630   -5.8780 C.3       1 LYS        -0.0177
     62 CG        -11.0480   35.0830   -5.7300 C.3       1 LYS        -0.0446
     63 CD        -10.9450   35.9290   -4.4630 C.3       1 LYS        -0.0125
     64 CE        -10.9100   35.0840   -3.1740 C.3       1 LYS        -0.0354
     65 NZ        -10.2230   35.7890   -1.9990 N.4       1 LYS         0.2185
     66 OXT       -10.6140   34.3890   -9.0740 O.co2     1 LYS        -0.5666
     67 H1         -7.9891   43.9292  -10.2495 H         1 ASP         0.2016
     68 H2         -7.4546   43.9142  -11.8062 H         1 ASP         0.2016
     69 H3         -6.4376   44.3598  -10.5911 H         1 ASP         0.2016
     70 H4         -6.4605   42.1877   -9.6385 H         1 ASP         0.1117
     71 H5         -7.6326   40.3543  -10.6094 H         1 ASP         0.0512
     72 H6         -8.0760   41.3093  -12.0648 H         1 ASP         0.0512
     73 H7         -5.0127   43.9693  -11.5751 H         1 SER         0.1885
     74 H8         -3.6457   42.0488  -13.3200 H         1 SER         0.0823
     75 H9         -3.8129   44.4138  -14.0681 H         1 SER         0.0606
     76 H10        -2.0895   43.9658  -13.8315 H         1 SER         0.0606
     77 H11        -2.2428   44.9555  -11.7687 H         1 SER         0.2097
     78 H12        -1.6630   41.2528  -13.1047 H         1 GLY         0.1881
     79 H13        -0.0419   41.9449  -10.7405 H         1 GLY         0.0763
     80 H14         0.5554   41.2492  -12.2852 H         1 GLY         0.0763
     81 H15         1.1239   40.2847   -9.6743 H         1 PHE         0.1885
     82 H16         0.4317   37.4810  -10.1483 H         1 PHE         0.0823
     83 H17         2.0226   38.6482   -7.8296 H         1 PHE         0.0474
     84 H18         2.7189   38.3538   -9.4591 H         1 PHE         0.0474
     85 H19         2.9116   36.0623  -10.3184 H         1 PHE         0.0557
     86 H20         1.4940   36.7735   -6.3604 H         1 PHE         0.0557
     87 H21         3.2224   33.6917   -9.7858 H         1 PHE         0.0599
     88 H22         1.8894   34.4379   -5.8149 H         1 PHE         0.0599
     89 H23         2.7194   32.8843   -7.4899 H         1 PHE         0.0559
     90 H24        -1.0906   36.2844   -9.1466 H         1 SER         0.1884
     91 H25        -1.7966   37.1917   -6.4432 H         1 SER         0.0823
     92 H26        -3.5303   37.9929   -7.9135 H         1 SER         0.0606
     93 H27        -4.0808   36.8301   -6.6599 H         1 SER         0.0606
     94 H28        -3.8545   35.2496   -8.2017 H         1 SER         0.2097
     95 H29        -2.4515   35.6355   -5.0277 H         1 PHE         0.1885
     96 H30        -1.5015   32.9068   -5.7177 H         1 PHE         0.0823
     97 H31        -1.8429   32.5522   -3.2313 H         1 PHE         0.0474
     98 H32        -2.3670   34.2667   -3.1180 H         1 PHE         0.0474
     99 H33        -0.7493   36.0916   -3.4106 H         1 PHE         0.0557
    100 H34         0.4796   31.9934   -3.4632 H         1 PHE         0.0557
    101 H35         1.5981   36.7595   -3.0695 H         1 PHE         0.0599
    102 H36         2.8382   32.6956   -3.1424 H         1 PHE         0.0599
    103 H37         3.3606   35.0953   -2.8849 H         1 PHE         0.0559
    104 H38        -2.7875   31.0671   -5.3189 H         1 GLY         0.1881
    105 H39        -5.4497   30.9435   -4.3696 H         1 GLY         0.0763
    106 H40        -4.5789   29.6834   -5.3080 H         1 GLY         0.0763
    107 H41        -7.1590   29.6680   -5.6329 H         1 SER         0.1884
    108 H42        -7.1490   30.0163   -8.5153 H         1 SER         0.0823
    109 H43        -7.8803   27.9594   -7.3909 H         1 SER         0.0606
    110 H44        -9.2102   28.6683   -8.3684 H         1 SER         0.0606
    111 H45        -9.9142   27.9706   -6.2662 H         1 SER         0.2097
    112 H46        -8.2828   32.1428   -6.1343 H         1 LYS         0.1875
    113 H47       -10.8861   32.7706   -7.1122 H         1 LYS         0.0726
    114 H48        -8.9314   34.7936   -5.9792 H         1 LYS         0.0305
    115 H49        -9.7443   33.5520   -4.9671 H         1 LYS         0.0305
    116 H50       -11.9582   34.4674   -5.6785 H         1 LYS         0.0269
    117 H51       -11.1047   35.7490   -6.6036 H         1 LYS         0.0269
    118 H52       -11.8153   36.6002   -4.4182 H         1 LYS         0.0317
    119 H53       -10.0231   36.5269   -4.5150 H         1 LYS         0.0317
    120 H54       -10.3683   34.1501   -3.3845 H         1 LYS         0.0813
    121 H55       -11.9446   34.8501   -2.8828 H         1 LYS         0.0813
    122 H56       -10.2342   35.1852   -1.1919 H         1 LYS         0.1994
    123 H57       -10.7138   36.6434   -1.7863 H         1 LYS         0.1994
    124 H58        -9.2692   36.0019   -2.2460 H         1 LYS         0.1994
@<TRIPOS>BOND
     1    2    1 1  
     2    2    5 1  
     3    3    2 1  
     4    3    4 2  
     5    5    6 1  
     6    6    7 ar 
     7    6    8 ar 
     8   10    9 1  
     9   10   13 1  
    10   11   10 1  
    11   11   12 2  
    12   13   14 1  
    13    9    3 am 
    14   16   15 1  
    15   17   16 1  
    16   17   18 2  
    17   15   11 am 
    18   20   19 1  
    19   20   23 1  
    20   21   20 1  
    21   21   22 2  
    22   23   24 1  
    23   24   25 ar 
    24   24   26 ar 
    25   26   28 ar 
    26   28   29 ar 
    27   27   29 ar 
    28   25   27 ar 
    29   19   17 am 
    30   31   30 1  
    31   31   34 1  
    32   32   31 1  
    33   32   33 2  
    34   34   35 1  
    35   30   21 am 
    36   37   36 1  
    37   37   40 1  
    38   38   37 1  
    39   38   39 2  
    40   40   41 1  
    41   41   42 ar 
    42   41   43 ar 
    43   43   45 ar 
    44   45   46 ar 
    45   44   46 ar 
    46   42   44 ar 
    47   36   32 am 
    48   48   47 1  
    49   49   48 1  
    50   49   50 2  
    51   47   38 am 
    52   52   51 1  
    53   52   55 1  
    54   53   52 1  
    55   53   54 2  
    56   55   56 1  
    57   51   49 am 
    58   57   58 1  
    59   58   61 1  
    60   58   59 1  
    61   59   60 ar 
    62   59   66 ar 
    63   61   62 1  
    64   62   63 1  
    65   63   64 1  
    66   64   65 1  
    67   53   57 am 
    68    1   67 1  
    69    1   68 1  
    70    1   69 1  
    71    2   70 1  
    72    5   71 1  
    73    5   72 1  
    74    9   73 1  
    75   10   74 1  
    76   13   75 1  
    77   13   76 1  
    78   14   77 1  
    79   15   78 1  
    80   16   79 1  
    81   16   80 1  
    82   19   81 1  
    83   20   82 1  
    84   23   83 1  
    85   23   84 1  
    86   25   85 1  
    87   26   86 1  
    88   27   87 1  
    89   28   88 1  
    90   29   89 1  
    91   30   90 1  
    92   31   91 1  
    93   34   92 1  
    94   34   93 1  
    95   35   94 1  
    96   36   95 1  
    97   37   96 1  
    98   40   97 1  
    99   40   98 1  
   100   42   99 1  
   101   43  100 1  
   102   44  101 1  
   103   45  102 1  
   104   46  103 1  
   105   47  104 1  
   106   48  105 1  
   107   48  106 1  
   108   51  107 1  
   109   52  108 1  
   110   55  109 1  
   111   55  110 1  
   112   56  111 1  
   113   57  112 1  
   114   58  113 1  
   115   61  114 1  
   116   61  115 1  
   117   62  116 1  
   118   62  117 1  
   119   63  118 1  
   120   63  119 1  
   121   64  120 1  
   122   64  121 1  
   123   65  122 1  
   124   65  123 1  
   125   65  124 1  
@<TRIPOS>SUBSTRUCTURE
     1 ASP         1

