1oai_ligand
  -I-interpret- 

126127  0  0  0  0  0  0  0  0999 V2000
   -7.1970   43.7480  -10.8460 N   0  3  0  0  0
   -6.7680   42.3300  -10.6850 C   0  0  0  0  0
   -5.5670   42.0240  -11.5780 C   0  0  0  0  0
   -5.3940   40.8810  -12.0330 O   0  0  0  0  0
   -7.9180   41.3510  -10.9770 C   0  0  0  0  0
   -9.2240   41.7580  -10.3120 C   0  0  0  0  0
   -9.2200   42.7430   -9.5240 O   0  0  0  0  0
  -10.3150   41.1550  -10.5230 O   0  0  0  0  0
   -4.7540   43.0460  -11.8590 N   0  0  0  0  0
   -3.4900   42.8430  -12.5750 C   0  0  0  0  0
   -2.3730   42.4030  -11.6290 C   0  0  0  0  0
   -2.2840   42.8100  -10.4600 O   0  0  0  0  0
   -3.0490   44.1440  -13.3240 C   0  0  0  0  0
   -2.9030   45.1880  -12.4110 O   0  0  0  0  0
   -1.4780   41.6070  -12.1880 N   0  0  0  0  0
   -0.2590   41.2280  -11.5460 C   0  0  0  0  0
   -0.3500   39.8310  -10.9520 C   0  0  0  0  0
   -1.1400   38.9990  -11.3840 O   0  0  0  0  0
    0.5050   39.5650   -9.9890 N   0  0  0  0  0
    0.5740   38.2400   -9.3650 C   0  0  0  0  0
   -0.5090   38.0630   -8.3420 C   0  0  0  0  0
   -0.7230   38.9400   -7.5480 O   0  0  0  0  0
    1.9500   38.0350   -8.7400 C   0  0  0  0  0
    2.1900   36.5930   -8.3770 C   0  0  0  0  0
    2.6740   35.7020   -9.3240 C   0  0  0  0  0
    1.8940   36.1060   -7.1150 C   0  0  0  0  0
    2.8580   34.3780   -9.0300 C   0  0  0  0  0
    2.1020   34.7950   -6.8160 C   0  0  0  0  0
    2.5700   33.9270   -7.7460 C   0  0  0  0  0
   -1.2030   36.9130   -8.3770 N   0  0  0  0  0
   -2.1080   36.5860   -7.3070 C   0  0  0  0  0
   -1.9530   35.1390   -6.8950 C   0  0  0  0  0
   -1.5970   34.2750   -7.7270 O   0  0  0  0  0
   -3.4760   36.9490   -7.5710 C   0  0  0  0  0
   -3.9110   36.1480   -8.5050 O   0  0  0  0  0
   -2.2230   34.8810   -5.6430 N   0  0  0  0  0
   -2.1990   33.5090   -5.1170 C   0  0  0  0  0
   -3.5740   32.8530   -5.1420 C   0  0  0  0  0
   -4.5530   33.4490   -4.8980 O   0  0  0  0  0
   -1.7280   33.5570   -3.6640 C   0  0  0  0  0
   -0.2970   33.9830   -3.4910 C   0  0  0  0  0
    0.0270   35.3370   -3.3570 C   0  0  0  0  0
    0.7190   33.0480   -3.3890 C   0  0  0  0  0
    1.3490   35.7080   -3.1550 C   0  0  0  0  0
    2.0490   33.4370   -3.1920 C   0  0  0  0  0
    2.3390   34.7790   -3.0620 C   0  0  0  0  0
   -3.6540   31.5620   -5.2530 N   0  0  0  0  0
   -4.8880   30.7390   -5.2930 C   0  0  0  0  0
   -5.8410   30.9510   -6.4620 C   0  0  0  0  0
   -5.6450   31.8160   -7.3500 O   0  0  0  0  0
   -6.9290   30.1840   -6.4580 N   0  0  0  0  0
   -7.7920   30.0780   -7.6250 C   0  0  0  0  0
   -8.7980   31.2030   -7.8520 C   0  0  0  0  0
   -9.4480   31.2390   -8.8910 O   0  0  0  0  0
   -8.5850   28.8000   -7.4730 C   0  0  0  0  0
   -9.4440   28.7950   -6.3080 O   0  0  0  0  0
   -8.8910   32.1560   -6.9280 N   0  0  0  0  0
   -9.8870   33.2290   -7.0720 C   0  0  0  0  0
   -9.6700   34.0250   -8.3510 C   0  0  0  0  0
   -8.5350   34.3100   -8.7120 O   0  0  0  0  0
   -9.8270   34.1630   -5.8780 C   0  0  0  0  0
  -11.0480   35.0830   -5.7300 C   0  0  0  0  0
  -10.9450   35.9290   -4.4630 C   0  0  0  0  0
  -10.9100   35.0840   -3.1740 C   0  0  0  0  0
  -10.2230   35.7890   -1.9990 N   0  3  0  0  0
  -10.6140   34.3890   -9.0740 O   0  0  0  0  0
   -7.9985   43.9302  -10.2420 H   0  0  0  0  0
   -6.4278   44.3661  -10.5879 H   0  0  0  0  0
   -7.4574   43.9149  -11.8180 H   0  0  0  0  0
   -6.4740   42.1946   -9.6442 H   0  0  0  0  0
   -7.6333   40.3755  -10.5829 H   0  0  0  0  0
   -8.0817   41.3412  -12.0546 H   0  0  0  0  0
  -10.1666   40.4331  -11.1382 H   0  0  0  0  0
   -5.0178   43.9878  -11.5694 H   0  0  0  0  0
   -3.6651   42.0518  -13.3040 H   0  0  0  0  0
   -3.8080   44.4115  -14.0592 H   0  0  0  0  0
   -2.0969   43.9668  -13.8242 H   0  0  0  0  0
   -2.6325   45.9830  -12.8762 H   0  0  0  0  0
   -1.6667   41.2457  -13.1230 H   0  0  0  0  0
   -0.0612   41.9332  -10.7388 H   0  0  0  0  0
    0.5383   41.2349  -12.2892 H   0  0  0  0  0
    1.1362   40.2991   -9.6680 H   0  0  0  0  0
    0.4196   37.4856  -10.1365 H   0  0  0  0  0
    2.0050   38.6314   -7.8293 H   0  0  0  0  0
    2.7047   38.3356   -9.4667 H   0  0  0  0  0
    2.9129   36.0643  -10.3239 H   0  0  0  0  0
    1.4918   36.7772   -6.3562 H   0  0  0  0  0
    3.2244   33.6879   -9.7900 H   0  0  0  0  0
    1.8882   34.4359   -5.8093 H   0  0  0  0  0
    2.7202   32.8786   -7.4885 H   0  0  0  0  0
   -1.0884   36.2718   -9.1619 H   0  0  0  0  0
   -1.8238   37.2061   -6.4568 H   0  0  0  0  0
   -3.5436   37.9883   -7.8926 H   0  0  0  0  0
   -4.0808   36.8535   -6.6692 H   0  0  0  0  0
   -4.8246   36.3615   -8.7081 H   0  0  0  0  0
   -2.4561   35.6505   -5.0154 H   0  0  0  0  0
   -1.5304   32.9237   -5.7483 H   0  0  0  0  0
   -1.8117   32.5456   -3.2663 H   0  0  0  0  0
   -2.3461   34.2937   -3.1508 H   0  0  0  0  0
   -0.7536   36.0958   -3.4109 H   0  0  0  0  0
    0.4783   31.9875   -3.4636 H   0  0  0  0  0
    1.5995   36.7653   -3.0691 H   0  0  0  0  0
    2.8426   32.6915   -3.1421 H   0  0  0  0  0
    3.3662   35.0971   -2.8839 H   0  0  0  0  0
   -2.7702   31.0572   -5.3202 H   0  0  0  0  0
   -5.4523   31.0150   -4.4022 H   0  0  0  0  0
   -4.5482   29.7067   -5.3766 H   0  0  0  0  0
   -7.1636   29.6577   -5.6164 H   0  0  0  0  0
   -7.1201   30.1183   -8.4823 H   0  0  0  0  0
   -7.8735   27.9818   -7.3614 H   0  0  0  0  0
   -9.2215   28.7004   -8.3523 H   0  0  0  0  0
   -9.9192   27.9619   -6.2657 H   0  0  0  0  0
   -8.2706   32.1425   -6.1185 H   0  0  0  0  0
  -10.8700   32.7608   -7.1230 H   0  0  0  0  0
   -8.9576   34.8054   -6.0178 H   0  0  0  0  0
   -9.7868   33.5388   -4.9853 H   0  0  0  0  0
  -11.9448   34.4666   -5.6671 H   0  0  0  0  0
  -11.0912   35.7483   -6.5923 H   0  0  0  0  0
  -11.8278   36.5668   -4.4175 H   0  0  0  0  0
  -10.0135   36.4926   -4.5154 H   0  0  0  0  0
  -10.3419   34.1794   -3.3907 H   0  0  0  0  0
  -11.9419   34.8899   -2.8815 H   0  0  0  0  0
  -10.2350   35.1772   -1.1829 H   0  0  0  0  0
   -9.2581   36.0040   -2.2502 H   0  0  0  0  0
  -10.7204   36.6533   -1.7848 H   0  0  0  0  0
  -11.4434   34.1056   -8.6823 H   0  0  0  0  0
  2  1  1  0  0  0
  2  5  1  0  0  0
  3  2  1  0  0  0
  3  4  2  0  0  0
  5  6  1  0  0  0
  6  7  2  0  0  0
  6  8  1  0  0  0
 10  9  1  0  0  0
 10 13  1  0  0  0
 11 10  1  0  0  0
 11 12  2  0  0  0
 13 14  1  0  0  0
  9  3  1  0  0  0
 16 15  1  0  0  0
 17 16  1  0  0  0
 17 18  2  0  0  0
 15 11  1  0  0  0
 20 19  1  0  0  0
 20 23  1  0  0  0
 21 20  1  0  0  0
 21 22  2  0  0  0
 23 24  1  0  0  0
 24 25  4  0  0  0
 24 26  4  0  0  0
 26 28  4  0  0  0
 28 29  4  0  0  0
 27 29  4  0  0  0
 25 27  4  0  0  0
 19 17  1  0  0  0
 31 30  1  0  0  0
 31 34  1  0  0  0
 32 31  1  0  0  0
 32 33  2  0  0  0
 34 35  1  0  0  0
 30 21  1  0  0  0
 37 36  1  0  0  0
 37 40  1  0  0  0
 38 37  1  0  0  0
 38 39  2  0  0  0
 40 41  1  0  0  0
 41 42  4  0  0  0
 41 43  4  0  0  0
 43 45  4  0  0  0
 45 46  4  0  0  0
 44 46  4  0  0  0
 42 44  4  0  0  0
 36 32  1  0  0  0
 48 47  1  0  0  0
 49 48  1  0  0  0
 49 50  2  0  0  0
 47 38  1  0  0  0
 52 51  1  0  0  0
 52 55  1  0  0  0
 53 52  1  0  0  0
 53 54  2  0  0  0
 55 56  1  0  0  0
 51 49  1  0  0  0
 57 58  1  0  0  0
 58 61  1  0  0  0
 58 59  1  0  0  0
 59 60  2  0  0  0
 59 66  1  0  0  0
 61 62  1  0  0  0
 62 63  1  0  0  0
 63 64  1  0  0  0
 64 65  1  0  0  0
 53 57  1  0  0  0
  1 67  1  0  0  0
  1 68  1  0  0  0
  1 69  1  0  0  0
  2 70  1  0  0  0
  5 71  1  0  0  0
  5 72  1  0  0  0
  8 73  1  0  0  0
  9 74  1  0  0  0
 10 75  1  0  0  0
 13 76  1  0  0  0
 13 77  1  0  0  0
 14 78  1  0  0  0
 15 79  1  0  0  0
 16 80  1  0  0  0
 16 81  1  0  0  0
 19 82  1  0  0  0
 20 83  1  0  0  0
 23 84  1  0  0  0
 23 85  1  0  0  0
 25 86  1  0  0  0
 26 87  1  0  0  0
 27 88  1  0  0  0
 28 89  1  0  0  0
 29 90  1  0  0  0
 30 91  1  0  0  0
 31 92  1  0  0  0
 34 93  1  0  0  0
 34 94  1  0  0  0
 35 95  1  0  0  0
 36 96  1  0  0  0
 37 97  1  0  0  0
 40 98  1  0  0  0
 40 99  1  0  0  0
 42100  1  0  0  0
 43101  1  0  0  0
 44102  1  0  0  0
 45103  1  0  0  0
 46104  1  0  0  0
 47105  1  0  0  0
 48106  1  0  0  0
 48107  1  0  0  0
 51108  1  0  0  0
 52109  1  0  0  0
 55110  1  0  0  0
 55111  1  0  0  0
 56112  1  0  0  0
 57113  1  0  0  0
 58114  1  0  0  0
 61115  1  0  0  0
 61116  1  0  0  0
 62117  1  0  0  0
 62118  1  0  0  0
 63119  1  0  0  0
 63120  1  0  0  0
 64121  1  0  0  0
 64122  1  0  0  0
 65123  1  0  0  0
 65124  1  0  0  0
 65125  1  0  0  0
 66126  1  0  0  0
M  END
$$$$
