3l3m_ligand
  -I-interpret- 

 44 47  0  0  0  0  0  0  0  0999 V2000
   28.0630    9.0520   27.6280 F   0  0  0  0  0
   23.1200    7.5990   24.0440 C   0  0  0  0  0
   26.4820   12.3000   27.5780 C   0  0  0  0  0
   22.8040    8.7820   23.4140 C   0  0  0  0  0
   27.3410   12.9870   28.4090 C   0  0  0  0  0
   24.0070    7.5420   25.0950 C   0  0  0  0  0
   28.6460   11.0240   28.6900 C   0  0  0  0  0
   26.6910   10.9670   27.3020 C   0  0  0  0  0
   23.3840    9.9690   23.7940 C   0  0  0  0  0
   28.4250   12.3500   28.9680 C   0  0  0  0  0
   24.2810    9.9110   24.8340 C   0  0  0  0  0
   24.5840    8.7360   25.4850 C   0  0  0  0  0
   27.7860   10.3430   27.8630 C   0  0  0  0  0
   25.7690   10.2530   26.4470 C   0  0  0  0  0
   23.0150   11.2080   23.1100 C   0  0  0  0  0
   29.7750   13.6030   32.2360 C   0  0  0  0  0
   30.1780   15.0010   31.8350 C   0  0  0  0  0
   28.7530   13.0680   31.2650 C   0  0  0  0  0
   30.6730   15.0210   30.4090 C   0  0  0  0  0
   29.3590   13.0510   29.8860 C   0  0  0  0  0
   25.0340   10.8580   25.4660 N   0  0  0  0  0
   25.4970    8.9650   26.4760 N   0  0  0  0  0
   29.6010   14.4680   29.5490 N   0  3  0  0  0
   23.7070   12.3020   23.5630 N   0  0  0  0  0
   22.1520   11.1890   22.2410 O   0  0  0  0  0
   22.6521    6.6770   23.6989 H   0  0  0  0  0
   25.6300   12.8163   27.1356 H   0  0  0  0  0
   22.0805    8.7771   22.5988 H   0  0  0  0  0
   27.1606   14.0402   28.6243 H   0  0  0  0  0
   24.2426    6.6024   25.5947 H   0  0  0  0  0
   29.5038   10.5115   29.1254 H   0  0  0  0  0
   29.3442   13.6252   33.2370 H   0  0  0  0  0
   30.6535   12.9579   32.2265 H   0  0  0  0  0
   30.9785   15.3407   32.4922 H   0  0  0  0  0
   29.3111   15.6566   31.9178 H   0  0  0  0  0
   27.8674   13.7034   31.2723 H   0  0  0  0  0
   28.4613   12.0582   31.5536 H   0  0  0  0  0
   31.5795   14.4230   30.3150 H   0  0  0  0  0
   30.9127   16.0403   30.1062 H   0  0  0  0  0
   30.3015   12.5086   29.8108 H   0  0  0  0  0
   29.8877   14.5352   28.5724 H   0  0  0  0  0
   28.7434   14.9989   29.7006 H   0  0  0  0  0
   23.5210   13.2232   23.1665 H   0  0  0  0  0
   24.4077   12.1944   24.2964 H   0  0  0  0  0
 13  1  1  0  0  0
  2  4  4  0  0  0
  6  2  4  0  0  0
  5  3  4  0  0  0
  3  8  4  0  0  0
  9  4  4  0  0  0
 10  5  4  0  0  0
 12  6  4  0  0  0
 10  7  4  0  0  0
  7 13  4  0  0  0
 13  8  4  0  0  0
  8 14  1  0  0  0
 11  9  4  0  0  0
  9 15  1  0  0  0
 20 10  1  0  0  0
 12 11  4  0  0  0
 21 11  4  0  0  0
 22 12  4  0  0  0
 14 21  4  0  0  0
 14 22  4  0  0  0
 15 24  1  0  0  0
 15 25  2  0  0  0
 16 17  1  0  0  0
 18 16  1  0  0  0
 17 19  1  0  0  0
 18 20  1  0  0  0
 19 23  1  0  0  0
 20 23  1  0  0  0
  2 26  1  0  0  0
  3 27  1  0  0  0
  4 28  1  0  0  0
  5 29  1  0  0  0
  6 30  1  0  0  0
  7 31  1  0  0  0
 16 32  1  0  0  0
 16 33  1  0  0  0
 17 34  1  0  0  0
 17 35  1  0  0  0
 18 36  1  0  0  0
 18 37  1  0  0  0
 19 38  1  0  0  0
 19 39  1  0  0  0
 20 40  1  0  0  0
 23 41  1  0  0  0
 23 42  1  0  0  0
 24 43  1  0  0  0
 24 44  1  0  0  0
M  END
$$$$
