2io6_ligand
  -I-interpret- 

 51 55  0  0  0  0  0  0  0  0999 V2000
    2.6500   53.7760   26.3830 C   0  0  0  0  0
    2.9060   53.9230   27.7520 C   0  0  0  0  0
    4.2690   54.3680   28.1040 C   0  0  0  0  0
    5.2070   54.6730   27.0030 C   0  0  0  0  0
    6.4590   55.0650   27.6680 C   0  0  0  0  0
    5.1110   54.6380   29.3050 C   0  0  0  0  0
    1.9000   53.6100   28.8390 C   0  0  0  0  0
    1.6590   54.6460   29.7260 C   0  0  0  0  0
    0.7620   54.4720   30.8030 C   0  0  0  0  0
    0.1270   53.2190   31.0070 C   0  0  0  0  0
    0.3460   52.1860   30.0870 C   0  0  0  0  0
    1.2680   52.3690   29.0040 C   0  0  0  0  0
    4.8530   54.4670   25.5650 C   0  0  0  0  0
    3.5690   54.0380   25.3460 C   0  0  0  0  0
    5.4700   54.6900   24.3380 C   0  0  0  0  0
    4.4750   54.3050   23.3370 C   0  0  0  0  0
    6.7470   55.0880   24.0130 C   0  0  0  0  0
    4.8100   54.3940   21.9200 C   0  0  0  0  0
    7.0660   55.1770   22.6690 C   0  0  0  0  0
    6.1700   54.8380   21.6350 C   0  0  0  0  0
    2.0290   53.4650   23.5340 C   0  0  0  0  0
    2.3720   52.1040   22.9040 C   0  0  0  0  0
    1.6960   50.9510   23.6620 C   0  0  0  0  0
    7.4910   55.4920   27.0660 O   0  0  0  0  0
    6.3660   55.0900   29.0360 N   0  0  0  0  0
    4.6410   54.5020   30.4780 O   0  0  0  0  0
    8.2990   55.5860   22.3680 O   0  0  0  0  0
    2.2800   55.8760   29.5870 O   0  0  0  0  0
    1.9280   56.9160   30.5740 C   0  0  0  0  0
    3.3090   53.9610   24.0350 N   0  0  0  0  0
    2.0470   49.6530   23.0690 O   0  0  0  0  0
    1.6573   53.4301   26.0949 H   0  0  0  0  0
    0.5569   55.3019   31.4792 H   0  0  0  0  0
   -0.5225   53.0628   31.8683 H   0  0  0  0  0
   -0.1857   51.2406   30.1944 H   0  0  0  0  0
    1.4758   51.5505   28.3149 H   0  0  0  0  0
    7.4794   55.3242   24.7849 H   0  0  0  0  0
    4.0974   54.1472   21.1330 H   0  0  0  0  0
    6.5009   54.9092   20.5989 H   0  0  0  0  0
    1.2843   53.3761   24.3250 H   0  0  0  0  0
    1.5759   54.1482   22.8157 H   0  0  0  0  0
    3.4519   51.9630   22.9497 H   0  0  0  0  0
    2.0147   52.0986   21.8742 H   0  0  0  0  0
    0.6153   51.0809   23.6043 H   0  0  0  0  0
    2.0368   50.9660   24.6972 H   0  0  0  0  0
    7.0794   55.3825   29.7038 H   0  0  0  0  0
    8.4036   55.6083   21.4140 H   0  0  0  0  0
    0.8582   57.1179   30.5213 H   0  0  0  0  0
    2.1844   56.5673   31.5744 H   0  0  0  0  0
    2.4825   57.8279   30.3525 H   0  0  0  0  0
    1.6133   48.9507   23.5592 H   0  0  0  0  0
  1  2  4  0  0  0
 14  1  4  0  0  0
  2  3  4  0  0  0
  2  7  1  0  0  0
  4  3  4  0  0  0
  3  6  1  0  0  0
  4  5  1  0  0  0
 13  4  4  0  0  0
  5 24  2  0  0  0
  5 25  1  0  0  0
 25  6  1  0  0  0
  6 26  2  0  0  0
  7  8  4  0  0  0
  7 12  4  0  0  0
  8  9  4  0  0  0
  8 28  1  0  0  0
  9 10  4  0  0  0
 11 10  4  0  0  0
 12 11  4  0  0  0
 14 13  4  0  0  0
 15 13  4  0  0  0
 30 14  4  0  0  0
 16 15  4  0  0  0
 15 17  4  0  0  0
 16 18  4  0  0  0
 30 16  4  0  0  0
 17 19  4  0  0  0
 18 20  4  0  0  0
 20 19  4  0  0  0
 19 27  1  0  0  0
 21 22  1  0  0  0
 21 30  1  0  0  0
 22 23  1  0  0  0
 23 31  1  0  0  0
 28 29  1  0  0  0
  1 32  1  0  0  0
  9 33  1  0  0  0
 10 34  1  0  0  0
 11 35  1  0  0  0
 12 36  1  0  0  0
 17 37  1  0  0  0
 18 38  1  0  0  0
 20 39  1  0  0  0
 21 40  1  0  0  0
 21 41  1  0  0  0
 22 42  1  0  0  0
 22 43  1  0  0  0
 23 44  1  0  0  0
 23 45  1  0  0  0
 25 46  1  0  0  0
 27 47  1  0  0  0
 29 48  1  0  0  0
 29 49  1  0  0  0
 29 50  1  0  0  0
 31 51  1  0  0  0
M  END
$$$$
