6cwf_ligand
  -I-interpret- 

 40 41  0  0  0  0  0  0  0  0999 V2000
  -36.2680   46.1540   14.3790 C   0  0  0  0  0
  -34.7930   46.3310   14.7090 C   0  0  0  0  0
  -34.2960   47.4440   14.9190 O   0  0  0  0  0
  -34.1090   45.1950   14.7960 N   0  0  0  0  0
  -32.6500   45.2360   15.1150 C   0  0  0  0  0
  -32.3120   44.5280   16.4840 C   0  0  0  0  0
  -32.9720   45.1030   17.6700 O   0  0  0  0  0
  -32.6930   43.0870   16.3850 C   0  0  0  0  0
  -32.2810   42.4530   17.5640 O   0  0  0  0  0
  -32.5030   41.0620   17.6490 C   0  0  0  0  0
  -31.8540   40.5630   18.9680 C   0  0  0  0  0
  -33.9900   40.7110   17.6840 C   0  0  0  0  0
  -34.3710   39.7290   16.9810 O   0  0  0  0  0
  -34.6790   41.5110   18.3140 O   0  0  0  0  0
  -31.9860   40.3780   16.4780 O   0  0  0  0  0
  -32.1090   40.9750   15.2000 C   0  0  0  0  0
  -31.9410   42.4960   15.2640 C   0  0  0  0  0
  -32.3180   43.1030   14.0150 O   0  0  0  0  0
  -31.9540   44.5130   13.9850 C   0  0  0  0  0
  -32.3200   45.0880   12.6920 O   0  0  0  0  0
  -31.5890   44.4660   11.5880 C   0  0  0  0  0
  -36.8716   46.5389   15.2009 H   0  0  0  0  0
  -36.5031   46.7016   13.4664 H   0  0  0  0  0
  -36.4821   45.0951   14.2342 H   0  0  0  0  0
  -34.5769   44.3011   14.6460 H   0  0  0  0  0
  -32.3228   46.2708   15.2165 H   0  0  0  0  0
  -31.2425   44.6748   16.6348 H   0  0  0  0  0
  -32.7366   46.0305   17.7476 H   0  0  0  0  0
  -33.7669   42.9746   16.2357 H   0  0  0  0  0
  -30.7855   40.7774   18.9495 H   0  0  0  0  0
  -32.3139   41.0742   19.8138 H   0  0  0  0  0
  -32.0086   39.4883   19.0636 H   0  0  0  0  0
  -33.6044   39.2859   16.6100 H   0  0  0  0  0
  -33.1047   40.7563   14.8141 H   0  0  0  0  0
  -31.3276   40.5708   14.5565 H   0  0  0  0  0
  -30.8852   42.6997   15.4424 H   0  0  0  0  0
  -30.8772   44.6209   14.1154 H   0  0  0  0  0
  -30.5188   44.6115   11.7349 H   0  0  0  0  0
  -31.8117   43.3993   11.5618 H   0  0  0  0  0
  -31.8938   44.9253   10.6477 H   0  0  0  0  0
  1  2  1  0  0  0
  2  3  2  0  0  0
  2  4  1  0  0  0
  4  5  1  0  0  0
  5  6  1  0  0  0
  5 19  1  0  0  0
  6  7  1  0  0  0
  6  8  1  0  0  0
  8  9  1  0  0  0
  8 17  1  0  0  0
  9 10  1  0  0  0
 10 11  1  0  0  0
 10 12  1  0  0  0
 10 15  1  0  0  0
 12 13  1  0  0  0
 12 14  2  0  0  0
 15 16  1  0  0  0
 16 17  1  0  0  0
 17 18  1  0  0  0
 18 19  1  0  0  0
 19 20  1  0  0  0
 20 21  1  0  0  0
  1 22  1  0  0  0
  1 23  1  0  0  0
  1 24  1  0  0  0
  4 25  1  0  0  0
  5 26  1  0  0  0
  6 27  1  0  0  0
  7 28  1  0  0  0
  8 29  1  0  0  0
 11 30  1  0  0  0
 11 31  1  0  0  0
 11 32  1  0  0  0
 13 33  1  0  0  0
 16 34  1  0  0  0
 16 35  1  0  0  0
 17 36  1  0  0  0
 19 37  1  0  0  0
 21 38  1  0  0  0
 21 39  1  0  0  0
 21 40  1  0  0  0
M  END
$$$$
