5sxn_ligand
  -I-interpret- 

 38 41  0  0  0  0  0  0  0  0999 V2000
   48.4990   71.3540   11.4500 C   0  0  0  0  0
   48.5740   69.5140   10.0440 C   0  0  0  0  0
   49.2140   68.7300    9.0650 C   0  0  0  0  0
   47.3410   67.1890    9.0910 C   0  0  0  0  0
   49.0650   72.5870   12.0420 C   0  0  0  0  0
   48.7310   74.8610   12.8260 C   0  0  0  0  0
   50.8920   73.7940   13.0180 C   0  0  0  0  0
   43.7180   68.5800   14.4690 C   0  0  0  0  0
   42.3860   68.2250   14.7650 C   0  0  0  0  0
   41.5860   69.1410   14.1880 C   0  0  0  0  0
   44.8330   70.4280   13.1560 C   0  0  0  0  0
   45.4290   69.6110   12.0870 N   0  0  0  0  0
   46.6630   69.9130   11.5330 C   0  0  0  0  0
   47.3120   70.9920   11.9360 N   0  0  0  0  0
   49.1440   70.6440   10.5270 N   0  0  0  0  0
   48.5970   67.5940    8.6210 C   0  0  0  0  0
   46.6840   67.9220   10.0420 C   0  0  0  0  0
   47.2850   69.0980   10.5390 C   0  0  0  0  0
   48.2310   73.7010   12.2530 C   0  0  0  0  0
   50.0650   74.9000   13.2030 C   0  0  0  0  0
   50.4060   72.6310   12.4370 C   0  0  0  0  0
   43.6550   69.6860   13.7170 C   0  0  0  0  0
   42.3630   70.0190   13.5440 O   0  0  0  0  0
   50.1855   69.0242    8.6678 H   0  0  0  0  0
   46.8830   66.2822    8.6959 H   0  0  0  0  0
   48.0866   75.7270   12.9774 H   0  0  0  0  0
   51.9342   73.8428   13.3337 H   0  0  0  0  0
   44.6198   68.0579   14.7888 H   0  0  0  0  0
   42.0631   67.3661   15.3533 H   0  0  0  0  0
   40.4973   69.1633   14.2369 H   0  0  0  0  0
   44.5124   71.3899   12.7560 H   0  0  0  0  0
   45.5676   70.6101   13.9404 H   0  0  0  0  0
   44.9184   68.7977   11.7433 H   0  0  0  0  0
   49.1007   66.9807    7.8738 H   0  0  0  0  0
   45.7095   67.6016   10.4105 H   0  0  0  0  0
   47.1814   73.6516   11.9631 H   0  0  0  0  0
   50.4717   75.8073   13.6497 H   0  0  0  0  0
   51.0567   71.7687   12.2914 H   0  0  0  0  0
  1  5  1  0  0  0
 14  1  4  0  0  0
  1 15  4  0  0  0
  2  3  4  0  0  0
 15  2  4  0  0  0
  2 18  4  0  0  0
  3 16  4  0  0  0
 16  4  4  0  0  0
  4 17  4  0  0  0
  5 19  4  0  0  0
  5 21  4  0  0  0
 19  6  4  0  0  0
  6 20  4  0  0  0
  7 20  4  0  0  0
 21  7  4  0  0  0
  8  9  4  0  0  0
 22  8  4  0  0  0
  9 10  4  0  0  0
 10 23  4  0  0  0
 12 11  1  0  0  0
 11 22  1  0  0  0
 13 12  1  0  0  0
 13 14  4  0  0  0
 13 18  4  0  0  0
 17 18  4  0  0  0
 22 23  4  0  0  0
  3 24  1  0  0  0
  4 25  1  0  0  0
  6 26  1  0  0  0
  7 27  1  0  0  0
  8 28  1  0  0  0
  9 29  1  0  0  0
 10 30  1  0  0  0
 11 31  1  0  0  0
 11 32  1  0  0  0
 12 33  1  0  0  0
 16 34  1  0  0  0
 17 35  1  0  0  0
 19 36  1  0  0  0
 20 37  1  0  0  0
 21 38  1  0  0  0
M  END
$$$$
