### 
### Created by X-TOOL on Mon Sep 10 21:13:09 2018
### 

@<TRIPOS>MOLECULE
4gdy_ligand
   57    61     1     0     0
SMALL
GAST_HUCK


@<TRIPOS>ATOM
      1 C1        -16.1600   22.3100   16.7670 C.ar      1 0X1        -0.0399
      2 C2        -16.5880   22.0060   18.0450 C.ar      1 0X1         0.0978
      3 C3        -18.7150   21.3060   17.1840 C.ar      1 0X1        -0.0415
      4 C4        -14.9450   25.6740    8.9590 C.ar      1 0X1        -0.0131
      5 C5        -15.7910   23.9510   10.3560 C.ar      1 0X1         0.0252
      6 C6        -17.0190   22.1200   15.7040 C.ar      1 0X1        -0.0182
      7 C7        -14.8220   24.9110   10.1050 C.ar      1 0X1         0.0026
      8 C8        -18.2970   21.6310   15.9060 C.ar      1 0X1         0.0957
      9 C9        -17.8560   21.4950   18.2470 C.ar      1 0X1        -0.0424
     10 C10       -16.7980   23.8120    9.4190 C.ar      1 0X1         0.1136
     11 C11       -16.8390   24.6250    8.3080 C.ar      1 0X1         0.0389
     12 C12       -18.7300   21.8010   13.5040 C.2       1 0X1         0.1921
     13 C13       -15.7240   23.0920   11.5930 C.3       1 0X1         0.0605
     14 C14       -16.5840   22.4720   14.3660 C.2       1 0X1        -0.0475
     15 C15       -17.3720   22.3440   13.2890 C.2       1 0X1         0.0886
     16 C16       -17.9530   24.4910    7.3240 C.3       1 0X1        -0.0224
     17 C17       -13.6450   25.1170   11.0090 C.3       1 0X1         0.1104
     18 N18       -15.9340   25.5770    8.0640 N.ar      1 0X1        -0.3257
     19 N19       -17.0580   22.6700   11.9970 N.pl3     1 0X1        -0.3068
     20 N20       -19.1240   21.4720   14.7640 N.am      1 0X1        -0.1423
     21 O21       -10.5850   23.6050    9.9270 O.co2     1 0X1        -0.5536
     22 O22       -11.1820   22.8000   12.2270 O.co2     1 0X1        -0.5536
     23 O23       -10.9350   25.2910   11.7370 O.co2     1 0X1        -0.5536
     24 O24       -17.7960   22.8760    9.6070 O.3       1 0X1        -0.3348
     25 C25       -20.4250   21.0350   14.6810 C.2       1 0X1         0.3463
     26 O26       -12.8520   23.9450   10.8570 O.3       1 0X1        -0.2651
     27 P27       -11.2620   23.9170   11.2160 P.3       1 0X1         0.2035
     28 O28       -15.7510   22.1720   19.1470 O.3       1 0X1        -0.2666
     29 C29       -15.5210   23.4910   19.5070 C.ar      1 0X1         0.1132
     30 C30       -14.4510   23.7670   20.3370 C.ar      1 0X1        -0.0290
     31 C31       -14.1750   25.0690   20.7080 C.ar      1 0X1        -0.0699
     32 C32       -14.9740   26.0930   20.2480 C.ar      1 0X1        -0.0725
     33 C33       -16.0570   25.8130   19.4370 C.ar      1 0X1        -0.0699
     34 C34       -16.3390   24.5120   19.0680 C.ar      1 0X1        -0.0290
     35 N35       -20.7040   21.1130   13.3320 N.am      1 0X1        -0.1767
     36 O36       -21.1960   20.6610   15.5590 O.2       1 0X1        -0.3972
     37 N37       -19.6510   21.5990   12.6210 N.2       1 0X1        -0.2067
     38 H         -15.1543   22.6959   16.6002 H         1 0X1         0.0439
     39 H         -19.7145   20.9040   17.3498 H         1 0X1         0.0497
     40 H         -14.1708   26.4173    8.7687 H         1 0X1         0.0621
     41 H         -18.1805   21.2389   19.2556 H         1 0X1         0.0485
     42 H         -15.2769   23.6709   12.4011 H         1 0X1         0.0665
     43 H         -15.1242   22.2079   11.3769 H         1 0X1         0.0665
     44 H         -15.5733   22.8570   14.2303 H         1 0X1         0.0352
     45 H         -17.9528   23.4818    6.9121 H         1 0X1         0.0382
     46 H         -18.9027   24.6804    7.8243 H         1 0X1         0.0382
     47 H         -17.8143   25.2132    6.5195 H         1 0X1         0.0382
     48 H         -13.9526   25.2643   12.0443 H         1 0X1         0.0762
     49 H         -13.0885   26.0171   10.7478 H         1 0X1         0.0762
     50 H         -17.7889   22.6150   11.2877 H         1 0X1         0.1818
     51 H         -17.8059   22.2670    8.8650 H         1 0X1         0.2454
     52 H         -13.8222   22.9542   20.7004 H         1 0X1         0.0550
     53 H         -13.3296   25.2850   21.3612 H         1 0X1         0.0590
     54 H         -14.7517   27.1238   20.5239 H         1 0X1         0.0526
     55 H         -16.6938   26.6249   19.0857 H         1 0X1         0.0590
     56 H         -17.1998   24.2939   18.4359 H         1 0X1         0.0550
     57 H         -21.5945   20.8387   12.9170 H         1 0X1         0.2421
@<TRIPOS>BOND
     1    1    2 ar 
     2    6    1 ar 
     3    2    9 ar 
     4    2   28 1  
     5    8    3 ar 
     6    3    9 ar 
     7    7    4 ar 
     8    4   18 ar 
     9    7    5 ar 
    10    5   10 ar 
    11    5   13 1  
    12    6    8 ar 
    13   14    6 1  
    14   17    7 1  
    15   20    8 1  
    16   10   11 ar 
    17   10   24 1  
    18   11   16 1  
    19   18   11 ar 
    20   15   12 1  
    21   12   20 1  
    22   12   37 2  
    23   13   19 1  
    24   15   14 2  
    25   19   15 1  
    26   26   17 1  
    27   20   25 am 
    28   27   21 ar 
    29   27   22 ar 
    30   27   23 ar 
    31   25   35 am 
    32   25   36 2  
    33   26   27 1  
    34   28   29 1  
    35   29   30 ar 
    36   29   34 ar 
    37   30   31 ar 
    38   31   32 ar 
    39   32   33 ar 
    40   33   34 ar 
    41   35   37 1  
    42    1   38 1  
    43    3   39 1  
    44    4   40 1  
    45    9   41 1  
    46   13   42 1  
    47   13   43 1  
    48   14   44 1  
    49   16   45 1  
    50   16   46 1  
    51   16   47 1  
    52   17   48 1  
    53   17   49 1  
    54   19   50 1  
    55   24   51 1  
    56   30   52 1  
    57   31   53 1  
    58   32   54 1  
    59   33   55 1  
    60   34   56 1  
    61   35   57 1  
@<TRIPOS>SUBSTRUCTURE
     1 0X1         1

