3hdn_ligand
  -I-interpret- 

 46 50  0  0  0  0  0  0  0  0999 V2000
   40.6520   27.1010   66.8400 C   0  0  0  0  0
   32.4780   33.2090   67.6890 C   0  0  0  0  0
   32.3660   35.1410   69.0830 C   0  0  0  0  0
   37.6870   28.5700   65.3080 C   0  0  0  0  0
   33.7510   32.9460   68.1490 C   0  0  0  0  0
   37.4210   29.5880   66.1990 C   0  0  0  0  0
   36.1510   34.2520   70.6560 C   0  0  0  0  0
   30.4110   34.5810   67.6550 C   0  0  0  0  0
   38.7640   27.7360   65.5160 C   0  0  0  0  0
   38.2190   29.7980   67.3070 C   0  0  0  0  0
   37.9670   30.8690   68.2560 C   0  0  0  0  0
   36.6610   32.5760   69.2280 C   0  0  0  0  0
   37.7250   32.7790   70.0870 C   0  0  0  0  0
   40.1200   25.8860   64.8570 C   0  0  0  0  0
   40.9260   26.0790   65.9580 C   0  0  0  0  0
   39.0390   26.7130   64.6340 C   0  0  0  0  0
   33.6360   34.8760   69.5430 C   0  0  0  0  0
   39.2930   28.9510   67.4980 C   0  0  0  0  0
   36.7810   31.5790   68.2710 C   0  0  0  0  0
   38.9400   31.1910   69.1790 C   0  0  0  0  0
   31.7840   34.3050   68.1550 C   0  0  0  0  0
   34.3360   33.7800   69.0800 C   0  0  0  0  0
   39.5700   27.9280   66.6190 C   0  0  0  0  0
   35.6600   33.5200   69.5970 C   0  0  0  0  0
   30.4050   35.7600   66.7370 C   0  0  0  0  0
   37.4020   33.7930   70.9370 N   0  0  0  0  0
   38.8870   32.1310   70.1220 N   0  0  0  0  0
   29.2220   36.4160   66.8310 O   0  0  0  0  0
   31.3270   36.0910   66.0040 O   0  0  0  0  0
   41.2888   27.2561   67.7109 H   0  0  0  0  0
   32.0188   32.5478   66.9542 H   0  0  0  0  0
   31.8218   36.0104   69.4520 H   0  0  0  0  0
   37.0453   28.4249   64.4390 H   0  0  0  0  0
   34.2959   32.0784   67.7769 H   0  0  0  0  0
   36.5646   30.2397   66.0259 H   0  0  0  0  0
   35.6305   35.0559   71.1765 H   0  0  0  0  0
   29.7646   34.7959   68.5059 H   0  0  0  0  0
   30.0554   33.7083   67.1072 H   0  0  0  0  0
   40.3376   25.0768   64.1599 H   0  0  0  0  0
   41.7796   25.4235   66.1308 H   0  0  0  0  0
   38.4035   26.5580   63.7621 H   0  0  0  0  0
   34.0929   35.5373   70.2792 H   0  0  0  0  0
   39.9369   29.0958   68.3655 H   0  0  0  0  0
   35.9786   31.3657   67.5647 H   0  0  0  0  0
   39.8600   30.6084   69.1315 H   0  0  0  0  0
   28.6600   35.9702   67.4690 H   0  0  0  0  0
  1 15  4  0  0  0
 23  1  4  0  0  0
  5  2  4  0  0  0
  2 21  4  0  0  0
 17  3  4  0  0  0
  3 21  4  0  0  0
  6  4  4  0  0  0
  4  9  4  0  0  0
 22  5  4  0  0  0
 10  6  4  0  0  0
 24  7  4  0  0  0
  7 26  4  0  0  0
 21  8  1  0  0  0
  8 25  1  0  0  0
  9 16  4  0  0  0
 23  9  4  0  0  0
 11 10  1  0  0  0
 10 18  4  0  0  0
 19 11  4  0  0  0
 11 20  4  0  0  0
 12 13  4  0  0  0
 12 19  4  0  0  0
 24 12  4  0  0  0
 13 26  4  0  0  0
 13 27  4  0  0  0
 15 14  4  0  0  0
 16 14  4  0  0  0
 22 17  4  0  0  0
 18 23  4  0  0  0
 27 20  4  0  0  0
 22 24  1  0  0  0
 25 28  1  0  0  0
 25 29  2  0  0  0
  1 30  1  0  0  0
  2 31  1  0  0  0
  3 32  1  0  0  0
  4 33  1  0  0  0
  5 34  1  0  0  0
  6 35  1  0  0  0
  7 36  1  0  0  0
  8 37  1  0  0  0
  8 38  1  0  0  0
 14 39  1  0  0  0
 15 40  1  0  0  0
 16 41  1  0  0  0
 17 42  1  0  0  0
 18 43  1  0  0  0
 19 44  1  0  0  0
 20 45  1  0  0  0
 28 46  1  0  0  0
M  END
$$$$
