1i9m_ligand
  -I-interpret- 

 34 35  0  0  0  0  0  0  0  0999 V2000
   -3.9680    2.8040   14.6740 C   0  0  0  0  0
   -4.3270    1.6720   15.4360 C   0  0  0  0  0
   -5.7060    1.5440   15.8940 C   0  0  0  0  0
   -6.6270    2.5370   15.5880 C   0  0  0  0  0
   -6.2270    3.6780   14.8150 C   0  0  0  0  0
   -4.9050    3.8160   14.3500 C   0  0  0  0  0
   -4.4080    5.0030   13.4890 C   0  0  0  0  0
   -5.2540    5.9000   13.1880 O   0  0  0  0  0
   -3.0020    5.0920   13.0130 N   0  0  0  0  0
   -2.5060    6.2930   12.4110 C   0  0  0  0  0
   -6.0790    0.0920   16.8130 S   0  0  0  0  0
   -5.6260   -1.3670   16.0730 N   0  0  0  0  0
   -7.4590    0.3680   16.9980 O   0  0  0  0  0
   -5.3510    0.4320   18.0720 O   0  0  0  0  0
   -1.7550    7.1970   13.1670 C   0  0  0  0  0
   -1.9520    7.2980   14.6770 C   0  0  0  0  0
   -1.1090    8.2910   15.4010 C   0  0  0  0  0
   -0.1170    9.1450   14.6790 C   0  0  0  0  0
    0.0510    9.0210   13.2010 C   0  0  0  0  0
   -0.7530    8.0620   12.4420 C   0  0  0  0  0
    0.5680    9.9590   15.3070 F   0  0  0  0  0
   -2.7600    6.6110   15.2960 F   0  0  0  0  0
   -2.9402    2.9027   14.3246 H   0  0  0  0  0
   -3.5882    0.9079   15.6777 H   0  0  0  0  0
   -7.6563    2.4497   15.9358 H   0  0  0  0  0
   -6.9594    4.4515   14.5837 H   0  0  0  0  0
   -2.3833    4.2877   13.1166 H   0  0  0  0  0
   -3.4021    6.8485   12.1344 H   0  0  0  0  0
   -1.8182    5.9464   11.6397 H   0  0  0  0  0
   -6.3408   -2.0284   15.7695 H   0  0  0  0  0
   -4.6390   -1.5823   15.9318 H   0  0  0  0  0
   -1.2181    8.3969   16.4803 H   0  0  0  0  0
    0.7769    9.6485   12.6838 H   0  0  0  0  0
   -0.6292    7.9733   11.3627 H   0  0  0  0  0
  1  2  4  0  0  0
  1  6  4  0  0  0
  2  3  4  0  0  0
  3  4  4  0  0  0
  3 11  1  0  0  0
  4  5  4  0  0  0
  5  6  4  0  0  0
  6  7  1  0  0  0
  7  8  2  0  0  0
  7  9  1  0  0  0
  9 10  1  0  0  0
 10 15  1  0  0  0
 11 12  1  0  0  0
 11 13  2  0  0  0
 11 14  2  0  0  0
 15 16  4  0  0  0
 15 20  4  0  0  0
 16 17  4  0  0  0
 16 22  1  0  0  0
 17 18  4  0  0  0
 18 19  4  0  0  0
 18 21  1  0  0  0
 19 20  4  0  0  0
  1 23  1  0  0  0
  2 24  1  0  0  0
  4 25  1  0  0  0
  5 26  1  0  0  0
  9 27  1  0  0  0
 10 28  1  0  0  0
 10 29  1  0  0  0
 12 30  1  0  0  0
 12 31  1  0  0  0
 17 32  1  0  0  0
 19 33  1  0  0  0
 20 34  1  0  0  0
M  END
$$$$
