1bkj_ligand
  -I-interpret- 

 52 54  0  0  0  0  0  0  0  0999 V2000
   -7.0160   -3.0430    8.3220 N   0  0  0  0  0
   -7.4830   -3.4410    7.0910 C   0  0  0  0  0
   -8.4010   -4.1990    6.9090 O   0  0  0  0  0
   -6.7230   -2.9420    6.0420 N   0  0  0  0  0
   -5.4590   -2.2870    6.1270 C   0  0  0  0  0
   -4.8760   -2.0360    5.0880 O   0  0  0  0  0
   -5.0210   -2.0120    7.4650 C   0  0  0  0  0
   -3.9410   -1.1450    7.5790 N   0  0  0  0  0
   -3.6080   -0.5860    8.8220 C   0  0  0  0  0
   -2.6170    0.3780    8.8450 C   0  0  0  0  0
   -2.2870    1.0130   10.0410 C   0  0  0  0  0
   -1.3180    2.2300    9.9540 C   0  0  0  0  0
   -2.9440    0.6310   11.2460 C   0  0  0  0  0
   -2.5670    1.1570   12.5920 C   0  0  0  0  0
   -3.9280   -0.3230   11.2320 C   0  0  0  0  0
   -4.2980   -0.9560   10.0050 C   0  0  0  0  0
   -5.3830   -1.9000    9.8890 N   0  0  0  0  0
   -5.8110   -2.3570    8.6160 C   0  0  0  0  0
   -6.2170   -2.1590   10.9360 C   0  0  0  0  0
   -5.9960   -3.4360   11.7130 C   0  0  0  0  0
   -5.6350   -4.6040   11.1080 O   0  0  0  0  0
   -6.2720   -3.4100   13.1580 C   0  0  0  0  0
   -6.0480   -2.1900   13.8180 O   0  0  0  0  0
   -6.1260   -4.6200   14.0400 C   0  0  0  0  0
   -6.0360   -5.9010   13.4640 O   0  0  0  0  0
   -6.4760   -4.5560   15.4490 C   0  0  0  0  0
   -7.9340   -4.6120   15.3980 O   0  0  0  0  0
   -8.9270   -3.3940   15.8300 P   0  0  0  0  0
   -8.7390   -3.2910   17.2650 O   0  0  0  0  0
  -10.2480   -3.8600   15.3420 O   0  0  0  0  0
   -8.4390   -2.1320   15.2260 O   0  0  0  0  0
   -7.1120   -3.0566    5.1061 H   0  0  0  0  0
   -2.0930    0.6417    7.9263 H   0  0  0  0  0
   -0.3704    1.9081    9.5221 H   0  0  0  0  0
   -1.7618    3.0019    9.3253 H   0  0  0  0  0
   -1.1463    2.6283   10.9540 H   0  0  0  0  0
   -1.5298    0.8979   12.8045 H   0  0  0  0  0
   -2.6815    2.2409   12.6022 H   0  0  0  0  0
   -3.2155    0.7147   13.3482 H   0  0  0  0  0
   -4.4298   -0.5998   12.1592 H   0  0  0  0  0
   -7.2115   -2.2522   10.4998 H   0  0  0  0  0
   -6.0486   -1.3517   11.6488 H   0  0  0  0  0
   -4.9718   -3.5320   11.3526 H   0  0  0  0  0
   -5.5454   -5.2922   11.7712 H   0  0  0  0  0
   -7.3416   -3.5216   12.9800 H   0  0  0  0  0
   -6.2591   -2.2879   14.7494 H   0  0  0  0  0
   -5.0673   -4.3810   14.1403 H   0  0  0  0  0
   -5.9475   -6.5575   14.1588 H   0  0  0  0  0
   -6.0938   -3.6669   15.9504 H   0  0  0  0  0
   -6.0322   -5.3553   16.0425 H   0  0  0  0  0
  -10.2430   -3.8841   14.3823 H   0  0  0  0  0
   -8.5508   -2.1703   14.2733 H   0  0  0  0  0
  1  2  1  0  0  0
  1 18  2  0  0  0
  2  3  2  0  0  0
  2  4  1  0  0  0
  4  5  1  0  0  0
  5  6  2  0  0  0
  5  7  1  0  0  0
  7  8  2  0  0  0
  7 18  1  0  0  0
  8  9  1  0  0  0
  9 10  4  0  0  0
  9 16  4  0  0  0
 10 11  4  0  0  0
 11 12  1  0  0  0
 11 13  4  0  0  0
 13 14  1  0  0  0
 13 15  4  0  0  0
 15 16  4  0  0  0
 16 17  1  0  0  0
 17 18  1  0  0  0
 17 19  1  0  0  0
 19 20  1  0  0  0
 20 21  1  0  0  0
 20 22  1  0  0  0
 22 23  1  0  0  0
 22 24  1  0  0  0
 24 25  1  0  0  0
 24 26  1  0  0  0
 26 27  1  0  0  0
 27 28  1  0  0  0
 28 29  2  0  0  0
 28 30  1  0  0  0
 28 31  1  0  0  0
  4 32  1  0  0  0
 10 33  1  0  0  0
 12 34  1  0  0  0
 12 35  1  0  0  0
 12 36  1  0  0  0
 14 37  1  0  0  0
 14 38  1  0  0  0
 14 39  1  0  0  0
 15 40  1  0  0  0
 19 41  1  0  0  0
 19 42  1  0  0  0
 20 43  1  0  0  0
 21 44  1  0  0  0
 22 45  1  0  0  0
 23 46  1  0  0  0
 24 47  1  0  0  0
 25 48  1  0  0  0
 26 49  1  0  0  0
 26 50  1  0  0  0
 30 51  1  0  0  0
 31 52  1  0  0  0
M  END
$$$$
