### 
### Created by X-TOOL on Fri Nov 18 12:23:23 2016
### 

@<TRIPOS>MOLECULE
1bkj_ligand
   50    52     1     0     0
SMALL
GAST_HUCK


@<TRIPOS>ATOM
      1 N1         -7.0160   -3.0430    8.3220 N.2       1 FMN        -0.2549
      2 C2         -7.4830   -3.4410    7.0910 C.2       1 FMN         0.2439
      3 O2         -8.4010   -4.1990    6.9090 O.2       1 FMN        -0.3902
      4 N3         -6.7230   -2.9420    6.0420 N.am      1 FMN        -0.1938
      5 C4         -5.4590   -2.2870    6.1270 C.2       1 FMN         0.2704
      6 O4         -4.8760   -2.0360    5.0880 O.2       1 FMN        -0.3655
      7 C4A        -5.0210   -2.0120    7.4650 C.2       1 FMN         0.2076
      8 N5         -3.9410   -1.1450    7.5790 N.2       1 FMN        -0.2387
      9 C5A        -3.6080   -0.5860    8.8220 C.ar      1 FMN         0.0856
     10 C6         -2.6170    0.3780    8.8450 C.ar      1 FMN        -0.0403
     11 C7         -2.2870    1.0130   10.0410 C.ar      1 FMN        -0.0428
     12 C7M        -1.3180    2.2300    9.9540 C.3       1 FMN        -0.0352
     13 C8         -2.9440    0.6310   11.2460 C.ar      1 FMN        -0.0416
     14 C8M        -2.5670    1.1570   12.5920 C.3       1 FMN        -0.0312
     15 C9         -3.9280   -0.3230   11.2320 C.ar      1 FMN        -0.0258
     16 C9A        -4.2980   -0.9560   10.0050 C.ar      1 FMN         0.1048
     17 N10        -5.3830   -1.9000    9.8890 N.pl3     1 FMN        -0.2138
     18 C10        -5.8110   -2.3570    8.6160 C.2       1 FMN         0.1894
     19 C1         -6.2170   -2.1590   10.9360 C.3       1 FMN         0.0886
     20 C2         -5.9960   -3.4360   11.7130 C.3       1 FMN         0.1102
     21 O2         -5.6350   -4.6040   11.1080 O.3       1 FMN        -0.3865
     22 C3         -6.2720   -3.4100   13.1580 C.3       1 FMN         0.1118
     23 O3         -6.0480   -2.1900   13.8180 O.3       1 FMN        -0.3865
     24 C4         -6.1260   -4.6200   14.0400 C.3       1 FMN         0.1111
     25 O4         -6.0360   -5.9010   13.4640 O.3       1 FMN        -0.3865
     26 C5         -6.4760   -4.5560   15.4490 C.3       1 FMN         0.1068
     27 O5         -7.9340   -4.6120   15.3980 O.3       1 FMN        -0.2734
     28 P          -8.9270   -3.3940   15.8300 P.3       1 FMN         0.2008
     29 O1P        -8.7390   -3.2910   17.2650 O.co2     1 FMN        -0.5537
     30 O2P       -10.2480   -3.8600   15.3420 O.co2     1 FMN        -0.5537
     31 O3P        -8.4390   -2.1320   15.2260 O.co2     1 FMN        -0.5537
     32 H1         -7.1043   -3.0543    5.1244 H         1 FMN         0.2248
     33 H2         -2.0959    0.6403    7.9314 H         1 FMN         0.0564
     34 H3         -0.9378    2.3232    8.9260 H         1 FMN         0.0366
     35 H4         -0.4752    2.0777   10.6442 H         1 FMN         0.0366
     36 H5         -1.8569    3.1483   10.2302 H         1 FMN         0.0366
     37 H6         -3.2208    0.7113   13.3561 H         1 FMN         0.0395
     38 H7         -2.6822    2.2509   12.6037 H         1 FMN         0.0395
     39 H8         -1.5204    0.8962   12.8077 H         1 FMN         0.0395
     40 H9         -4.4271   -0.5982   12.1541 H         1 FMN         0.0493
     41 H10        -7.2424   -2.1898   10.5390 H         1 FMN         0.0631
     42 H11        -6.1232   -1.3232   11.6449 H         1 FMN         0.0631
     43 H12        -4.9392   -3.1795   11.8782 H         1 FMN         0.0647
     44 H13        -5.5463   -5.2851   11.7643 H         1 FMN         0.2100
     45 H14        -7.3702   -3.3873   13.1004 H         1 FMN         0.0647
     46 H15        -6.2569   -2.2868   14.7397 H         1 FMN         0.2100
     47 H16        -5.0442   -4.4944   14.1943 H         1 FMN         0.0646
     48 H17        -5.2773   -5.9379   12.8935 H         1 FMN         0.2100
     49 H18        -6.1271   -3.6183   15.9061 H         1 FMN         0.0639
     50 H19        -6.0617   -5.4107   16.0037 H         1 FMN         0.0639
@<TRIPOS>BOND
     1    1    2 1  
     2    1   18 2  
     3    2    3 2  
     4    2    4 am 
     5    4    5 am 
     6    5    6 2  
     7    5    7 1  
     8    7    8 2  
     9    7   18 1  
    10    8    9 1  
    11    9   10 ar 
    12    9   16 ar 
    13   10   11 ar 
    14   11   12 1  
    15   11   13 ar 
    16   13   14 1  
    17   13   15 ar 
    18   15   16 ar 
    19   16   17 1  
    20   17   18 1  
    21   17   19 1  
    22   19   20 1  
    23   20   21 1  
    24   20   22 1  
    25   22   23 1  
    26   22   24 1  
    27   24   25 1  
    28   24   26 1  
    29   26   27 1  
    30   27   28 1  
    31   28   29 ar 
    32   28   30 ar 
    33   28   31 ar 
    34    4   32 1  
    35   10   33 1  
    36   12   34 1  
    37   12   35 1  
    38   12   36 1  
    39   14   37 1  
    40   14   38 1  
    41   14   39 1  
    42   15   40 1  
    43   19   41 1  
    44   19   42 1  
    45   20   43 1  
    46   21   44 1  
    47   22   45 1  
    48   23   46 1  
    49   24   47 1  
    50   25   48 1  
    51   26   49 1  
    52   26   50 1  
@<TRIPOS>SUBSTRUCTURE
     1 FMN         1

