5ux4_ligand
  -I-interpret- 

 55 60  0  0  0  0  0  0  0  0999 V2000
   23.1340   -3.0410   23.9470 C   0  0  0  0  0
   23.7200   -1.6770   24.4920 O   0  0  0  0  0
   23.2540   -0.6620   23.8370 C   0  0  0  0  0
   23.5820   -0.6540   22.2290 C   0  0  0  0  0
   23.2630   -1.8640   21.6680 C   0  0  0  0  0
   22.7420   -2.9880   22.5530 C   0  0  0  0  0
   22.3890   -4.2580   21.8260 C   0  0  0  0  0
   21.9290   -5.3780   22.5090 C   0  0  0  0  0
   22.5340   -4.2490   20.5210 N   0  0  0  0  0
   22.2530   -5.2990   19.7670 C   0  0  0  0  0
   22.4010   -5.3130   18.3920 F   0  0  0  0  0
   21.7710   -6.4760   20.4110 C   0  0  0  0  0
   21.4910   -7.5720   19.5130 O   0  0  0  0  0
   21.5960   -6.5410   21.7790 C   0  0  0  0  0
   21.0650   -7.8310   22.4730 C   0  0  0  0  0
   22.2150   -8.4380   23.2490 C   0  0  0  0  0
   21.8910   -8.4820   24.6490 O   0  0  0  0  0
   20.5350   -7.9180   24.7660 C   0  0  0  0  0
   20.1080   -7.5590   23.3970 N   0  3  0  0  0
   19.7420   -7.7290   25.9800 N   0  3  0  0  0
   20.6150   -8.8240   21.4700 C   0  0  0  0  0
   19.9610   -9.9290   21.9840 C   0  0  0  0  0
   20.8150   -8.6960   20.1140 C   0  0  0  0  0
   20.3520   -9.6650   19.1990 C   0  0  0  0  0
   19.7010  -10.7500   19.7180 C   0  0  0  0  0
   19.4950  -10.8970   21.0850 C   0  0  0  0  0
   18.8320  -12.0380   21.4700 C   0  0  0  0  0
   19.3460  -13.2460   21.0510 C   0  0  0  0  0
   18.6910  -14.4040   21.3870 C   0  0  0  0  0
   17.5300  -14.2860   22.1260 C   0  0  0  0  0
   17.0530  -13.1150   22.5040 N   0  0  0  0  0
   17.6620  -11.9960   22.1910 C   0  0  0  0  0
   17.1450  -10.8000   22.5970 F   0  0  0  0  0
   22.2412   -3.2690   24.5292 H   0  0  0  0  0
   23.9178   -3.7930   24.0378 H   0  0  0  0  0
   23.7289    0.2248   24.2567 H   0  0  0  0  0
   22.1690   -0.6997   23.9339 H   0  0  0  0  0
   23.9955    0.1942   21.6834 H   0  0  0  0  0
   23.3816   -2.0200   20.5958 H   0  0  0  0  0
   21.7527   -2.6166   22.8203 H   0  0  0  0  0
   21.8265   -5.3592   23.5940 H   0  0  0  0  0
   23.1072   -7.8285   23.1053 H   0  0  0  0  0
   22.3962   -9.4510   22.8898 H   0  0  0  0  0
   20.0411   -7.8586   25.7359 H   0  0  0  0  0
   19.2805   -8.1096   23.1682 H   0  0  0  0  0
   19.9220   -6.5563   23.3754 H   0  0  0  0  0
   18.8422   -7.3152   25.7359 H   0  0  0  0  0
   19.5915   -8.6317   26.4303 H   0  0  0  0  0
   20.2411   -7.1087   26.6176 H   0  0  0  0  0
   19.8124  -10.0434   23.0578 H   0  0  0  0  0
   20.5063   -9.5538   18.1257 H   0  0  0  0  0
   19.3334  -11.5211   19.0409 H   0  0  0  0  0
   20.2613  -13.2812   20.4601 H   0  0  0  0  0
   19.0720  -15.3789   21.0826 H   0  0  0  0  0
   16.9898  -15.1903   22.4063 H   0  0  0  0  0
  1  2  1  0  0  0
  1  6  1  0  0  0
  2  3  1  0  0  0
  3  4  1  0  0  0
  4  5  2  0  0  0
  5  6  1  0  0  0
  6  7  1  0  0  0
  7  8  4  0  0  0
  7  9  4  0  0  0
  8 14  4  0  0  0
  9 10  4  0  0  0
 10 11  1  0  0  0
 10 12  4  0  0  0
 12 13  1  0  0  0
 12 14  4  0  0  0
 13 23  1  0  0  0
 14 15  1  0  0  0
 15 16  1  0  0  0
 15 19  1  0  0  0
 15 21  1  0  0  0
 16 17  1  0  0  0
 17 18  1  0  0  0
 18 19  1  0  0  0
 18 20  1  0  0  0
 21 22  4  0  0  0
 21 23  4  0  0  0
 22 26  4  0  0  0
 23 24  4  0  0  0
 24 25  4  0  0  0
 25 26  4  0  0  0
 26 27  1  0  0  0
 27 28  4  0  0  0
 27 32  4  0  0  0
 28 29  4  0  0  0
 29 30  4  0  0  0
 30 31  4  0  0  0
 31 32  4  0  0  0
 32 33  1  0  0  0
  1 34  1  0  0  0
  1 35  1  0  0  0
  3 36  1  0  0  0
  3 37  1  0  0  0
  4 38  1  0  0  0
  5 39  1  0  0  0
  6 40  1  0  0  0
  8 41  1  0  0  0
 16 42  1  0  0  0
 16 43  1  0  0  0
 18 44  1  0  0  0
 19 45  1  0  0  0
 19 46  1  0  0  0
 20 47  1  0  0  0
 20 48  1  0  0  0
 20 49  1  0  0  0
 22 50  1  0  0  0
 24 51  1  0  0  0
 25 52  1  0  0  0
 28 53  1  0  0  0
 29 54  1  0  0  0
 30 55  1  0  0  0
M  END
$$$$
