5hg9_ligand
  -I-interpret- 

 52 55  0  0  0  0  0  0  0  0999 V2000
  -14.5170   18.1100  -24.0450 N   0  0  0  0  0
  -13.6970   19.2710  -24.4350 C   0  0  0  0  0
  -13.8700   19.4200  -25.9610 C   0  0  0  0  0
  -14.8150   20.5860  -26.3400 C   0  0  0  0  0
  -14.7030   17.5670  -22.7610 C   0  0  0  0  0
  -11.0860   14.2850  -29.5550 C   0  0  0  0  0
  -11.4680   15.6220  -29.3120 C   0  0  0  0  0
  -10.4870   16.4520  -29.9100 C   0  0  0  0  0
  -14.8050   12.2380  -27.2490 C   0  0  0  0  0
  -14.4240   18.0570  -26.4260 C   0  0  0  0  0
  -15.1760   17.5240  -25.2010 C   0  0  0  0  0
  -14.9570   20.6710  -27.6840 F   0  0  0  0  0
  -16.0580   20.4580  -25.8190 F   0  0  0  0  0
  -14.3130   21.7730  -25.9240 F   0  0  0  0  0
  -13.9560   18.2630  -21.6200 C   0  0  0  0  0
  -14.0060   17.5290  -20.2820 C   0  0  0  0  0
  -15.4270   16.5840  -22.5540 O   0  0  0  0  0
  -13.2710   17.1300  -26.8010 C   0  0  0  0  0
  -13.1940   17.0100  -28.2400 O   0  0  0  0  0
  -12.6650   15.7720  -28.5740 C   0  0  0  0  0
  -13.3460   14.6540  -28.1580 N   0  0  0  0  0
  -12.8950   13.3940  -28.4420 C   0  0  0  0  0
  -11.7460   13.1510  -29.1540 N   0  0  0  0  0
   -9.5460   15.6190  -30.4960 C   0  0  0  0  0
   -9.9240   14.3130  -30.2720 N   0  0  0  0  0
  -13.6440   12.2800  -27.9760 N   0  0  0  0  0
  -15.4320   11.0790  -26.8550 C   0  0  0  0  0
  -16.5350   11.4700  -26.1550 N   0  0  0  0  0
  -16.6810   12.8020  -26.0620 N   0  0  0  0  0
  -15.6270   13.2700  -26.7290 C   0  0  0  0  0
  -17.5150   10.6150  -25.5320 C   0  0  0  0  0
  -12.6505   19.1226  -24.1688 H   0  0  0  0  0
  -14.0149   20.1727  -23.9116 H   0  0  0  0  0
  -12.9272   19.6692  -26.4479 H   0  0  0  0  0
  -10.4746   17.5419  -29.9094 H   0  0  0  0  0
  -15.0652   18.1307  -27.3044 H   0  0  0  0  0
  -16.2313   17.7947  -25.2351 H   0  0  0  0  0
  -15.1494   16.4350  -25.1626 H   0  0  0  0  0
  -14.4369   19.2295  -21.4694 H   0  0  0  0  0
  -12.9076   18.3160  -21.9134 H   0  0  0  0  0
  -15.0435   17.4268  -19.9636 H   0  0  0  0  0
  -13.5601   16.5408  -20.3943 H   0  0  0  0  0
  -13.4501   18.0973  -19.5363 H   0  0  0  0  0
  -13.4403   16.1460  -26.3639 H   0  0  0  0  0
  -12.3362   17.5425  -26.4213 H   0  0  0  0  0
   -8.6589   15.9421  -31.0407 H   0  0  0  0  0
  -13.2568   11.3687  -28.2210 H   0  0  0  0  0
  -15.1127   10.0572  -27.0602 H   0  0  0  0  0
  -15.4189   14.3318  -26.8608 H   0  0  0  0  0
  -17.9808    9.9857  -26.2904 H   0  0  0  0  0
  -17.0263    9.9870  -24.7870 H   0  0  0  0  0
  -18.2760   11.2283  -25.0494 H   0  0  0  0  0
  1  2  1  0  0  0
  1  5  1  0  0  0
 11  1  1  0  0  0
  3  2  1  0  0  0
  3  4  1  0  0  0
 10  3  1  0  0  0
  4 12  1  0  0  0
  4 13  1  0  0  0
  4 14  1  0  0  0
  5 15  1  0  0  0
  5 17  2  0  0  0
  6  7  4  0  0  0
 23  6  4  0  0  0
  6 25  4  0  0  0
  7  8  4  0  0  0
 20  7  4  0  0  0
  8 24  4  0  0  0
 26  9  1  0  0  0
  9 27  4  0  0  0
  9 30  4  0  0  0
 10 11  1  0  0  0
 18 10  1  0  0  0
 15 16  1  0  0  0
 19 18  1  0  0  0
 20 19  1  0  0  0
 21 20  4  0  0  0
 22 21  4  0  0  0
 22 23  4  0  0  0
 22 26  1  0  0  0
 24 25  4  0  0  0
 27 28  4  0  0  0
 28 29  4  0  0  0
 28 31  1  0  0  0
 29 30  4  0  0  0
  2 32  1  0  0  0
  2 33  1  0  0  0
  3 34  1  0  0  0
  8 35  1  0  0  0
 10 36  1  0  0  0
 11 37  1  0  0  0
 11 38  1  0  0  0
 15 39  1  0  0  0
 15 40  1  0  0  0
 16 41  1  0  0  0
 16 42  1  0  0  0
 16 43  1  0  0  0
 18 44  1  0  0  0
 18 45  1  0  0  0
 24 46  1  0  0  0
 26 47  1  0  0  0
 27 48  1  0  0  0
 30 49  1  0  0  0
 31 50  1  0  0  0
 31 51  1  0  0  0
 31 52  1  0  0  0
M  END
$$$$
