1yqj_ligand
  -I-interpret- 

 63 68  0  0  0  0  0  0  0  0999 V2000
   23.6430   14.9290   32.1010 C   0  0  0  0  0
   22.4710   15.6330   32.1960 N   0  0  0  0  0
   21.3140   14.9480   32.2960 N   0  0  0  0  0
   21.1820   13.5710   32.3150 C   0  0  0  0  0
   22.4790   12.7690   32.2120 C   0  0  0  0  0
   22.5310   11.2510   32.2180 C   0  0  0  0  0
   23.2230   10.5610   33.2370 C   0  0  0  0  0
   23.2490    9.1520   33.2260 C   0  0  0  0  0
   22.6270    8.4090   32.2650 N   0  0  0  0  0
   21.9560    9.0690   31.2750 C   0  0  0  0  0
   21.8880   10.4730   31.2180 C   0  0  0  0  0
   23.6570   13.5070   32.1080 C   0  0  0  0  0
   27.8700   13.9630   30.4080 C   0  0  0  0  0
   26.8240   11.7310   29.7290 C   0  0  0  0  0
   26.5550   10.3600   29.9570 C   0  0  0  0  0
   27.0480    9.7340   31.1220 C   0  0  0  0  0
   27.8140   10.4800   32.0570 C   0  0  0  0  0
   28.0830   11.8510   31.8270 C   0  0  0  0  0
   27.5910   12.4930   30.6620 C   0  0  0  0  0
   19.8100   12.9610   32.4270 C   0  0  0  0  0
   18.8840   13.1410   31.3700 C   0  0  0  0  0
   17.5850   12.5410   31.4540 C   0  0  0  0  0
   17.2100   11.7480   32.6140 C   0  0  0  0  0
   18.1480   11.5830   33.6660 C   0  0  0  0  0
   19.4290   12.1850   33.5640 C   0  0  0  0  0
   16.6480   12.7130   30.3860 C   0  0  0  0  0
   15.3620   12.1020   30.4710 C   0  0  0  0  0
   15.0030   11.3250   31.6110 C   0  0  0  0  0
   15.9170   11.1430   32.6880 C   0  0  0  0  0
   26.6020   14.8180   30.5590 C   0  0  0  0  0
   26.1720   15.0500   32.0230 C   0  0  0  0  0
   24.8320   15.6810   31.9890 N   0  0  0  0  0
   24.7960   17.0030   31.3040 C   0  0  0  0  0
   25.4250   16.8890   29.8890 C   0  0  0  0  0
   26.7050   16.1300   29.8820 N   0  3  0  0  0
   23.7331   11.1137   34.0259 H   0  0  0  0  0
   23.7887    8.6337   34.0186 H   0  0  0  0  0
   21.4553    8.4869   30.5014 H   0  0  0  0  0
   21.3442   10.9621   30.4098 H   0  0  0  0  0
   24.6095   12.9828   32.0304 H   0  0  0  0  0
   28.2369   14.0710   29.3873 H   0  0  0  0  0
   28.6028   14.3043   31.1392 H   0  0  0  0  0
   26.4405   12.2116   28.8290 H   0  0  0  0  0
   25.9694    9.7900   29.2357 H   0  0  0  0  0
   26.8412    8.6794   31.3039 H   0  0  0  0  0
   28.1963    9.9951   32.9552 H   0  0  0  0  0
   28.6716   12.4163   32.5495 H   0  0  0  0  0
   19.1582   13.7331   30.4969 H   0  0  0  0  0
   17.8861   10.9973   34.5472 H   0  0  0  0  0
   20.1428   12.0513   34.3768 H   0  0  0  0  0
   16.9156   13.3076   29.5125 H   0  0  0  0  0
   14.6478   12.2302   29.6576 H   0  0  0  0  0
   14.0163   10.8643   31.6590 H   0  0  0  0  0
   15.6341   10.5499   33.5577 H   0  0  0  0  0
   25.8341   14.2191   30.0693 H   0  0  0  0  0
   26.8869   15.6928   32.5366 H   0  0  0  0  0
   26.1393   14.1068   32.5683 H   0  0  0  0  0
   25.3641   17.7251   31.8905 H   0  0  0  0  0
   23.7600   17.3285   31.2095 H   0  0  0  0  0
   25.6354   17.8987   29.5365 H   0  0  0  0  0
   24.7186   16.3552   29.2533 H   0  0  0  0  0
   26.9598   15.9589   28.9093 H   0  0  0  0  0
   27.3985   16.6851   30.3833 H   0  0  0  0  0
  1  2  4  0  0  0
  1 12  4  0  0  0
 32  1  1  0  0  0
  2  3  4  0  0  0
  3  4  4  0  0  0
  5  4  4  0  0  0
  4 20  1  0  0  0
  5  6  1  0  0  0
 12  5  4  0  0  0
  6  7  4  0  0  0
  6 11  4  0  0  0
  7  8  4  0  0  0
  8  9  4  0  0  0
 10  9  4  0  0  0
 11 10  4  0  0  0
 13 19  1  0  0  0
 30 13  1  0  0  0
 14 15  4  0  0  0
 19 14  4  0  0  0
 15 16  4  0  0  0
 17 16  4  0  0  0
 18 17  4  0  0  0
 19 18  4  0  0  0
 20 21  4  0  0  0
 20 25  4  0  0  0
 21 22  4  0  0  0
 22 23  4  0  0  0
 22 26  4  0  0  0
 24 23  4  0  0  0
 23 29  4  0  0  0
 25 24  4  0  0  0
 26 27  4  0  0  0
 27 28  4  0  0  0
 29 28  4  0  0  0
 31 30  1  0  0  0
 30 35  1  0  0  0
 31 32  1  0  0  0
 32 33  1  0  0  0
 33 34  1  0  0  0
 34 35  1  0  0  0
  7 36  1  0  0  0
  8 37  1  0  0  0
 10 38  1  0  0  0
 11 39  1  0  0  0
 12 40  1  0  0  0
 13 41  1  0  0  0
 13 42  1  0  0  0
 14 43  1  0  0  0
 15 44  1  0  0  0
 16 45  1  0  0  0
 17 46  1  0  0  0
 18 47  1  0  0  0
 21 48  1  0  0  0
 24 49  1  0  0  0
 25 50  1  0  0  0
 26 51  1  0  0  0
 27 52  1  0  0  0
 28 53  1  0  0  0
 29 54  1  0  0  0
 30 55  1  0  0  0
 31 56  1  0  0  0
 31 57  1  0  0  0
 33 58  1  0  0  0
 33 59  1  0  0  0
 34 60  1  0  0  0
 34 61  1  0  0  0
 35 62  1  0  0  0
 35 63  1  0  0  0
M  END
$$$$
