1rt9_ligand
  -I-interpret- 

 33 35  0  0  0  0  0  0  0  0999 V2000
    1.9690   21.5960   23.5140 O   0  0  0  0  0
    1.8330   20.2210   23.1900 C   0  0  0  0  0
    3.1680   19.5870   23.2690 C   0  0  0  0  0
    3.7740   19.7160   24.5680 N   0  3  0  0  0
    3.0670   18.1310   22.9340 C   0  0  0  0  0
    3.8370   17.9750   21.7320 O   0  0  0  0  0
    3.6800   17.4240   24.1050 C   0  0  0  0  0
    4.8190   16.6650   23.6690 O   0  0  0  0  0
    4.1040   18.4620   25.1840 C   0  0  0  0  0
    3.2740   18.3960   26.4820 C   0  0  0  0  0
    3.1840   19.4330   27.4110 C   0  0  0  0  0
    2.4170   19.1890   28.4370 N   0  0  0  0  0
    1.9350   17.9010   28.2310 C   0  0  0  0  0
    1.0370   17.1220   29.0360 C   0  0  0  0  0
    0.5190   17.4600   30.0930 O   0  0  0  0  0
    0.7700   15.8470   28.5070 N   0  0  0  0  0
    1.3060   15.3630   27.3090 C   0  0  0  0  0
    2.1550   16.1010   26.5330 N   0  0  0  0  0
    2.4360   17.3720   27.0380 C   0  0  0  0  0
    1.1096   22.0212   23.4669 H   0  0  0  0  0
    1.4285   20.1136   22.1835 H   0  0  0  0  0
    1.1498   19.7392   23.8894 H   0  0  0  0  0
    3.7987   20.1095   22.5497 H   0  0  0  0  0
    3.0978   20.1821   25.1729 H   0  0  0  0  0
    4.6452   20.2323   24.4461 H   0  0  0  0  0
    2.0624   17.7421   22.7675 H   0  0  0  0  0
    3.4055   18.4436   21.0138 H   0  0  0  0  0
    2.9484   16.7438   24.5411 H   0  0  0  0  0
    4.5433   16.0295   23.0044 H   0  0  0  0  0
    5.1444   18.2984   25.4647 H   0  0  0  0  0
    3.7152   20.3768   27.2883 H   0  0  0  0  0
    0.1446   15.2349   29.0310 H   0  0  0  0  0
    1.0362   14.3588   26.9819 H   0  0  0  0  0
  1  2  1  0  0  0
  2  3  1  0  0  0
  3  4  1  0  0  0
  3  5  1  0  0  0
  4  9  1  0  0  0
  5  6  1  0  0  0
  5  7  1  0  0  0
  7  8  1  0  0  0
  7  9  1  0  0  0
  9 10  1  0  0  0
 10 11  4  0  0  0
 10 19  4  0  0  0
 11 12  4  0  0  0
 12 13  4  0  0  0
 13 14  1  0  0  0
 13 19  4  0  0  0
 14 15  2  0  0  0
 14 16  1  0  0  0
 16 17  1  0  0  0
 17 18  2  0  0  0
 18 19  1  0  0  0
  1 20  1  0  0  0
  2 21  1  0  0  0
  2 22  1  0  0  0
  3 23  1  0  0  0
  4 24  1  0  0  0
  4 25  1  0  0  0
  5 26  1  0  0  0
  6 27  1  0  0  0
  7 28  1  0  0  0
  8 29  1  0  0  0
  9 30  1  0  0  0
 11 31  1  0  0  0
 16 32  1  0  0  0
 17 33  1  0  0  0
M  END
$$$$
