5lhh_ligand
  -I-interpret- 

 68 72  0  0  0  0  0  0  0  0999 V2000
  -65.3600  -34.7160  -37.5910 C   0  0  0  0  0
  -66.3730  -33.8700  -36.8980 C   0  0  0  0  0
  -67.0490  -34.6620  -35.8660 N   0  0  0  0  0
  -66.8150  -34.5710  -34.5700 C   0  0  0  0  0
  -65.9390  -33.7840  -33.7760 C   0  0  0  0  0
  -66.0500  -34.0500  -32.4240 C   0  0  0  0  0
  -67.2720  -35.2970  -32.2250 S   0  0  0  0  0
  -67.6350  -35.4680  -33.9130 C   0  0  0  0  0
  -68.3990  -36.1260  -34.8800 C   0  0  0  0  0
  -68.0060  -35.5820  -36.0780 C   0  0  0  0  0
  -68.5920  -36.0470  -37.4080 C   0  0  0  0  0
  -68.6280  -35.3960  -38.3390 O   0  0  0  0  0
  -69.0990  -37.4230  -37.3750 N   0  0  0  0  0
  -69.7050  -38.1640  -38.5460 C   0  0  0  0  0
  -70.4090  -37.5230  -39.6150 C   0  0  0  0  0
  -70.9340  -38.3100  -40.6680 C   0  0  0  0  0
  -70.7690  -39.6910  -40.6540 C   0  0  0  0  0
  -70.0550  -40.3290  -39.5620 C   0  0  0  0  0
  -69.5290  -39.5270  -38.5220 C   0  0  0  0  0
  -68.7460  -40.1080  -37.2880 C   0  0  0  0  0
  -67.3450  -40.1040  -37.5080 O   0  0  0  0  0
  -66.5660  -39.5660  -36.3750 C   0  0  0  0  0
  -66.8120  -40.0100  -35.0590 C   0  0  0  0  0
  -66.0470  -39.4770  -33.9600 C   0  0  0  0  0
  -65.0690  -38.5320  -34.1810 C   0  0  0  0  0
  -64.8190  -38.0820  -35.5010 C   0  0  0  0  0
  -65.5770  -38.6100  -36.5990 C   0  0  0  0  0
  -64.3390  -38.0230  -33.1100 O   0  0  0  0  0
  -63.7380  -36.8030  -33.3610 C   0  0  0  0  0
  -63.1100  -36.2150  -32.0210 C   0  0  0  0  0
  -61.8300  -35.2850  -32.3960 C   0  0  0  0  0
  -60.9250  -35.4080  -31.4180 C   0  0  0  0  0
  -61.2950  -36.7100  -30.6470 N   0  0  0  0  0
  -62.6490  -37.2050  -31.2540 C   0  0  0  0  0
  -69.8670  -41.8400  -39.5420 C   0  0  0  0  0
  -70.6280  -42.4050  -38.4630 O   0  0  0  0  0
  -69.8560  -43.2910  -37.5780 C   0  0  0  0  0
  -64.6270  -35.0701  -36.8661 H   0  0  0  0  0
  -65.8563  -35.5689  -38.0541 H   0  0  0  0  0
  -64.8586  -34.1255  -38.3578 H   0  0  0  0  0
  -67.1066  -33.5156  -37.6222 H   0  0  0  0  0
  -65.8776  -33.0169  -36.4344 H   0  0  0  0  0
  -65.2508  -33.0469  -34.1897 H   0  0  0  0  0
  -65.4821  -33.5725  -31.6256 H   0  0  0  0  0
  -69.1458  -36.9034  -34.7184 H   0  0  0  0  0
  -69.0377  -37.9222  -36.4876 H   0  0  0  0  0
  -70.5394  -36.4408  -39.6181 H   0  0  0  0  0
  -71.4678  -37.8335  -41.4902 H   0  0  0  0  0
  -71.1764  -40.2957  -41.4643 H   0  0  0  0  0
  -69.0665  -41.1380  -37.1313 H   0  0  0  0  0
  -68.9596  -39.4838  -36.4203 H   0  0  0  0  0
  -67.5826  -40.7581  -34.8727 H   0  0  0  0  0
  -66.2437  -39.8243  -32.9457 H   0  0  0  0  0
  -64.0487  -37.3326  -35.6829 H   0  0  0  0  0
  -65.3784  -38.2619  -37.6126 H   0  0  0  0  0
  -64.4865  -36.1072  -33.7401 H   0  0  0  0  0
  -62.9457  -36.9397  -34.0969 H   0  0  0  0  0
  -63.8832  -35.6503  -31.5001 H   0  0  0  0  0
  -61.7270  -34.6685  -33.2890 H   0  0  0  0  0
  -60.0961  -34.7333  -31.2040 H   0  0  0  0  0
  -60.7619  -37.1509  -29.8975 H   0  0  0  0  0
  -62.5036  -38.1136  -31.8383 H   0  0  0  0  0
  -63.3614  -37.4500  -30.4662 H   0  0  0  0  0
  -68.8113  -42.0721  -39.4015 H   0  0  0  0  0
  -70.2105  -42.2606  -40.4871 H   0  0  0  0  0
  -69.4564  -44.1231  -38.1577 H   0  0  0  0  0
  -69.0349  -42.7304  -37.1312 H   0  0  0  0  0
  -70.5067  -43.6737  -36.7917 H   0  0  0  0  0
  1  2  1  0  0  0
  2  3  1  0  0  0
  3  4  4  0  0  0
  3 10  4  0  0  0
  4  5  4  0  0  0
  4  8  4  0  0  0
  5  6  4  0  0  0
  6  7  4  0  0  0
  7  8  4  0  0  0
  8  9  4  0  0  0
  9 10  4  0  0  0
 10 11  1  0  0  0
 11 12  2  0  0  0
 11 13  1  0  0  0
 13 14  1  0  0  0
 14 15  4  0  0  0
 14 19  4  0  0  0
 15 16  4  0  0  0
 16 17  4  0  0  0
 17 18  4  0  0  0
 18 19  4  0  0  0
 18 35  1  0  0  0
 19 20  1  0  0  0
 20 21  1  0  0  0
 21 22  1  0  0  0
 22 23  4  0  0  0
 22 27  4  0  0  0
 23 24  4  0  0  0
 24 25  4  0  0  0
 25 26  4  0  0  0
 25 28  1  0  0  0
 26 27  4  0  0  0
 28 29  1  0  0  0
 29 30  1  0  0  0
 30 31  1  0  0  0
 30 34  1  0  0  0
 31 32  2  0  0  0
 32 33  1  0  0  0
 33 34  1  0  0  0
 35 36  1  0  0  0
 36 37  1  0  0  0
  1 38  1  0  0  0
  1 39  1  0  0  0
  1 40  1  0  0  0
  2 41  1  0  0  0
  2 42  1  0  0  0
  5 43  1  0  0  0
  6 44  1  0  0  0
  9 45  1  0  0  0
 13 46  1  0  0  0
 15 47  1  0  0  0
 16 48  1  0  0  0
 17 49  1  0  0  0
 20 50  1  0  0  0
 20 51  1  0  0  0
 23 52  1  0  0  0
 24 53  1  0  0  0
 26 54  1  0  0  0
 27 55  1  0  0  0
 29 56  1  0  0  0
 29 57  1  0  0  0
 30 58  1  0  0  0
 31 59  1  0  0  0
 32 60  1  0  0  0
 33 61  1  0  0  0
 34 62  1  0  0  0
 34 63  1  0  0  0
 35 64  1  0  0  0
 35 65  1  0  0  0
 37 66  1  0  0  0
 37 67  1  0  0  0
 37 68  1  0  0  0
M  END
$$$$
