4l51_ligand
  -I-interpret- 

 25 25  0  0  0  0  0  0  0  0999 V2000
  -34.6040  -20.2880   -5.8800 C   0  0  0  0  0
  -35.0660  -21.0570   -4.7030 O   0  0  0  0  0
  -34.2930  -18.9630   -5.3370 C   0  0  0  0  0
  -33.2300  -18.7840   -4.3670 O   0  0  0  0  0
  -35.4660  -18.7250   -4.5770 C   0  0  0  0  0
  -35.0110  -17.7320   -3.7380 O   0  0  0  0  0
  -35.8100  -20.1540   -3.9840 C   0  0  0  0  0
  -37.2100  -20.6000   -4.4860 C   0  0  0  0  0
  -37.6410  -21.6640   -3.6900 O   0  0  0  0  0
  -39.1410  -21.9720   -3.3940 P   0  0  0  0  0
  -40.0420  -20.6940   -3.5960 O   0  0  0  0  0
  -39.2240  -22.3810   -1.8710 O   0  0  0  0  0
  -39.5510  -23.1330   -4.2250 O   0  0  0  0  0
  -33.3660  -20.7650   -6.5860 O   0  0  0  0  0
  -35.3879  -20.3608   -6.6339 H   0  0  0  0  0
  -33.9835  -18.3442   -6.1793 H   0  0  0  0  0
  -32.3818  -18.9268   -4.7934 H   0  0  0  0  0
  -36.3995  -18.3791   -5.0209 H   0  0  0  0  0
  -34.8495  -16.9340   -4.2466 H   0  0  0  0  0
  -35.6834  -20.1157   -2.9020 H   0  0  0  0  0
  -37.1521  -20.9118   -5.5288 H   0  0  0  0  0
  -37.9144  -19.7710   -4.4167 H   0  0  0  0  0
  -39.7224  -19.9861   -3.0318 H   0  0  0  0  0
  -38.9605  -21.6360   -1.3259 H   0  0  0  0  0
  -33.5267  -21.6349   -6.9589 H   0  0  0  0  0
  1  2  1  0  0  0
  1  3  1  0  0  0
  1 14  1  0  0  0
  2  7  1  0  0  0
  3  4  1  0  0  0
  3  5  1  0  0  0
  5  6  1  0  0  0
  5  7  1  0  0  0
  7  8  1  0  0  0
  8  9  1  0  0  0
  9 10  1  0  0  0
 10 11  1  0  0  0
 10 12  1  0  0  0
 10 13  2  0  0  0
  1 15  1  0  0  0
  3 16  1  0  0  0
  4 17  1  0  0  0
  5 18  1  0  0  0
  6 19  1  0  0  0
  7 20  1  0  0  0
  8 21  1  0  0  0
  8 22  1  0  0  0
 11 23  1  0  0  0
 12 24  1  0  0  0
 14 25  1  0  0  0
M  END
$$$$
