1k1y_ligand
  -I-interpret- 

 88 91  0  0  0  0  0  0  0  0999 V2000
   -2.3020   58.4640   91.4770 C   0  0  0  0  0
   -1.8660   59.5760   90.3780 C   0  0  0  0  0
   -0.8760   60.5950   91.0570 C   0  0  0  0  0
   -1.6140   61.3480   92.2200 C   0  0  0  0  0
   -2.4050   60.4240   93.1780 C   0  0  0  0  0
   -2.8700   60.9790   94.5230 C   0  0  0  0  0
   -2.7130   59.1290   92.8200 C   0  0  0  0  0
   -1.2660   58.9040   89.3080 O   0  0  0  0  0
   -0.4630   61.5620   90.1130 O   0  0  0  0  0
   -0.6090   62.2080   92.8250 O   0  0  0  0  0
   -3.9460   61.9000   94.2730 O   0  0  0  0  0
   -0.7920   53.2100   92.2520 C   0  0  0  0  0
   -1.0570   53.8110   90.8370 C   0  0  0  0  0
   -0.6710   55.3020   90.7580 C   0  0  0  0  0
   -1.4690   56.0850   91.8370 C   0  0  0  0  0
   -1.0590   55.4950   93.2600 C   0  0  0  0  0
   -1.7620   56.1580   94.4310 C   0  0  0  0  0
   -1.1460   57.5380   91.7470 N   0  3  0  0  0
   -0.3830   53.0070   89.8790 O   0  0  0  0  0
   -0.9700   55.7690   89.4390 O   0  0  0  0  0
   -1.3880   54.0240   93.2990 O   0  0  0  0  0
    3.2500   50.7820   94.9360 C   0  0  0  0  0
    3.0790   50.4450   93.4210 C   0  0  0  0  0
    2.4910   51.6670   92.6720 C   0  0  0  0  0
    1.1030   51.9910   93.3180 C   0  0  0  0  0
    1.3890   52.3810   94.8090 C   0  0  0  0  0
    0.0970   52.7070   95.5950 C   0  0  0  0  0
    4.3410   50.0470   92.9060 O   0  0  0  0  0
    2.3500   51.2870   91.3140 O   0  0  0  0  0
    0.4840   53.1440   92.7350 O   0  0  0  0  0
    2.0160   51.2480   95.5000 O   0  0  0  0  0
    0.3750   53.0740   96.9260 O   0  0  0  0  0
    7.3020   52.4550   98.0040 C   0  0  0  0  0
    7.0760   50.9960   97.4840 C   0  0  0  0  0
    6.3180   51.0190   96.1540 C   0  0  0  0  0
    4.9660   51.7240   96.3640 C   0  0  0  0  0
    5.2210   53.2140   96.8690 C   0  0  0  0  0
    3.9260   54.0020   97.1230 C   0  0  0  0  0
    8.1320   53.1600   97.1290 O   0  0  0  0  0
    8.3540   50.3510   97.3380 O   0  0  0  0  0
    6.1230   49.6580   95.7030 O   0  0  0  0  0
    4.2330   51.7500   95.1130 O   0  0  0  0  0
    6.0000   53.1740   98.1390 O   0  0  0  0  0
    3.1700   53.4700   98.2160 O   0  0  0  0  0
   -3.1527   57.9152   91.0731 H   0  0  0  0  0
   -2.7221   60.1385   90.0055 H   0  0  0  0  0
   -0.0165   60.0442   91.4389 H   0  0  0  0  0
   -2.4354   61.9609   91.8488 H   0  0  0  0  0
   -2.0475   61.4871   95.0264 H   0  0  0  0  0
   -3.2088   60.1689   95.1688 H   0  0  0  0  0
   -3.2848   58.5296   93.5284 H   0  0  0  0  0
   -1.8975   58.2936   88.9204 H   0  0  0  0  0
   -0.0074   61.1265   89.3889 H   0  0  0  0  0
   -0.1850   62.7325   92.1418 H   0  0  0  0  0
   -4.2554   62.2626   95.1063 H   0  0  0  0  0
   -1.1867   52.2111   92.0664 H   0  0  0  0  0
   -2.1251   53.7923   90.6203 H   0  0  0  0  0
    0.3915   55.4511   90.9504 H   0  0  0  0  0
   -2.5431   55.9759   91.6870 H   0  0  0  0  0
    0.0085   55.6870   93.3686 H   0  0  0  0  0
   -1.5223   57.2212   94.4424 H   0  0  0  0  0
   -2.8393   56.0282   94.3272 H   0  0  0  0  0
   -1.4274   55.6988   95.3612 H   0  0  0  0  0
   -0.7770   57.8036   92.6601 H   0  0  0  0  0
   -0.5108   57.6389   90.9553 H   0  0  0  0  0
   -0.5353   53.3627   89.0004 H   0  0  0  0  0
   -0.7364   56.6975   89.3689 H   0  0  0  0  0
    3.5489   49.8670   95.4474 H   0  0  0  0  0
    2.3770   49.6232   93.2802 H   0  0  0  0  0
    3.1233   52.5525   92.7365 H   0  0  0  0  0
    0.4524   51.1268   93.1838 H   0  0  0  0  0
    2.0308   53.2615   94.7790 H   0  0  0  0  0
   -0.5306   51.8159   95.6086 H   0  0  0  0  0
   -0.4009   53.5438   95.1051 H   0  0  0  0  0
    4.2528   49.8360   91.9737 H   0  0  0  0  0
    1.9865   52.0212   90.8135 H   0  0  0  0  0
   -0.4473   53.2685   97.3816 H   0  0  0  0  0
    7.7778   52.3941   98.9828 H   0  0  0  0  0
    6.4733   50.4365   98.1994 H   0  0  0  0  0
    6.8836   51.5622   95.3969 H   0  0  0  0  0
    4.3834   51.1831   97.1098 H   0  0  0  0  0
    5.7655   53.7236   96.0741 H   0  0  0  0  0
    3.3112   53.9394   96.2251 H   0  0  0  0  0
    4.1981   55.0285   97.3687 H   0  0  0  0  0
    8.2611   54.0516   97.4607 H   0  0  0  0  0
    8.2243   49.4548   97.0192 H   0  0  0  0  0
    5.6480   49.6635   94.8688 H   0  0  0  0  0
    2.3734   53.9920   98.3367 H   0  0  0  0  0
  1  2  1  0  0  0
  1  7  1  0  0  0
 18  1  1  0  0  0
  2  3  1  0  0  0
  2  8  1  0  0  0
  3  4  1  0  0  0
  3  9  1  0  0  0
  5  4  1  0  0  0
  4 10  1  0  0  0
  5  6  1  0  0  0
  7  5  2  0  0  0
  6 11  1  0  0  0
 12 13  1  0  0  0
 13 14  1  0  0  0
 14 15  1  0  0  0
 16 15  1  0  0  0
 15 18  1  0  0  0
 16 17  1  0  0  0
 21 16  1  0  0  0
 13 19  1  0  0  0
 14 20  1  0  0  0
 12 21  1  0  0  0
 22 23  1  0  0  0
 22 31  1  0  0  0
 42 22  1  0  0  0
 23 24  1  0  0  0
 23 28  1  0  0  0
 24 25  1  0  0  0
 24 29  1  0  0  0
 26 25  1  0  0  0
 25 30  1  0  0  0
 26 27  1  0  0  0
 31 26  1  0  0  0
 27 32  1  0  0  0
 30 12  1  0  0  0
 34 33  1  0  0  0
 33 39  1  0  0  0
 35 34  1  0  0  0
 34 40  1  0  0  0
 36 35  1  0  0  0
 35 41  1  0  0  0
 36 37  1  0  0  0
 42 36  1  0  0  0
 37 38  1  0  0  0
 37 43  1  0  0  0
 38 44  1  0  0  0
 43 33  1  0  0  0
  1 45  1  0  0  0
  2 46  1  0  0  0
  3 47  1  0  0  0
  4 48  1  0  0  0
  6 49  1  0  0  0
  6 50  1  0  0  0
  7 51  1  0  0  0
  8 52  1  0  0  0
  9 53  1  0  0  0
 10 54  1  0  0  0
 11 55  1  0  0  0
 12 56  1  0  0  0
 13 57  1  0  0  0
 14 58  1  0  0  0
 15 59  1  0  0  0
 16 60  1  0  0  0
 17 61  1  0  0  0
 17 62  1  0  0  0
 17 63  1  0  0  0
 18 64  1  0  0  0
 18 65  1  0  0  0
 19 66  1  0  0  0
 20 67  1  0  0  0
 22 68  1  0  0  0
 23 69  1  0  0  0
 24 70  1  0  0  0
 25 71  1  0  0  0
 26 72  1  0  0  0
 27 73  1  0  0  0
 27 74  1  0  0  0
 28 75  1  0  0  0
 29 76  1  0  0  0
 32 77  1  0  0  0
 33 78  1  0  0  0
 34 79  1  0  0  0
 35 80  1  0  0  0
 36 81  1  0  0  0
 37 82  1  0  0  0
 38 83  1  0  0  0
 38 84  1  0  0  0
 39 85  1  0  0  0
 40 86  1  0  0  0
 41 87  1  0  0  0
 44 88  1  0  0  0
M  END
$$$$
