4wov_ligand
  -I-interpret- 

 48 51  0  0  0  0  0  0  0  0999 V2000
   12.9600    3.0740   -0.2040 C   0  0  0  0  0
   13.6460    3.5970   -1.4440 C   0  0  0  0  0
   11.5880    2.0110    1.9180 C   0  0  0  0  0
   11.8680    3.3700    1.8970 C   0  0  0  0  0
   15.4300    2.6920   -2.8840 C   0  0  0  0  0
   16.8130    2.0890   -2.9440 C   0  0  0  0  0
   17.2460   -0.0240   -1.9230 C   0  0  0  0  0
   12.0710    1.2280    0.8830 C   0  0  0  0  0
   13.1450   -5.6110   -2.1470 C   0  0  0  0  0
    9.4090   -3.9350    2.1910 N   0  0  0  0  0
    9.2100   -5.2600    1.9680 C   0  0  0  0  0
    9.9880   -5.7860    1.0520 N   0  0  0  0  0
   10.7600   -4.7190    0.6200 C   0  0  0  0  0
   10.4150   -3.5580    1.3320 C   0  0  0  0  0
   11.0030   -2.3030    1.1130 C   0  0  0  0  0
   11.9560   -2.3280    0.0830 C   0  0  0  0  0
   12.4390   -1.0500   -0.0960 N   0  0  0  0  0
   11.8470   -0.2230    0.8430 C   0  0  0  0  0
   10.9600   -0.9540    1.5820 C   0  0  0  0  0
   12.7270    1.7420   -0.1700 N   0  0  0  0  0
   12.5600    3.9160    0.8260 C   0  0  0  0  0
   14.9530    2.9980   -1.6710 N   0  0  0  0  0
   14.8100    2.8780   -3.9300 O   0  0  0  0  0
   16.5790    0.6900   -2.9610 O   0  0  0  0  0
   12.3260   -3.4180   -0.6170 N   0  0  0  0  0
   11.7590   -4.6150   -0.3820 C   0  0  0  0  0
   12.1230   -5.6710   -1.1220 N   0  0  0  0  0
    8.7270   -3.0810    3.1590 C   0  0  0  0  0
   13.7919    4.6693   -1.3138 H   0  0  0  0  0
   13.0164    3.3506   -2.2990 H   0  0  0  0  0
   11.0040    1.5720    2.7269 H   0  0  0  0  0
   11.5448    4.0070    2.7203 H   0  0  0  0  0
   17.4326    2.3933   -2.1004 H   0  0  0  0  0
   17.3716    2.4244   -3.8178 H   0  0  0  0  0
   18.3220    0.1232   -2.0159 H   0  0  0  0  0
   16.9096    0.3466   -0.9547 H   0  0  0  0  0
   17.0146   -1.0858   -2.0075 H   0  0  0  0  0
   12.8531   -4.8865   -2.9073 H   0  0  0  0  0
   14.0907   -5.3074   -1.6980 H   0  0  0  0  0
   13.2574   -6.5941   -2.6042 H   0  0  0  0  0
    8.4623   -5.8409    2.5080 H   0  0  0  0  0
   10.3307   -0.5749    2.3872 H   0  0  0  0  0
   12.7849    4.9820    0.7933 H   0  0  0  0  0
   15.5388    2.8001   -0.8598 H   0  0  0  0  0
   11.6567   -6.5627   -0.9551 H   0  0  0  0  0
    7.6579   -3.0751    2.9466 H   0  0  0  0  0
    8.8968   -3.4661    4.1645 H   0  0  0  0  0
    9.1189   -2.0665    3.0861 H   0  0  0  0  0
  1  2  1  0  0  0
 20  1  4  0  0  0
  1 21  4  0  0  0
  2 22  1  0  0  0
  3  4  4  0  0  0
  8  3  4  0  0  0
  4 21  4  0  0  0
  5  6  1  0  0  0
 22  5  1  0  0  0
  5 23  2  0  0  0
  6 24  1  0  0  0
 24  7  1  0  0  0
 18  8  1  0  0  0
  8 20  4  0  0  0
 27  9  1  0  0  0
 10 11  4  0  0  0
 14 10  4  0  0  0
 10 28  1  0  0  0
 12 11  4  0  0  0
 13 12  4  0  0  0
 13 14  4  0  0  0
 26 13  4  0  0  0
 14 15  4  0  0  0
 16 15  4  0  0  0
 15 19  4  0  0  0
 16 17  4  0  0  0
 25 16  4  0  0  0
 17 18  4  0  0  0
 18 19  4  0  0  0
 26 25  4  0  0  0
 26 27  1  0  0  0
  2 29  1  0  0  0
  2 30  1  0  0  0
  3 31  1  0  0  0
  4 32  1  0  0  0
  6 33  1  0  0  0
  6 34  1  0  0  0
  7 35  1  0  0  0
  7 36  1  0  0  0
  7 37  1  0  0  0
  9 38  1  0  0  0
  9 39  1  0  0  0
  9 40  1  0  0  0
 11 41  1  0  0  0
 19 42  1  0  0  0
 21 43  1  0  0  0
 22 44  1  0  0  0
 27 45  1  0  0  0
 28 46  1  0  0  0
 28 47  1  0  0  0
 28 48  1  0  0  0
M  END
$$$$
