4trc_ligand
  -I-interpret- 

 14 15  0  0  0  0  0  0  0  0999 V2000
   41.6440   34.4080  -11.4140 N   0  0  0  0  0
   41.9310   33.6110  -12.5560 C   0  0  0  0  0
   42.8670   34.2360  -13.2660 N   0  0  0  0  0
   43.1800   35.3950  -12.6170 C   0  0  0  0  0
   44.0880   36.4190  -12.9150 C   0  0  0  0  0
   44.8730   36.3520  -14.0980 N   0  0  0  0  0
   44.2140   37.4840  -12.0840 N   0  0  0  0  0
   43.4570   37.5580  -10.9740 C   0  0  0  0  0
   42.5210   36.4960  -10.6480 N   0  0  0  0  0
   42.4000   35.4750  -11.4580 C   0  0  0  0  0
   41.4666   32.6570  -12.8057 H   0  0  0  0  0
   44.7753   35.5578  -14.7306 H   0  0  0  0  0
   45.5340   37.0981  -14.3144 H   0  0  0  0  0
   43.5468   38.4212  -10.3146 H   0  0  0  0  0
  1  2  4  0  0  0
  1 10  4  0  0  0
  2  3  4  0  0  0
  3  4  4  0  0  0
  4  5  4  0  0  0
  4 10  4  0  0  0
  5  6  1  0  0  0
  5  7  4  0  0  0
  7  8  4  0  0  0
  8  9  4  0  0  0
  9 10  4  0  0  0
  2 11  1  0  0  0
  6 12  1  0  0  0
  6 13  1  0  0  0
  8 14  1  0  0  0
M  END
$$$$
