1xs7_ligand
  -I-interpret- 

114115  0  0  0  0  0  0  0  0999 V2000
   51.1340   21.9440  105.9880 C   0  0  0  0  0
   52.4370   21.5240  105.2040 C   0  0  0  0  0
   52.4760   22.1680  103.7940 C   0  0  0  0  0
   52.6040   19.9750  105.0300 C   0  0  0  0  0
   50.9490   23.4400  106.1260 N   0  0  0  0  0
   51.6050   24.3760  106.9810 C   0  0  0  0  0
   51.2220   25.5500  106.8670 O   0  0  0  0  0
   52.6070   24.0220  107.9090 O   0  0  0  0  0
   53.8920   24.6710  107.8410 C   0  0  0  0  0
   51.0260   21.3160  107.4150 C   0  0  0  0  0
   51.9670   21.0430  108.1150 O   0  0  0  0  0
   49.7720   21.1330  107.8500 N   0  0  0  0  0
   49.3790   19.9010  108.5280 C   0  0  0  0  0
   48.9820   20.0990  110.0240 C   0  0  0  0  0
   50.1510   20.5130  110.9630 C   0  0  0  0  0
   49.9040   21.1390  111.9940 O   0  0  0  0  0
   51.4480   20.1180  110.6110 N   0  0  0  0  0
   48.1710   19.2970  107.7500 C   0  0  0  0  0
   47.1380   19.9670  107.5740 O   0  0  0  0  0
   54.6780   24.4640  109.1470 C   0  0  0  0  0
   54.7770   22.9740  109.5200 C   0  0  0  0  0
   53.6010   22.4770  110.3890 C   0  0  0  0  0
   53.7610   20.9810  110.7070 C   0  0  0  0  0
   52.6040   20.4500  111.5040 C   0  0  0  0  0
   48.3780   17.9820  107.2780 N   0  0  0  0  0
   47.3550   17.2190  106.4860 C   0  0  0  0  0
   46.6740   16.1670  107.4360 C   0  0  0  0  0
   47.5090   15.8990  108.5840 O   0  0  0  0  0
   47.9670   16.5480  105.2070 C   0  0  0  0  0
   48.6840   17.5140  104.1880 C   0  0  0  0  0
   47.7420   18.6130  103.6260 C   0  0  0  0  0
   49.2680   16.7410  102.9860 C   0  0  0  0  0
   45.2510   16.6630  107.8600 C   0  0  0  0  0
   44.6990   16.6760  109.3370 C   0  0  0  0  0
   45.5330   17.4860  110.3460 C   0  0  0  0  0
   43.2550   17.2490  109.2880 C   0  0  0  0  0
   43.0300   18.4640  109.3390 O   0  0  0  0  0
   42.2310   16.2660  109.1380 N   0  0  0  0  0
   40.7380   16.5220  109.0140 C   0  0  0  0  0
   39.9290   15.1880  108.7480 C   0  0  0  0  0
   40.2870   17.2560  110.3100 C   0  0  0  0  0
   40.7410   16.9340  111.4010 O   0  0  0  0  0
   40.3700   14.4800  107.4640 C   0  0  0  0  0
   38.4280   15.4120  108.6060 C   0  0  0  0  0
   39.3510   18.2790  110.0950 N   0  0  0  0  0
   38.7740   19.1170  111.1790 C   0  0  0  0  0
   38.2260   20.4530  110.6640 C   0  0  0  0  0
   36.8190   20.6780  110.4390 C   0  0  0  0  0
   36.3350   21.9450  109.9570 C   0  0  0  0  0
   37.2600   23.0130  109.6980 C   0  0  0  0  0
   38.6620   22.8060  109.9160 C   0  0  0  0  0
   39.1320   21.5440  110.3960 C   0  0  0  0  0
   50.3419   21.5443  105.3548 H   0  0  0  0  0
   53.2579   21.8864  105.8228 H   0  0  0  0  0
   53.4305   21.9415  103.3188 H   0  0  0  0  0
   51.6632   21.7655  103.1895 H   0  0  0  0  0
   52.3617   23.2481  103.8860 H   0  0  0  0  0
   51.7902   19.5898  104.4157 H   0  0  0  0  0
   53.5575   19.7659  104.5449 H   0  0  0  0  0
   52.5801   19.4961  106.0088 H   0  0  0  0  0
   50.2432   23.8434  105.5100 H   0  0  0  0  0
   53.7387   25.7393  107.6885 H   0  0  0  0  0
   54.4603   24.2402  107.0166 H   0  0  0  0  0
   49.0794   21.8676  107.7049 H   0  0  0  0  0
   50.2439   19.2376  108.5334 H   0  0  0  0  0
   48.6147   19.1375  110.3827 H   0  0  0  0  0
   48.2528   20.9087  110.0523 H   0  0  0  0  0
   51.6057   19.6032  109.7447 H   0  0  0  0  0
   54.1557   24.9854  109.9491 H   0  0  0  0  0
   55.6872   24.8511  109.0061 H   0  0  0  0  0
   55.6910   22.8412  110.0988 H   0  0  0  0  0
   54.7631   22.4024  108.5920 H   0  0  0  0  0
   52.6695   22.6253  109.8427 H   0  0  0  0  0
   53.5891   23.0383  111.3233 H   0  0  0  0  0
   54.6690   20.8524  111.2961 H   0  0  0  0  0
   53.8060   20.4346  109.7649 H   0  0  0  0  0
   52.9202   19.5434  112.0200 H   0  0  0  0  0
   52.2892   21.2128  112.2162 H   0  0  0  0  0
   49.2672   17.5275  107.4855 H   0  0  0  0  0
   46.6022   17.9135  106.1132 H   0  0  0  0  0
   46.5543   15.2284  106.8949 H   0  0  0  0  0
   47.0760   15.2557  109.1500 H   0  0  0  0  0
   47.1308   16.1034  104.6674 H   0  0  0  0  0
   48.7327   15.8585  105.5624 H   0  0  0  0  0
   49.4798   17.9865  104.7637 H   0  0  0  0  0
   46.9074   18.1431  103.1057 H   0  0  0  0  0
   47.3636   19.2206  104.4481 H   0  0  0  0  0
   48.2961   19.2441  102.9312 H   0  0  0  0  0
   49.9974   16.0139  103.3430 H   0  0  0  0  0
   48.4637   16.2238  102.4628 H   0  0  0  0  0
   49.7538   17.4414  102.3066 H   0  0  0  0  0
   44.5984   15.9372  107.3749 H   0  0  0  0  0
   45.2944   17.7252  107.6193 H   0  0  0  0  0
   44.7421   15.6489  109.6993 H   0  0  0  0  0
   46.5409   17.0739  110.3961 H   0  0  0  0  0
   45.5801   18.5264  110.0243 H   0  0  0  0  0
   45.0665   17.4292  111.3295 H   0  0  0  0  0
   42.5321   15.2918  109.1113 H   0  0  0  0  0
   40.5274   17.1487  108.1474 H   0  0  0  0  0
   40.1427   14.5806  109.6275 H   0  0  0  0  0
   40.2138   15.1430  106.6130 H   0  0  0  0  0
   41.4268   14.2231  107.5369 H   0  0  0  0  0
   39.7823   13.5717  107.3313 H   0  0  0  0  0
   38.0397   15.8551  109.5230 H   0  0  0  0  0
   38.2398   16.0836  107.7684 H   0  0  0  0  0
   37.9349   14.4569  108.4254 H   0  0  0  0  0
   39.0483   18.4585  109.1376 H   0  0  0  0  0
   39.5679   19.3336  111.8938 H   0  0  0  0  0
   37.9467   18.5650  111.6251 H   0  0  0  0  0
   36.1098   19.8744  110.6375 H   0  0  0  0  0
   35.2684   22.0938  109.7888 H   0  0  0  0  0
   36.8980   23.9759  109.3376 H   0  0  0  0  0
   39.3694   23.6107  109.7158 H   0  0  0  0  0
   40.1997   21.4025  110.5635 H   0  0  0  0  0
  1  2  1  0  0  0
  1  5  1  0  0  0
  1 10  1  0  0  0
  2  3  1  0  0  0
  2  4  1  0  0  0
  5  6  1  0  0  0
  6  7  2  0  0  0
  6  8  1  0  0  0
  8  9  1  0  0  0
  9 20  1  0  0  0
 10 11  2  0  0  0
 10 12  1  0  0  0
 12 13  1  0  0  0
 13 14  1  0  0  0
 13 18  1  0  0  0
 14 15  1  0  0  0
 15 16  2  0  0  0
 15 17  1  0  0  0
 17 24  1  0  0  0
 18 19  2  0  0  0
 18 25  1  0  0  0
 20 21  1  0  0  0
 21 22  1  0  0  0
 22 23  1  0  0  0
 23 24  1  0  0  0
 25 26  1  0  0  0
 26 27  1  0  0  0
 26 29  1  0  0  0
 27 28  1  0  0  0
 27 33  1  0  0  0
 29 30  1  0  0  0
 30 31  1  0  0  0
 30 32  1  0  0  0
 33 34  1  0  0  0
 34 35  1  0  0  0
 34 36  1  0  0  0
 36 37  2  0  0  0
 36 38  1  0  0  0
 38 39  1  0  0  0
 39 40  1  0  0  0
 39 41  1  0  0  0
 40 43  1  0  0  0
 40 44  1  0  0  0
 41 42  2  0  0  0
 41 45  1  0  0  0
 45 46  1  0  0  0
 46 47  1  0  0  0
 47 48  4  0  0  0
 47 52  4  0  0  0
 48 49  4  0  0  0
 49 50  4  0  0  0
 50 51  4  0  0  0
 51 52  4  0  0  0
  1 53  1  0  0  0
  2 54  1  0  0  0
  3 55  1  0  0  0
  3 56  1  0  0  0
  3 57  1  0  0  0
  4 58  1  0  0  0
  4 59  1  0  0  0
  4 60  1  0  0  0
  5 61  1  0  0  0
  9 62  1  0  0  0
  9 63  1  0  0  0
 12 64  1  0  0  0
 13 65  1  0  0  0
 14 66  1  0  0  0
 14 67  1  0  0  0
 17 68  1  0  0  0
 20 69  1  0  0  0
 20 70  1  0  0  0
 21 71  1  0  0  0
 21 72  1  0  0  0
 22 73  1  0  0  0
 22 74  1  0  0  0
 23 75  1  0  0  0
 23 76  1  0  0  0
 24 77  1  0  0  0
 24 78  1  0  0  0
 25 79  1  0  0  0
 26 80  1  0  0  0
 27 81  1  0  0  0
 28 82  1  0  0  0
 29 83  1  0  0  0
 29 84  1  0  0  0
 30 85  1  0  0  0
 31 86  1  0  0  0
 31 87  1  0  0  0
 31 88  1  0  0  0
 32 89  1  0  0  0
 32 90  1  0  0  0
 32 91  1  0  0  0
 33 92  1  0  0  0
 33 93  1  0  0  0
 34 94  1  0  0  0
 35 95  1  0  0  0
 35 96  1  0  0  0
 35 97  1  0  0  0
 38 98  1  0  0  0
 39 99  1  0  0  0
 40100  1  0  0  0
 43101  1  0  0  0
 43102  1  0  0  0
 43103  1  0  0  0
 44104  1  0  0  0
 44105  1  0  0  0
 44106  1  0  0  0
 45107  1  0  0  0
 46108  1  0  0  0
 46109  1  0  0  0
 48110  1  0  0  0
 49111  1  0  0  0
 50112  1  0  0  0
 51113  1  0  0  0
 52114  1  0  0  0
M  END
$$$$
