3ejp_ligand
  -I-interpret- 

 43 45  0  0  0  0  0  0  0  0999 V2000
   26.6650   64.9740    8.2370 O   0  0  0  0  0
   27.0590   65.9600    8.8340 C   0  0  0  0  0
   26.0720   66.7920    9.5970 C   0  0  0  0  0
   24.7310   66.3860    9.6100 C   0  0  0  0  0
   23.7820   67.1520   10.2960 C   0  0  0  0  0
   24.1800   68.3120   10.9560 C   0  0  0  0  0
   25.5150   68.7390   10.9300 C   0  0  0  0  0
   26.4770   67.9610   10.2510 C   0  0  0  0  0
   28.5080   66.4140    8.7470 C   0  0  0  0  0
   29.4370   65.3600    8.1190 C   0  0  0  0  0
   29.2540   65.2260    6.5980 C   0  0  0  0  0
   29.7610   66.4630    5.8420 C   0  0  0  0  0
   31.2370   66.7280    6.1220 C   0  0  0  0  0
   31.6270   67.9650    5.5350 O   0  0  0  0  0
   31.4430   66.8220    7.6290 C   0  0  0  0  0
   32.8910   66.8780    8.1160 C   0  0  0  0  0
   33.8100   66.0680    7.3210 O   0  0  0  0  0
   30.8950   65.6350    8.3190 N   0  3  0  0  0
   31.3510   65.8120    9.7250 C   0  0  0  0  0
   32.7910   66.3340    9.5530 C   0  0  0  0  0
   33.7650   65.2820    9.7520 O   0  0  0  0  0
   24.4286   65.4780    9.0883 H   0  0  0  0  0
   22.7370   66.8425   10.3137 H   0  0  0  0  0
   23.4408   68.8980   11.5022 H   0  0  0  0  0
   25.8072   69.6628   11.4293 H   0  0  0  0  0
   27.5230   68.2670   10.2362 H   0  0  0  0  0
   28.8576   66.5992    9.7627 H   0  0  0  0  0
   28.5388   67.3007    8.1138 H   0  0  0  0  0
   29.1441   64.4489    8.6407 H   0  0  0  0  0
   28.1892   65.1157    6.3928 H   0  0  0  0  0
   29.8293   64.3634    6.2617 H   0  0  0  0  0
   29.1872   67.3282    6.1742 H   0  0  0  0  0
   29.6400   66.2864    4.7732 H   0  0  0  0  0
   31.8341   65.9187    5.7017 H   0  0  0  0  0
   32.5563   68.1246    5.7154 H   0  0  0  0  0
   30.9420   67.7620    7.8601 H   0  0  0  0  0
   33.2995   67.8858    8.0410 H   0  0  0  0  0
   34.6971   66.1481    7.6791 H   0  0  0  0  0
   31.2443   64.7664    7.9141 H   0  0  0  0  0
   31.2997   64.8918   10.3070 H   0  0  0  0  0
   30.7178   66.4927   10.2941 H   0  0  0  0  0
   33.0036   67.1050   10.2936 H   0  0  0  0  0
   33.6957   64.9489   10.6497 H   0  0  0  0  0
  1  2  2  0  0  0
  2  3  1  0  0  0
  2  9  1  0  0  0
  3  4  4  0  0  0
  3  8  4  0  0  0
  4  5  4  0  0  0
  5  6  4  0  0  0
  6  7  4  0  0  0
  7  8  4  0  0  0
  9 10  1  0  0  0
 10 11  1  0  0  0
 10 18  1  0  0  0
 11 12  1  0  0  0
 12 13  1  0  0  0
 13 14  1  0  0  0
 13 15  1  0  0  0
 15 16  1  0  0  0
 15 18  1  0  0  0
 16 17  1  0  0  0
 16 20  1  0  0  0
 18 19  1  0  0  0
 19 20  1  0  0  0
 20 21  1  0  0  0
  4 22  1  0  0  0
  5 23  1  0  0  0
  6 24  1  0  0  0
  7 25  1  0  0  0
  8 26  1  0  0  0
  9 27  1  0  0  0
  9 28  1  0  0  0
 10 29  1  0  0  0
 11 30  1  0  0  0
 11 31  1  0  0  0
 12 32  1  0  0  0
 12 33  1  0  0  0
 13 34  1  0  0  0
 14 35  1  0  0  0
 15 36  1  0  0  0
 16 37  1  0  0  0
 17 38  1  0  0  0
 18 39  1  0  0  0
 19 40  1  0  0  0
 19 41  1  0  0  0
 20 42  1  0  0  0
 21 43  1  0  0  0
M  END
$$$$
