5v5n_ligand
  -I-interpret- 

 42 44  0  0  0  0  0  0  0  0999 V2000
  -10.0290  -49.6970  -15.0250 C   0  0  0  0  0
  -10.8550  -48.4850  -14.6050 C   0  0  0  0  0
  -10.2670  -47.4760  -13.8670 C   0  0  0  0  0
  -11.0060  -46.3560  -13.4710 C   0  0  0  0  0
  -12.3580  -46.2530  -13.8280 C   0  0  0  0  0
  -12.9490  -47.2640  -14.5640 C   0  0  0  0  0
  -14.4430  -47.1710  -14.9800 C   0  0  0  0  0
  -16.2970  -48.1640  -16.3590 C   0  0  0  0  0
  -18.4030  -47.5840  -16.7870 C   0  0  0  0  0
  -18.1680  -48.8160  -17.3720 C   0  0  0  0  0
  -19.2070  -49.4790  -18.0950 C   0  0  0  0  0
  -20.4550  -48.8820  -18.2080 C   0  0  0  0  0
  -20.6970  -47.6270  -17.6130 C   0  0  0  0  0
  -19.6790  -46.9750  -16.9040 C   0  0  0  0  0
  -16.1770  -50.3640  -17.5140 C   0  0  0  0  0
  -15.3550  -50.1010  -18.7300 C   0  0  0  0  0
  -14.5060  -51.2780  -19.1110 C   0  0  0  0  0
  -12.2060  -48.3810  -14.9620 C   0  0  0  0  0
  -10.5560  -50.6450  -15.9650 N   0  0  0  0  0
  -14.9390  -48.1700  -15.9000 N   0  0  0  0  0
  -17.2100  -47.1940  -16.1590 N   0  0  0  0  0
  -16.8570  -49.1520  -17.0960 N   0  0  0  0  0
  -15.1630  -46.2880  -14.5540 O   0  0  0  0  0
   -8.9230  -49.8620  -14.5620 O   0  0  0  0  0
   -9.2156  -47.5533  -13.5901 H   0  0  0  0  0
  -10.5326  -45.5666  -12.8872 H   0  0  0  0  0
  -12.9397  -45.3816  -13.5274 H   0  0  0  0  0
  -19.0204  -50.4491  -18.5557 H   0  0  0  0  0
  -21.2502  -49.3849  -18.7583 H   0  0  0  0  0
  -21.6788  -47.1624  -17.7047 H   0  0  0  0  0
  -19.8667  -46.0045  -16.4446 H   0  0  0  0  0
  -15.5246  -50.7025  -16.7090 H   0  0  0  0  0
  -16.9195  -51.1281  -17.7440 H   0  0  0  0  0
  -14.6926  -49.2625  -18.5148 H   0  0  0  0  0
  -16.0333  -49.8922  -19.5573 H   0  0  0  0  0
  -13.8288  -51.5165  -18.2909 H   0  0  0  0  0
  -15.1469  -52.1356  -19.3158 H   0  0  0  0  0
  -13.9277  -51.0339  -20.0021 H   0  0  0  0  0
  -12.6776  -49.1692  -15.5490 H   0  0  0  0  0
   -9.9989  -51.4538  -16.2403 H   0  0  0  0  0
  -11.4876  -50.5099  -16.3577 H   0  0  0  0  0
  -14.3061  -48.8981  -16.2311 H   0  0  0  0  0
  2  1  1  0  0  0
  1 19  1  0  0  0
  1 24  2  0  0  0
  2  3  4  0  0  0
 18  2  4  0  0  0
  4  3  4  0  0  0
  5  4  4  0  0  0
  6  5  4  0  0  0
  7  6  1  0  0  0
  6 18  4  0  0  0
 20  7  1  0  0  0
  7 23  2  0  0  0
  8 20  1  0  0  0
  8 21  4  0  0  0
 22  8  4  0  0  0
 10  9  4  0  0  0
  9 14  4  0  0  0
  9 21  4  0  0  0
 10 11  4  0  0  0
 22 10  4  0  0  0
 11 12  4  0  0  0
 12 13  4  0  0  0
 14 13  4  0  0  0
 15 16  1  0  0  0
 15 22  1  0  0  0
 16 17  1  0  0  0
  3 25  1  0  0  0
  4 26  1  0  0  0
  5 27  1  0  0  0
 11 28  1  0  0  0
 12 29  1  0  0  0
 13 30  1  0  0  0
 14 31  1  0  0  0
 15 32  1  0  0  0
 15 33  1  0  0  0
 16 34  1  0  0  0
 16 35  1  0  0  0
 17 36  1  0  0  0
 17 37  1  0  0  0
 17 38  1  0  0  0
 18 39  1  0  0  0
 19 40  1  0  0  0
 19 41  1  0  0  0
 20 42  1  0  0  0
M  END
$$$$
