### 
### Created by X-TOOL on Mon Sep 10 21:12:54 2018
### 

@<TRIPOS>MOLECULE
1ym2_ligand
  108   108     1     0     0
SMALL
GAST_HUCK


@<TRIPOS>ATOM
      1 S1         23.3810    4.6810   15.7700 S.3       1 MET        -0.1639
      2 C2         24.9600    4.9150   16.6860 C.3       1 MET        -0.0024
      3 C5         25.9910    5.6220   15.7640 C.3       1 MET        -0.0034
      4 C8         27.4150    5.7000   16.4220 C.3       1 MET         0.1316
      5 N10        27.4780    6.7790   17.4180 N.am      1 MET        -0.2637
      6 C12        27.1310    6.5280   18.7030 C.2       1 LEU         0.2039
      7 O13        26.7800    5.4270   19.1080 O.2       1 LEU        -0.3944
      8 C14        27.1790    7.6970   19.6760 C.3       1 LEU         0.1311
      9 N16        26.1790    7.5510   20.7080 N.am      1 LEU        -0.2658
     10 C18        24.8680    7.5610   20.3920 C.2       1 ACE         0.1751
     11 O19        24.4390    7.6980   19.2550 O.2       1 ACE        -0.3972
     12 C20        23.9100    7.3900   21.5400 C.3       1 ACE         0.0258
     13 C24        28.5190    7.8050   20.4420 C.3       1 LEU        -0.0101
     14 C27        29.6410    8.4160   19.5930 C.3       1 LEU        -0.0425
     15 C29        30.8310    8.5620   20.5910 C.3       1 LEU        -0.0625
     16 C33        29.2140    9.8830   19.3130 C.3       1 LEU        -0.0625
     17 C37        28.4670    6.0320   15.3950 C.2       1 MET         0.2020
     18 O38        28.1550    6.4810   14.2980 O.2       1 MET        -0.3945
     19 N39        29.7390    5.7980   15.7800 N.am      1 24O        -0.2795
     20 C41        30.8370    6.1230   14.8720 C.3       1 24O         0.0687
     21 C43        31.5010    4.8840   14.2640 C.3       1 24O         0.0854
     22 O45        32.0670    4.0320   15.3030 O.3       1 24O        -0.3889
     23 C47        30.5200    4.0810   13.3830 C.3       1 24O         0.0248
     24 C49        31.3840    3.2000   12.4470 C.3       1 24O         0.0717
     25 C51        30.5870    1.8890   12.2590 C.3       1 24O         0.0412
     26 C54        29.5210    1.9490   13.3300 C.2       1 24O         0.1080
     27 C55        29.5830    3.1620   14.2030 C.3       1 24O         0.0290
     28 O58        28.6740    1.0780   13.4670 O.2       1 24O        -0.3914
     29 C59        31.4580    3.8830   11.0780 C.2       1 24O         0.1841
     30 O60        30.5380    4.6030   10.7350 O.2       1 24O        -0.3964
     31 N61        32.5290    3.6720   10.3140 N.am      1 VAL        -0.2650
     32 C63        32.5760    4.2890    9.0380 C.3       1 VAL         0.1330
     33 C65        34.0340    4.2140    8.4340 C.3       1 VAL        -0.0063
     34 C67        33.9960    5.0520    7.1090 C.3       1 VAL        -0.0584
     35 C71        34.5460    2.7390    8.2180 C.3       1 VAL        -0.0584
     36 C75        31.5210    3.6820    8.1300 C.2       1 VAL         0.2019
     37 O76        31.2080    2.5080    8.2890 O.2       1 VAL        -0.3945
     38 N77        30.9800    4.4940    7.1950 N.am      1 LYT        -0.2850
     39 C79        29.9500    3.9520    6.3190 C.3       1 LYT         0.0309
     40 C82        28.5190    4.2160    6.8630 C.3       1 LYT        -0.0330
     41 C85        27.9710    5.5210    6.2560 C.3       1 LYT        -0.0541
     42 C88        26.5400    5.7640    6.7730 C.3       1 LYT        -0.0652
     43 C92        31.8860    6.9520   15.6390 C.3       1 24O        -0.0251
     44 C95        31.2720    8.3250   16.0210 C.3       1 24O        -0.0446
     45 C97        32.2650    9.0920   16.9130 C.3       1 24O        -0.0626
     46 C98        31.0390    9.1470   14.7310 C.3       1 24O        -0.0626
     47 C99        22.7190    6.3320   16.0460 C.3       1 MET        -0.0181
     48 H1         25.3543    3.9354   16.9941 H         1 MET         0.0378
     49 H2         24.7792    5.5342   17.5770 H         1 MET         0.0378
     50 H3         25.6396    6.6435   15.5565 H         1 MET         0.0320
     51 H4         26.0663    5.0614   14.8206 H         1 MET         0.0320
     52 H5         27.6432    4.7345   16.8971 H         1 MET         0.0800
     53 H6         27.7758    7.6947   17.1481 H         1 MET         0.1883
     54 H7         27.0037    8.6240   19.1104 H         1 LEU         0.0800
     55 H8         26.4602    7.4420   21.6614 H         1 LEU         0.1882
     56 H9         22.8771    7.4145   21.1624 H         1 ACE         0.0467
     57 H10        24.0553    8.2057   22.2635 H         1 ACE         0.0467
     58 H11        24.0972    6.4248   22.0332 H         1 ACE         0.0467
     59 H12        28.8260    6.7968   20.7572 H         1 LEU         0.0315
     60 H13        28.3665    8.4363   21.3298 H         1 LEU         0.0315
     61 H14        29.8776    7.8396   18.6865 H         1 LEU         0.0298
     62 H15        31.6957    8.9979   20.0692 H         1 LEU         0.0232
     63 H16        31.1020    7.5718   20.9859 H         1 LEU         0.0232
     64 H17        30.5345    9.2194   21.4216 H         1 LEU         0.0232
     65 H18        28.3684    9.8908   18.6095 H         1 LEU         0.0232
     66 H19        30.0597   10.4340   18.8758 H         1 LEU         0.0232
     67 H20        28.9114   10.3631   20.2553 H         1 LEU         0.0232
     68 H21        29.9288    5.4052   16.6798 H         1 24O         0.1855
     69 H22        30.4341    6.7318   14.0492 H         1 24O         0.0582
     70 H23        32.3250    5.2280   13.6215 H         1 24O         0.0622
     71 H24        32.7201    4.5202   15.7903 H         1 24O         0.2099
     72 H25        29.9081    4.7778   12.7913 H         1 24O         0.0380
     73 H26        32.3860    3.0195   12.8634 H         1 24O         0.0569
     74 H27        31.2365    1.0130   12.4031 H         1 24O         0.0522
     75 H28        30.1329    1.8481   11.2579 H         1 24O         0.0522
     76 H29        28.5890    3.6147   14.3338 H         1 24O         0.0499
     77 H30        30.0115    2.9269   15.1884 H         1 24O         0.0499
     78 H31        33.2802    3.0936   10.6321 H         1 VAL         0.1883
     79 H32        32.3288    5.3532    9.1663 H         1 VAL         0.0802
     80 H33        34.7286    4.6989    9.1358 H         1 VAL         0.0343
     81 H34        34.9898    5.0380    6.6377 H         1 VAL         0.0234
     82 H35        33.7141    6.0900    7.3395 H         1 VAL         0.0234
     83 H36        33.2575    4.6158    6.4203 H         1 VAL         0.0234
     84 H37        34.5488    2.2072    9.1809 H         1 VAL         0.0234
     85 H38        35.5667    2.7614    7.8086 H         1 VAL         0.0234
     86 H39        33.8798    2.2190    7.5139 H         1 VAL         0.0234
     87 H40        31.2795    5.4440    7.1066 H         1 LYT         0.1851
     88 H41        30.0990    2.8661    6.2264 H         1 LYT         0.0520
     89 H42        30.0445    4.4209    5.3285 H         1 LYT         0.0520
     90 H43        28.5545    4.3080    7.9586 H         1 LYT         0.0285
     91 H44        27.8614    3.3787    6.5864 H         1 LYT         0.0285
     92 H45        27.9558    5.4377    5.1593 H         1 LYT         0.0263
     93 H46        28.6156    6.3621    6.5510 H         1 LYT         0.0263
     94 H47        26.1471    6.6959    6.3403 H         1 LYT         0.0230
     95 H48        26.5555    5.8470    7.8697 H         1 LYT         0.0230
     96 H49        25.8957    4.9227    6.4780 H         1 LYT         0.0230
     97 H50        32.7688    7.1084   15.0018 H         1 24O         0.0291
     98 H51        32.1832    6.4152   16.5520 H         1 24O         0.0291
     99 H52        30.3209    8.1772   16.5535 H         1 24O         0.0296
    100 H53        31.8346   10.0665   17.1869 H         1 24O         0.0232
    101 H54        33.2058    9.2478   16.3647 H         1 24O         0.0232
    102 H55        32.4641    8.5098   17.8248 H         1 24O         0.0232
    103 H56        30.3308    8.6141   14.0796 H         1 24O         0.0232
    104 H57        31.9948    9.2792   14.2028 H         1 24O         0.0232
    105 H58        30.6258   10.1320   14.9935 H         1 24O         0.0232
    106 H59        21.7347    6.4179   15.5625 H         1 MET         0.0340
    107 H60        23.4043    7.0782   15.6176 H         1 MET         0.0340
    108 H61        22.6133    6.5088   17.1265 H         1 MET         0.0340
@<TRIPOS>BOND
     1    1    2 1  
     2    1   47 1  
     3    2    3 1  
     4    3    4 1  
     5    4    5 1  
     6    4   17 1  
     7    5    6 am 
     8    6    7 2  
     9    6    8 1  
    10    8    9 1  
    11    8   13 1  
    12    9   10 am 
    13   10   11 2  
    14   10   12 1  
    15   13   14 1  
    16   14   15 1  
    17   14   16 1  
    18   17   18 2  
    19   17   19 am 
    20   19   20 1  
    21   20   21 1  
    22   20   43 1  
    23   21   22 1  
    24   21   23 1  
    25   23   24 1  
    26   23   27 1  
    27   24   25 1  
    28   24   29 1  
    29   25   26 1  
    30   26   27 1  
    31   26   28 2  
    32   29   30 2  
    33   29   31 am 
    34   31   32 1  
    35   32   33 1  
    36   32   36 1  
    37   33   34 1  
    38   33   35 1  
    39   36   37 2  
    40   36   38 am 
    41   38   39 1  
    42   39   40 1  
    43   40   41 1  
    44   41   42 1  
    45   43   44 1  
    46   44   45 1  
    47   44   46 1  
    48    2   48 1  
    49    2   49 1  
    50    3   50 1  
    51    3   51 1  
    52    4   52 1  
    53    5   53 1  
    54    8   54 1  
    55    9   55 1  
    56   12   56 1  
    57   12   57 1  
    58   12   58 1  
    59   13   59 1  
    60   13   60 1  
    61   14   61 1  
    62   15   62 1  
    63   15   63 1  
    64   15   64 1  
    65   16   65 1  
    66   16   66 1  
    67   16   67 1  
    68   19   68 1  
    69   20   69 1  
    70   21   70 1  
    71   22   71 1  
    72   23   72 1  
    73   24   73 1  
    74   25   74 1  
    75   25   75 1  
    76   27   76 1  
    77   27   77 1  
    78   31   78 1  
    79   32   79 1  
    80   33   80 1  
    81   34   81 1  
    82   34   82 1  
    83   34   83 1  
    84   35   84 1  
    85   35   85 1  
    86   35   86 1  
    87   38   87 1  
    88   39   88 1  
    89   39   89 1  
    90   40   90 1  
    91   40   91 1  
    92   41   92 1  
    93   41   93 1  
    94   42   94 1  
    95   42   95 1  
    96   42   96 1  
    97   43   97 1  
    98   43   98 1  
    99   44   99 1  
   100   45  100 1  
   101   45  101 1  
   102   45  102 1  
   103   46  103 1  
   104   46  104 1  
   105   46  105 1  
   106   47  106 1  
   107   47  107 1  
   108   47  108 1  
@<TRIPOS>SUBSTRUCTURE
     1 MET         1

