1ym2_ligand
  -I-interpret- 

108108  0  0  0  0  0  0  0  0999 V2000
   23.3810    4.6810   15.7700 S   0  0  0  0  0
   24.9600    4.9150   16.6860 C   0  0  0  0  0
   25.9910    5.6220   15.7640 C   0  0  0  0  0
   27.4150    5.7000   16.4220 C   0  0  0  0  0
   27.4780    6.7790   17.4180 N   0  0  0  0  0
   27.1310    6.5280   18.7030 C   0  0  0  0  0
   26.7800    5.4270   19.1080 O   0  0  0  0  0
   27.1790    7.6970   19.6760 C   0  0  0  0  0
   26.1790    7.5510   20.7080 N   0  0  0  0  0
   24.8680    7.5610   20.3920 C   0  0  0  0  0
   24.4390    7.6980   19.2550 O   0  0  0  0  0
   23.9100    7.3900   21.5400 C   0  0  0  0  0
   28.5190    7.8050   20.4420 C   0  0  0  0  0
   29.6410    8.4160   19.5930 C   0  0  0  0  0
   30.8310    8.5620   20.5910 C   0  0  0  0  0
   29.2140    9.8830   19.3130 C   0  0  0  0  0
   28.4670    6.0320   15.3950 C   0  0  0  0  0
   28.1550    6.4810   14.2980 O   0  0  0  0  0
   29.7390    5.7980   15.7800 N   0  0  0  0  0
   30.8370    6.1230   14.8720 C   0  0  0  0  0
   31.5010    4.8840   14.2640 C   0  0  0  0  0
   32.0670    4.0320   15.3030 O   0  0  0  0  0
   30.5200    4.0810   13.3830 C   0  0  0  0  0
   31.3840    3.2000   12.4470 C   0  0  0  0  0
   30.5870    1.8890   12.2590 C   0  0  0  0  0
   29.5210    1.9490   13.3300 C   0  0  0  0  0
   29.5830    3.1620   14.2030 C   0  0  0  0  0
   28.6740    1.0780   13.4670 O   0  0  0  0  0
   31.4580    3.8830   11.0780 C   0  0  0  0  0
   30.5380    4.6030   10.7350 O   0  0  0  0  0
   32.5290    3.6720   10.3140 N   0  0  0  0  0
   32.5760    4.2890    9.0380 C   0  0  0  0  0
   34.0340    4.2140    8.4340 C   0  0  0  0  0
   33.9960    5.0520    7.1090 C   0  0  0  0  0
   34.5460    2.7390    8.2180 C   0  0  0  0  0
   31.5210    3.6820    8.1300 C   0  0  0  0  0
   31.2080    2.5080    8.2890 O   0  0  0  0  0
   30.9800    4.4940    7.1950 N   0  0  0  0  0
   29.9500    3.9520    6.3190 C   0  0  0  0  0
   28.5190    4.2160    6.8630 C   0  0  0  0  0
   27.9710    5.5210    6.2560 C   0  0  0  0  0
   26.5400    5.7640    6.7730 C   0  0  0  0  0
   31.8860    6.9520   15.6390 C   0  0  0  0  0
   31.2720    8.3250   16.0210 C   0  0  0  0  0
   32.2650    9.0920   16.9130 C   0  0  0  0  0
   31.0390    9.1470   14.7310 C   0  0  0  0  0
   22.7190    6.3320   16.0460 C   0  0  0  0  0
   25.3506    3.9445   16.9921 H   0  0  0  0  0
   24.7811    5.5279   17.5694 H   0  0  0  0  0
   25.6438    6.6392   15.5826 H   0  0  0  0  0
   26.0734    5.0468   14.8418 H   0  0  0  0  0
   27.5935    4.7258   16.8771 H   0  0  0  0  0
   27.7818    7.7130   17.1427 H   0  0  0  0  0
   27.0228    8.5753   19.0497 H   0  0  0  0  0
   26.4658    7.4398   21.6805 H   0  0  0  0  0
   23.2625    8.2645   21.6046 H   0  0  0  0  0
   23.3040    6.4989   21.3762 H   0  0  0  0  0
   24.4721    7.2832   22.4678 H   0  0  0  0  0
   28.8246    6.7974   20.7241 H   0  0  0  0  0
   28.3602    8.4545   21.3028 H   0  0  0  0  0
   29.8581    7.8457   18.6898 H   0  0  0  0  0
   30.5359    9.2135   21.4135 H   0  0  0  0  0
   31.0985    7.5802   20.9816 H   0  0  0  0  0
   31.6872    8.9939   20.0728 H   0  0  0  0  0
   28.2654    9.8878   18.7761 H   0  0  0  0  0
   29.1006   10.4138   20.2583 H   0  0  0  0  0
   29.9774   10.3733   18.7089 H   0  0  0  0  0
   29.9326    5.3973   16.6978 H   0  0  0  0  0
   30.4194    6.6912   14.0408 H   0  0  0  0  0
   32.3100    5.2352   13.6235 H   0  0  0  0  0
   32.4764    3.2641   14.8977 H   0  0  0  0  0
   29.8807    4.7798   12.8434 H   0  0  0  0  0
   32.3844    3.0374   12.8481 H   0  0  0  0  0
   31.2182    1.0055   12.3547 H   0  0  0  0  0
   30.1621    1.8047   11.2588 H   0  0  0  0  0
   28.6077    3.6032   14.4086 H   0  0  0  0  0
   29.9435    2.9574   15.2111 H   0  0  0  0  0
   33.2952    3.0820   10.6385 H   0  0  0  0  0
   32.3418    5.3491    9.1347 H   0  0  0  0  0
   34.7603    4.6272    9.1339 H   0  0  0  0  0
   33.2639    4.6188    6.4275 H   0  0  0  0  0
   33.7166    6.0802    7.3388 H   0  0  0  0  0
   34.9813    5.0374    6.6430 H   0  0  0  0  0
   34.5597    2.2168    9.1746 H   0  0  0  0  0
   33.8783    2.2212    7.5294 H   0  0  0  0  0
   35.5528    2.7626    7.8011 H   0  0  0  0  0
   31.2855    5.4630    7.1048 H   0  0  0  0  0
   30.0941    2.8736    6.2526 H   0  0  0  0  0
   30.0392    4.4396    5.3482 H   0  0  0  0  0
   28.5543    4.3073    7.9486 H   0  0  0  0  0
   27.8675    3.3863    6.5887 H   0  0  0  0  0
   27.9565    5.4391    5.1692 H   0  0  0  0  0
   28.6099    6.3546    6.5475 H   0  0  0  0  0
   25.9027    4.9297    6.4801 H   0  0  0  0  0
   26.5567    5.8460    7.8598 H   0  0  0  0  0
   26.1518    6.6876    6.3436 H   0  0  0  0  0
   32.7622    7.1058   15.0092 H   0  0  0  0  0
   32.1828    6.4200   16.5429 H   0  0  0  0  0
   30.3313    8.1721   16.5499 H   0  0  0  0  0
   32.4615    8.5141   17.8161 H   0  0  0  0  0
   33.1967    9.2456   16.3686 H   0  0  0  0  0
   31.8374   10.0574   17.1837 H   0  0  0  0  0
   31.9904    9.2976   14.2208 H   0  0  0  0  0
   30.3555    8.6068   14.0759 H   0  0  0  0  0
   30.6075   10.1137   14.9907 H   0  0  0  0  0
   22.6148    6.5059   17.1170 H   0  0  0  0  0
   23.3989    7.0704   15.6211 H   0  0  0  0  0
   21.7438    6.4159   15.5664 H   0  0  0  0  0
  1  2  1  0  0  0
  1 47  1  0  0  0
  2  3  1  0  0  0
  3  4  1  0  0  0
  4  5  1  0  0  0
  4 17  1  0  0  0
  5  6  1  0  0  0
  6  7  2  0  0  0
  6  8  1  0  0  0
  8  9  1  0  0  0
  8 13  1  0  0  0
  9 10  1  0  0  0
 10 11  2  0  0  0
 10 12  1  0  0  0
 13 14  1  0  0  0
 14 15  1  0  0  0
 14 16  1  0  0  0
 17 18  2  0  0  0
 17 19  1  0  0  0
 19 20  1  0  0  0
 20 21  1  0  0  0
 20 43  1  0  0  0
 21 22  1  0  0  0
 21 23  1  0  0  0
 23 24  1  0  0  0
 23 27  1  0  0  0
 24 25  1  0  0  0
 24 29  1  0  0  0
 25 26  1  0  0  0
 26 27  1  0  0  0
 26 28  2  0  0  0
 29 30  2  0  0  0
 29 31  1  0  0  0
 31 32  1  0  0  0
 32 33  1  0  0  0
 32 36  1  0  0  0
 33 34  1  0  0  0
 33 35  1  0  0  0
 36 37  2  0  0  0
 36 38  1  0  0  0
 38 39  1  0  0  0
 39 40  1  0  0  0
 40 41  1  0  0  0
 41 42  1  0  0  0
 43 44  1  0  0  0
 44 45  1  0  0  0
 44 46  1  0  0  0
  2 48  1  0  0  0
  2 49  1  0  0  0
  3 50  1  0  0  0
  3 51  1  0  0  0
  4 52  1  0  0  0
  5 53  1  0  0  0
  8 54  1  0  0  0
  9 55  1  0  0  0
 12 56  1  0  0  0
 12 57  1  0  0  0
 12 58  1  0  0  0
 13 59  1  0  0  0
 13 60  1  0  0  0
 14 61  1  0  0  0
 15 62  1  0  0  0
 15 63  1  0  0  0
 15 64  1  0  0  0
 16 65  1  0  0  0
 16 66  1  0  0  0
 16 67  1  0  0  0
 19 68  1  0  0  0
 20 69  1  0  0  0
 21 70  1  0  0  0
 22 71  1  0  0  0
 23 72  1  0  0  0
 24 73  1  0  0  0
 25 74  1  0  0  0
 25 75  1  0  0  0
 27 76  1  0  0  0
 27 77  1  0  0  0
 31 78  1  0  0  0
 32 79  1  0  0  0
 33 80  1  0  0  0
 34 81  1  0  0  0
 34 82  1  0  0  0
 34 83  1  0  0  0
 35 84  1  0  0  0
 35 85  1  0  0  0
 35 86  1  0  0  0
 38 87  1  0  0  0
 39 88  1  0  0  0
 39 89  1  0  0  0
 40 90  1  0  0  0
 40 91  1  0  0  0
 41 92  1  0  0  0
 41 93  1  0  0  0
 42 94  1  0  0  0
 42 95  1  0  0  0
 42 96  1  0  0  0
 43 97  1  0  0  0
 43 98  1  0  0  0
 44 99  1  0  0  0
 45100  1  0  0  0
 45101  1  0  0  0
 45102  1  0  0  0
 46103  1  0  0  0
 46104  1  0  0  0
 46105  1  0  0  0
 47106  1  0  0  0
 47107  1  0  0  0
 47108  1  0  0  0
M  END
$$$$
