5mka_ligand
  -I-interpret- 

168176  0  0  0  0  0  0  0  0999 V2000
  -15.4440   17.7600    3.0890 C   0  0  0  0  0
  -10.2230   18.7830    2.7640 C   0  0  0  0  0
   -6.2160   15.7100    1.2400 C   0  0  0  0  0
   -6.4510   12.8610   -3.2180 C   0  0  0  0  0
  -10.0570   12.2590   -6.9750 C   0  0  0  0  0
  -15.3540   12.5890   -7.3630 C   0  0  0  0  0
  -19.3670   13.1430   -3.9390 C   0  0  0  0  0
  -19.2120   14.9300    1.0230 C   0  0  0  0  0
  -16.0320   16.7460    4.0280 C   0  0  0  0  0
  -15.0210   16.2260    4.8090 O   0  0  0  0  0
  -10.9100   18.6610    4.1210 C   0  0  0  0  0
  -10.0670   18.0320    5.0680 O   0  0  0  0  0
   -6.6550   15.5800    2.6800 C   0  0  0  0  0
   -6.2870   14.2890    3.1630 O   0  0  0  0  0
   -6.1010   12.0000   -1.9810 C   0  0  0  0  0
   -6.6140   10.6870   -2.1030 O   0  0  0  0  0
   -9.3090   11.1090   -6.3630 C   0  0  0  0  0
  -10.0900    9.9220   -6.4870 O   0  0  0  0  0
  -14.6220   11.3390   -7.8090 C   0  0  0  0  0
  -15.4280   10.2110   -7.5280 O   0  0  0  0  0
  -19.2900   11.8710   -4.8010 C   0  0  0  0  0
  -19.9390   10.7820   -4.1500 O   0  0  0  0  0
  -19.3140   13.4180    0.9970 C   0  0  0  0  0
  -18.5360   12.9000    2.0630 O   0  0  0  0  0
  -16.5430   15.6680    3.0130 C   0  0  0  0  0
  -17.2300   14.6400    3.6840 O   0  0  0  0  0
  -12.2010   17.8470    3.9640 C   0  0  0  0  0
  -12.8660   17.7780    5.2140 O   0  0  0  0  0
   -8.1380   15.9360    2.8480 C   0  0  0  0  0
   -8.5360   15.8290    4.2360 O   0  0  0  0  0
   -6.6350   12.7160   -0.7340 C   0  0  0  0  0
   -6.1360   11.9560    0.3930 O   0  0  0  0  0
   -8.9210   11.3730   -4.9170 C   0  0  0  0  0
   -8.2010   10.2660   -4.3590 O   0  0  0  0  0
  -13.2770   11.2090   -7.0930 C   0  0  0  0  0
  -12.5400   10.1560   -7.7210 O   0  0  0  0  0
  -17.8540   11.5230   -5.1530 C   0  0  0  0  0
  -17.8740   10.4280   -6.0830 O   0  0  0  0  0
  -18.8250   12.8410   -0.3330 C   0  0  0  0  0
  -19.0690   11.4310   -0.3500 O   0  0  0  0  0
  -17.4130   16.3200    1.9940 C   0  0  0  0  0
  -17.8040   15.2820    1.0150 O   0  0  0  0  0
  -13.0710   18.4530    2.9050 C   0  0  0  0  0
  -14.1420   17.5210    2.6390 O   0  0  0  0  0
   -8.3720   17.2810    2.2920 C   0  0  0  0  0
   -9.8300   17.4980    2.3100 O   0  0  0  0  0
   -6.1920   14.1470   -0.6740 C   0  0  0  0  0
   -6.9440   14.7640    0.4470 O   0  0  0  0  0
   -8.1380   12.6560   -4.8740 C   0  0  0  0  0
   -7.8360   12.8900   -3.4840 O   0  0  0  0  0
  -12.4950   12.5030   -7.1940 C   0  0  0  0  0
  -11.3530   12.3580   -6.3190 O   0  0  0  0  0
  -17.1940   12.7350   -5.7600 C   0  0  0  0  0
  -15.8050   12.3850   -5.9980 O   0  0  0  0  0
  -19.4770   13.5270   -1.5380 C   0  0  0  0  0
  -18.7810   12.9420   -2.6680 O   0  0  0  0  0
  -16.2930   18.4420    2.2760 O   0  0  0  0  0
  -12.3070   18.5700    1.5990 C   0  0  0  0  0
  -11.1090   19.3320    1.7950 O   0  0  0  0  0
   -7.9060   17.3820    0.8730 C   0  0  0  0  0
   -6.5200   17.0600    0.7840 O   0  0  0  0  0
   -6.5280   14.8850   -1.9470 C   0  0  0  0  0
   -5.9420   14.2070   -3.0570 O   0  0  0  0  0
   -9.0070   13.7940   -5.4510 C   0  0  0  0  0
   -9.3510   13.4730   -6.8000 O   0  0  0  0  0
  -13.3180   13.6780   -6.7280 C   0  0  0  0  0
  -14.5280   13.7400   -7.4640 O   0  0  0  0  0
  -17.2910   13.9080   -4.8070 C   0  0  0  0  0
  -18.6810   14.1910   -4.6020 O   0  0  0  0  0
  -19.2980   15.0470   -1.4230 C   0  0  0  0  0
  -19.7880   15.4890   -0.1330 O   0  0  0  0  0
  -16.7400   17.4760    1.2940 C   0  0  0  0  0
  -17.6100   18.1810    0.2760 C   0  0  0  0  0
  -16.8330   19.1890   -0.3730 O   0  0  0  0  0
  -13.1190   19.2230    0.5230 C   0  0  0  0  0
  -13.3380   20.5510    0.8910 O   0  0  0  0  0
   -8.0450   18.7830    0.3000 C   0  0  0  0  0
   -7.4270   19.7040    1.2100 O   0  0  0  0  0
   -5.9680   16.3030   -2.0090 C   0  0  0  0  0
   -4.5370   16.2590   -1.8600 O   0  0  0  0  0
   -8.2480   15.0870   -5.4880 C   0  0  0  0  0
   -9.1340   16.1820   -5.6820 O   0  0  0  0  0
  -12.5430   14.9770   -6.9820 C   0  0  0  0  0
  -13.2420   16.1210   -6.4110 O   0  0  0  0  0
  -16.6200   15.1750   -5.3510 C   0  0  0  0  0
  -17.1820   15.5170   -6.6270 O   0  0  0  0  0
  -20.1180   15.8310   -2.4200 C   0  0  0  0  0
  -19.9470   17.1760   -2.0920 O   0  0  0  0  0
  -15.2431   18.5736    3.7859 H   0  0  0  0  0
   -9.3582   19.4353    2.8853 H   0  0  0  0  0
   -5.1469   15.5185    1.1480 H   0  0  0  0  0
   -5.9703   12.3928   -4.0769 H   0  0  0  0  0
  -10.1732   12.0844   -8.0446 H   0  0  0  0  0
  -16.2095   12.7647   -8.0152 H   0  0  0  0  0
  -20.4173   13.3971   -3.7959 H   0  0  0  0  0
  -19.7287   15.3046    1.9066 H   0  0  0  0  0
  -16.7983   17.1205    4.7067 H   0  0  0  0  0
  -14.7176   16.8963    5.4257 H   0  0  0  0  0
  -11.1390   19.6636    4.4823 H   0  0  0  0  0
   -9.2598   18.5425    5.1651 H   0  0  0  0  0
   -6.1371   16.3070    3.3056 H   0  0  0  0  0
   -5.3481   14.1503    3.0188 H   0  0  0  0  0
   -5.0198   11.8900   -1.8971 H   0  0  0  0  0
   -6.2556   10.2768   -2.8935 H   0  0  0  0  0
   -8.3717   10.9821   -6.9048 H   0  0  0  0  0
  -10.3174    9.7849   -7.4095 H   0  0  0  0  0
  -14.4290   11.4033   -8.8798 H   0  0  0  0  0
  -16.2699   10.2999   -7.9806 H   0  0  0  0  0
  -19.8138   12.0692   -5.7361 H   0  0  0  0  0
  -19.8802    9.9993   -4.7027 H   0  0  0  0  0
  -20.3600   13.1328    1.1090 H   0  0  0  0  0
  -18.5899   11.9415    2.0607 H   0  0  0  0  0
  -15.6893   15.2159    2.5081 H   0  0  0  0  0
  -17.5346   13.9907    3.0459 H   0  0  0  0  0
  -11.9625   16.8320    3.6463 H   0  0  0  0  0
  -13.6742   17.2689    5.1176 H   0  0  0  0  0
   -8.7591   15.2291    2.2979 H   0  0  0  0  0
   -9.4652   16.0553    4.3196 H   0  0  0  0  0
   -7.7242   12.7569   -0.7399 H   0  0  0  0  0
   -6.4400   12.3594    1.2094 H   0  0  0  0  0
   -9.8118   11.4804   -4.2982 H   0  0  0  0  0
   -7.9706   10.4621   -3.4479 H   0  0  0  0  0
  -13.4414   10.9893   -6.0381 H   0  0  0  0  0
  -11.6902   10.0578   -7.2853 H   0  0  0  0  0
  -17.2897   11.2299   -4.2677 H   0  0  0  0  0
  -16.9734   10.1928   -6.3181 H   0  0  0  0  0
  -17.7545   13.0286   -0.4160 H   0  0  0  0  0
  -18.7636   11.0646   -1.1831 H   0  0  0  0  0
  -18.2827   16.7444    2.4957 H   0  0  0  0  0
  -13.4151   19.4299    3.2446 H   0  0  0  0  0
   -7.8246   18.0169    2.8810 H   0  0  0  0  0
   -5.1117   14.1995   -0.5389 H   0  0  0  0  0
   -7.2220   12.6075   -5.4628 H   0  0  0  0  0
  -12.2080   12.6880   -8.2291 H   0  0  0  0  0
  -17.6816   13.0249   -6.6907 H   0  0  0  0  0
  -20.5536   13.3803   -1.6246 H   0  0  0  0  0
  -12.0680   17.5552    1.2811 H   0  0  0  0  0
   -8.5337   16.6893    0.3124 H   0  0  0  0  0
   -7.6170   14.9230   -1.9739 H   0  0  0  0  0
   -9.8880   13.9001   -4.8180 H   0  0  0  0  0
  -13.5291   13.5586   -5.6653 H   0  0  0  0  0
  -16.7777   13.6349   -3.8850 H   0  0  0  0  0
  -18.2353   15.2240   -1.5883 H   0  0  0  0  0
  -15.9040   17.0449    0.7432 H   0  0  0  0  0
  -18.4658   18.6371    0.7736 H   0  0  0  0  0
  -17.9736   17.4636   -0.4597 H   0  0  0  0  0
  -17.3766   19.6425   -1.0214 H   0  0  0  0  0
  -14.0703   18.7045    0.4032 H   0  0  0  0  0
  -12.5876   19.1793   -0.4277 H   0  0  0  0  0
  -13.8580   20.9882    0.2128 H   0  0  0  0  0
   -9.0984   19.0325    0.1727 H   0  0  0  0  0
   -7.5608   18.8384   -0.6750 H   0  0  0  0  0
   -7.5055   20.5958    0.8634 H   0  0  0  0  0
   -6.3994   16.9001   -1.2056 H   0  0  0  0  0
   -6.2202   16.7522   -2.9696 H   0  0  0  0  0
   -4.1848   17.1512   -1.8990 H   0  0  0  0  0
   -7.5381   15.0563   -6.3146 H   0  0  0  0  0
   -7.7270   15.2180   -4.5396 H   0  0  0  0  0
   -8.6310   16.9994   -5.7029 H   0  0  0  0  0
  -12.4504   15.1247   -8.0580 H   0  0  0  0  0
  -11.5620   14.8967   -6.5137 H   0  0  0  0  0
  -12.7387   16.9203   -6.5825 H   0  0  0  0  0
  -15.5512   14.9944   -5.4660 H   0  0  0  0  0
  -16.7851   15.9965   -4.6539 H   0  0  0  0  0
  -16.7569   16.3106   -6.9603 H   0  0  0  0  0
  -21.1691   15.5460   -2.3751 H   0  0  0  0  0
  -19.7923   15.6308   -3.4408 H   0  0  0  0  0
  -20.4520   17.7195   -2.7012 H   0  0  0  0  0
  1  9  1  0  0  0
 44  1  1  0  0  0
  1 57  1  0  0  0
  2 11  1  0  0  0
 46  2  1  0  0  0
  2 59  1  0  0  0
  3 13  1  0  0  0
 48  3  1  0  0  0
  3 61  1  0  0  0
  4 15  1  0  0  0
 50  4  1  0  0  0
  4 63  1  0  0  0
  5 17  1  0  0  0
 52  5  1  0  0  0
  5 65  1  0  0  0
  6 19  1  0  0  0
 54  6  1  0  0  0
  6 67  1  0  0  0
 21  7  1  0  0  0
  7 56  1  0  0  0
  7 69  1  0  0  0
  8 23  1  0  0  0
 42  8  1  0  0  0
  8 71  1  0  0  0
  9 10  1  0  0  0
  9 25  1  0  0  0
 11 12  1  0  0  0
 11 27  1  0  0  0
 13 14  1  0  0  0
 13 29  1  0  0  0
 15 16  1  0  0  0
 15 31  1  0  0  0
 17 18  1  0  0  0
 17 33  1  0  0  0
 19 20  1  0  0  0
 19 35  1  0  0  0
 21 22  1  0  0  0
 37 21  1  0  0  0
 23 24  1  0  0  0
 23 39  1  0  0  0
 25 26  1  0  0  0
 25 41  1  0  0  0
 27 28  1  0  0  0
 27 43  1  0  0  0
 29 30  1  0  0  0
 29 45  1  0  0  0
 31 32  1  0  0  0
 31 47  1  0  0  0
 33 34  1  0  0  0
 33 49  1  0  0  0
 35 36  1  0  0  0
 35 51  1  0  0  0
 37 38  1  0  0  0
 53 37  1  0  0  0
 39 40  1  0  0  0
 39 55  1  0  0  0
 41 42  1  0  0  0
 41 72  1  0  0  0
 43 44  1  0  0  0
 43 58  1  0  0  0
 45 46  1  0  0  0
 45 60  1  0  0  0
 47 48  1  0  0  0
 47 62  1  0  0  0
 49 50  1  0  0  0
 49 64  1  0  0  0
 51 52  1  0  0  0
 51 66  1  0  0  0
 53 54  1  0  0  0
 53 68  1  0  0  0
 55 56  1  0  0  0
 55 70  1  0  0  0
 57 72  1  0  0  0
 58 59  1  0  0  0
 58 75  1  0  0  0
 60 61  1  0  0  0
 60 77  1  0  0  0
 62 63  1  0  0  0
 62 79  1  0  0  0
 64 65  1  0  0  0
 64 81  1  0  0  0
 66 67  1  0  0  0
 66 83  1  0  0  0
 68 69  1  0  0  0
 68 85  1  0  0  0
 70 71  1  0  0  0
 70 87  1  0  0  0
 72 73  1  0  0  0
 73 74  1  0  0  0
 75 76  1  0  0  0
 77 78  1  0  0  0
 79 80  1  0  0  0
 81 82  1  0  0  0
 83 84  1  0  0  0
 85 86  1  0  0  0
 87 88  1  0  0  0
  1 89  1  0  0  0
  2 90  1  0  0  0
  3 91  1  0  0  0
  4 92  1  0  0  0
  5 93  1  0  0  0
  6 94  1  0  0  0
  7 95  1  0  0  0
  8 96  1  0  0  0
  9 97  1  0  0  0
 10 98  1  0  0  0
 11 99  1  0  0  0
 12100  1  0  0  0
 13101  1  0  0  0
 14102  1  0  0  0
 15103  1  0  0  0
 16104  1  0  0  0
 17105  1  0  0  0
 18106  1  0  0  0
 19107  1  0  0  0
 20108  1  0  0  0
 21109  1  0  0  0
 22110  1  0  0  0
 23111  1  0  0  0
 24112  1  0  0  0
 25113  1  0  0  0
 26114  1  0  0  0
 27115  1  0  0  0
 28116  1  0  0  0
 29117  1  0  0  0
 30118  1  0  0  0
 31119  1  0  0  0
 32120  1  0  0  0
 33121  1  0  0  0
 34122  1  0  0  0
 35123  1  0  0  0
 36124  1  0  0  0
 37125  1  0  0  0
 38126  1  0  0  0
 39127  1  0  0  0
 40128  1  0  0  0
 41129  1  0  0  0
 43130  1  0  0  0
 45131  1  0  0  0
 47132  1  0  0  0
 49133  1  0  0  0
 51134  1  0  0  0
 53135  1  0  0  0
 55136  1  0  0  0
 58137  1  0  0  0
 60138  1  0  0  0
 62139  1  0  0  0
 64140  1  0  0  0
 66141  1  0  0  0
 68142  1  0  0  0
 70143  1  0  0  0
 72144  1  0  0  0
 73145  1  0  0  0
 73146  1  0  0  0
 74147  1  0  0  0
 75148  1  0  0  0
 75149  1  0  0  0
 76150  1  0  0  0
 77151  1  0  0  0
 77152  1  0  0  0
 78153  1  0  0  0
 79154  1  0  0  0
 79155  1  0  0  0
 80156  1  0  0  0
 81157  1  0  0  0
 81158  1  0  0  0
 82159  1  0  0  0
 83160  1  0  0  0
 83161  1  0  0  0
 84162  1  0  0  0
 85163  1  0  0  0
 85164  1  0  0  0
 86165  1  0  0  0
 87166  1  0  0  0
 87167  1  0  0  0
 88168  1  0  0  0
M  END
$$$$
