### 
### Created by X-TOOL on Mon Sep 10 21:13:30 2018
### 

@<TRIPOS>MOLECULE
5mka_ligand
  168   176     1     0     0
SMALL
GAST_HUCK


@<TRIPOS>ATOM
      1 C1A       -15.4440   17.7600    3.0890 C.3       1 RCD         0.1884
      2 C1B       -10.2230   18.7830    2.7640 C.3       1 RCD         0.1884
      3 C1C        -6.2160   15.7100    1.2400 C.3       1 RCD         0.1884
      4 C1D        -6.4510   12.8610   -3.2180 C.3       1 RCD         0.1884
      5 C1E       -10.0570   12.2590   -6.9750 C.3       1 RCD         0.1884
      6 C1F       -15.3540   12.5890   -7.3630 C.3       1 RCD         0.1884
      7 C1G       -19.3670   13.1430   -3.9390 C.3       1 RCD         0.1884
      8 C1H       -19.2120   14.9300    1.0230 C.3       1 RCD         0.1884
      9 C2A       -16.0320   16.7460    4.0280 C.3       1 RCD         0.1341
     10 O2A       -15.0210   16.2260    4.8090 O.3       1 RCD        -0.3841
     11 C2B       -10.9100   18.6610    4.1210 C.3       1 RCD         0.1341
     12 O2B       -10.0670   18.0320    5.0680 O.3       1 RCD        -0.3841
     13 C2C        -6.6550   15.5800    2.6800 C.3       1 RCD         0.1341
     14 O2C        -6.2870   14.2890    3.1630 O.3       1 RCD        -0.3841
     15 C2D        -6.1010   12.0000   -1.9810 C.3       1 RCD         0.1341
     16 O2D        -6.6140   10.6870   -2.1030 O.3       1 RCD        -0.3841
     17 C2E        -9.3090   11.1090   -6.3630 C.3       1 RCD         0.1341
     18 O2E       -10.0900    9.9220   -6.4870 O.3       1 RCD        -0.3841
     19 C2F       -14.6220   11.3390   -7.8090 C.3       1 RCD         0.1341
     20 O2F       -15.4280   10.2110   -7.5280 O.3       1 RCD        -0.3841
     21 C2G       -19.2900   11.8710   -4.8010 C.3       1 RCD         0.1341
     22 O2G       -19.9390   10.7820   -4.1500 O.3       1 RCD        -0.3841
     23 C2H       -19.3140   13.4180    0.9970 C.3       1 RCD         0.1341
     24 O2H       -18.5360   12.9000    2.0630 O.3       1 RCD        -0.3841
     25 C3A       -16.5430   15.6680    3.0130 C.3       1 RCD         0.1144
     26 O3A       -17.2300   14.6400    3.6840 O.3       1 RCD        -0.3864
     27 C3B       -12.2010   17.8470    3.9640 C.3       1 RCD         0.1144
     28 O3B       -12.8660   17.7780    5.2140 O.3       1 RCD        -0.3864
     29 C3C        -8.1380   15.9360    2.8480 C.3       1 RCD         0.1144
     30 O3C        -8.5360   15.8290    4.2360 O.3       1 RCD        -0.3864
     31 C3D        -6.6350   12.7160   -0.7340 C.3       1 RCD         0.1144
     32 O3D        -6.1360   11.9560    0.3930 O.3       1 RCD        -0.3864
     33 C3E        -8.9210   11.3730   -4.9170 C.3       1 RCD         0.1144
     34 O3E        -8.2010   10.2660   -4.3590 O.3       1 RCD        -0.3864
     35 C3F       -13.2770   11.2090   -7.0930 C.3       1 RCD         0.1144
     36 O3F       -12.5400   10.1560   -7.7210 O.3       1 RCD        -0.3864
     37 C3G       -17.8540   11.5230   -5.1530 C.3       1 RCD         0.1144
     38 O3G       -17.8740   10.4280   -6.0830 O.3       1 RCD        -0.3864
     39 C3H       -18.8250   12.8410   -0.3330 C.3       1 RCD         0.1144
     40 O3H       -19.0690   11.4310   -0.3500 O.3       1 RCD        -0.3864
     41 C4A       -17.4130   16.3200    1.9940 C.3       1 RCD         0.1184
     42 O4A       -17.8040   15.2820    1.0150 O.3       1 RCD        -0.3401
     43 C4B       -13.0710   18.4530    2.9050 C.3       1 RCD         0.1184
     44 O4B       -14.1420   17.5210    2.6390 O.3       1 RCD        -0.3401
     45 C4C        -8.3720   17.2810    2.2920 C.3       1 RCD         0.1184
     46 O4C        -9.8300   17.4980    2.3100 O.3       1 RCD        -0.3401
     47 C4D        -6.1920   14.1470   -0.6740 C.3       1 RCD         0.1184
     48 O4D        -6.9440   14.7640    0.4470 O.3       1 RCD        -0.3401
     49 C4E        -8.1380   12.6560   -4.8740 C.3       1 RCD         0.1184
     50 O4E        -7.8360   12.8900   -3.4840 O.3       1 RCD        -0.3401
     51 C4F       -12.4950   12.5030   -7.1940 C.3       1 RCD         0.1184
     52 O4F       -11.3530   12.3580   -6.3190 O.3       1 RCD        -0.3401
     53 C4G       -17.1940   12.7350   -5.7600 C.3       1 RCD         0.1184
     54 O4G       -15.8050   12.3850   -5.9980 O.3       1 RCD        -0.3401
     55 C4H       -19.4770   13.5270   -1.5380 C.3       1 RCD         0.1184
     56 O4H       -18.7810   12.9420   -2.6680 O.3       1 RCD        -0.3401
     57 O5A       -16.2930   18.4420    2.2760 O.3       1 RCD        -0.3405
     58 C5B       -12.3070   18.5700    1.5990 C.3       1 RCD         0.1134
     59 O5B       -11.1090   19.3320    1.7950 O.3       1 RCD        -0.3405
     60 C5C        -7.9060   17.3820    0.8730 C.3       1 RCD         0.1134
     61 O5C        -6.5200   17.0600    0.7840 O.3       1 RCD        -0.3405
     62 C5D        -6.5280   14.8850   -1.9470 C.3       1 RCD         0.1134
     63 O5D        -5.9420   14.2070   -3.0570 O.3       1 RCD        -0.3405
     64 C5E        -9.0070   13.7940   -5.4510 C.3       1 RCD         0.1134
     65 O5E        -9.3510   13.4730   -6.8000 O.3       1 RCD        -0.3405
     66 C5F       -13.3180   13.6780   -6.7280 C.3       1 RCD         0.1134
     67 O5F       -14.5280   13.7400   -7.4640 O.3       1 RCD        -0.3405
     68 C5G       -17.2910   13.9080   -4.8070 C.3       1 RCD         0.1134
     69 O5G       -18.6810   14.1910   -4.6020 O.3       1 RCD        -0.3405
     70 C5H       -19.2980   15.0470   -1.4230 C.3       1 RCD         0.1134
     71 O5H       -19.7880   15.4890   -0.1330 O.3       1 RCD        -0.3405
     72 C5M       -16.7400   17.4760    1.2940 C.3       1 RCD         0.1134
     73 C6A       -17.6100   18.1810    0.2760 C.3       1 RCD         0.0730
     74 O6A       -16.8330   19.1890   -0.3730 O.3       1 RCD        -0.3924
     75 C6B       -13.1190   19.2230    0.5230 C.3       1 RCD         0.0730
     76 O6B       -13.3380   20.5510    0.8910 O.3       1 RCD        -0.3924
     77 C6C        -8.0450   18.7830    0.3000 C.3       1 RCD         0.0730
     78 O6C        -7.4270   19.7040    1.2100 O.3       1 RCD        -0.3924
     79 C6D        -5.9680   16.3030   -2.0090 C.3       1 RCD         0.0730
     80 O6D        -4.5370   16.2590   -1.8600 O.3       1 RCD        -0.3924
     81 C6E        -8.2480   15.0870   -5.4880 C.3       1 RCD         0.0730
     82 O6E        -9.1340   16.1820   -5.6820 O.3       1 RCD        -0.3924
     83 C6F       -12.5430   14.9770   -6.9820 C.3       1 RCD         0.0730
     84 O6F       -13.2420   16.1210   -6.4110 O.3       1 RCD        -0.3924
     85 C6G       -16.6200   15.1750   -5.3510 C.3       1 RCD         0.0730
     86 O6G       -17.1820   15.5170   -6.6270 O.3       1 RCD        -0.3924
     87 C6H       -20.1180   15.8310   -2.4200 C.3       1 RCD         0.0730
     88 O6H       -19.9470   17.1760   -2.0920 O.3       1 RCD        -0.3924
     89 H1        -15.2294   18.5600    3.8129 H         1 RCD         0.0938
     90 H2         -9.3389   19.4299    2.8633 H         1 RCD         0.0938
     91 H3         -5.1362   15.5184    1.1549 H         1 RCD         0.0938
     92 H4         -5.9535   12.4100   -4.0892 H         1 RCD         0.0938
     93 H5        -10.1973   12.0736   -8.0501 H         1 RCD         0.0938
     94 H6        -16.2312   12.7370   -8.0099 H         1 RCD         0.0938
     95 H7        -20.4227   13.4220   -3.8063 H         1 RCD         0.0938
     96 H8        -19.7072   15.3254    1.9221 H         1 RCD         0.0938
     97 H9        -16.8402   17.1568    4.6509 H         1 RCD         0.0671
     98 H10       -14.6131   16.9264    5.3045 H         1 RCD         0.2101
     99 H11       -11.1603   19.6688    4.4840 H         1 RCD         0.0671
    100 H12        -9.8434   17.1609    4.7619 H         1 RCD         0.2101
    101 H13        -6.0887   16.3162    3.2693 H         1 RCD         0.0671
    102 H14        -6.7120   13.6222    2.6365 H         1 RCD         0.2101
    103 H15        -5.0063   11.9284   -1.9005 H         1 RCD         0.0671
    104 H16        -6.2426   10.2734   -2.8734 H         1 RCD         0.2101
    105 H17        -8.3794   10.9677   -6.9338 H         1 RCD         0.0671
    106 H18        -9.6193    9.1928   -6.1007 H         1 RCD         0.2101
    107 H19       -14.4431   11.3956   -8.8929 H         1 RCD         0.0671
    108 H20       -15.5971   10.1687   -6.5941 H         1 RCD         0.2101
    109 H21       -19.8256   12.0693   -5.7411 H         1 RCD         0.0671
    110 H22       -19.5153   10.6149   -3.3163 H         1 RCD         0.2101
    111 H23       -20.3655   13.1285    1.1402 H         1 RCD         0.0671
    112 H24       -18.5894   11.9515    2.0607 H         1 RCD         0.2101
    113 H25       -15.6748   15.2269    2.5014 H         1 RCD         0.0648
    114 H26       -17.5314   13.9974    3.0526 H         1 RCD         0.2100
    115 H27       -11.9391   16.8252    3.6520 H         1 RCD         0.0648
    116 H28       -13.6658   17.2742    5.1186 H         1 RCD         0.2100
    117 H29        -8.7378   15.2175    2.2701 H         1 RCD         0.0648
    118 H30        -9.4555   16.0529    4.3188 H         1 RCD         0.2100
    119 H31        -7.7347   12.6931   -0.7383 H         1 RCD         0.0648
    120 H32        -5.1861   11.9518    0.3751 H         1 RCD         0.2100
    121 H33        -9.8388   11.5072   -4.3257 H         1 RCD         0.0648
    122 H34        -7.9730   10.4601   -3.4574 H         1 RCD         0.2100
    123 H35       -13.4446   10.9665   -6.0333 H         1 RCD         0.0648
    124 H36       -11.6991   10.0588   -7.2899 H         1 RCD         0.2100
    125 H37       -17.3069   11.2252   -4.2464 H         1 RCD         0.0648
    126 H38       -16.9828   10.1953   -6.3157 H         1 RCD         0.2100
    127 H39       -17.7395   13.0061   -0.3997 H         1 RCD         0.0648
    128 H40       -18.7668   11.0684   -1.1744 H         1 RCD         0.2100
    129 H41       -18.3146   16.7026    2.4946 H         1 RCD         0.0651
    130 H42       -13.4542   19.4318    3.2293 H         1 RCD         0.0651
    131 H43        -7.8585   18.0358    2.9056 H         1 RCD         0.0651
    132 H44        -5.1086   14.2004   -0.4914 H         1 RCD         0.0651
    133 H45        -7.2095   12.5657   -5.4569 H         1 RCD         0.0651
    134 H46       -12.1695   12.6682   -8.2317 H         1 RCD         0.0651
    135 H47       -17.6836   12.9957   -6.7099 H         1 RCD         0.0651
    136 H48       -20.5511   13.2961   -1.5918 H         1 RCD         0.0651
    137 H49       -12.0361   17.5571    1.2665 H         1 RCD         0.0647
    138 H50        -8.4930   16.6797    0.2629 H         1 RCD         0.0647
    139 H51        -7.6223   14.9192   -2.0536 H         1 RCD         0.0647
    140 H52        -9.9151   13.9096   -4.8410 H         1 RCD         0.0647
    141 H53       -13.5366   13.5738   -5.6550 H         1 RCD         0.0647
    142 H54       -16.8179   13.6349   -3.8522 H         1 RCD         0.0647
    143 H55       -18.2319   15.2908   -1.5409 H         1 RCD         0.0647
    144 H56       -15.8612   17.0784    0.7652 H         1 RCD         0.0647
    145 H57       -18.4694   18.6451    0.7820 H         1 RCD         0.0584
    146 H58       -17.9705   17.4556   -0.4682 H         1 RCD         0.0584
    147 H59       -16.5222   19.8124    0.2728 H         1 RCD         0.2095
    148 H60       -14.0820   18.7025    0.4147 H         1 RCD         0.0584
    149 H61       -12.5727   19.1857   -0.4310 H         1 RCD         0.0584
    150 H62       -13.8526   20.9837    0.2198 H         1 RCD         0.2095
    151 H63        -9.1097   19.0333    0.1831 H         1 RCD         0.0584
    152 H64        -7.5462   18.8359   -0.6790 H         1 RCD         0.0584
    153 H65        -6.5089   19.4813    1.3093 H         1 RCD         0.2095
    154 H66        -6.4030   16.9052   -1.1977 H         1 RCD         0.0584
    155 H67        -6.2222   16.7559   -2.9787 H         1 RCD         0.0584
    156 H68        -4.1884   17.1419   -1.8986 H         1 RCD         0.2095
    157 H69        -7.5235   15.0574   -6.3151 H         1 RCD         0.0584
    158 H70        -7.7127   15.2194   -4.5362 H         1 RCD         0.0584
    159 H71        -9.7596   16.2121   -4.9677 H         1 RCD         0.2095
    160 H72       -12.4353   15.1257   -8.0666 H         1 RCD         0.0584
    161 H73       -11.5469   14.8977   -6.5221 H         1 RCD         0.0584
    162 H74       -14.1019   16.1956   -6.8079 H         1 RCD         0.2095
    163 H75       -15.5406   14.9960   -5.4642 H         1 RCD         0.0584
    164 H76       -16.7823   16.0045   -4.6470 H         1 RCD         0.0584
    165 H77       -18.1141   15.6728   -6.5297 H         1 RCD         0.2095
    166 H78       -21.1793   15.5520   -2.3443 H         1 RCD         0.0584
    167 H79       -19.7605   15.6394   -3.4425 H         1 RCD         0.0584
    168 H80       -20.2520   17.3257   -1.2049 H         1 RCD         0.2095
@<TRIPOS>BOND
     1    1    9 1  
     2   44    1 1  
     3    1   57 1  
     4    2   11 1  
     5   46    2 1  
     6    2   59 1  
     7    3   13 1  
     8   48    3 1  
     9    3   61 1  
    10    4   15 1  
    11   50    4 1  
    12    4   63 1  
    13    5   17 1  
    14   52    5 1  
    15    5   65 1  
    16    6   19 1  
    17   54    6 1  
    18    6   67 1  
    19   21    7 1  
    20    7   56 1  
    21    7   69 1  
    22    8   23 1  
    23   42    8 1  
    24    8   71 1  
    25    9   10 1  
    26    9   25 1  
    27   11   12 1  
    28   11   27 1  
    29   13   14 1  
    30   13   29 1  
    31   15   16 1  
    32   15   31 1  
    33   17   18 1  
    34   17   33 1  
    35   19   20 1  
    36   19   35 1  
    37   21   22 1  
    38   37   21 1  
    39   23   24 1  
    40   23   39 1  
    41   25   26 1  
    42   25   41 1  
    43   27   28 1  
    44   27   43 1  
    45   29   30 1  
    46   29   45 1  
    47   31   32 1  
    48   31   47 1  
    49   33   34 1  
    50   33   49 1  
    51   35   36 1  
    52   35   51 1  
    53   37   38 1  
    54   53   37 1  
    55   39   40 1  
    56   39   55 1  
    57   41   42 1  
    58   41   72 1  
    59   43   44 1  
    60   43   58 1  
    61   45   46 1  
    62   45   60 1  
    63   47   48 1  
    64   47   62 1  
    65   49   50 1  
    66   49   64 1  
    67   51   52 1  
    68   51   66 1  
    69   53   54 1  
    70   53   68 1  
    71   55   56 1  
    72   55   70 1  
    73   57   72 1  
    74   58   59 1  
    75   58   75 1  
    76   60   61 1  
    77   60   77 1  
    78   62   63 1  
    79   62   79 1  
    80   64   65 1  
    81   64   81 1  
    82   66   67 1  
    83   66   83 1  
    84   68   69 1  
    85   68   85 1  
    86   70   71 1  
    87   70   87 1  
    88   72   73 1  
    89   73   74 1  
    90   75   76 1  
    91   77   78 1  
    92   79   80 1  
    93   81   82 1  
    94   83   84 1  
    95   85   86 1  
    96   87   88 1  
    97    1   89 1  
    98    2   90 1  
    99    3   91 1  
   100    4   92 1  
   101    5   93 1  
   102    6   94 1  
   103    7   95 1  
   104    8   96 1  
   105    9   97 1  
   106   10   98 1  
   107   11   99 1  
   108   12  100 1  
   109   13  101 1  
   110   14  102 1  
   111   15  103 1  
   112   16  104 1  
   113   17  105 1  
   114   18  106 1  
   115   19  107 1  
   116   20  108 1  
   117   21  109 1  
   118   22  110 1  
   119   23  111 1  
   120   24  112 1  
   121   25  113 1  
   122   26  114 1  
   123   27  115 1  
   124   28  116 1  
   125   29  117 1  
   126   30  118 1  
   127   31  119 1  
   128   32  120 1  
   129   33  121 1  
   130   34  122 1  
   131   35  123 1  
   132   36  124 1  
   133   37  125 1  
   134   38  126 1  
   135   39  127 1  
   136   40  128 1  
   137   41  129 1  
   138   43  130 1  
   139   45  131 1  
   140   47  132 1  
   141   49  133 1  
   142   51  134 1  
   143   53  135 1  
   144   55  136 1  
   145   58  137 1  
   146   60  138 1  
   147   62  139 1  
   148   64  140 1  
   149   66  141 1  
   150   68  142 1  
   151   70  143 1  
   152   72  144 1  
   153   73  145 1  
   154   73  146 1  
   155   74  147 1  
   156   75  148 1  
   157   75  149 1  
   158   76  150 1  
   159   77  151 1  
   160   77  152 1  
   161   78  153 1  
   162   79  154 1  
   163   79  155 1  
   164   80  156 1  
   165   81  157 1  
   166   81  158 1  
   167   82  159 1  
   168   83  160 1  
   169   83  161 1  
   170   84  162 1  
   171   85  163 1  
   172   85  164 1  
   173   86  165 1  
   174   87  166 1  
   175   87  167 1  
   176   88  168 1  
@<TRIPOS>SUBSTRUCTURE
     1 RCD         1

