4mti_ligand
  -I-interpret- 

 86 90  0  0  0  0  0  0  0  0999 V2000
    3.3340   24.1630   21.8830 C   0  0  0  0  0
    2.8570   24.9610   20.6640 C   0  0  0  0  0
    3.8120   26.1170   20.3000 C   0  0  0  0  0
    3.1210   26.9710   19.2990 N   0  3  0  0  0
    3.8100   28.2460   18.9720 C   0  0  0  0  0
    5.1170   25.5310   19.7870 C   0  0  0  0  0
    5.2040   25.1190   18.6410 O   0  0  0  0  0
    6.1830   25.4720   20.6300 N   0  0  0  0  0
    7.4950   24.9170   20.2430 C   0  0  0  0  0
    8.5730   26.0350   20.1620 C   0  0  0  0  0
    8.1190   27.1630   19.2100 C   0  0  0  0  0
    9.2360   28.2090   19.0420 C   0  0  0  0  0
    9.6350   28.8070   20.4130 C   0  0  0  0  0
   10.0470   27.6970   21.4050 C   0  0  0  0  0
    8.9290   26.6380   21.5420 C   0  0  0  0  0
    7.8730   23.8270   21.2410 C   0  0  0  0  0
    7.3150   23.7990   22.3270 O   0  0  0  0  0
    8.8010   22.8750   20.9710 N   0  0  0  0  0
    9.5350   22.8650   19.6710 C   0  0  0  0  0
    9.9590   21.4520   19.2800 C   0  0  0  0  0
   11.0380   21.4060   18.1850 C   0  0  0  0  0
   11.8790   20.1500   18.5340 C   0  0  0  0  0
   11.2450   19.6030   19.8450 C   0  0  0  0  0
   10.6080   20.8010   20.4480 N   0  3  0  0  0
    9.6370   20.5240   21.5000 C   0  0  0  0  0
    9.0850   21.8850   22.0350 C   0  0  0  0  0
   10.0900   22.4700   23.0100 C   0  0  0  0  0
   10.7950   23.3930   22.6720 O   0  0  0  0  0
   10.1880   21.9670   24.2600 N   0  0  0  0  0
   11.1390   22.4660   25.2470 C   0  0  0  0  0
   12.4220   21.6720   24.9950 C   0  0  0  0  0
   13.3100   21.6610   26.2490 C   0  0  0  0  0
   12.5860   21.0510   27.3170 O   0  0  0  0  0
   11.3610   21.5360   27.6060 C   0  0  0  0  0
   10.8660   21.3070   28.8950 C   0  0  0  0  0
    9.6060   21.7870   29.2120 C   0  0  0  0  0
    8.8590   22.4860   28.2590 C   0  0  0  0  0
    9.3570   22.7050   26.9860 C   0  0  0  0  0
   10.6090   22.2160   26.6440 C   0  0  0  0  0
    4.3143   23.7346   21.6743 H   0  0  0  0  0
    3.4019   24.8258   22.7457 H   0  0  0  0  0
    2.6238   23.3632   22.0927 H   0  0  0  0  0
    1.8853   25.3922   20.9049 H   0  0  0  0  0
    2.8149   24.2806   19.8135 H   0  0  0  0  0
    4.0618   26.7384   21.1600 H   0  0  0  0  0
    2.2176   27.2211   19.7012 H   0  0  0  0  0
    3.0771   26.4317   18.4344 H   0  0  0  0  0
    3.9099   28.8459   19.8766 H   0  0  0  0  0
    4.7985   28.0298   18.5669 H   0  0  0  0  0
    3.2253   28.7945   18.2335 H   0  0  0  0  0
    6.0699   25.8297   21.5785 H   0  0  0  0  0
    7.4348   24.4787   19.2468 H   0  0  0  0  0
    9.4727   25.5582   19.7730 H   0  0  0  0  0
    7.2391   27.6492   19.6313 H   0  0  0  0  0
    7.8876   26.7324   18.2357 H   0  0  0  0  0
    8.8741   29.0114   18.3991 H   0  0  0  0  0
   10.1079   27.7262   18.6006 H   0  0  0  0  0
    8.7780   29.3411   20.8234 H   0  0  0  0  0
   10.4822   29.4773   20.2680 H   0  0  0  0  0
   10.2251   28.1475   22.3814 H   0  0  0  0  0
   10.9479   27.2098   21.0320 H   0  0  0  0  0
    9.2793   25.8390   22.1954 H   0  0  0  0  0
    8.0413   27.1151   21.9572 H   0  0  0  0  0
   10.4302   23.4782   19.7748 H   0  0  0  0  0
    8.8729   23.2537   18.8973 H   0  0  0  0  0
    9.0476   20.9669   18.9304 H   0  0  0  0  0
   11.6420   22.3131   18.1636 H   0  0  0  0  0
   10.6078   21.3488   17.1851 H   0  0  0  0  0
   12.9346   20.3897   18.6617 H   0  0  0  0  0
   11.8585   19.4111   17.7329 H   0  0  0  0  0
   11.9810   19.1442   20.5052 H   0  0  0  0  0
   10.5324   18.7991   19.6607 H   0  0  0  0  0
   11.2994   21.3747   20.9310 H   0  0  0  0  0
   10.1129   19.9710   22.3098 H   0  0  0  0  0
    8.8202   19.9209   21.1035 H   0  0  0  0  0
    8.1317   21.6728   22.5191 H   0  0  0  0  0
    9.5677   21.2022   24.5261 H   0  0  0  0  0
   11.3096   23.5392   25.1625 H   0  0  0  0  0
   12.9715   22.1407   24.1786 H   0  0  0  0  0
   12.1568   20.6454   24.7423 H   0  0  0  0  0
   13.5803   22.6815   26.5203 H   0  0  0  0  0
   14.2226   21.0986   26.0516 H   0  0  0  0  0
   11.4579   20.7639   29.6318 H   0  0  0  0  0
    9.1955   21.6192   30.2077 H   0  0  0  0  0
    7.8709   22.8637   28.5220 H   0  0  0  0  0
    8.7677   23.2594   26.2556 H   0  0  0  0  0
  1  2  1  0  0  0
  2  3  1  0  0  0
  3  4  1  0  0  0
  3  6  1  0  0  0
  4  5  1  0  0  0
  6  7  2  0  0  0
  6  8  1  0  0  0
  8  9  1  0  0  0
  9 10  1  0  0  0
  9 16  1  0  0  0
 10 11  1  0  0  0
 10 15  1  0  0  0
 11 12  1  0  0  0
 12 13  1  0  0  0
 13 14  1  0  0  0
 14 15  1  0  0  0
 16 17  2  0  0  0
 16 18  1  0  0  0
 18 19  1  0  0  0
 18 26  1  0  0  0
 19 20  1  0  0  0
 20 21  1  0  0  0
 20 24  1  0  0  0
 21 22  1  0  0  0
 22 23  1  0  0  0
 23 24  1  0  0  0
 24 25  1  0  0  0
 25 26  1  0  0  0
 26 27  1  0  0  0
 27 28  2  0  0  0
 27 29  1  0  0  0
 29 30  1  0  0  0
 30 31  1  0  0  0
 30 39  1  0  0  0
 31 32  1  0  0  0
 32 33  1  0  0  0
 33 34  1  0  0  0
 34 35  4  0  0  0
 34 39  4  0  0  0
 35 36  4  0  0  0
 36 37  4  0  0  0
 37 38  4  0  0  0
 38 39  4  0  0  0
  1 40  1  0  0  0
  1 41  1  0  0  0
  1 42  1  0  0  0
  2 43  1  0  0  0
  2 44  1  0  0  0
  3 45  1  0  0  0
  4 46  1  0  0  0
  4 47  1  0  0  0
  5 48  1  0  0  0
  5 49  1  0  0  0
  5 50  1  0  0  0
  8 51  1  0  0  0
  9 52  1  0  0  0
 10 53  1  0  0  0
 11 54  1  0  0  0
 11 55  1  0  0  0
 12 56  1  0  0  0
 12 57  1  0  0  0
 13 58  1  0  0  0
 13 59  1  0  0  0
 14 60  1  0  0  0
 14 61  1  0  0  0
 15 62  1  0  0  0
 15 63  1  0  0  0
 19 64  1  0  0  0
 19 65  1  0  0  0
 20 66  1  0  0  0
 21 67  1  0  0  0
 21 68  1  0  0  0
 22 69  1  0  0  0
 22 70  1  0  0  0
 23 71  1  0  0  0
 23 72  1  0  0  0
 24 73  1  0  0  0
 25 74  1  0  0  0
 25 75  1  0  0  0
 26 76  1  0  0  0
 29 77  1  0  0  0
 30 78  1  0  0  0
 31 79  1  0  0  0
 31 80  1  0  0  0
 32 81  1  0  0  0
 32 82  1  0  0  0
 35 83  1  0  0  0
 36 84  1  0  0  0
 37 85  1  0  0  0
 38 86  1  0  0  0
M  END
$$$$
