2gpp_ligand
  -I-interpret- 

 39 40  0  0  0  0  0  0  0  0999 V2000
  -53.3290  121.8760    1.9500 N   0  0  0  0  0
  -51.6320  118.5440    5.4370 C   0  0  0  0  0
  -53.0070  118.5670    5.4900 C   0  0  0  0  0
  -53.7010  119.3920    4.6320 C   0  0  0  0  0
  -53.0340  120.1940    3.7310 C   0  0  0  0  0
  -53.8220  121.0710    2.8430 C   0  0  0  0  0
  -54.7030  124.5600   -0.1350 C   0  0  0  0  0
  -56.3330  126.5250   -1.0340 C   0  0  0  0  0
  -54.9730  124.6460   -1.4780 C   0  0  0  0  0
  -50.9810  119.3480    4.5360 C   0  0  0  0  0
  -50.1640  118.4200    7.4610 C   0  0  0  0  0
  -50.7790  117.6680    6.3070 C   0  0  0  0  0
  -51.5370  116.4660    6.8320 C   0  0  0  0  0
  -54.2650  122.5990    1.2530 N   0  0  0  0  0
  -53.8050  123.4920    0.3050 C   0  0  0  0  0
  -52.7010  123.4780   -0.2100 O   0  0  0  0  0
  -55.2350  125.4480    0.7690 C   0  0  0  0  0
  -56.0650  126.4490    0.3150 C   0  0  0  0  0
  -57.1570  127.5150   -1.5070 O   0  0  0  0  0
  -55.7990  125.6380   -1.9380 C   0  0  0  0  0
  -51.6670  120.1790    3.6830 C   0  0  0  0  0
  -53.5413  117.9393    6.2031 H   0  0  0  0  0
  -54.7903  119.4107    4.6661 H   0  0  0  0  0
  -54.9068  121.0409    2.9447 H   0  0  0  0  0
  -54.5338  123.9307   -2.1733 H   0  0  0  0  0
  -49.8919  119.3272    4.4956 H   0  0  0  0  0
  -50.9516  118.7538    8.1365 H   0  0  0  0  0
  -49.4782  117.7635    7.9966 H   0  0  0  0  0
  -49.6193  119.2842    7.0808 H   0  0  0  0  0
  -49.9750  117.3167    5.6602 H   0  0  0  0  0
  -50.8503  115.8108    7.3680 H   0  0  0  0  0
  -52.3237  116.8010    7.5079 H   0  0  0  0  0
  -51.9804  115.9244    5.9965 H   0  0  0  0  0
  -55.2628  122.4811    1.4286 H   0  0  0  0  0
  -55.0033  125.3613    1.8306 H   0  0  0  0  0
  -56.5012  127.1669    1.0095 H   0  0  0  0  0
  -57.2420  127.4311   -2.4595 H   0  0  0  0  0
  -56.0281  125.7220   -3.0003 H   0  0  0  0  0
  -51.1305  120.8158    2.9796 H   0  0  0  0  0
  1  6  2  0  0  0
 14  1  1  0  0  0
  3  2  4  0  0  0
 10  2  4  0  0  0
  2 12  1  0  0  0
  4  3  4  0  0  0
  5  4  4  0  0  0
  6  5  1  0  0  0
  5 21  4  0  0  0
  7  9  4  0  0  0
 15  7  1  0  0  0
  7 17  4  0  0  0
  8 18  4  0  0  0
  8 19  1  0  0  0
 20  8  4  0  0  0
  9 20  4  0  0  0
 21 10  4  0  0  0
 12 11  1  0  0  0
 12 13  1  0  0  0
 14 15  1  0  0  0
 15 16  2  0  0  0
 17 18  4  0  0  0
  3 22  1  0  0  0
  4 23  1  0  0  0
  6 24  1  0  0  0
  9 25  1  0  0  0
 10 26  1  0  0  0
 11 27  1  0  0  0
 11 28  1  0  0  0
 11 29  1  0  0  0
 12 30  1  0  0  0
 13 31  1  0  0  0
 13 32  1  0  0  0
 13 33  1  0  0  0
 14 34  1  0  0  0
 17 35  1  0  0  0
 18 36  1  0  0  0
 19 37  1  0  0  0
 20 38  1  0  0  0
 21 39  1  0  0  0
M  END
$$$$
