4wpf_ligand
  -I-interpret- 

 59 62  0  0  0  0  0  0  0  0999 V2000
    4.7440   55.8560    3.3090 C   0  0  0  0  0
    4.9260   61.4990    3.6330 C   0  0  0  0  0
    4.9530   60.0090    4.0070 C   0  0  0  0  0
    7.1470   57.1900    3.6260 C   0  0  0  0  0
    7.3540   59.8830    3.5730 C   0  0  0  0  0
    7.4010   61.3650    3.1600 C   0  0  0  0  0
    5.9860   57.9250    3.3610 C   0  0  0  0  0
    7.1050   55.8080    3.7340 C   0  0  0  0  0
    5.9040   55.1310    3.5790 C   0  0  0  0  0
    7.8810   63.7090    4.8250 C   0  0  0  0  0
    6.4920   63.1470    4.6160 C   0  0  0  0  0
    5.5520   63.6920    5.1590 O   0  0  0  0  0
    6.2830   62.0540    3.8340 N   0  0  0  0  0
    6.0260   59.3280    3.2500 N   0  0  0  0  0
    4.7810   57.2400    3.2030 C   0  0  0  0  0
    3.5600   55.2240    3.1570 F   0  0  0  0  0
    5.8620   53.6210    3.7050 C   0  0  0  0  0
    6.0680   53.1390    5.0930 N   0  0  0  0  0
    4.9950   53.1560    6.1210 C   0  0  0  0  0
    3.8220   54.1520    5.9990 C   0  0  0  0  0
    2.9500   53.0470    6.6210 C   0  0  0  0  0
    3.9280   52.0540    5.9690 C   0  0  0  0  0
    7.5470   52.5010    5.5580 S   0  0  0  0  0
    8.5730   53.0840    4.7630 O   0  0  0  0  0
    7.6170   52.5310    6.9790 O   0  0  0  0  0
    7.5030   50.7920    5.1260 C   0  0  0  0  0
    6.7630   49.9040    5.8960 C   0  0  0  0  0
    6.7210   48.5610    5.5610 C   0  0  0  0  0
    7.4200   48.1100    4.4520 C   0  0  0  0  0
    8.1620   48.9920    3.6780 C   0  0  0  0  0
    8.2050   50.3360    4.0170 C   0  0  0  0  0
    4.2090   62.0287    4.2603 H   0  0  0  0  0
    4.6243   61.6175    2.5923 H   0  0  0  0  0
    3.9924   59.5560    3.7615 H   0  0  0  0  0
    5.1421   59.9067    5.0756 H   0  0  0  0  0
    8.0967   57.7105    3.7491 H   0  0  0  0  0
    7.5342   59.7972    4.6446 H   0  0  0  0  0
    8.1218   59.3294    3.0326 H   0  0  0  0  0
    7.3086   61.4605    2.0781 H   0  0  0  0  0
    8.3522   61.8102    3.4517 H   0  0  0  0  0
    8.0190   55.2516    3.9414 H   0  0  0  0  0
    7.9133   64.7375    4.4656 H   0  0  0  0  0
    8.1248   63.6861    5.8871 H   0  0  0  0  0
    8.6021   63.1069    4.2723 H   0  0  0  0  0
    3.8651   57.7933    2.9956 H   0  0  0  0  0
    6.6698   53.2179    3.0942 H   0  0  0  0  0
    4.8727   53.2923    3.3867 H   0  0  0  0  0
    5.6942   53.2337    6.9536 H   0  0  0  0  0
    3.5643   54.6321    5.0550 H   0  0  0  0  0
    3.8691   55.1578    6.4163 H   0  0  0  0  0
    1.8733   52.9949    6.4591 H   0  0  0  0  0
    2.7162   53.0199    7.6853 H   0  0  0  0  0
    4.0760   51.0466    6.3579 H   0  0  0  0  0
    3.7183   51.5788    5.0107 H   0  0  0  0  0
    6.2142   50.2650    6.7658 H   0  0  0  0  0
    6.1420   47.8629    6.1655 H   0  0  0  0  0
    7.3868   47.0536    4.1854 H   0  0  0  0  0
    8.7085   48.6295    2.8074 H   0  0  0  0  0
    8.7880   51.0329    3.4150 H   0  0  0  0  0
  1  9  4  0  0  0
 15  1  4  0  0  0
  1 16  1  0  0  0
  2  3  1  0  0  0
 13  2  1  0  0  0
  3 14  1  0  0  0
  7  4  4  0  0  0
  4  8  4  0  0  0
  6  5  1  0  0  0
  5 14  1  0  0  0
 13  6  1  0  0  0
 14  7  1  0  0  0
  7 15  4  0  0  0
  8  9  4  0  0  0
  9 17  1  0  0  0
 11 10  1  0  0  0
 11 12  2  0  0  0
 11 13  1  0  0  0
 17 18  1  0  0  0
 18 19  1  0  0  0
 18 23  1  0  0  0
 19 20  1  0  0  0
 19 22  1  0  0  0
 20 21  1  0  0  0
 21 22  1  0  0  0
 23 24  2  0  0  0
 23 25  2  0  0  0
 23 26  1  0  0  0
 26 27  4  0  0  0
 26 31  4  0  0  0
 27 28  4  0  0  0
 28 29  4  0  0  0
 29 30  4  0  0  0
 30 31  4  0  0  0
  2 32  1  0  0  0
  2 33  1  0  0  0
  3 34  1  0  0  0
  3 35  1  0  0  0
  4 36  1  0  0  0
  5 37  1  0  0  0
  5 38  1  0  0  0
  6 39  1  0  0  0
  6 40  1  0  0  0
  8 41  1  0  0  0
 10 42  1  0  0  0
 10 43  1  0  0  0
 10 44  1  0  0  0
 15 45  1  0  0  0
 17 46  1  0  0  0
 17 47  1  0  0  0
 19 48  1  0  0  0
 20 49  1  0  0  0
 20 50  1  0  0  0
 21 51  1  0  0  0
 21 52  1  0  0  0
 22 53  1  0  0  0
 22 54  1  0  0  0
 27 55  1  0  0  0
 28 56  1  0  0  0
 29 57  1  0  0  0
 30 58  1  0  0  0
 31 59  1  0  0  0
M  END
$$$$
