4tmr_ligand
  -I-interpret- 

 53 56  0  0  0  0  0  0  0  0999 V2000
   12.0300  -31.2240  -23.8440 O   0  0  0  0  0
   12.9560  -31.2240  -24.6370 C   0  0  0  0  0
   12.7160  -31.2160  -26.0630 O   0  0  0  0  0
   11.3080  -31.2150  -26.2950 C   0  0  0  0  0
   14.3670  -31.2180  -24.2120 C   0  0  0  0  0
   15.5390  -31.2110  -24.9480 C   0  0  0  0  0
   16.6800  -31.1930  -24.1530 C   0  0  0  0  0
   14.7000  -31.1900  -22.5230 S   0  0  0  0  0
   16.4050  -31.1980  -22.7930 C   0  0  0  0  0
   17.3020  -31.1670  -21.6210 C   0  0  0  0  0
   16.9830  -30.4160  -20.5080 C   0  0  0  0  0
   17.8700  -30.3800  -19.4380 C   0  0  0  0  0
   17.5490  -29.7260  -18.3900 C   0  0  0  0  0
   17.2770  -29.1340  -17.4430 N   0  0  0  0  0
   19.0600  -31.0780  -19.4710 C   0  0  0  0  0
   18.5020  -31.8510  -21.6750 C   0  0  0  0  0
   19.3990  -31.8100  -20.6110 C   0  0  0  0  0
   20.6800  -32.6020  -20.6570 C   0  0  0  0  0
   21.9100  -31.8510  -20.1000 C   0  0  0  0  0
   22.2630  -30.5650  -20.8360 C   0  0  0  0  0
   23.1480  -32.7450  -20.0190 C   0  0  0  0  0
   20.3810  -33.7740  -19.7360 C   0  0  0  0  0
   20.0260  -33.5500  -18.5410 C   0  0  0  0  0
   19.7100  -33.3660  -17.4460 N   0  0  0  0  0
   20.5240  -35.0610  -20.0860 C   0  0  0  0  0
   20.4530  -36.0280  -19.1740 N   0  0  0  0  0
   20.9040  -33.1310  -22.0410 C   0  0  0  0  0
   21.1120  -32.4990  -23.3740 C   0  0  0  0  0
   21.1620  -31.0250  -23.6950 C   0  0  0  0  0
   21.2380  -33.4950  -24.2790 N   0  0  0  0  0
   21.1240  -34.7720  -23.6970 N   0  0  0  0  0
   20.9340  -34.5360  -22.3980 C   0  0  0  0  0
   20.7760  -35.4810  -21.4400 O   0  0  0  0  0
   10.8674  -32.1080  -25.8517 H   0  0  0  0  0
   10.8670  -30.3273  -25.8416 H   0  0  0  0  0
   11.1179  -31.2090  -27.3683 H   0  0  0  0  0
   15.5651  -31.2188  -26.0377 H   0  0  0  0  0
   17.6916  -31.1766  -24.5587 H   0  0  0  0  0
   16.0474  -29.8581  -20.4683 H   0  0  0  0  0
   19.7313  -31.0581  -18.6125 H   0  0  0  0  0
   18.7497  -32.4312  -22.5639 H   0  0  0  0  0
   21.5986  -31.5635  -19.0958 H   0  0  0  0  0
   22.4803  -30.7930  -21.8795 H   0  0  0  0  0
   21.4218  -29.8740  -20.7813 H   0  0  0  0  0
   23.1386  -30.1110  -20.3720 H   0  0  0  0  0
   22.9419  -33.5903  -19.3624 H   0  0  0  0  0
   23.3971  -33.1097  -21.0155 H   0  0  0  0  0
   23.9844  -32.1700  -19.6216 H   0  0  0  0  0
   20.2880  -35.7945  -18.1949 H   0  0  0  0  0
   20.5636  -37.0025  -19.4543 H   0  0  0  0  0
   20.2169  -30.5608  -23.4133 H   0  0  0  0  0
   21.9763  -30.5607  -23.1387 H   0  0  0  0  0
   21.3288  -30.8927  -24.7640 H   0  0  0  0  0
  1  2  2  0  0  0
  2  3  1  0  0  0
  2  5  1  0  0  0
  3  4  1  0  0  0
  5  6  4  0  0  0
  5  8  4  0  0  0
  6  7  4  0  0  0
  7  9  4  0  0  0
  8  9  4  0  0  0
  9 10  1  0  0  0
 10 11  4  0  0  0
 10 16  4  0  0  0
 11 12  4  0  0  0
 12 13  1  0  0  0
 12 15  4  0  0  0
 13 14  3  0  0  0
 15 17  4  0  0  0
 16 17  4  0  0  0
 17 18  1  0  0  0
 18 19  1  0  0  0
 18 22  1  0  0  0
 18 27  1  0  0  0
 19 20  1  0  0  0
 19 21  1  0  0  0
 22 23  1  0  0  0
 22 25  2  0  0  0
 23 24  3  0  0  0
 25 26  1  0  0  0
 25 33  1  0  0  0
 27 28  4  0  0  0
 27 32  4  0  0  0
 28 29  1  0  0  0
 28 30  4  0  0  0
 30 31  4  0  0  0
 31 32  4  0  0  0
 32 33  1  0  0  0
  4 34  1  0  0  0
  4 35  1  0  0  0
  4 36  1  0  0  0
  6 37  1  0  0  0
  7 38  1  0  0  0
 11 39  1  0  0  0
 15 40  1  0  0  0
 16 41  1  0  0  0
 19 42  1  0  0  0
 20 43  1  0  0  0
 20 44  1  0  0  0
 20 45  1  0  0  0
 21 46  1  0  0  0
 21 47  1  0  0  0
 21 48  1  0  0  0
 26 49  1  0  0  0
 26 50  1  0  0  0
 29 51  1  0  0  0
 29 52  1  0  0  0
 29 53  1  0  0  0
M  END
$$$$
