4ow0_ligand
  -I-interpret- 

 57 60  0  0  0  0  0  0  0  0999 V2000
   -8.7950   45.8410  -42.7920 F   0  0  0  0  0
   -8.4950   46.9800  -42.2180 C   0  0  0  0  0
   -7.3700   47.6520  -42.6080 C   0  0  0  0  0
   -7.0440   48.8740  -41.9890 C   0  0  0  0  0
   -7.8890   49.4130  -40.9790 C   0  0  0  0  0
   -9.3400   47.4950  -41.2090 C   0  0  0  0  0
   -9.0210   48.7200  -40.5890 C   0  0  0  0  0
   -9.9770   49.2790  -39.4950 C   0  0  0  0  0
  -11.3530   48.9550  -39.8030 N   0  0  0  0  0
  -12.2010   48.4090  -38.8130 C   0  0  0  0  0
  -11.8240   48.2390  -37.6700 O   0  0  0  0  0
  -13.6730   48.0270  -39.1780 C   0  0  0  0  0
  -14.5370   48.3430  -38.0530 C   0  0  0  0  0
  -15.9700   47.9290  -38.4060 C   0  0  0  0  0
  -16.2170   46.6060  -39.0460 N   0  3  0  0  0
  -15.1130   46.1590  -39.9340 C   0  0  0  0  0
  -13.7140   46.5690  -39.5140 C   0  0  0  0  0
  -17.6320   46.4130  -39.6150 C   0  0  0  0  0
  -18.7090   46.5420  -38.5580 C   0  0  0  0  0
  -17.7520   45.0150  -40.2820 C   0  0  0  0  0
  -17.8000   44.8180  -41.7770 C   0  0  0  0  0
  -17.7370   45.9260  -42.6800 C   0  0  0  0  0
  -17.7640   45.7240  -44.0760 C   0  0  0  0  0
  -17.8340   44.4130  -44.5740 C   0  0  0  0  0
  -17.9230   43.3300  -43.7070 C   0  0  0  0  0
  -17.8810   43.5350  -42.2840 C   0  0  0  0  0
  -17.9540   42.3830  -41.3810 C   0  0  0  0  0
  -17.9600   42.5790  -39.9570 C   0  0  0  0  0
  -17.8460   43.9090  -39.4130 C   0  0  0  0  0
   -6.7308   47.2452  -43.3916 H   0  0  0  0  0
   -6.1414   49.4088  -42.2845 H   0  0  0  0  0
   -7.6453   50.3684  -40.5143 H   0  0  0  0  0
  -10.2343   46.9474  -40.9116 H   0  0  0  0  0
   -9.8710   50.3631  -39.4554 H   0  0  0  0  0
   -9.7158   48.8304  -38.5366 H   0  0  0  0  0
  -11.7140   49.1220  -40.7423 H   0  0  0  0  0
  -14.0250   48.5919  -40.0412 H   0  0  0  0  0
  -14.5000   49.4124  -37.8454 H   0  0  0  0  0
  -14.2030   47.8050  -37.1658 H   0  0  0  0  0
  -16.2934   48.6591  -39.1479 H   0  0  0  0  0
  -16.4850   47.8721  -37.4470 H   0  0  0  0  0
  -16.2003   45.9424  -38.2715 H   0  0  0  0  0
  -15.2910   46.6262  -40.9026 H   0  0  0  0  0
  -15.1301   45.0692  -39.9187 H   0  0  0  0  0
  -13.4263   45.9947  -38.6334 H   0  0  0  0  0
  -13.0265   46.3761  -40.3375 H   0  0  0  0  0
  -17.7838   47.2046  -40.3487 H   0  0  0  0  0
  -18.5523   45.7872  -37.7874 H   0  0  0  0  0
  -18.6605   47.5349  -38.1110 H   0  0  0  0  0
  -19.6866   46.3964  -39.0175 H   0  0  0  0  0
  -17.6672   46.9392  -42.2843 H   0  0  0  0  0
  -17.7310   46.5735  -44.7582 H   0  0  0  0  0
  -17.8184   44.2429  -45.6505 H   0  0  0  0  0
  -18.0250   42.3213  -44.1073 H   0  0  0  0  0
  -18.0039   41.3741  -41.7906 H   0  0  0  0  0
  -18.0507   41.7225  -39.2890 H   0  0  0  0  0
  -17.8325   44.0590  -38.3335 H   0  0  0  0  0
  1  2  1  0  0  0
  2  3  4  0  0  0
  2  6  4  0  0  0
  3  4  4  0  0  0
  4  5  4  0  0  0
  5  7  4  0  0  0
  6  7  4  0  0  0
  7  8  1  0  0  0
  8  9  1  0  0  0
  9 10  1  0  0  0
 10 11  2  0  0  0
 10 12  1  0  0  0
 12 13  1  0  0  0
 12 17  1  0  0  0
 13 14  1  0  0  0
 14 15  1  0  0  0
 15 16  1  0  0  0
 15 18  1  0  0  0
 16 17  1  0  0  0
 18 19  1  0  0  0
 18 20  1  0  0  0
 20 21  4  0  0  0
 20 29  4  0  0  0
 21 22  4  0  0  0
 21 26  4  0  0  0
 22 23  4  0  0  0
 23 24  4  0  0  0
 24 25  4  0  0  0
 25 26  4  0  0  0
 26 27  4  0  0  0
 27 28  4  0  0  0
 28 29  4  0  0  0
  3 30  1  0  0  0
  4 31  1  0  0  0
  5 32  1  0  0  0
  6 33  1  0  0  0
  8 34  1  0  0  0
  8 35  1  0  0  0
  9 36  1  0  0  0
 12 37  1  0  0  0
 13 38  1  0  0  0
 13 39  1  0  0  0
 14 40  1  0  0  0
 14 41  1  0  0  0
 15 42  1  0  0  0
 16 43  1  0  0  0
 16 44  1  0  0  0
 17 45  1  0  0  0
 17 46  1  0  0  0
 18 47  1  0  0  0
 19 48  1  0  0  0
 19 49  1  0  0  0
 19 50  1  0  0  0
 22 51  1  0  0  0
 23 52  1  0  0  0
 24 53  1  0  0  0
 25 54  1  0  0  0
 27 55  1  0  0  0
 28 56  1  0  0  0
 29 57  1  0  0  0
M  END
$$$$
