5W12_LIGAND
  -I-interpret- 

 39 40  0  0  0  0  0  0  0  0999 V2000
   41.8370   -9.5480   -5.1610 C   0  0  0  0  0
   41.0400  -10.7030   -5.0920 C   0  0  0  0  0
   40.9040  -11.4710   -6.2560 C   0  0  0  0  0
   41.2830  -11.9540   -8.7140 C   0  0  0  0  0
   41.4930  -11.1020   -7.4690 C   0  0  0  0  0
   42.4450   -9.1630   -6.3770 C   0  0  0  0  0
   42.2780   -9.9450   -7.5210 C   0  0  0  0  0
   40.3850  -11.1500   -3.7890 C   0  0  0  0  0
   40.8770  -10.8020   -2.7010 O   0  0  0  0  0
   39.3840  -11.9150   -3.7670 O   0  0  0  0  0
   40.1830  -11.4170   -9.6780 C   0  0  0  0  0
   38.6340  -11.4290   -9.0890 B   0  0  0  0  0
   38.3940  -12.4460   -7.9660 O   0  0  0  0  0
   38.2480  -10.0720   -8.4830 O   0  0  0  0  0
   41.4100   -9.8290  -11.2280 C   0  0  0  0  0
   42.0270  -10.6980  -11.7900 O   0  0  0  0  0
   41.6540   -8.4000  -11.7000 C   0  0  0  0  0
   42.5880   -7.7740  -10.6900 C   0  0  0  0  0
   42.3890   -7.1210   -9.4790 C   0  0  0  0  0
   43.5960   -6.7520   -8.8480 C   0  0  0  0  0
   44.7250   -7.1210   -9.5760 C   0  0  0  0  0
   44.2760   -7.9400  -11.0440 S   0  0  0  0  0
   40.5650  -10.0760  -10.2070 N   0  0  0  0  0
   41.9879   -8.9426   -4.2672 H   0  0  0  0  0
   40.3179  -12.3891   -6.2143 H   0  0  0  0  0
   40.9625  -12.9402   -8.3782 H   0  0  0  0  0
   42.2227  -11.9531   -9.2663 H   0  0  0  0  0
   43.0452   -8.2542   -6.4217 H   0  0  0  0  0
   42.7591   -9.6543   -8.4549 H   0  0  0  0  0
   39.1070  -12.1036   -4.6666 H   0  0  0  0  0
   40.1468  -12.1384  -10.4944 H   0  0  0  0  0
   37.4795  -12.3938   -7.6786 H   0  0  0  0  0
   37.3476  -10.1148   -8.1527 H   0  0  0  0  0
   40.7189   -7.8439  -11.7669 H   0  0  0  0  0
   42.0900   -8.3859  -12.6989 H   0  0  0  0  0
   41.4037   -6.9155   -9.0606 H   0  0  0  0  0
   43.6404   -6.2324   -7.8908 H   0  0  0  0  0
   45.7515   -6.9232   -9.2675 H   0  0  0  0  0
   40.1455   -9.2656   -9.7513 H   0  0  0  0  0
  2  1  4  0  0  0
  6  1  4  0  0  0
  3  2  4  0  0  0
  2  8  1  0  0  0
  5  3  4  0  0  0
  4  5  1  0  0  0
 11  4  1  0  0  0
  5  7  4  0  0  0
  7  6  4  0  0  0
  8  9  2  0  0  0
  8 10  1  0  0  0
 11 12  1  0  0  0
 23 11  1  0  0  0
 12 13  1  0  0  0
 12 14  1  0  0  0
 15 16  2  0  0  0
 15 17  1  0  0  0
 15 23  1  0  0  0
 17 18  1  0  0  0
 18 19  4  0  0  0
 18 22  4  0  0  0
 19 20  4  0  0  0
 20 21  4  0  0  0
 21 22  4  0  0  0
  1 24  1  0  0  0
  3 25  1  0  0  0
  4 26  1  0  0  0
  4 27  1  0  0  0
  6 28  1  0  0  0
  7 29  1  0  0  0
 10 30  1  0  0  0
 11 31  1  0  0  0
 13 32  1  0  0  0
 14 33  1  0  0  0
 17 34  1  0  0  0
 17 35  1  0  0  0
 19 36  1  0  0  0
 20 37  1  0  0  0
 21 38  1  0  0  0
 23 39  1  0  0  0
M  END
$$$$
