### 
### Created by X-TOOL on Mon Sep 10 21:13:33 2018
### 

@<TRIPOS>MOLECULE
5W12_LIGAND
   38    39     1     0     0
SMALL
GAST_HUCK


@<TRIPOS>ATOM
      1 C6         41.8370   -9.5480   -5.1610 C.ar      1 9TG        -0.0546
      2 C5         41.0400  -10.7030   -5.0920 C.ar      1 9TG         0.0034
      3 C4         40.9040  -11.4710   -6.2560 C.ar      1 9TG        -0.0487
      4 C1         41.2830  -11.9540   -8.7140 C.3       1 9TG        -0.1255
      5 C3         41.4930  -11.1020   -7.4690 C.ar      1 9TG        -0.0674
      6 C7         42.4450   -9.1630   -6.3770 C.ar      1 9TG        -0.0650
      7 C8         42.2780   -9.9450   -7.5210 C.ar      1 9TG        -0.0602
      8 C9         40.3850  -11.1500   -3.7890 C.2       1 9TG         0.0613
      9 O10        40.8770  -10.8020   -2.7010 O.co2     1 9TG        -0.5607
     10 O11        39.3840  -11.9150   -3.7670 O.co2     1 9TG        -0.5607
     11 C12        40.1830  -11.4170   -9.6780 C.3       1 9TG        -0.2145
     12 B13        38.6340  -11.4290   -9.0890 B         1 9TG         3.0000
     13 O14        38.3940  -12.4460   -7.9660 O.3       1 9TG        -0.8710
     14 O15        38.2480  -10.0720   -8.4830 O.3       1 9TG        -0.8710
     15 C17        41.4100   -9.8290  -11.2280 C.2       1 9TG         0.1614
     16 O18        42.0270  -10.6980  -11.7900 O.2       1 9TG        -0.3962
     17 C19        41.6540   -8.4000  -11.7000 C.3       1 9TG         0.0793
     18 C20        42.5880   -7.7740  -10.6900 C.2       1 9TG         0.0306
     19 C21        42.3890   -7.1210   -9.4790 C.2       1 9TG        -0.0791
     20 C22        43.5960   -6.7520   -8.8480 C.2       1 9TG        -0.0924
     21 C23        44.7250   -7.1210   -9.5760 C.2       1 9TG        -0.0189
     22 S24        44.2760   -7.9400  -11.0440 S.3       1 9TG        -0.0419
     23 N6         40.5650  -10.0760  -10.2070 N.am      1 9TG        -0.4344
     24 H          41.9879   -8.9426   -4.2672 H         1 9TG         0.0593
     25 H          40.3179  -12.3891   -6.2143 H         1 9TG         0.0589
     26 H          40.9625  -12.9402   -8.3782 H         1 9TG         0.0094
     27 H          42.2227  -11.9531   -9.2663 H         1 9TG         0.0094
     28 H          43.0452   -8.2542   -6.4217 H         1 9TG         0.0606
     29 H          42.7591   -9.6543   -8.4549 H         1 9TG         0.0577
     30 H          40.1468  -12.1384  -10.4944 H         1 9TG        -0.1800
     31 H          37.4700  -12.4226   -7.7067 H         1 9TG        -0.1290
     32 H          38.3752   -9.3823   -9.1385 H         1 9TG        -0.1290
     33 H          40.7189   -7.8439  -11.7669 H         1 9TG         0.0684
     34 H          42.0900   -8.3859  -12.6989 H         1 9TG         0.0684
     35 H          41.4037   -6.9155   -9.0606 H         1 9TG         0.0284
     36 H          43.6404   -6.2324   -7.8908 H         1 9TG         0.0373
     37 H          45.7515   -6.9232   -9.2675 H         1 9TG         0.0603
     38 H          40.1455   -9.2656   -9.7513 H         1 9TG         0.1461
@<TRIPOS>BOND
     1    2    1 ar 
     2    6    1 ar 
     3    3    2 ar 
     4    2    8 1  
     5    5    3 ar 
     6    4    5 1  
     7   11    4 1  
     8    5    7 ar 
     9    7    6 ar 
    10    8    9 ar 
    11    8   10 ar 
    12   11   12 1  
    13   23   11 1  
    14   12   13 1  
    15   12   14 1  
    16   15   16 2  
    17   15   17 1  
    18   15   23 am 
    19   17   18 1  
    20   18   19 2  
    21   18   22 1  
    22   19   20 1  
    23   20   21 2  
    24   21   22 1  
    25    1   24 1  
    26    3   25 1  
    27    4   26 1  
    28    4   27 1  
    29    6   28 1  
    30    7   29 1  
    31   11   30 1  
    32   13   31 1  
    33   14   32 1  
    34   17   33 1  
    35   17   34 1  
    36   19   35 1  
    37   20   36 1  
    38   21   37 1  
    39   23   38 1  
@<TRIPOS>SUBSTRUCTURE
     1 9TG         1

