3f8s_ligand
  -I-interpret- 

 52 55  0  0  0  0  0  0  0  0999 V2000
   16.1430   19.4560   40.3580 F   0  0  0  0  0
   17.0780   18.6120   39.9920 C   0  0  0  0  0
   18.1070   18.6260   40.8040 F   0  0  0  0  0
   17.6730   19.2050   38.7760 C   0  0  0  0  0
   18.4860   18.0140   38.3480 C   0  0  0  0  0
   16.6420   17.1730   39.6260 C   0  0  0  0  0
   17.4760   16.9630   38.4580 N   0  0  0  0  0
   17.4400   16.0360   37.5030 C   0  0  0  0  0
   16.6750   15.1080   37.4880 O   0  0  0  0  0
   18.5110   16.2140   36.4300 C   0  0  0  0  0
   18.7510   15.0330   35.6110 N   0  3  0  0  0
   19.3860   15.5360   34.3910 C   0  0  0  0  0
   18.1820   17.3040   35.4120 C   0  0  0  0  0
   19.1730   17.0500   34.3130 C   0  0  0  0  0
   18.7670   17.4680   32.9350 N   0  3  0  0  0
   19.9660   17.4090   32.0590 C   0  0  0  0  0
   19.5350   17.5030   30.5960 C   0  0  0  0  0
   18.7330   18.7120   30.4120 N   0  0  0  0  0
   17.8000   19.2300   31.4350 C   0  0  0  0  0
   18.2230   18.8440   32.8680 C   0  0  0  0  0
   18.8550   19.3410   29.2070 C   0  0  0  0  0
   19.7180   18.8310   28.2700 N   0  0  0  0  0
   19.8820   19.4110   27.0620 C   0  0  0  0  0
   19.1710   20.5640   26.7750 C   0  0  0  0  0
   18.2870   21.0730   27.7410 C   0  0  0  0  0
   18.1310   20.4650   28.9360 N   0  0  0  0  0
   18.2320   20.1286   38.9263 H   0  0  0  0  0
   16.9637   19.5818   38.0390 H   0  0  0  0  0
   19.3812   17.8421   38.9456 H   0  0  0  0  0
   18.9330   18.1066   37.3582 H   0  0  0  0  0
   15.5731   17.0508   39.4511 H   0  0  0  0  0
   16.7771   16.4394   40.4208 H   0  0  0  0  0
   19.3813   16.4609   37.0381 H   0  0  0  0  0
   17.8852   14.5338   35.4068 H   0  0  0  0  0
   19.3425   14.3551   36.0916 H   0  0  0  0  0
   18.9435   15.0551   33.5187 H   0  0  0  0  0
   20.4528   15.3134   34.4108 H   0  0  0  0  0
   18.2609   18.3083   35.8281 H   0  0  0  0  0
   17.1488   17.2620   35.0672 H   0  0  0  0  0
   20.0643   17.6579   34.4684 H   0  0  0  0  0
   18.0267   16.8328   32.6368 H   0  0  0  0  0
   20.4893   16.4670   32.2232 H   0  0  0  0  0
   20.6296   18.2406   32.2958 H   0  0  0  0  0
   18.9443   16.6264   30.3300 H   0  0  0  0  0
   20.4160   17.5456   29.9555 H   0  0  0  0  0
   16.8179   18.7967   31.2455 H   0  0  0  0  0
   17.7954   20.3178   31.3667 H   0  0  0  0  0
   19.0023   19.5344   33.1907 H   0  0  0  0  0
   17.3422   18.8936   33.5081 H   0  0  0  0  0
   20.5612   18.9798   26.3266 H   0  0  0  0  0
   19.2950   21.0679   25.8164 H   0  0  0  0  0
   17.7166   21.9755   27.5215 H   0  0  0  0  0
  1  2  1  0  0  0
  2  3  1  0  0  0
  2  4  1  0  0  0
  2  6  1  0  0  0
  4  5  1  0  0  0
  5  7  1  0  0  0
  6  7  1  0  0  0
  7  8  1  0  0  0
  8  9  2  0  0  0
  8 10  1  0  0  0
 10 11  1  0  0  0
 10 13  1  0  0  0
 11 12  1  0  0  0
 12 14  1  0  0  0
 13 14  1  0  0  0
 14 15  1  0  0  0
 15 16  1  0  0  0
 15 20  1  0  0  0
 16 17  1  0  0  0
 17 18  1  0  0  0
 18 19  1  0  0  0
 18 21  1  0  0  0
 19 20  1  0  0  0
 21 22  4  0  0  0
 21 26  4  0  0  0
 22 23  4  0  0  0
 23 24  4  0  0  0
 24 25  4  0  0  0
 25 26  4  0  0  0
  4 27  1  0  0  0
  4 28  1  0  0  0
  5 29  1  0  0  0
  5 30  1  0  0  0
  6 31  1  0  0  0
  6 32  1  0  0  0
 10 33  1  0  0  0
 11 34  1  0  0  0
 11 35  1  0  0  0
 12 36  1  0  0  0
 12 37  1  0  0  0
 13 38  1  0  0  0
 13 39  1  0  0  0
 14 40  1  0  0  0
 15 41  1  0  0  0
 16 42  1  0  0  0
 16 43  1  0  0  0
 17 44  1  0  0  0
 17 45  1  0  0  0
 19 46  1  0  0  0
 19 47  1  0  0  0
 20 48  1  0  0  0
 20 49  1  0  0  0
 23 50  1  0  0  0
 24 51  1  0  0  0
 25 52  1  0  0  0
M  END
$$$$
