1umw_ligand
  -I-interpret- 

115116  0  0  0  0  0  0  0  0999 V2000
   16.3950   -7.5830    9.8010 N   0  3  0  0  0
   15.5610   -7.7910    8.5860 C   0  0  0  0  0
   16.4370   -8.0650    7.3710 C   0  0  0  0  0
   17.5570   -7.5600    7.3010 O   0  0  0  0  0
   14.8620   -6.4350    8.4000 C   0  0  0  0  0
   15.2110   -5.6250    9.6170 C   0  0  0  0  0
   16.5070   -6.1570   10.1420 C   0  0  0  0  0
   15.9270   -8.8440    6.4230 N   0  0  0  0  0
   16.6860   -9.1650    5.2240 C   0  0  0  0  0
   16.3250   -8.2200    4.0840 C   0  0  0  0  0
   16.7950   -8.3760    2.9570 O   0  0  0  0  0
   16.4730  -10.6310    4.8320 C   0  0  0  0  0
   17.1560  -11.6060    5.7850 C   0  0  0  0  0
   18.9520  -11.3890    5.7770 S   0  0  0  0  0
   19.4550  -12.4320    7.1290 C   0  0  0  0  0
   15.4900   -7.2330    4.3940 N   0  0  0  0  0
   15.0750   -6.2330    3.4260 C   0  0  0  0  0
   14.7910   -4.9330    4.1620 C   0  0  0  0  0
   14.5730   -4.9420    5.3740 O   0  0  0  0  0
   13.8240   -6.6860    2.6700 C   0  0  0  0  0
   12.6340   -7.0400    3.5590 C   0  0  0  0  0
   11.4230   -7.4850    2.7580 C   0  0  0  0  0
   11.5300   -7.7400    1.5570 O   0  0  0  0  0
   10.2660   -7.5730    3.4170 N   0  0  0  0  0
   14.8050   -3.8220    3.4360 N   0  0  0  0  0
   14.5060   -2.5230    4.0380 C   0  0  0  0  0
   13.0040   -2.4130    4.3170 C   0  0  0  0  0
   12.2600   -3.3820    4.1230 O   0  0  0  0  0
   14.9520   -1.3920    3.1170 C   0  0  0  0  0
   14.2570   -1.4450    1.8840 O   0  0  0  0  0
   12.4670   -1.3020    4.8210 N   0  0  0  0  0
   11.1150   -1.1710    5.3530 C   0  0  0  0  0
   11.0270    0.2720    5.8830 C   0  0  0  0  0
    9.6140    0.5980    6.3400 C   0  0  0  0  0
   11.9120    0.4210    6.9900 O   0  0  0  0  0
   13.1820    1.3990    6.8550 P   0  0  0  0  0
   13.9030    1.1640    8.2580 O   0  0  0  0  0
   12.5480    2.8310    6.6330 O   0  0  0  0  0
   14.0260    0.8660    5.6050 O   0  0  0  0  0
   10.0530   -1.4240    4.3020 C   0  0  0  0  0
   10.1320   -0.8410    3.1120 O   0  0  0  0  0
    9.1180   -2.3380    4.5530 N   0  0  0  0  0
    8.0040   -2.7570    3.6510 C   0  0  0  0  0
    7.0000   -1.6420    3.3870 C   0  0  0  0  0
    6.8090   -0.7400    4.2070 O   0  0  0  0  0
    7.3180   -3.8860    4.4320 C   0  0  0  0  0
    8.3080   -4.3180    5.4640 C   0  0  0  0  0
    9.1080   -3.0880    5.8200 C   0  0  0  0  0
    6.3500   -1.7410    2.2350 N   0  0  0  0  0
    5.3520   -0.7860    1.7820 C   0  0  0  0  0
    4.1780   -0.6550    2.7570 C   0  0  0  0  0
    3.9230   -1.5500    3.5720 O   0  0  0  0  0
    4.8550   -1.2180    0.4020 C   0  0  0  0  0
    4.2200   -0.1710   -0.5050 C   0  0  0  0  0
    5.0060    1.1300   -0.4500 C   0  0  0  0  0
    4.1390   -0.7060   -1.9320 C   0  0  0  0  0
    3.4608    0.3806    2.7285 O   0  0  0  0  0
   17.3305   -7.9448    9.6159 H   0  0  0  0  0
   15.9534   -8.0678   10.5823 H   0  0  0  0  0
   14.8788   -8.6349    8.6888 H   0  0  0  0  0
   13.7833   -6.5551    8.2992 H   0  0  0  0  0
   15.1918   -5.9406    7.4863 H   0  0  0  0  0
   15.3029   -4.5690    9.3632 H   0  0  0  0  0
   14.4280   -5.7060   10.3709 H   0  0  0  0  0
   17.3844   -5.6724    9.7136 H   0  0  0  0  0
   16.6569   -5.9721   11.2057 H   0  0  0  0  0
   14.9872   -9.2235    6.5379 H   0  0  0  0  0
   17.7463   -9.0279    5.4363 H   0  0  0  0  0
   16.9043  -10.7766    3.8416 H   0  0  0  0  0
   15.4020  -10.8313    4.8624 H   0  0  0  0  0
   16.9288  -12.6220    5.4620 H   0  0  0  0  0
   16.7893  -11.4177    6.7940 H   0  0  0  0  0
   18.9858  -12.0835    8.0491 H   0  0  0  0  0
   19.1469  -13.4582    6.9287 H   0  0  0  0  0
   20.5391  -12.3907    7.2342 H   0  0  0  0  0
   15.1278   -7.1760    5.3458 H   0  0  0  0  0
   15.8726   -6.0890    2.6972 H   0  0  0  0  0
   14.0930   -7.5909    2.1251 H   0  0  0  0  0
   13.5133   -5.8511    2.0419 H   0  0  0  0  0
   12.3567   -6.1482    4.1211 H   0  0  0  0  0
   12.9311   -7.8650    4.2064 H   0  0  0  0  0
    9.4200   -7.8619    2.9258 H   0  0  0  0  0
   10.2276   -7.3513    4.4119 H   0  0  0  0  0
   15.0279   -3.8750    2.4421 H   0  0  0  0  0
   15.0516   -2.4386    4.9778 H   0  0  0  0  0
   16.0197   -1.4959    2.9238 H   0  0  0  0  0
   14.7379   -0.4391    3.6009 H   0  0  0  0  0
   14.5521   -0.7260    1.3205 H   0  0  0  0  0
   13.0544   -0.4682    4.8361 H   0  0  0  0  0
   10.9311   -1.9122    6.1308 H   0  0  0  0  0
   11.3032    0.9517    5.0769 H   0  0  0  0  0
    8.9279    0.4906    5.4999 H   0  0  0  0  0
    9.3243   -0.0866    7.1372 H   0  0  0  0  0
    9.5804    1.6229    6.7095 H   0  0  0  0  0
   14.2514    0.2701    8.2917 H   0  0  0  0  0
   14.3802   -0.0031    5.8067 H   0  0  0  0  0
    8.3801   -3.0461    2.6696 H   0  0  0  0  0
    7.0385   -4.7114    3.7772 H   0  0  0  0  0
    6.3880   -3.5473    4.8885 H   0  0  0  0  0
    7.8079   -4.7292    6.3409 H   0  0  0  0  0
    8.9529   -5.1099    5.0831 H   0  0  0  0  0
    8.6785   -2.5234    6.6476 H   0  0  0  0  0
   10.1077   -3.3198    6.1874 H   0  0  0  0  0
    6.5632   -2.5347    1.6308 H   0  0  0  0  0
    5.8185    0.1977    1.7294 H   0  0  0  0  0
    4.0636   -1.9414    0.5985 H   0  0  0  0  0
    5.7463   -1.5515   -0.1295 H   0  0  0  0  0
    3.2088    0.0384   -0.1562 H   0  0  0  0  0
    5.0137    1.5054    0.5733 H   0  0  0  0  0
    6.0291    0.9491   -0.7797 H   0  0  0  0  0
    4.5365    1.8646   -1.1043 H   0  0  0  0  0
    5.1427   -0.9341   -2.2906 H   0  0  0  0  0
    3.5325   -1.6116   -1.9453 H   0  0  0  0  0
    3.6842    0.0469   -2.5757 H   0  0  0  0  0
    3.7852    0.9745    2.0475 H   0  0  0  0  0
  3  2  1  0  0  0
  2  5  1  0  0  0
  2  1  1  0  0  0
  1  7  1  0  0  0
  7  6  1  0  0  0
  5  6  1  0  0  0
  3  4  2  0  0  0
  9  8  1  0  0  0
  9 12  1  0  0  0
 10  9  1  0  0  0
 10 11  2  0  0  0
 12 13  1  0  0  0
 13 14  1  0  0  0
 14 15  1  0  0  0
  8  3  1  0  0  0
 17 16  1  0  0  0
 17 20  1  0  0  0
 18 17  1  0  0  0
 18 19  2  0  0  0
 20 21  1  0  0  0
 21 22  1  0  0  0
 22 24  1  0  0  0
 22 23  2  0  0  0
 16 10  1  0  0  0
 26 25  1  0  0  0
 26 29  1  0  0  0
 27 26  1  0  0  0
 27 28  2  0  0  0
 29 30  1  0  0  0
 25 18  1  0  0  0
 43 44  1  0  0  0
 43 46  1  0  0  0
 42 43  1  0  0  0
 42 48  1  0  0  0
 48 47  1  0  0  0
 47 46  1  0  0  0
 44 45  2  0  0  0
 49 50  1  0  0  0
 50 53  1  0  0  0
 50 51  1  0  0  0
 51 52  2  0  0  0
 53 54  1  0  0  0
 54 55  1  0  0  0
 54 56  1  0  0  0
 44 49  1  0  0  0
 31 27  1  0  0  0
 32 31  1  0  0  0
 32 33  1  0  0  0
 40 32  1  0  0  0
 33 35  1  0  0  0
 33 34  1  0  0  0
 35 36  1  0  0  0
 36 37  1  0  0  0
 36 38  2  0  0  0
 36 39  1  0  0  0
 40 41  2  0  0  0
 40 42  1  0  0  0
 51 57  1  0  0  0
  1 58  1  0  0  0
  1 59  1  0  0  0
  2 60  1  0  0  0
  5 61  1  0  0  0
  5 62  1  0  0  0
  6 63  1  0  0  0
  6 64  1  0  0  0
  7 65  1  0  0  0
  7 66  1  0  0  0
  8 67  1  0  0  0
  9 68  1  0  0  0
 12 69  1  0  0  0
 12 70  1  0  0  0
 13 71  1  0  0  0
 13 72  1  0  0  0
 15 73  1  0  0  0
 15 74  1  0  0  0
 15 75  1  0  0  0
 16 76  1  0  0  0
 17 77  1  0  0  0
 20 78  1  0  0  0
 20 79  1  0  0  0
 21 80  1  0  0  0
 21 81  1  0  0  0
 24 82  1  0  0  0
 24 83  1  0  0  0
 25 84  1  0  0  0
 26 85  1  0  0  0
 29 86  1  0  0  0
 29 87  1  0  0  0
 30 88  1  0  0  0
 31 89  1  0  0  0
 32 90  1  0  0  0
 33 91  1  0  0  0
 34 92  1  0  0  0
 34 93  1  0  0  0
 34 94  1  0  0  0
 37 95  1  0  0  0
 39 96  1  0  0  0
 43 97  1  0  0  0
 46 98  1  0  0  0
 46 99  1  0  0  0
 47100  1  0  0  0
 47101  1  0  0  0
 48102  1  0  0  0
 48103  1  0  0  0
 49104  1  0  0  0
 50105  1  0  0  0
 53106  1  0  0  0
 53107  1  0  0  0
 54108  1  0  0  0
 55109  1  0  0  0
 55110  1  0  0  0
 55111  1  0  0  0
 56112  1  0  0  0
 56113  1  0  0  0
 56114  1  0  0  0
 57115  1  0  0  0
M  END
$$$$
