### 
### Created by X-TOOL on Mon Sep 10 21:12:50 2018
### 

@<TRIPOS>MOLECULE
1umw_ligand
  112   113     1     0     0
SMALL
GAST_HUCK


@<TRIPOS>ATOM
      1 N          16.3950   -7.5830    9.8010 N.4       1 PRO         0.2461
      2 CA         15.5610   -7.7910    8.5860 C.3       1 PRO         0.0670
      3 C          16.4370   -8.0650    7.3710 C.2       1 PRO         0.2268
      4 O          17.5570   -7.5600    7.3010 O.2       1 PRO        -0.3907
      5 CB         14.8620   -6.4350    8.4000 C.3       1 PRO         0.0127
      6 CG         15.2110   -5.6250    9.6170 C.3       1 PRO        -0.0053
      7 CD         16.5070   -6.1570   10.1420 C.3       1 PRO        -0.0313
      8 N          15.9270   -8.8440    6.4230 N.am      1 MET        -0.2610
      9 CA         16.6860   -9.1650    5.2240 C.3       1 MET         0.1318
     10 C          16.3250   -8.2200    4.0840 C.2       1 MET         0.2039
     11 O          16.7950   -8.3760    2.9570 O.2       1 MET        -0.3944
     12 CB         16.4730  -10.6310    4.8320 C.3       1 MET        -0.0034
     13 CG         17.1560  -11.6060    5.7850 C.3       1 MET        -0.0024
     14 SD         18.9520  -11.3890    5.7770 S.3       1 MET        -0.1639
     15 CE         19.4550  -12.4320    7.1290 C.3       1 MET        -0.0181
     16 N          15.4900   -7.2330    4.3940 N.am      1 GLN        -0.2636
     17 CA         15.0750   -6.2330    3.4260 C.3       1 GLN         0.1330
     18 C          14.7910   -4.9330    4.1620 C.2       1 GLN         0.2041
     19 O          14.5730   -4.9420    5.3740 O.2       1 GLN        -0.3944
     20 CB         13.8240   -6.6860    2.6700 C.3       1 GLN         0.0045
     21 CG         12.6340   -7.0400    3.5590 C.3       1 GLN         0.0412
     22 CD         11.4230   -7.4850    2.7580 C.2       1 GLN         0.1737
     23 OE1        11.5300   -7.7400    1.5570 O.2       1 GLN        -0.3973
     24 NE2        10.2660   -7.5730    3.4170 N.am      1 GLN        -0.3009
     25 N          14.8050   -3.8220    3.4360 N.am      1 SER        -0.2616
     26 CA         14.5060   -2.5230    4.0380 C.3       1 SER         0.1539
     27 C          13.0040   -2.4130    4.3170 C.2       1 SER         0.2063
     28 O          12.2600   -3.3820    4.1230 O.2       1 SER        -0.3943
     29 CB         14.9520   -1.3920    3.1170 C.3       1 SER         0.0843
     30 OG         14.2570   -1.4450    1.8840 O.3       1 SER        -0.3903
     31 N          12.4670   -1.3020    4.8210 N.am      1 TPO        -0.2610
     32 CA         11.1150   -1.1710    5.3530 C.3       1 TPO         0.1614
     33 CB         11.0270    0.2720    5.8830 C.3       1 TPO         0.1262
     34 CG2         9.6140    0.5980    6.3400 C.3       1 TPO        -0.0298
     35 OG1        11.9120    0.4210    6.9900 O.3       1 TPO        -0.2685
     36 P          13.1820    1.3990    6.8550 P.3       1 TPO         0.2014
     37 O1P        13.9030    1.1640    8.2580 O.co2     1 TPO        -0.5537
     38 O2P        12.5480    2.8310    6.6330 O.co2     1 TPO        -0.5537
     39 O3P        14.0260    0.8660    5.6050 O.co2     1 TPO        -0.5537
     40 C          10.0530   -1.4240    4.3020 C.2       1 TPO         0.2093
     41 O          10.1320   -0.8410    3.1120 O.2       1 TPO        -0.3941
     42 N           9.1180   -2.3380    4.5530 N.am      1 PRO        -0.2498
     43 CA          8.0040   -2.7570    3.6510 C.3       1 PRO         0.1337
     44 C           7.0000   -1.6420    3.3870 C.2       1 PRO         0.2035
     45 O           6.8090   -0.7400    4.2070 O.2       1 PRO        -0.3944
     46 CB          7.3180   -3.8860    4.4320 C.3       1 PRO        -0.0104
     47 CG          8.3080   -4.3180    5.4640 C.3       1 PRO        -0.0281
     48 CD          9.1080   -3.0880    5.8200 C.3       1 PRO         0.0369
     49 N           6.3500   -1.7410    2.2350 N.am      1 LEU        -0.2695
     50 CA          5.3520   -0.7860    1.7820 C.3       1 LEU         0.0946
     51 C           4.1780   -0.6550    2.7570 C.2       1 LEU         0.0601
     52 O           3.9230   -1.5500    3.5720 O.co2     1 LEU        -0.5666
     53 CB          4.8550   -1.2180    0.4020 C.3       1 LEU        -0.0156
     54 CG          4.2200   -0.1710   -0.5050 C.3       1 LEU        -0.0431
     55 CD1         5.0060    1.1300   -0.4500 C.3       1 LEU        -0.0625
     56 CD2         4.1390   -0.7060   -1.9320 C.3       1 LEU        -0.0625
     57 O1          3.4608    0.3806    2.7285 O.co2     1 LEU        -0.5666
     58 H1         17.3175   -7.9525    9.6320 H         1 PRO         0.2035
     59 H2         15.9736   -8.0724   10.5749 H         1 PRO         0.2035
     60 H3         14.8384   -8.6079    8.7289 H         1 PRO         0.1099
     61 H4         13.7728   -6.5717    8.3302 H         1 PRO         0.0347
     62 H5         15.2281   -5.9368    7.4902 H         1 PRO         0.0347
     63 H6         15.3204   -4.5646    9.3459 H         1 PRO         0.0320
     64 H7         14.4240   -5.7295   10.3783 H         1 PRO         0.0320
     65 H8         17.3667   -5.6895    9.6397 H         1 PRO         0.0814
     66 H9         16.5921   -6.0087   11.2286 H         1 PRO         0.0814
     67 H10        15.0056   -9.2160    6.5356 H         1 MET         0.1884
     68 H11        17.7538   -9.0273    5.4496 H         1 MET         0.0800
     69 H12        16.8782  -10.7864    3.8213 H         1 MET         0.0320
     70 H13        15.3931  -10.8404    4.8303 H         1 MET         0.0320
     71 H14        16.9185  -12.6345    5.4755 H         1 MET         0.0378
     72 H15        16.7793  -11.4335    6.8040 H         1 MET         0.0378
     73 H16        20.5490  -12.3912    7.2362 H         1 MET         0.0340
     74 H17        19.1447  -13.4680    6.9280 H         1 MET         0.0340
     75 H18        18.9822  -12.0813    8.0582 H         1 MET         0.0340
     76 H19        15.1349   -7.1771    5.3272 H         1 GLN         0.1883
     77 H20        15.8885   -6.0722    2.7033 H         1 GLN         0.0801
     78 H21        14.0851   -7.5750    2.0772 H         1 GLN         0.0337
     79 H22        13.5178   -5.8726    1.9958 H         1 GLN         0.0337
     80 H23        12.3596   -6.1543    4.1507 H         1 GLN         0.0504
     81 H24        12.9290   -7.8558    4.2353 H         1 GLN         0.0504
     82 H25         9.4377   -7.8614    2.9367 H         1 GLN         0.1814
     83 H26        10.2273   -7.3506    4.3912 H         1 GLN         0.1814
     84 H27        15.0235   -3.8739    2.4615 H         1 SER         0.1884
     85 H28        15.0515   -2.4396    4.9896 H         1 SER         0.0823
     86 H29        16.0314   -1.4857    2.9270 H         1 SER         0.0606
     87 H30        14.7479   -0.4275    3.6050 H         1 SER         0.0606
     88 H31        13.3243   -1.3613    2.0437 H         1 SER         0.2097
     89 H32        13.0429   -0.4846    4.8358 H         1 TPO         0.1884
     90 H33        10.9701   -1.8848    6.1773 H         1 TPO         0.0830
     91 H34        11.3182    0.9681    5.0826 H         1 TPO         0.0695
     92 H35         9.5788    1.6322    6.7131 H         1 TPO         0.0260
     93 H36         9.3204   -0.0922    7.1446 H         1 TPO         0.0260
     94 H37         8.9206    0.4900    5.4930 H         1 TPO         0.0260
     95 H38         8.4023   -3.1215    2.6926 H         1 PRO         0.0802
     96 H39         7.0721   -4.7227    3.7615 H         1 PRO         0.0313
     97 H40         6.3990   -3.5181    4.9116 H         1 PRO         0.0313
     98 H41         7.7882   -4.7054    6.3526 H         1 PRO         0.0287
     99 H42         8.9682   -5.0977    5.0564 H         1 PRO         0.0287
    100 H43         8.6179   -2.5124    6.6191 H         1 PRO         0.0524
    101 H44        10.1285   -3.3541    6.1327 H         1 PRO         0.0524
    102 H45         6.5590   -2.5191    1.6427 H         1 LEU         0.1875
    103 H46         5.8313    0.2001    1.6931 H         1 LEU         0.0726
    104 H47         4.1057   -2.0077    0.5597 H         1 LEU         0.0308
    105 H48         5.7183   -1.6341   -0.1380 H         1 LEU         0.0308
    106 H49         3.1983    0.0276   -0.1492 H         1 LEU         0.0297
    107 H50         4.5332    1.8722   -1.1100 H         1 LEU         0.0232
    108 H51         6.0387    0.9488   -0.7826 H         1 LEU         0.0232
    109 H52         5.0145    1.5099    0.5823 H         1 LEU         0.0232
    110 H53         3.5661   -1.6450   -1.9395 H         1 LEU         0.0232
    111 H54         5.1543   -0.8929   -2.3117 H         1 LEU         0.0232
    112 H55         3.6381    0.0342   -2.5732 H         1 LEU         0.0232
@<TRIPOS>BOND
     1    3    2 1  
     2    2    5 1  
     3    2    1 1  
     4    1    7 1  
     5    7    6 1  
     6    5    6 1  
     7    3    4 2  
     8    9    8 1  
     9    9   12 1  
    10   10    9 1  
    11   10   11 2  
    12   12   13 1  
    13   13   14 1  
    14   14   15 1  
    15    8    3 am 
    16   17   16 1  
    17   17   20 1  
    18   18   17 1  
    19   18   19 2  
    20   20   21 1  
    21   21   22 1  
    22   22   24 am 
    23   22   23 2  
    24   16   10 am 
    25   26   25 1  
    26   26   29 1  
    27   27   26 1  
    28   27   28 2  
    29   29   30 1  
    30   25   18 am 
    31   43   44 1  
    32   43   46 1  
    33   42   43 1  
    34   42   48 1  
    35   48   47 1  
    36   47   46 1  
    37   44   45 2  
    38   49   50 1  
    39   50   53 1  
    40   50   51 1  
    41   51   52 ar 
    42   53   54 1  
    43   54   55 1  
    44   54   56 1  
    45   44   49 am 
    46   31   27 am 
    47   32   31 1  
    48   32   33 1  
    49   40   32 1  
    50   33   35 1  
    51   33   34 1  
    52   35   36 1  
    53   36   37 ar 
    54   36   38 ar 
    55   36   39 ar 
    56   40   41 2  
    57   40   42 am 
    58   51   57 ar 
    59    1   58 1  
    60    1   59 1  
    61    2   60 1  
    62    5   61 1  
    63    5   62 1  
    64    6   63 1  
    65    6   64 1  
    66    7   65 1  
    67    7   66 1  
    68    8   67 1  
    69    9   68 1  
    70   12   69 1  
    71   12   70 1  
    72   13   71 1  
    73   13   72 1  
    74   15   73 1  
    75   15   74 1  
    76   15   75 1  
    77   16   76 1  
    78   17   77 1  
    79   20   78 1  
    80   20   79 1  
    81   21   80 1  
    82   21   81 1  
    83   24   82 1  
    84   24   83 1  
    85   25   84 1  
    86   26   85 1  
    87   29   86 1  
    88   29   87 1  
    89   30   88 1  
    90   31   89 1  
    91   32   90 1  
    92   33   91 1  
    93   34   92 1  
    94   34   93 1  
    95   34   94 1  
    96   43   95 1  
    97   46   96 1  
    98   46   97 1  
    99   47   98 1  
   100   47   99 1  
   101   48  100 1  
   102   48  101 1  
   103   49  102 1  
   104   50  103 1  
   105   53  104 1  
   106   53  105 1  
   107   54  106 1  
   108   55  107 1  
   109   55  108 1  
   110   55  109 1  
   111   56  110 1  
   112   56  111 1  
   113   56  112 1  
@<TRIPOS>SUBSTRUCTURE
     1 PRO         1

