4p0n_ligand
  -I-interpret- 

 42 46  0  0  0  0  0  0  0  0999 V2000
   21.5690   27.0480   74.3400 C   0  0  0  0  0
   22.0120   26.4470   75.5140 O   0  0  0  0  0
   23.3170   25.9210   75.4440 C   0  0  0  0  0
   24.2720   26.2050   74.5550 N   0  0  0  0  0
   25.3860   25.4480   74.8820 C   0  0  0  0  0
   26.6640   25.3510   74.2900 C   0  0  0  0  0
   27.5910   24.4800   74.8610 C   0  0  0  0  0
   27.2110   23.7320   76.0090 C   0  0  0  0  0
   26.0030   23.8450   76.5460 N   0  0  0  0  0
   25.0650   24.6910   76.0120 C   0  0  0  0  0
   23.7780   25.0180   76.3450 N   0  0  0  0  0
   22.8780   24.6170   77.3030 C   0  0  0  0  0
   23.0020   24.8860   78.7810 C   0  0  0  0  0
   22.0360   23.7380   78.9360 C   0  0  0  0  0
   22.6780   23.1830   77.6750 C   0  0  0  0  0
   20.7070   23.9990   78.8120 N   0  0  0  0  0
   19.8540   24.4130   79.8650 C   0  0  0  0  0
   20.2050   24.6460   81.1340 N   0  0  0  0  0
   19.1830   25.0460   81.9960 C   0  0  0  0  0
   19.3990   25.3320   83.3880 C   0  0  0  0  0
   18.3470   25.7160   84.1560 C   0  0  0  0  0
   17.0450   25.8320   83.5850 C   0  0  0  0  0
   16.8420   25.5600   82.2480 C   0  0  0  0  0
   17.9460   25.1560   81.4560 C   0  0  0  0  0
   18.1410   24.7250   79.7680 S   0  0  0  0  0
   22.2316   27.8748   74.0841 H   0  0  0  0  0
   21.5732   26.3144   73.5338 H   0  0  0  0  0
   20.5563   27.4240   74.4855 H   0  0  0  0  0
   26.9192   25.9413   73.4100 H   0  0  0  0  0
   28.5888   24.3744   74.4351 H   0  0  0  0  0
   27.9305   23.0483   76.4594 H   0  0  0  0  0
   22.1795   25.1831   76.6868 H   0  0  0  0  0
   22.8308   25.8684   79.2212 H   0  0  0  0  0
   23.9609   24.9278   79.2976 H   0  0  0  0  0
   21.9571   23.1966   79.8787 H   0  0  0  0  0
   23.4907   22.4569   77.6941 H   0  0  0  0  0
   22.1799   22.4656   77.0229 H   0  0  0  0  0
   20.2912   23.8879   77.8873 H   0  0  0  0  0
   20.3949   25.2418   83.8217 H   0  0  0  0  0
   18.4981   25.9364   85.2127 H   0  0  0  0  0
   16.2052   26.1375   84.2091 H   0  0  0  0  0
   15.8493   25.6542   81.8079 H   0  0  0  0  0
  1  2  1  0  0  0
  2  3  1  0  0  0
  3  4  4  0  0  0
  3 11  4  0  0  0
  4  5  4  0  0  0
  5  6  4  0  0  0
  5 10  4  0  0  0
  6  7  4  0  0  0
  7  8  4  0  0  0
  8  9  4  0  0  0
  9 10  4  0  0  0
 10 11  4  0  0  0
 11 12  1  0  0  0
 12 13  1  0  0  0
 12 15  1  0  0  0
 13 14  1  0  0  0
 14 15  1  0  0  0
 14 16  1  0  0  0
 16 17  1  0  0  0
 17 18  4  0  0  0
 17 25  4  0  0  0
 18 19  4  0  0  0
 19 20  4  0  0  0
 19 24  4  0  0  0
 20 21  4  0  0  0
 21 22  4  0  0  0
 22 23  4  0  0  0
 23 24  4  0  0  0
 24 25  4  0  0  0
  1 26  1  0  0  0
  1 27  1  0  0  0
  1 28  1  0  0  0
  6 29  1  0  0  0
  7 30  1  0  0  0
  8 31  1  0  0  0
 12 32  1  0  0  0
 13 33  1  0  0  0
 13 34  1  0  0  0
 14 35  1  0  0  0
 15 36  1  0  0  0
 15 37  1  0  0  0
 16 38  1  0  0  0
 20 39  1  0  0  0
 21 40  1  0  0  0
 22 41  1  0  0  0
 23 42  1  0  0  0
M  END
$$$$
