6h7y_ligand
  -I-interpret- 

 52 52  0  0  0  0  0  0  0  0999 V2000
   13.1830   47.2470   39.6330 O   0  0  0  0  0
   13.9650   47.8970   40.3730 C   0  0  0  0  0
   13.8740   49.1330   40.6230 O   0  0  0  0  0
   15.1300   47.1420   41.0670 C   0  0  0  0  0
   14.8810   45.6220   41.1470 C   0  0  0  0  0
   16.2230   44.8740   41.5430 C   0  0  0  0  0
   17.2000   44.9900   40.3520 C   0  0  0  0  0
   17.0240   44.1690   39.3710 O   0  0  0  0  0
   18.1100   45.8960   40.4100 O   0  0  0  0  0
   16.9130   45.4180   42.7340 N   0  0  0  0  0
   18.1500   44.9370   43.0880 C   0  0  0  0  0
   18.5610   43.8380   42.6510 O   0  0  0  0  0
   18.8450   45.7080   43.8920 N   0  0  0  0  0
   20.1590   45.3190   44.4860 C   0  0  0  0  0
   20.3240   45.9870   45.8290 C   0  0  0  0  0
   20.9340   45.3140   46.6960 O   0  0  0  0  0
   19.8840   47.1830   45.9770 O   0  0  0  0  0
   21.2500   45.6940   43.4650 C   0  0  0  0  0
   22.5550   45.0590   43.9240 C   0  0  0  0  0
   23.6420   44.9900   42.7870 C   0  0  0  0  0
   24.3900   46.3680   42.5980 C   0  0  0  0  0
   24.5520   47.0950   43.5490 O   0  0  0  0  0
   24.7420   46.6970   41.3620 N   0  0  0  0  0
   25.5360   47.7360   40.9630 C   0  0  0  0  0
   26.6550   48.2190   41.6700 C   0  0  0  0  0
   27.4920   49.2220   41.1270 C   0  0  0  0  0
   27.2450   49.7080   39.8310 C   0  0  0  0  0
   28.1120   50.7550   39.2450 F   0  0  0  0  0
   26.1710   49.1770   39.1060 C   0  0  0  0  0
   25.3680   48.1810   39.6580 C   0  0  0  0  0
   14.5864   49.3925   41.2119 H   0  0  0  0  0
   15.2200   47.5229   42.0843 H   0  0  0  0  0
   16.0342   47.3051   40.4805 H   0  0  0  0  0
   14.5424   45.2619   40.1755 H   0  0  0  0  0
   14.1217   45.4217   41.9030 H   0  0  0  0  0
   15.9397   43.8496   41.7849 H   0  0  0  0  0
   16.2820   43.5923   39.5670 H   0  0  0  0  0
   16.4706   46.1490   43.2911 H   0  0  0  0  0
   18.4656   46.6258   44.1244 H   0  0  0  0  0
   20.2294   44.2485   44.6788 H   0  0  0  0  0
   19.4564   47.4681   45.1661 H   0  0  0  0  0
   21.3566   46.7772   43.4058 H   0  0  0  0  0
   20.9809   45.3309   42.4731 H   0  0  0  0  0
   22.3351   44.0375   44.2343 H   0  0  0  0  0
   22.9569   45.6735   44.7295 H   0  0  0  0  0
   23.1406   44.7435   41.8511 H   0  0  0  0  0
   24.3796   44.2376   43.0663 H   0  0  0  0  0
   24.3756   46.1023   40.6187 H   0  0  0  0  0
   26.8804   47.8115   42.6555 H   0  0  0  0  0
   28.3242   49.6160   41.7104 H   0  0  0  0  0
   25.9615   49.5458   38.1019 H   0  0  0  0  0
   24.5829   47.7369   39.0461 H   0  0  0  0  0
  1  2  2  0  0  0
  2  3  1  0  0  0
  2  4  1  0  0  0
  4  5  1  0  0  0
  5  6  1  0  0  0
  6  7  1  0  0  0
  6 10  1  0  0  0
  7  8  1  0  0  0
  7  9  2  0  0  0
 10 11  1  0  0  0
 11 12  2  0  0  0
 11 13  1  0  0  0
 13 14  1  0  0  0
 14 15  1  0  0  0
 14 18  1  0  0  0
 15 16  2  0  0  0
 15 17  1  0  0  0
 18 19  1  0  0  0
 19 20  1  0  0  0
 20 21  1  0  0  0
 21 22  2  0  0  0
 21 23  1  0  0  0
 23 24  1  0  0  0
 24 25  4  0  0  0
 24 30  4  0  0  0
 25 26  4  0  0  0
 26 27  4  0  0  0
 27 28  1  0  0  0
 27 29  4  0  0  0
 29 30  4  0  0  0
  3 31  1  0  0  0
  4 32  1  0  0  0
  4 33  1  0  0  0
  5 34  1  0  0  0
  5 35  1  0  0  0
  6 36  1  0  0  0
  8 37  1  0  0  0
 10 38  1  0  0  0
 13 39  1  0  0  0
 14 40  1  0  0  0
 17 41  1  0  0  0
 18 42  1  0  0  0
 18 43  1  0  0  0
 19 44  1  0  0  0
 19 45  1  0  0  0
 20 46  1  0  0  0
 20 47  1  0  0  0
 23 48  1  0  0  0
 25 49  1  0  0  0
 26 50  1  0  0  0
 29 51  1  0  0  0
 30 52  1  0  0  0
M  END
$$$$
