3a3y_ligand
  -I-interpret- 

 85 90  0  0  0  0  0  0  0  0999 V2000
  148.2050   16.4970   -3.5450 C   0  0  0  0  0
  147.7280   15.1070   -3.9900 C   0  0  0  0  0
  146.9210   15.1880   -5.2810 C   0  0  0  0  0
  145.7270   16.1110   -5.0520 C   0  0  0  0  0
  146.1260   17.5110   -4.5640 C   0  0  0  0  0
  144.8680   18.3470   -4.3380 C   0  0  0  0  0
  144.0840   17.8860   -3.1150 C   0  0  0  0  0
  144.9560   17.8490   -1.8520 C   0  0  0  0  0
  146.2610   17.0500   -2.0540 C   0  0  0  0  0
  147.0530   17.4940   -3.3160 C   0  0  0  0  0
  147.0400   17.0220   -0.7270 C   0  0  0  0  0
  146.2220   16.2250    0.2710 C   0  0  0  0  0
  144.8710   16.8650    0.5870 C   0  0  0  0  0
  144.1100   17.4330   -0.6340 C   0  0  0  0  0
  143.0340   16.4250   -1.0340 C   0  0  0  0  0
  142.8080   15.5080    0.1490 C   0  0  0  0  0
  143.9890   15.7100    1.0900 C   0  0  0  0  0
  145.1360   17.9430    1.6430 C   0  0  0  0  0
  147.5890   18.9220   -3.0650 C   0  0  0  0  0
  143.4720   15.8400    2.4930 C   0  0  0  0  0
  142.6150   16.9820    3.0260 C   0  0  0  0  0
  143.7370   14.8980    3.3970 C   0  0  0  0  0
  143.2890   15.4570    4.6690 C   0  0  0  0  0
  147.6940   15.1610   -7.6030 C   0  0  0  0  0
  148.8660   15.7070   -8.4240 C   0  0  0  0  0
  150.1940   15.0610   -8.0170 C   0  0  0  0  0
  150.1030   13.5350   -8.0310 C   0  0  0  0  0
  148.9060   13.0610   -7.2020 C   0  0  0  0  0
  148.6980   11.5570   -7.3300 C   0  0  0  0  0
  149.1440   17.0130   -4.5030 O   0  0  0  0  0
  147.7800   15.7250   -6.2890 O   0  0  0  0  0
  146.8310   18.1440   -5.6330 O   0  0  0  0  0
  148.3340   16.4100   -0.8090 O   0  0  0  0  0
  143.3930   18.5960   -0.2170 O   0  0  0  0  0
  148.9670   18.9360   -2.6580 O   0  0  0  0  0
  142.5640   16.6870    4.4240 O   0  0  0  0  0
  143.4930   14.9810    5.7710 O   0  0  0  0  0
  148.6170   15.5070   -9.8220 O   0  0  0  0  0
  151.2380   15.4940   -8.8940 O   0  0  0  0  0
  151.3190   12.9790   -7.5140 O   0  0  0  0  0
  147.6930   13.7200   -7.6060 O   0  0  0  0  0
  148.6906   16.3761   -2.5767 H   0  0  0  0  0
  147.0928   14.6905   -3.2083 H   0  0  0  0  0
  148.6015   14.4789   -4.1647 H   0  0  0  0  0
  146.5534   14.2091   -5.5887 H   0  0  0  0  0
  145.1041   15.6584   -4.2804 H   0  0  0  0  0
  145.2140   16.2288   -6.0065 H   0  0  0  0  0
  144.2269   18.2391   -5.2129 H   0  0  0  0  0
  145.1720   19.3812   -4.1765 H   0  0  0  0  0
  143.7179   16.8772   -3.3057 H   0  0  0  0  0
  143.2703   18.5914   -2.9464 H   0  0  0  0  0
  145.3143   18.8558   -1.6374 H   0  0  0  0  0
  146.0359   16.0109   -2.2941 H   0  0  0  0  0
  147.1990   18.0604   -0.4364 H   0  0  0  0  0
  146.7901   16.1755    1.1999 H   0  0  0  0  0
  146.0298   15.2452   -0.1661 H   0  0  0  0  0
  143.3528   15.8524   -1.9050 H   0  0  0  0  0
  142.1103   16.9387   -1.3003 H   0  0  0  0  0
  142.7402   14.4686   -0.1722 H   0  0  0  0  0
  141.8682   15.7426    0.6488 H   0  0  0  0  0
  144.6564   14.8483    1.1022 H   0  0  0  0  0
  145.5661   17.4812    2.5318 H   0  0  0  0  0
  145.8320   18.6796    1.2417 H   0  0  0  0  0
  144.1977   18.4324    1.9042 H   0  0  0  0  0
  146.9992   19.3635   -2.2617 H   0  0  0  0  0
  147.5115   19.4768   -4.0000 H   0  0  0  0  0
  141.6312   17.0376    2.5601 H   0  0  0  0  0
  143.0248   17.9681    2.8073 H   0  0  0  0  0
  144.1900   13.9217    3.2244 H   0  0  0  0  0
  146.7392   15.4502   -8.0420 H   0  0  0  0  0
  148.9497   16.7749   -8.2225 H   0  0  0  0  0
  150.4197   15.3752   -6.9980 H   0  0  0  0  0
  149.9610   13.1962   -9.0572 H   0  0  0  0  0
  149.1325   13.3118   -6.1657 H   0  0  0  0  0
  148.5165   11.3042   -8.3746 H   0  0  0  0  0
  149.5892   11.0370   -6.9786 H   0  0  0  0  0
  147.8400   11.2576   -6.7281 H   0  0  0  0  0
  149.8518   16.3771   -4.6301 H   0  0  0  0  0
  146.2739   18.1643   -6.4145 H   0  0  0  0  0
  148.7526   16.4322    0.0547 H   0  0  0  0  0
  142.8498   18.3798    0.5444 H   0  0  0  0  0
  149.2484   19.8428   -2.5160 H   0  0  0  0  0
  149.3553   15.8514  -10.3299 H   0  0  0  0  0
  152.0655   15.0843   -8.6313 H   0  0  0  0  0
  151.2607   12.0208   -7.5233 H   0  0  0  0  0
  2  1  1  0  0  0
  1 10  1  0  0  0
  1 30  1  0  0  0
  3  2  1  0  0  0
  3  4  1  0  0  0
 31  3  1  0  0  0
  4  5  1  0  0  0
  5  6  1  0  0  0
  5 10  1  0  0  0
  5 32  1  0  0  0
  6  7  1  0  0  0
  7  8  1  0  0  0
  9  8  1  0  0  0
  8 14  1  0  0  0
 10  9  1  0  0  0
  9 11  1  0  0  0
 10 19  1  0  0  0
 11 12  1  0  0  0
 11 33  1  0  0  0
 12 13  1  0  0  0
 14 13  1  0  0  0
 13 17  1  0  0  0
 13 18  1  0  0  0
 14 15  1  0  0  0
 14 34  1  0  0  0
 15 16  1  0  0  0
 17 16  1  0  0  0
 17 20  1  0  0  0
 19 35  1  0  0  0
 20 21  1  0  0  0
 20 22  2  0  0  0
 21 36  1  0  0  0
 22 23  1  0  0  0
 23 36  1  0  0  0
 23 37  2  0  0  0
 24 25  1  0  0  0
 24 31  1  0  0  0
 24 41  1  0  0  0
 25 26  1  0  0  0
 25 38  1  0  0  0
 26 27  1  0  0  0
 26 39  1  0  0  0
 27 28  1  0  0  0
 27 40  1  0  0  0
 28 29  1  0  0  0
 28 41  1  0  0  0
  1 42  1  0  0  0
  2 43  1  0  0  0
  2 44  1  0  0  0
  3 45  1  0  0  0
  4 46  1  0  0  0
  4 47  1  0  0  0
  6 48  1  0  0  0
  6 49  1  0  0  0
  7 50  1  0  0  0
  7 51  1  0  0  0
  8 52  1  0  0  0
  9 53  1  0  0  0
 11 54  1  0  0  0
 12 55  1  0  0  0
 12 56  1  0  0  0
 15 57  1  0  0  0
 15 58  1  0  0  0
 16 59  1  0  0  0
 16 60  1  0  0  0
 17 61  1  0  0  0
 18 62  1  0  0  0
 18 63  1  0  0  0
 18 64  1  0  0  0
 19 65  1  0  0  0
 19 66  1  0  0  0
 21 67  1  0  0  0
 21 68  1  0  0  0
 22 69  1  0  0  0
 24 70  1  0  0  0
 25 71  1  0  0  0
 26 72  1  0  0  0
 27 73  1  0  0  0
 28 74  1  0  0  0
 29 75  1  0  0  0
 29 76  1  0  0  0
 29 77  1  0  0  0
 30 78  1  0  0  0
 32 79  1  0  0  0
 33 80  1  0  0  0
 34 81  1  0  0  0
 35 82  1  0  0  0
 38 83  1  0  0  0
 39 84  1  0  0  0
 40 85  1  0  0  0
M  END
$$$$
