4uja_ligand
  -I-interpret- 

 39 42  0  0  0  0  0  0  0  0999 V2000
  -25.1360   10.9650    2.6720 C   0  0  0  0  0
  -25.6440    9.5380    2.5840 C   0  0  0  0  0
  -24.4950    8.5130    2.6660 C   0  0  0  0  0
  -26.3590    7.5680    3.7160 C   0  0  0  0  0
  -22.1210   14.3580   -0.7520 Br  0  0  0  0  0
  -23.1970   11.6900   -0.4750 C   0  0  0  0  0
  -23.9650   10.8590    0.3780 C   0  0  0  0  0
  -24.3210   11.4670    1.5640 C   0  0  0  0  0
  -22.9820   12.9050    0.0660 C   0  0  0  0  0
  -25.3920   11.6590    3.6400 O   0  0  0  0  0
  -25.0510    7.2520    3.1220 N   0  3  0  0  0
  -32.9220   10.1390    4.6570 O   0  0  0  0  0
  -32.2390    9.9970    3.6470 C   0  0  0  0  0
  -32.7980    9.8230    2.4120 N   0  0  0  0  0
  -32.0730    9.5410    1.3020 C   0  0  0  0  0
  -30.7690    9.3920    1.2760 N   0  0  0  0  0
  -30.0990    9.5710    2.4960 C   0  0  0  0  0
  -28.7140    9.3890    2.5200 C   0  0  0  0  0
  -30.7760    9.8890    3.6790 C   0  0  0  0  0
  -30.0590   10.0590    4.8640 C   0  0  0  0  0
  -28.6910    9.8580    4.8730 C   0  0  0  0  0
  -28.0070    9.5030    3.7150 C   0  0  0  0  0
  -26.5480    9.0970    3.7790 C   0  0  0  0  0
  -23.6760   13.0830    1.6380 S   0  0  0  0  0
  -26.1852    9.5451    1.6379 H   0  0  0  0  0
  -23.7294    8.8600    3.3599 H   0  0  0  0  0
  -24.0309    8.3883    1.6877 H   0  0  0  0  0
  -26.4057    7.1571    4.7245 H   0  0  0  0  0
  -27.1480    7.1322    3.1031 H   0  0  0  0  0
  -22.8246   11.3829   -1.4523 H   0  0  0  0  0
  -24.2472    9.8378    0.1217 H   0  0  0  0  0
  -24.4371    6.8054    3.8032 H   0  0  0  0  0
  -25.1486    6.5934    2.3493 H   0  0  0  0  0
  -33.8103    9.9096    2.3212 H   0  0  0  0  0
  -32.6126    9.4297    0.3615 H   0  0  0  0  0
  -28.1828    9.1561    1.5971 H   0  0  0  0  0
  -30.5754   10.3491    5.7790 H   0  0  0  0  0
  -28.1385    9.9800    5.8046 H   0  0  0  0  0
  -26.2608    9.5824    4.7117 H   0  0  0  0  0
  2  1  1  0  0  0
  1  8  1  0  0  0
  1 10  2  0  0  0
  2  3  1  0  0  0
 23  2  1  0  0  0
 11  3  1  0  0  0
  4 11  1  0  0  0
 23  4  1  0  0  0
  9  5  1  0  0  0
  7  6  4  0  0  0
  9  6  4  0  0  0
  8  7  4  0  0  0
  8 24  4  0  0  0
 24  9  4  0  0  0
 13 12  2  0  0  0
 13 14  1  0  0  0
 19 13  1  0  0  0
 15 14  1  0  0  0
 16 15  2  0  0  0
 17 16  1  0  0  0
 18 17  4  0  0  0
 17 19  4  0  0  0
 22 18  4  0  0  0
 20 19  4  0  0  0
 21 20  4  0  0  0
 22 21  4  0  0  0
 22 23  1  0  0  0
  2 25  1  0  0  0
  3 26  1  0  0  0
  3 27  1  0  0  0
  4 28  1  0  0  0
  4 29  1  0  0  0
  6 30  1  0  0  0
  7 31  1  0  0  0
 11 32  1  0  0  0
 11 33  1  0  0  0
 14 34  1  0  0  0
 15 35  1  0  0  0
 18 36  1  0  0  0
 20 37  1  0  0  0
 21 38  1  0  0  0
 23 39  1  0  0  0
M  END
$$$$
