6mu3_ligand
  -I-interpret- 

 87 90  0  0  0  0  0  0  0  0999 V2000
   18.5870  -16.7340  -66.5550 C   0  0  0  0  0
   18.7300  -15.8560  -65.3030 C   0  0  0  0  0
   17.4620  -15.0010  -65.1510 C   0  0  0  0  0
   17.1560  -14.2260  -66.4420 C   0  0  0  0  0
   17.0730  -15.2130  -67.6230 C   0  0  0  0  0
   16.8280  -14.5360  -68.9750 C   0  0  0  0  0
   19.8210  -17.3770  -66.7870 O   0  0  0  0  0
   19.8130  -14.9490  -65.4480 O   0  0  0  0  0
   17.5400  -14.1130  -64.0300 O   0  0  0  0  0
   15.9170  -13.5380  -66.3180 O   0  0  0  0  0
   18.3050  -15.9550  -67.7000 O   0  0  0  0  0
   17.7170  -13.4250  -69.1190 O   0  0  0  0  0
   16.5370  -14.4830  -63.0480 C   0  0  0  0  0
   16.4270  -13.3450  -61.9930 C   0  0  0  0  0
   17.6890  -13.3080  -61.1170 C   0  0  0  0  0
   17.9980  -14.6950  -60.5260 C   0  0  0  0  0
   18.0760  -15.7440  -61.6500 C   0  0  0  0  0
   18.2600  -17.1580  -61.1330 C   0  0  0  0  0
   15.3450  -13.6130  -61.1000 O   0  0  0  0  0
   17.6020  -12.3350  -60.0720 O   0  0  0  0  0
   19.2410  -14.6580  -59.8620 O   0  0  0  0  0
   16.8530  -15.7240  -62.4200 O   0  0  0  0  0
   18.3010  -18.0400  -62.2570 O   0  0  0  0  0
   14.4480  -12.4840  -61.0750 C   0  0  0  0  0
   13.4170  -12.7190  -59.9360 C   0  0  0  0  0
   12.4450  -13.8230  -60.3420 C   0  0  0  0  0
   11.7730  -13.4870  -61.6770 C   0  0  0  0  0
   12.8180  -13.2750  -62.7620 C   0  0  0  0  0
   12.1790  -12.7790  -64.0480 C   0  0  0  0  0
   12.6110  -11.5500  -59.7570 O   0  0  0  0  0
   11.4380  -14.0320  -59.3700 O   0  0  0  0  0
   10.9280  -14.5540  -62.0690 O   0  0  0  0  0
   13.7950  -12.2800  -62.3440 O   0  0  0  0  0
   13.1980  -12.2650  -64.8990 O   0  0  0  0  0
   13.0110  -10.8010  -58.5860 C   0  0  0  0  0
   11.9470   -9.6990  -58.4080 C   0  0  0  0  0
   12.0970   -8.6640  -59.5170 C   0  0  0  0  0
   13.5260   -8.0980  -59.5410 C   0  0  0  0  0
   14.5180   -9.2440  -59.7390 C   0  0  0  0  0
   15.9590   -8.7960  -59.6550 C   0  0  0  0  0
   12.1400   -8.9860  -57.1840 O   0  0  0  0  0
   11.1450   -7.6160  -59.3930 O   0  0  0  0  0
   13.6670   -7.1830  -60.6140 O   0  0  0  0  0
   14.3230  -10.2460  -58.7100 O   0  0  0  0  0
   16.2400   -8.4850  -58.2900 O   0  0  0  0  0
   17.7738  -17.4400  -66.3863 H   0  0  0  0  0
   18.8929  -16.5091  -64.4456 H   0  0  0  0  0
   16.6380  -15.6890  -64.9616 H   0  0  0  0  0
   17.9511  -13.5016  -66.6186 H   0  0  0  0  0
   16.2177  -15.8603  -67.4291 H   0  0  0  0  0
   15.7971  -14.1856  -69.0247 H   0  0  0  0  0
   17.0071  -15.2514  -69.7776 H   0  0  0  0  0
   20.0466  -17.9180  -66.0267 H   0  0  0  0  0
   20.6308  -15.4420  -65.5466 H   0  0  0  0  0
   15.9662  -12.9225  -65.5829 H   0  0  0  0  0
   17.5630  -13.0011  -69.9665 H   0  0  0  0  0
   15.5791  -14.6154  -63.5510 H   0  0  0  0  0
   16.2865  -12.4091  -62.5337 H   0  0  0  0  0
   18.5087  -13.0131  -61.7721 H   0  0  0  0  0
   17.2043  -14.9619  -59.8283 H   0  0  0  0  0
   18.9445  -15.4786  -62.2528 H   0  0  0  0  0
   17.4346  -17.4274  -60.4740 H   0  0  0  0  0
   19.1863  -17.2321  -60.5633 H   0  0  0  0  0
   18.4104  -12.3498  -59.5544 H   0  0  0  0  0
   19.4319  -15.5239  -59.4941 H   0  0  0  0  0
   18.4172  -18.9422  -61.9503 H   0  0  0  0  0
   15.0161  -11.5732  -60.8857 H   0  0  0  0  0
   13.9720  -12.9718  -59.0326 H   0  0  0  0  0
   13.0340  -14.7354  -60.4355 H   0  0  0  0  0
   11.1930  -12.5733  -61.5471 H   0  0  0  0  0
   13.3005  -14.2375  -62.9321 H   0  0  0  0  0
   11.4562  -11.9949  -63.8224 H   0  0  0  0  0
   11.6631  -13.6008  -64.5446 H   0  0  0  0  0
   10.8508  -14.7320  -59.6646 H   0  0  0  0  0
   10.5096  -14.3385  -62.9057 H   0  0  0  0  0
   12.8028  -11.9490  -65.7148 H   0  0  0  0  0
   13.0656  -11.4537  -57.7147 H   0  0  0  0  0
   10.9728  -10.1876  -58.4220 H   0  0  0  0  0
   11.9058   -9.1693  -60.4637 H   0  0  0  0  0
   13.7220   -7.5869  -58.5984 H   0  0  0  0  0
   14.3285   -9.6396  -60.7369 H   0  0  0  0  0
   16.1205   -7.9204  -60.2838 H   0  0  0  0  0
   16.6222   -9.5859  -60.0076 H   0  0  0  0  0
   11.4653   -8.3082  -57.1000 H   0  0  0  0  0
   11.2699   -6.9857  -60.1063 H   0  0  0  0  0
   14.5617   -6.8351  -60.6209 H   0  0  0  0  0
   17.1522   -8.1969  -58.2099 H   0  0  0  0  0
  1  2  1  0  0  0
  1  7  1  0  0  0
  1 11  1  0  0  0
  2  3  1  0  0  0
  2  8  1  0  0  0
  3  4  1  0  0  0
  3  9  1  0  0  0
  4  5  1  0  0  0
  4 10  1  0  0  0
  5  6  1  0  0  0
  5 11  1  0  0  0
  6 12  1  0  0  0
  9 13  1  0  0  0
 13 14  1  0  0  0
 13 22  1  0  0  0
 14 15  1  0  0  0
 14 19  1  0  0  0
 15 16  1  0  0  0
 15 20  1  0  0  0
 16 17  1  0  0  0
 16 21  1  0  0  0
 17 18  1  0  0  0
 17 22  1  0  0  0
 18 23  1  0  0  0
 19 24  1  0  0  0
 24 25  1  0  0  0
 24 33  1  0  0  0
 25 26  1  0  0  0
 25 30  1  0  0  0
 26 27  1  0  0  0
 26 31  1  0  0  0
 27 28  1  0  0  0
 27 32  1  0  0  0
 28 29  1  0  0  0
 28 33  1  0  0  0
 29 34  1  0  0  0
 30 35  1  0  0  0
 35 36  1  0  0  0
 35 44  1  0  0  0
 36 37  1  0  0  0
 36 41  1  0  0  0
 37 38  1  0  0  0
 37 42  1  0  0  0
 38 39  1  0  0  0
 38 43  1  0  0  0
 39 40  1  0  0  0
 39 44  1  0  0  0
 40 45  1  0  0  0
  1 46  1  0  0  0
  2 47  1  0  0  0
  3 48  1  0  0  0
  4 49  1  0  0  0
  5 50  1  0  0  0
  6 51  1  0  0  0
  6 52  1  0  0  0
  7 53  1  0  0  0
  8 54  1  0  0  0
 10 55  1  0  0  0
 12 56  1  0  0  0
 13 57  1  0  0  0
 14 58  1  0  0  0
 15 59  1  0  0  0
 16 60  1  0  0  0
 17 61  1  0  0  0
 18 62  1  0  0  0
 18 63  1  0  0  0
 20 64  1  0  0  0
 21 65  1  0  0  0
 23 66  1  0  0  0
 24 67  1  0  0  0
 25 68  1  0  0  0
 26 69  1  0  0  0
 27 70  1  0  0  0
 28 71  1  0  0  0
 29 72  1  0  0  0
 29 73  1  0  0  0
 31 74  1  0  0  0
 32 75  1  0  0  0
 34 76  1  0  0  0
 35 77  1  0  0  0
 36 78  1  0  0  0
 37 79  1  0  0  0
 38 80  1  0  0  0
 39 81  1  0  0  0
 40 82  1  0  0  0
 40 83  1  0  0  0
 41 84  1  0  0  0
 42 85  1  0  0  0
 43 86  1  0  0  0
 45 87  1  0  0  0
M  END
$$$$
