### 
### Created by X-TOOL on Mon Sep 10 21:12:56 2018
### 

@<TRIPOS>MOLECULE
2dwx_ligand
  118   120     1     0     0
SMALL
GAST_HUCK


@<TRIPOS>ATOM
      1 N          -9.3890  -23.6380  132.6930 N.4       1 GLY         0.2357
      2 CA        -10.1580  -22.3680  132.5030 C.3       1 GLY         0.0545
      3 C          -9.9450  -21.8680  131.0920 C.2       1 GLY         0.2237
      4 O         -10.4720  -22.4570  130.1510 O.2       1 GLY        -0.3910
      5 N          -9.1680  -20.7920  130.9580 N.am      1 TRP        -0.2602
      6 CA         -8.6730  -20.3070  129.6600 C.3       1 TRP         0.1353
      7 C          -7.1470  -20.2460  129.6110 C.2       1 TRP         0.2053
      8 O          -6.4680  -20.3050  130.6360 O.2       1 TRP        -0.3942
      9 CB         -9.2380  -18.9240  129.2520 C.3       1 TRP         0.0042
     10 CG         -9.8930  -18.0880  130.3050 C.2       1 TRP        -0.0418
     11 CD1        -9.4610  -17.8690  131.5750 C.2       1 TRP         0.0167
     12 CD2       -11.0880  -17.3160  130.1480 C.ar      1 TRP        -0.0214
     13 NE1       -10.3290  -17.0300  132.2320 N.pl3     1 TRP        -0.2890
     14 CE2       -11.3390  -16.6740  131.3780 C.ar      1 TRP         0.0603
     15 CE3       -11.9820  -17.1090  129.0900 C.ar      1 TRP        -0.0747
     16 CZ2       -12.4510  -15.8510  131.5890 C.ar      1 TRP        -0.0443
     17 CZ3       -13.0820  -16.2900  129.2950 C.ar      1 TRP        -0.0792
     18 CH2       -13.3030  -15.6650  130.5370 C.ar      1 TRP        -0.0768
     19 N          -6.6240  -20.1140  128.3960 N.am      1 ASN        -0.2615
     20 CA         -5.1910  -19.9660  128.1630 C.3       1 ASN         0.1476
     21 C          -4.7470  -18.5470  128.5130 C.2       1 ASN         0.2063
     22 O          -5.5570  -17.7180  128.9610 O.2       1 ASN        -0.3942
     23 CB         -4.8210  -20.2940  126.6990 C.3       1 ASN         0.0773
     24 CG         -5.8210  -21.2370  126.0270 C.2       1 ASN         0.1780
     25 OD1        -5.9080  -22.4100  126.3830 O.2       1 ASN        -0.3970
     26 ND2        -6.5930  -20.7150  125.0640 N.am      1 ASN        -0.3007
     27 N          -3.4580  -18.2780  128.3100 N.am      1 SER        -0.2614
     28 CA         -2.9020  -16.9430  128.5130 C.3       1 SER         0.1539
     29 C          -3.3530  -15.9900  127.4060 C.2       1 SER         0.2063
     30 O          -3.9270  -16.4110  126.4010 O.2       1 SER        -0.3943
     31 CB         -1.3690  -16.9950  128.6090 C.3       1 SER         0.0843
     32 OG         -0.7700  -17.5040  127.4310 O.3       1 SER        -0.3903
     33 N          -3.1100  -14.7000  127.6140 N.am      1 PHE        -0.2619
     34 CA         -3.4900  -13.6760  126.6410 C.3       1 PHE         0.1404
     35 C          -2.5380  -13.7300  125.4650 C.2       1 PHE         0.2060
     36 O          -1.4330  -14.2430  125.5860 O.2       1 PHE        -0.3942
     37 CB         -3.4780  -12.2790  127.2760 C.3       1 PHE         0.0214
     38 CG         -4.5620  -12.0700  128.2990 C.ar      1 PHE        -0.0386
     39 CD1        -4.3830  -12.4690  129.6110 C.ar      1 PHE        -0.0601
     40 CD2        -5.7710  -11.4860  127.9430 C.ar      1 PHE        -0.0601
     41 CE1        -5.3750  -12.2790  130.5430 C.ar      1 PHE        -0.0686
     42 CE2        -6.7610  -11.2980  128.8690 C.ar      1 PHE        -0.0686
     43 CZ         -6.5640  -11.6940  130.1670 C.ar      1 PHE        -0.0687
     44 N          -2.9590  -13.1840  124.3330 N.am      1 GLN        -0.2634
     45 CA         -2.1870  -13.2780  123.0970 C.3       1 GLN         0.1330
     46 C          -1.9520  -11.8830  122.5200 C.2       1 GLN         0.2041
     47 O          -2.8590  -11.0640  122.4840 O.2       1 GLN        -0.3944
     48 CB         -2.9100  -14.1720  122.0800 C.3       1 GLN         0.0045
     49 CG         -3.1080  -15.6180  122.5220 C.3       1 GLN         0.0412
     50 CD         -1.8120  -16.3550  122.7220 C.2       1 GLN         0.1737
     51 OE1        -1.5950  -16.9600  123.7600 O.2       1 GLN        -0.3973
     52 NE2        -0.9520  -16.3200  121.7220 N.am      1 GLN        -0.3009
     53 N          -0.7270  -11.6350  122.0690 N.am      1 SER        -0.2616
     54 CA         -0.3080  -10.3330  121.5700 C.3       1 SER         0.1539
     55 C          -0.1460  -10.4140  120.0550 C.2       1 SER         0.2057
     56 O          -0.4900  -11.4460  119.4520 O.2       1 SER        -0.3943
     57 CB          1.0060   -9.9160  122.2310 C.3       1 SER         0.0843
     58 OG          0.9360  -10.0710  123.6390 O.3       1 SER        -0.3903
     59 N           0.3950   -9.3410  119.4580 N.am      1 SER        -0.2672
     60 CA          0.4050   -9.1280  117.9960 C.3       1 SER         0.1173
     61 C           1.4070  -10.0180  117.2410 C.2       1 SER         0.0623
     62 O           0.9720  -10.5820  116.2160 O.co2     1 SER        -0.5665
     63 CB          0.6780   -7.6460  117.6710 C.3       1 SER         0.0789
     64 OG         -0.0760   -6.7780  118.4990 O.3       1 SER        -0.3910
     65 OXT         2.5680  -10.1680  117.6090 O.co2     1 SER        -0.5665
     66 H1         -9.5268  -23.9769  133.6323 H         1 GLY         0.2012
     67 H2         -8.4082  -23.4632  132.5394 H         1 GLY         0.2012
     68 H3         -9.7141  -24.3293  132.0354 H         1 GLY         0.2012
     69 H4         -9.8037  -21.6120  133.2192 H         1 GLY         0.1061
     70 H5        -11.2288  -22.5572  132.6692 H         1 GLY         0.1061
     71 H6         -8.9085  -20.2889  131.7824 H         1 TRP         0.1886
     72 H7         -9.0038  -21.0337  128.9034 H         1 TRP         0.0815
     73 H8         -9.9841  -19.0968  128.4624 H         1 TRP         0.0397
     74 H9         -8.4015  -18.3377  128.8441 H         1 TRP         0.0397
     75 H10        -8.5582  -18.2963  132.0089 H         1 TRP         0.0795
     76 H11       -10.2351  -16.7190  133.2094 H         1 TRP         0.2216
     77 H12       -11.8170  -17.5806  128.1280 H         1 TRP         0.0540
     78 H13       -12.6294  -15.3798  132.5488 H         1 TRP         0.0541
     79 H14       -13.7839  -16.1282  128.4849 H         1 TRP         0.0510
     80 H15       -14.1673  -15.0227  130.6614 H         1 TRP         0.0530
     81 H16        -7.2391  -20.1162  127.6076 H         1 ASN         0.1885
     82 H17        -4.6597  -20.6708  128.8194 H         1 ASN         0.0826
     83 H18        -3.8286  -20.7683  126.6860 H         1 ASN         0.0551
     84 H19        -4.7861  -19.3549  126.1273 H         1 ASN         0.0551
     85 H20        -7.2628  -21.2896  124.5937 H         1 ASN         0.1814
     86 H21        -6.4993  -19.7508  124.8157 H         1 ASN         0.1814
     87 H22        -2.8517  -19.0140  128.0089 H         1 SER         0.1884
     88 H23        -3.2873  -16.5575  129.4685 H         1 SER         0.0823
     89 H24        -1.0899  -17.6411  129.4544 H         1 SER         0.0606
     90 H25        -0.9916  -15.9769  128.7853 H         1 SER         0.0606
     91 H26         0.1740  -17.5171  127.5373 H         1 SER         0.2097
     92 H27        -2.6545  -14.4216  128.4596 H         1 PHE         0.1885
     93 H28        -4.5087  -13.8882  126.2842 H         1 PHE         0.0823
     94 H29        -3.6058  -11.5334  126.4774 H         1 PHE         0.0474
     95 H30        -2.5047  -12.1285  127.7658 H         1 PHE         0.0474
     96 H31        -3.4508  -12.9363  129.9073 H         1 PHE         0.0557
     97 H32        -5.9326  -11.1748  126.9173 H         1 PHE         0.0557
     98 H33        -5.2222  -12.5885  131.5706 H         1 PHE         0.0599
     99 H34        -7.6980  -10.8375  128.5773 H         1 PHE         0.0599
    100 H35        -7.3479  -11.5459  130.9009 H         1 PHE         0.0559
    101 H36        -3.8304  -12.6935  124.3251 H         1 GLN         0.1883
    102 H37        -1.2110  -13.7306  123.3265 H         1 GLN         0.0801
    103 H38        -2.3221  -14.1765  121.1503 H         1 GLN         0.0337
    104 H39        -3.9008  -13.7357  121.8852 H         1 GLN         0.0337
    105 H40        -3.6941  -16.1424  121.7529 H         1 GLN         0.0504
    106 H41        -3.6630  -15.6212  123.4717 H         1 GLN         0.0504
    107 H42        -0.0743  -16.7928  121.8005 H         1 GLN         0.1814
    108 H43        -1.1779  -15.8207  120.8855 H         1 GLN         0.1814
    109 H44        -0.0596  -12.3797  122.0725 H         1 SER         0.1884
    110 H45        -1.0799   -9.5871  121.8105 H         1 SER         0.0823
    111 H46         1.2092   -8.8611  121.9946 H         1 SER         0.0606
    112 H47         1.8208  -10.5430  121.8398 H         1 SER         0.0606
    113 H48         0.2355   -9.5284  123.9818 H         1 SER         0.2097
    114 H49         0.8168   -8.6436  120.0374 H         1 SER         0.1876
    115 H50        -0.5996   -9.3784  117.6244 H         1 SER         0.0749
    116 H51         0.4113   -7.4568  116.6207 H         1 SER         0.0599
    117 H52         1.7481   -7.4400  117.8204 H         1 SER         0.0599
    118 H53         0.1178   -5.8765  118.2704 H         1 SER         0.2096
@<TRIPOS>BOND
     1    1    2 1  
     2    2    3 1  
     3    3    4 2  
     4    3    5 am 
     5    5    6 1  
     6    6    7 1  
     7    6    9 1  
     8    7    8 2  
     9    7   19 am 
    10    9   10 1  
    11   10   11 2  
    12   10   12 1  
    13   11   13 1  
    14   12   14 ar 
    15   12   15 ar 
    16   13   14 1  
    17   14   16 ar 
    18   15   17 ar 
    19   16   18 ar 
    20   17   18 ar 
    21   19   20 1  
    22   20   21 1  
    23   20   23 1  
    24   21   22 2  
    25   21   27 am 
    26   23   24 1  
    27   24   25 2  
    28   24   26 am 
    29   27   28 1  
    30   28   29 1  
    31   28   31 1  
    32   29   30 2  
    33   29   33 am 
    34   31   32 1  
    35   33   34 1  
    36   34   35 1  
    37   34   37 1  
    38   35   36 2  
    39   35   44 am 
    40   37   38 1  
    41   38   39 ar 
    42   38   40 ar 
    43   39   41 ar 
    44   40   42 ar 
    45   41   43 ar 
    46   42   43 ar 
    47   44   45 1  
    48   45   46 1  
    49   45   48 1  
    50   46   47 2  
    51   46   53 am 
    52   48   49 1  
    53   49   50 1  
    54   50   51 2  
    55   50   52 am 
    56   53   54 1  
    57   54   55 1  
    58   54   57 1  
    59   55   56 2  
    60   55   59 am 
    61   57   58 1  
    62   59   60 1  
    63   60   61 1  
    64   60   63 1  
    65   61   62 ar 
    66   61   65 ar 
    67   63   64 1  
    68    1   66 1  
    69    1   67 1  
    70    1   68 1  
    71    2   69 1  
    72    2   70 1  
    73    5   71 1  
    74    6   72 1  
    75    9   73 1  
    76    9   74 1  
    77   11   75 1  
    78   13   76 1  
    79   15   77 1  
    80   16   78 1  
    81   17   79 1  
    82   18   80 1  
    83   19   81 1  
    84   20   82 1  
    85   23   83 1  
    86   23   84 1  
    87   26   85 1  
    88   26   86 1  
    89   27   87 1  
    90   28   88 1  
    91   31   89 1  
    92   31   90 1  
    93   32   91 1  
    94   33   92 1  
    95   34   93 1  
    96   37   94 1  
    97   37   95 1  
    98   39   96 1  
    99   40   97 1  
   100   41   98 1  
   101   42   99 1  
   102   43  100 1  
   103   44  101 1  
   104   45  102 1  
   105   48  103 1  
   106   48  104 1  
   107   49  105 1  
   108   49  106 1  
   109   52  107 1  
   110   52  108 1  
   111   53  109 1  
   112   54  110 1  
   113   57  111 1  
   114   57  112 1  
   115   58  113 1  
   116   59  114 1  
   117   60  115 1  
   118   63  116 1  
   119   63  117 1  
   120   64  118 1  
@<TRIPOS>SUBSTRUCTURE
     1 GLY         1

