5mgi_ligand

Created by X-TOOL on Mon Aug  2 16:10:25 2021
 27 27  0  0  0  0  0  0  0  0999 V2000
   -6.9820    3.3920   -1.3000  C 0  0  0  2  0  3
  -10.4990    1.5280   -7.0050  O 0  0  0  1  0  1
   -9.5570    1.0300   -6.3480  C 0  5  0  1  0  3
   -8.7240    0.2130   -6.8190  O 0  0  0  1  0  1
   -9.4380    1.4470   -4.8620  C 0  0  0  3  0  4
   -8.1240    1.0780   -4.1670  C 0  0  0  3  0  4
   -7.8840    1.7190   -2.7910  C 0  0  0  1  0  3
   -8.4320    1.0640   -1.6970  C 0  0  0  2  0  3
   -8.2690    1.5690   -0.4160  C 0  0  0  2  0  3
   -7.5390    2.7300   -0.2130  C 0  0  0  2  0  3
   -7.1480    2.9040   -2.5980  C 0  0  0  2  0  4
   -6.5130    3.7530   -3.7930  B 0  0  0  1  0  3
   -5.4130    4.5410   -3.5650  O 0  0  0  3  0  3
   -7.4040    4.2440   -4.7050  O 0  0  0  3  0  3
   -6.4111    4.2992   -1.1386  H 0  0  0  1  0  1
  -10.2582    0.9649   -4.3099  H 0  0  0  1  0  1
   -9.5523    2.5397   -4.8083  H 0  0  0  1  0  1
   -7.2979    1.3805   -4.8274  H 0  0  0  1  0  1
   -8.1079   -0.0141   -4.0364  H 0  0  0  1  0  1
   -8.9931    0.1485   -1.8455  H 0  0  0  1  0  1
   -8.7133    1.0549    0.4286  H 0  0  0  1  0  1
   -7.4034    3.1195    0.7895  H 0  0  0  1  0  1
   -6.7173    3.4288   -3.4431  H 0  0  0  1  0  1
   -5.6937    5.3882   -3.2395  H 0  0  0  1  0  1
   -5.6937    5.3882   -3.2395  H 0  0  0  1  0  1
   -7.7309    5.0844   -4.4059  H 0  0  0  1  0  1
   -7.7309    5.0843   -4.4059  H 0  0  0  1  0  1
  1 10  4  0  0  1
 11  1  4  0  0  1
  3  2  2  0  0  2
  3  4  2  0  0  2
  5  3  1  0  0  2
  6  5  1  0  0  2
  7  6  1  0  0  2
  7  8  4  0  0  1
  7 11  4  0  0  1
  8  9  4  0  0  1
  9 10  4  0  0  1
 11 12  1  0  0  2
 12 13  1  0  0  2
 12 14  1  0  0  2
  1 15  1  0  0  2
  5 16  1  0  0  2
  5 17  1  0  0  2
  6 18  1  0  0  2
  6 19  1  0  0  2
  8 20  1  0  0  2
  9 21  1  0  0  2
 10 22  1  0  0  2
 11 23  1  0  0  2
 13 24  1  0  0  2
 13 25  1  0  0  2
 14 26  1  0  0  2
 14 27  1  0  0  2
M  END
> <MOLECULAR_FORMULA>
C9H13O4B

> <MOLECULAR_WEIGHT>
195.9

> <NUM_HB_ATOMS>
4  

> <NUM_ROTOR>
3  

> <XLOGP2>
0.17 

$$$$
