#	Name:			5mgi_ligand
#	Creating user name:	wangrx
#	Creation time:		Thu Aug  5 17:09:49 2021

#	Modifying user name:	wangrx
#	Modification time:	Thu Aug  5 17:10:09 2021

@<TRIPOS>MOLECULE
5mgi_ligand
   26    26     1     0     0
SMALL
GAST_HUCK


@<TRIPOS>ATOM
      1 C10        -6.9820    3.3920   -1.3000 C.ar      1 6YV        -0.1858 
      2 O01       -10.4990    1.5280   -7.0050 O.co2     1 6YV        -0.5688 
      3 C02        -9.5570    1.0300   -6.3480 C.2       1 6YV         0.0367 
      4 O03        -8.7240    0.2130   -6.8190 O.co2     1 6YV        -0.5688 
      5 C04        -9.4380    1.4470   -4.8620 C.3       1 6YV         0.0084 
      6 C05        -8.1240    1.0780   -4.1670 C.3       1 6YV        -0.0261 
      7 C06        -7.8840    1.7190   -2.7910 C.ar      1 6YV        -0.1435 
      8 C07        -8.4320    1.0640   -1.6970 C.ar      1 6YV        -0.1751 
      9 C08        -8.2690    1.5690   -0.4160 C.ar      1 6YV        -0.1827 
     10 C09        -7.5390    2.7300   -0.2130 C.ar      1 6YV        -0.1687 
     11 C11        -7.1480    2.9040   -2.5980 C.ar      1 6YV        -0.1863 
     12 B12        -6.5130    3.7530   -3.7930 B         1 6YV         3.0000 
     13 O13        -5.4130    4.5410   -3.5650 O.3       1 6YV        -0.4105 
     14 O14        -7.4040    4.2440   -4.7050 O.3       1 6YV        -0.4105 
     15 H1         -6.4111    4.2992   -1.1386 H         1 6YV        -0.0149 
     16 H2        -10.2582    0.9649   -4.3099 H         1 6YV         0.0452 
     17 H3         -9.5523    2.5397   -4.8083 H         1 6YV         0.0452 
     18 H4         -7.2979    1.3805   -4.8274 H         1 6YV         0.0428 
     19 H5         -8.1079   -0.0141   -4.0364 H         1 6YV         0.0428 
     20 H6         -8.9931    0.1485   -1.8455 H         1 6YV        -0.0189 
     21 H7         -8.7133    1.0549    0.4286 H         1 6YV        -0.0146 
     22 H8         -7.4034    3.1195    0.7895 H         1 6YV         0.0333 
     23 H10        -5.6937    5.3882   -3.2395 H         1 6YV         0.2052 
     24 H11        -5.6937    5.3882   -3.2395 H         1 6YV         0.2052 
     25 H12        -7.7309    5.0844   -4.4059 H         1 6YV         0.2052 
     26 H13        -7.7309    5.0843   -4.4059 H         1 6YV         0.2052 
@<TRIPOS>BOND
     1    1   10 ar   
     2   11    1 ar   
     3    3    2 ar   
     4    3    4 ar   
     5    5    3 1    
     6    6    5 1    
     7    7    6 1    
     8    7    8 ar   
     9    7   11 ar   
    10    8    9 ar   
    11    9   10 ar   
    12   11   12 1    
    13   12   13 1    
    14   12   14 1    
    15    1   15 1    
    16    5   16 1    
    17    5   17 1    
    18    6   18 1    
    19    6   19 1    
    20    8   20 1    
    21    9   21 1    
    22   10   22 1    
    23   13   23 1    
    24   13   24 1    
    25   14   25 1    
    26   14   26 1    
@<TRIPOS>SUBSTRUCTURE
     1 6YV         1 PERM              0 ****  ****    0 ROOT 
