1pvn_ligand
  -I-interpret- 

 36 37  0  0  0  0  0  0  0  0999 V2000
  -21.5720   34.9220   48.5230 P   0  0  0  0  0
  -20.2120   35.1940   47.9980 O   0  0  0  0  0
  -21.6910   35.2580   49.9670 O   0  0  0  0  0
  -21.9350   33.5210   48.2340 O   0  0  0  0  0
  -22.5630   35.7870   47.7450 O   0  0  0  0  0
  -23.9840   35.6990   48.0670 C   0  0  0  0  0
  -24.6160   36.8350   47.2280 C   0  0  0  0  0
  -24.5190   36.5730   45.8170 O   0  0  0  0  0
  -26.1230   36.9920   47.4710 C   0  0  0  0  0
  -26.3850   37.7370   48.6330 O   0  0  0  0  0
  -26.6090   37.6990   46.1920 C   0  0  0  0  0
  -26.4240   39.1210   46.2600 O   0  0  0  0  0
  -25.7100   37.0760   45.1490 C   0  0  0  0  0
  -26.3340   36.0070   44.3190 N   0  0  0  0  0
  -27.2220   35.0220   44.4970 C   0  0  0  0  0
  -27.4230   34.3380   43.4360 N   0  0  0  0  0
  -26.6270   34.8940   42.4990 C   0  0  0  0  0
  -26.4900   34.4480   41.0880 C   0  0  0  0  0
  -27.1210   33.4890   40.6670 O   0  0  0  0  0
  -25.9510   35.9380   43.0260 C   0  0  0  0  0
  -25.6380   35.0920   40.1970 N   0  0  0  0  0
  -25.0620   36.7270   42.3630 O   0  0  0  0  0
  -19.9743   36.1051   48.1852 H   0  0  0  0  0
  -21.4450   36.1761   50.1021 H   0  0  0  0  0
  -24.1781   35.8101   49.1338 H   0  0  0  0  0
  -24.4058   34.7218   47.8317 H   0  0  0  0  0
  -24.0636   37.7235   47.5339 H   0  0  0  0  0
  -26.6352   36.0455   47.6436 H   0  0  0  0  0
  -27.3341   37.8155   48.7542 H   0  0  0  0  0
  -27.6749   37.5767   45.9995 H   0  0  0  0  0
  -26.7383   39.5227   45.4467 H   0  0  0  0  0
  -25.4740   37.8630   44.4328 H   0  0  0  0  0
  -28.1700   35.4757   44.7861 H   0  0  0  0  0
  -26.8260   34.3492   45.2577 H   0  0  0  0  0
  -25.5593   34.7596   39.2359 H   0  0  0  0  0
  -25.0919   35.8967   40.5047 H   0  0  0  0  0
  1  2  1  0  0  0
  1  3  1  0  0  0
  1  4  2  0  0  0
  1  5  1  0  0  0
  5  6  1  0  0  0
  6  7  1  0  0  0
  7  8  1  0  0  0
  7  9  1  0  0  0
  8 13  1  0  0  0
  9 10  1  0  0  0
  9 11  1  0  0  0
 11 12  1  0  0  0
 11 13  1  0  0  0
 13 14  1  0  0  0
 14 15  1  0  0  0
 14 20  1  0  0  0
 15 16  1  0  0  0
 16 17  2  0  0  0
 17 18  1  0  0  0
 17 20  1  0  0  0
 18 19  2  0  0  0
 18 21  1  0  0  0
 20 22  2  0  0  0
  2 23  1  0  0  0
  3 24  1  0  0  0
  6 25  1  0  0  0
  6 26  1  0  0  0
  7 27  1  0  0  0
  9 28  1  0  0  0
 10 29  1  0  0  0
 11 30  1  0  0  0
 12 31  1  0  0  0
 13 32  1  0  0  0
 15 33  1  0  0  0
 15 34  1  0  0  0
 21 35  1  0  0  0
 21 36  1  0  0  0
M  END
$$$$
