1v0n_ligand
  -I-interpret- 

 37 38  0  0  0  0  0  0  0  0999 V2000
   10.7430   17.3460   14.5510 N   0  3  0  0  0
   10.4620   17.2140   15.9950 C   0  0  0  0  0
    9.9720   15.7830   16.3470 C   0  0  0  0  0
    9.6540   15.7560   17.7380 O   0  0  0  0  0
    8.7180   15.4920   15.5390 C   0  0  0  0  0
    8.2370   14.2000   15.9360 O   0  0  0  0  0
    9.1080   15.5330   14.0620 C   0  0  0  0  0
    9.6060   16.9200   13.6960 C   0  0  0  0  0
    6.8560   14.0210   15.6740 C   0  0  0  0  0
    6.5170   12.5650   15.9420 C   0  0  0  0  0
    4.9960   12.3430   15.8930 C   0  0  0  0  0
    4.2210   13.4080   16.6760 C   0  0  0  0  0
    4.7210   14.7960   16.3070 C   0  0  0  0  0
    7.2060   11.7550   15.0140 O   0  0  0  0  0
    4.7140   11.0340   16.3630 O   0  0  0  0  0
    2.8310   13.2960   16.3440 O   0  0  0  0  0
    6.1500   14.8750   16.5460 O   0  0  0  0  0
   11.5374   16.7444   14.3332 H   0  0  0  0  0
   10.9236   18.3313   14.3588 H   0  0  0  0  0
    9.6792   17.9239   16.2621 H   0  0  0  0  0
   11.3813   17.4110   16.5465 H   0  0  0  0  0
   10.7370   15.0402   16.1210 H   0  0  0  0  0
   10.4453   15.9397   18.2496 H   0  0  0  0  0
    7.9238   16.2193   15.7076 H   0  0  0  0  0
    8.2362   15.2924   13.4536 H   0  0  0  0  0
    9.9005   14.8072   13.8796 H   0  0  0  0  0
    9.9473   16.8977   12.6611 H   0  0  0  0  0
    8.7876   17.6253   13.8407 H   0  0  0  0  0
    6.5924   14.2594   14.6436 H   0  0  0  0  0
    6.8388   12.2864   16.9455 H   0  0  0  0  0
    4.6600   12.4410   14.8607 H   0  0  0  0  0
    4.3677   13.2565   17.7454 H   0  0  0  0  0
    4.2090   15.5405   16.9167 H   0  0  0  0  0
    4.5179   14.9870   15.2533 H   0  0  0  0  0
    6.9959   10.8327   15.1780 H   0  0  0  0  0
    3.7663   10.8832   16.3372 H   0  0  0  0  0
    2.3331   13.9586   16.8284 H   0  0  0  0  0
  1  2  1  0  0  0
  1  8  1  0  0  0
  2  3  1  0  0  0
  3  4  1  0  0  0
  3  5  1  0  0  0
  5  6  1  0  0  0
  5  7  1  0  0  0
  6  9  1  0  0  0
  7  8  1  0  0  0
  9 10  1  0  0  0
  9 17  1  0  0  0
 10 11  1  0  0  0
 10 14  1  0  0  0
 11 12  1  0  0  0
 11 15  1  0  0  0
 12 13  1  0  0  0
 12 16  1  0  0  0
 13 17  1  0  0  0
  1 18  1  0  0  0
  1 19  1  0  0  0
  2 20  1  0  0  0
  2 21  1  0  0  0
  3 22  1  0  0  0
  4 23  1  0  0  0
  5 24  1  0  0  0
  7 25  1  0  0  0
  7 26  1  0  0  0
  8 27  1  0  0  0
  8 28  1  0  0  0
  9 29  1  0  0  0
 10 30  1  0  0  0
 11 31  1  0  0  0
 12 32  1  0  0  0
 13 33  1  0  0  0
 13 34  1  0  0  0
 14 35  1  0  0  0
 15 36  1  0  0  0
 16 37  1  0  0  0
M  END
$$$$
