4k8s_ligand
  -I-interpret- 

 82 86  0  0  0  0  0  0  0  0999 V2000
   62.7910   -7.5770   25.8210 C   0  0  0  0  0
   61.5640   -8.2960   26.4190 C   0  0  0  0  0
   62.1140   -9.6590   25.8810 C   0  0  0  0  0
   63.0780   -8.8480   24.9650 C   0  0  0  0  0
   62.6050   -8.7400   23.4920 C   0  0  0  0  0
   64.4250   -9.2790   25.0160 O   0  0  0  0  0
   65.3460   -8.6360   24.2980 C   0  0  0  0  0
   66.6640   -8.7020   24.7510 C   0  0  0  0  0
   67.6470   -8.0070   24.0610 C   0  0  0  0  0
   67.2970   -7.2980   22.9140 C   0  0  0  0  0
   68.3180   -6.5610   22.1120 C   0  0  0  0  0
   68.2360   -5.1020   22.5240 C   0  0  0  0  0
   66.0010   -7.2340   22.4720 C   0  0  0  0  0
   65.0170   -7.9190   23.1550 C   0  0  0  0  0
   63.5780   -7.8340   22.6410 C   0  0  0  0  0
   63.5370   -8.1160   21.1560 N   0  3  0  0  0
   63.7280   -9.5410   20.7250 C   0  0  0  0  0
   64.2380   -9.4640   19.2620 C   0  0  0  0  0
   65.1530   -8.3720   19.1870 O   0  0  0  0  0
   64.9920  -10.7200   18.7280 C   0  0  0  0  0
   65.4010  -10.5140   17.2690 C   0  0  0  0  0
   65.8430  -11.8010   16.6350 C   0  0  0  0  0
   64.9420  -12.5670   15.9160 C   0  0  0  0  0
   67.1610  -12.2150   16.8210 C   0  0  0  0  0
   67.5730  -13.4170   16.2610 C   0  0  0  0  0
   66.6780  -14.1960   15.5160 C   0  0  0  0  0
   65.3530  -13.7700   15.3350 C   0  0  0  0  0
   64.3790  -14.6460   14.5240 C   0  0  0  0  0
   63.3610  -15.3160   15.4520 C   0  0  0  0  0
   64.0070  -16.4530   16.2520 C   0  0  0  0  0
   63.0850  -16.9390   17.3900 C   0  0  0  0  0
   62.8080  -15.7510   18.3330 C   0  0  0  0  0
   64.0750  -15.1210   18.9590 C   0  0  0  0  0
   63.6310  -14.0750   20.0040 C   0  0  0  0  0
   64.4660  -12.8090   19.9280 C   0  0  0  0  0
   65.3230  -12.6090   20.7760 O   0  0  0  0  0
   64.2280  -11.9780   18.9030 N   0  0  0  0  0
   63.5604   -7.1574   26.4691 H   0  0  0  0  0
   62.6878   -6.6000   25.3489 H   0  0  0  0  0
   60.5567   -7.9700   26.1598 H   0  0  0  0  0
   61.3214   -8.1808   27.4754 H   0  0  0  0  0
   61.4443  -10.4128   25.4669 H   0  0  0  0  0
   62.4921  -10.4220   26.5614 H   0  0  0  0  0
   61.6123   -8.2901   23.4788 H   0  0  0  0  0
   62.5934   -9.7396   23.0575 H   0  0  0  0  0
   66.9175   -9.2902   25.6330 H   0  0  0  0  0
   68.6790   -8.0157   24.4117 H   0  0  0  0  0
   68.1247   -6.6723   21.0451 H   0  0  0  0  0
   69.3156   -6.9591   22.2976 H   0  0  0  0  0
   67.2352   -4.7230   22.3169 H   0  0  0  0  0
   68.4457   -5.0145   23.5901 H   0  0  0  0  0
   68.9685   -4.5247   21.9598 H   0  0  0  0  0
   65.7499   -6.6470   21.5885 H   0  0  0  0  0
   63.2083   -6.8173   22.7745 H   0  0  0  0  0
   64.3174   -7.5971   20.7532 H   0  0  0  0  0
   62.5992   -7.8567   20.8499 H   0  0  0  0  0
   62.8001  -10.1085   20.7961 H   0  0  0  0  0
   64.4362  -10.0624   21.3689 H   0  0  0  0  0
   63.3440   -9.3632   18.6466 H   0  0  0  0  0
   65.4878   -8.2975   18.2904 H   0  0  0  0  0
   65.8908  -10.8324   19.3344 H   0  0  0  0  0
   66.2333   -9.8107   17.2396 H   0  0  0  0  0
   64.5393  -10.1360   16.7188 H   0  0  0  0  0
   63.9110  -12.2318   15.8027 H   0  0  0  0  0
   67.8570  -11.6050   17.3968 H   0  0  0  0  0
   68.5991  -13.7566   16.4019 H   0  0  0  0  0
   67.0117  -15.1356   15.0757 H   0  0  0  0  0
   64.9460  -15.4180   14.0038 H   0  0  0  0  0
   63.8473  -14.0170   13.8101 H   0  0  0  0  0
   62.5561  -15.7305   14.8450 H   0  0  0  0  0
   62.9822  -14.5698   16.1505 H   0  0  0  0  0
   64.9328  -16.0826   16.6922 H   0  0  0  0  0
   64.1917  -17.2885   15.5768 H   0  0  0  0  0
   63.5662  -17.7476   17.9402 H   0  0  0  0  0
   62.1484  -17.3135   16.9769 H   0  0  0  0  0
   62.2007  -16.1304   19.1548 H   0  0  0  0  0
   62.3269  -14.9755   17.7369 H   0  0  0  0  0
   64.6766  -14.6442   18.1852 H   0  0  0  0  0
   64.6794  -15.8926   19.4360 H   0  0  0  0  0
   63.7568  -14.5084   20.9962 H   0  0  0  0  0
   62.5923  -13.8118   19.8042 H   0  0  0  0  0
   63.5030  -12.2176   18.2267 H   0  0  0  0  0
  1  2  1  0  0  0
  1  4  1  0  0  0
  2  3  1  0  0  0
  3  4  1  0  0  0
  4  5  1  0  0  0
  4  6  1  0  0  0
  5 15  1  0  0  0
  6  7  1  0  0  0
  7  8  4  0  0  0
  7 14  4  0  0  0
  8  9  4  0  0  0
  9 10  4  0  0  0
 10 11  1  0  0  0
 10 13  4  0  0  0
 11 12  1  0  0  0
 13 14  4  0  0  0
 14 15  1  0  0  0
 15 16  1  0  0  0
 16 17  1  0  0  0
 17 18  1  0  0  0
 18 19  1  0  0  0
 18 20  1  0  0  0
 20 21  1  0  0  0
 20 37  1  0  0  0
 21 22  1  0  0  0
 22 23  4  0  0  0
 22 24  4  0  0  0
 23 27  4  0  0  0
 24 25  4  0  0  0
 25 26  4  0  0  0
 26 27  4  0  0  0
 27 28  1  0  0  0
 28 29  1  0  0  0
 29 30  1  0  0  0
 30 31  1  0  0  0
 31 32  1  0  0  0
 32 33  1  0  0  0
 33 34  1  0  0  0
 34 35  1  0  0  0
 35 36  2  0  0  0
 35 37  1  0  0  0
  1 38  1  0  0  0
  1 39  1  0  0  0
  2 40  1  0  0  0
  2 41  1  0  0  0
  3 42  1  0  0  0
  3 43  1  0  0  0
  5 44  1  0  0  0
  5 45  1  0  0  0
  8 46  1  0  0  0
  9 47  1  0  0  0
 11 48  1  0  0  0
 11 49  1  0  0  0
 12 50  1  0  0  0
 12 51  1  0  0  0
 12 52  1  0  0  0
 13 53  1  0  0  0
 15 54  1  0  0  0
 16 55  1  0  0  0
 16 56  1  0  0  0
 17 57  1  0  0  0
 17 58  1  0  0  0
 18 59  1  0  0  0
 19 60  1  0  0  0
 20 61  1  0  0  0
 21 62  1  0  0  0
 21 63  1  0  0  0
 23 64  1  0  0  0
 24 65  1  0  0  0
 25 66  1  0  0  0
 26 67  1  0  0  0
 28 68  1  0  0  0
 28 69  1  0  0  0
 29 70  1  0  0  0
 29 71  1  0  0  0
 30 72  1  0  0  0
 30 73  1  0  0  0
 31 74  1  0  0  0
 31 75  1  0  0  0
 32 76  1  0  0  0
 32 77  1  0  0  0
 33 78  1  0  0  0
 33 79  1  0  0  0
 34 80  1  0  0  0
 34 81  1  0  0  0
 37 82  1  0  0  0
M  END
$$$$
