2x09_ligand
  -I-interpret- 

 31 32  0  0  0  0  0  0  0  0999 V2000
   48.8940   41.8300   74.1300 O   0  0  0  0  0
   49.0490   41.8200   72.7020 C   0  0  0  0  0
   49.6870   43.0950   72.1610 C   0  0  0  0  0
   48.8250   44.2140   72.2750 O   0  0  0  0  0
   49.7900   42.6640   70.6810 C   0  0  0  0  0
   50.8100   43.4110   69.7920 C   0  0  0  0  0
   51.7910   44.1020   70.5730 O   0  0  0  0  0
   51.4760   42.2690   69.0480 C   0  0  0  0  0
   51.6060   41.2390   70.1670 C   0  0  0  0  0
   50.2700   41.2520   70.7650 N   0  3  0  0  0
   50.2020   40.9020   72.2150 C   0  0  0  0  0
   49.9310   39.4130   72.3150 C   0  0  0  0  0
   49.3620   39.0310   73.5960 N   0  3  0  0  0
   48.1692   42.4128   74.3680 H   0  0  0  0  0
   48.0337   41.5774   72.3881 H   0  0  0  0  0
   50.6045   43.4060   72.6606 H   0  0  0  0  0
   48.7646   44.4775   73.1962 H   0  0  0  0  0
   48.8229   42.8575   70.2168 H   0  0  0  0  0
   50.3442   44.1669   69.1597 H   0  0  0  0  0
   51.3714   44.8252   71.0447 H   0  0  0  0  0
   52.4229   42.5371   68.5795 H   0  0  0  0  0
   50.9148   41.9159   68.1829 H   0  0  0  0  0
   52.3954   41.4790   70.8792 H   0  0  0  0  0
   51.9042   40.2538   69.8085 H   0  0  0  0  0
   49.7259   40.5522   70.2603 H   0  0  0  0  0
   51.0957   41.0610   72.8184 H   0  0  0  0  0
   50.8816   38.8917   72.2024 H   0  0  0  0  0
   49.2125   39.1509   71.5383 H   0  0  0  0  0
   49.2007   38.0239   73.6083 H   0  0  0  0  0
   50.0098   39.2819   74.3428 H   0  0  0  0  0
   48.4774   39.5199   73.7331 H   0  0  0  0  0
  1  2  1  0  0  0
  2  3  1  0  0  0
  2 11  1  0  0  0
  3  4  1  0  0  0
  3  5  1  0  0  0
  5  6  1  0  0  0
  5 10  1  0  0  0
  6  7  1  0  0  0
  6  8  1  0  0  0
  8  9  1  0  0  0
  9 10  1  0  0  0
 10 11  1  0  0  0
 11 12  1  0  0  0
 12 13  1  0  0  0
  1 14  1  0  0  0
  2 15  1  0  0  0
  3 16  1  0  0  0
  4 17  1  0  0  0
  5 18  1  0  0  0
  6 19  1  0  0  0
  7 20  1  0  0  0
  8 21  1  0  0  0
  8 22  1  0  0  0
  9 23  1  0  0  0
  9 24  1  0  0  0
 10 25  1  0  0  0
 11 26  1  0  0  0
 12 27  1  0  0  0
 12 28  1  0  0  0
 13 29  1  0  0  0
 13 30  1  0  0  0
 13 31  1  0  0  0
M  END
$$$$
