6fcj_ligand
  -I-interpret- 

 31 33  0  0  0  0  0  0  0  0999 V2000
   64.9080   34.6860   23.2450 C   0  0  0  0  0
   64.8070   33.8300   24.4590 C   0  0  0  0  0
   65.5200   36.3180   21.8270 N   0  0  0  0  0
   65.9710   33.2370   24.9810 C   0  0  0  0  0
   63.5840   33.6640   25.1530 C   0  0  0  0  0
   64.5650   35.6320   21.2460 C   0  0  0  0  0
   67.9940   35.6920   24.0300 C   0  0  0  0  0
   66.3220   37.0950   25.0650 C   0  0  0  0  0
   65.9410   32.5200   26.1630 C   0  0  0  0  0
   63.5520   32.9050   26.3210 C   0  0  0  0  0
   68.9010   36.0630   25.0170 C   0  0  0  0  0
   67.2420   37.4890   26.0310 C   0  0  0  0  0
   64.7290   32.3470   26.8260 C   0  0  0  0  0
   65.7570   35.7610   23.0930 N   0  0  0  0  0
   64.1610   34.6010   22.1000 C   0  0  0  0  0
   66.6960   36.2090   24.0430 C   0  0  0  0  0
   68.5310   36.9680   26.0080 C   0  0  0  0  0
   64.7220   37.7550   25.1190 Cl  0  0  0  0  0
   62.4260   34.2030   24.6980 O   0  0  0  0  0
   64.7050   31.6240   27.9690 O   0  0  0  0  0
   66.9135   33.3446   24.4441 H   0  0  0  0  0
   64.1528   35.8330   20.2572 H   0  0  0  0  0
   68.2959   34.9976   23.2460 H   0  0  0  0  0
   66.8574   32.0943   26.5717 H   0  0  0  0  0
   62.6075   32.7464   26.8414 H   0  0  0  0  0
   69.9068   35.6429   25.0146 H   0  0  0  0  0
   66.9538   38.2030   26.8026 H   0  0  0  0  0
   63.3885   33.8608   21.8915 H   0  0  0  0  0
   69.2530   37.2687   26.7672 H   0  0  0  0  0
   61.7127   33.9819   25.3013 H   0  0  0  0  0
   63.8073   31.5928   28.3078 H   0  0  0  0  0
  1  2  1  0  0  0
 14  1  4  0  0  0
  1 15  4  0  0  0
  2  4  4  0  0  0
  2  5  4  0  0  0
  3  6  4  0  0  0
 14  3  4  0  0  0
  4  9  4  0  0  0
  5 10  4  0  0  0
  5 19  1  0  0  0
  6 15  4  0  0  0
  7 11  4  0  0  0
 16  7  4  0  0  0
  8 12  4  0  0  0
 16  8  4  0  0  0
  8 18  1  0  0  0
  9 13  4  0  0  0
 10 13  4  0  0  0
 11 17  4  0  0  0
 12 17  4  0  0  0
 13 20  1  0  0  0
 14 16  1  0  0  0
  4 21  1  0  0  0
  6 22  1  0  0  0
  7 23  1  0  0  0
  9 24  1  0  0  0
 10 25  1  0  0  0
 11 26  1  0  0  0
 12 27  1  0  0  0
 15 28  1  0  0  0
 17 29  1  0  0  0
 19 30  1  0  0  0
 20 31  1  0  0  0
M  END
$$$$
