4exs_ligand
  -I-interpret- 

 29 29  0  0  0  0  0  0  0  0999 V2000
  -43.8560    6.0450   -3.2430 O   0  0  0  0  0
  -43.0400    5.9190   -2.3390 C   0  0  0  0  0
  -42.8800    7.0700   -1.4000 C   0  0  0  0  0
  -42.5780    8.3030   -2.2340 C   0  0  0  0  0
  -41.3400    8.0040   -3.5180 S   0  0  0  0  0
  -44.2000    7.2520   -0.6640 C   0  0  0  0  0
  -42.2760    4.8320   -2.1440 N   0  0  0  0  0
  -42.4090    3.6490   -2.9930 C   0  0  0  0  0
  -43.5810    2.7960   -2.5390 C   0  0  0  0  0
  -43.9340    1.7910   -3.2250 O   0  0  0  0  0
  -44.1750    3.1390   -1.4830 O   0  0  0  0  0
  -41.3010    4.6280   -1.0700 C   0  0  0  0  0
  -40.5130    3.3930   -1.4760 C   0  0  0  0  0
  -41.1110    2.8890   -2.7760 C   0  0  0  0  0
  -42.0774    6.9034   -0.6816 H   0  0  0  0  0
  -42.1834    9.0675   -1.5647 H   0  0  0  0  0
  -43.5020    8.6036   -2.7280 H   0  0  0  0  0
  -41.1321    9.1261   -4.2011 H   0  0  0  0  0
  -44.1329    8.1213   -0.0099 H   0  0  0  0  0
  -45.0007    7.4016   -1.3883 H   0  0  0  0  0
  -44.4082    6.3630   -0.0687 H   0  0  0  0  0
  -42.5862    3.9070   -4.0371 H   0  0  0  0  0
  -43.3545    1.7046   -3.9855 H   0  0  0  0  0
  -41.7887    4.4943   -0.1044 H   0  0  0  0  0
  -40.6528    5.4954   -0.9453 H   0  0  0  0  0
  -40.5730    2.6271   -0.7027 H   0  0  0  0  0
  -39.4583    3.6355   -1.6064 H   0  0  0  0  0
  -40.4241    3.0546   -3.6059 H   0  0  0  0  0
  -41.2966    1.8162   -2.7244 H   0  0  0  0  0
  1  2  2  0  0  0
  2  3  1  0  0  0
  2  7  1  0  0  0
  3  4  1  0  0  0
  3  6  1  0  0  0
  4  5  1  0  0  0
  7  8  1  0  0  0
  7 12  1  0  0  0
  8  9  1  0  0  0
  8 14  1  0  0  0
  9 10  1  0  0  0
  9 11  2  0  0  0
 12 13  1  0  0  0
 13 14  1  0  0  0
  3 15  1  0  0  0
  4 16  1  0  0  0
  4 17  1  0  0  0
  5 18  1  0  0  0
  6 19  1  0  0  0
  6 20  1  0  0  0
  6 21  1  0  0  0
  8 22  1  0  0  0
 10 23  1  0  0  0
 12 24  1  0  0  0
 12 25  1  0  0  0
 13 26  1  0  0  0
 13 27  1  0  0  0
 14 28  1  0  0  0
 14 29  1  0  0  0
M  END
$$$$
