6s55_ligand
  -I-interpret- 

 49 51  0  0  0  0  0  0  0  0999 V2000
  -27.5650   44.1460   10.4480 C   0  0  0  0  0
  -26.2090   44.1890    9.8050 C   0  0  0  0  0
  -25.3030   45.4120   11.7210 C   0  0  0  0  0
  -23.3580   45.7920    9.0930 C   0  0  0  0  0
  -22.6520   46.6990    8.3080 C   0  0  0  0  0
  -26.8080   46.6800   13.2600 C   0  0  0  0  0
  -26.6650   45.4360   12.4000 C   0  0  0  0  0
  -27.7580   45.3550   11.3470 C   0  0  0  0  0
  -25.1940   44.2200   10.8650 N   0  0  0  0  0
  -23.7400   43.5490   10.5710 S   0  0  0  0  0
  -23.9910   42.3940    9.7710 O   0  0  0  0  0
  -23.1020   43.4000   11.8420 O   0  0  0  0  0
  -22.7410   44.6500    9.5800 C   0  0  0  0  0
  -23.2320   47.8860    7.7980 N   0  0  0  0  0
  -24.5110   48.3140    7.8880 C   0  0  0  0  0
  -25.4160   47.6990    8.4500 O   0  0  0  0  0
  -24.7530   49.6580    7.2250 C   0  0  0  0  0
  -26.1020   50.1860    7.3440 N   0  0  0  0  0
  -26.5960   50.8750    8.4650 C   0  0  0  0  0
  -25.9600   51.0990    9.4910 O   0  0  0  0  0
  -28.0160   51.2520    8.1410 C   0  0  0  0  0
  -28.1740   50.7110    6.8070 N   0  0  0  0  0
  -27.0630   50.1050    6.3500 C   0  0  0  0  0
  -26.9040   49.5620    5.2620 O   0  0  0  0  0
  -21.3140   46.4520    8.0090 C   0  0  0  0  0
  -20.6900   45.3120    8.4830 C   0  0  0  0  0
  -21.3950   44.4080    9.2630 C   0  0  0  0  0
  -20.4480   42.8800    9.8690 Br  0  0  0  0  0
  -27.6471   43.2392   11.0472 H   0  0  0  0  0
  -28.3289   44.1540    9.6705 H   0  0  0  0  0
  -26.1213   45.0768    9.1787 H   0  0  0  0  0
  -26.0659   43.3094    9.1774 H   0  0  0  0  0
  -24.5219   45.3829   12.4807 H   0  0  0  0  0
  -25.1894   46.3069   11.1091 H   0  0  0  0  0
  -24.4056   45.9813    9.3270 H   0  0  0  0  0
  -26.7444   47.5661   12.6284 H   0  0  0  0  0
  -27.7733   46.6614   13.7659 H   0  0  0  0  0
  -26.0085   46.7020   14.0006 H   0  0  0  0  0
  -26.7589   44.5730   13.0592 H   0  0  0  0  0
  -28.7205   45.2644   11.8505 H   0  0  0  0  0
  -27.7178   46.2551   10.7335 H   0  0  0  0  0
  -22.5966   48.5035    7.2927 H   0  0  0  0  0
  -24.5708   49.5140    6.1600 H   0  0  0  0  0
  -24.0973   50.3711    7.7247 H   0  0  0  0  0
  -28.2014   52.3247    8.1967 H   0  0  0  0  0
  -28.7405   50.8597    8.8547 H   0  0  0  0  0
  -29.0380   50.7820    6.2695 H   0  0  0  0  0
  -20.7555   47.1611    7.3980 H   0  0  0  0  0
  -19.6434   45.1243    8.2432 H   0  0  0  0  0
  2  1  1  0  0  0
  1  8  1  0  0  0
  9  2  1  0  0  0
  3  7  1  0  0  0
  9  3  1  0  0  0
  4  5  4  0  0  0
 13  4  4  0  0  0
  5 14  1  0  0  0
  5 25  4  0  0  0
  7  6  1  0  0  0
  7  8  1  0  0  0
 10  9  1  0  0  0
 10 11  2  0  0  0
 10 12  2  0  0  0
 10 13  1  0  0  0
 13 27  4  0  0  0
 14 15  1  0  0  0
 15 16  2  0  0  0
 15 17  1  0  0  0
 17 18  1  0  0  0
 18 19  1  0  0  0
 18 23  1  0  0  0
 19 20  2  0  0  0
 19 21  1  0  0  0
 21 22  1  0  0  0
 22 23  1  0  0  0
 23 24  2  0  0  0
 25 26  4  0  0  0
 26 27  4  0  0  0
 27 28  1  0  0  0
  1 29  1  0  0  0
  1 30  1  0  0  0
  2 31  1  0  0  0
  2 32  1  0  0  0
  3 33  1  0  0  0
  3 34  1  0  0  0
  4 35  1  0  0  0
  6 36  1  0  0  0
  6 37  1  0  0  0
  6 38  1  0  0  0
  7 39  1  0  0  0
  8 40  1  0  0  0
  8 41  1  0  0  0
 14 42  1  0  0  0
 17 43  1  0  0  0
 17 44  1  0  0  0
 21 45  1  0  0  0
 21 46  1  0  0  0
 22 47  1  0  0  0
 25 48  1  0  0  0
 26 49  1  0  0  0
M  END
$$$$
