3cbp_ligand
  -I-interpret- 

 52 54  0  0  0  0  0  0  0  0999 V2000
   12.3570    3.3160   10.4580 N   0  3  0  0  0
   12.9460    3.9590   11.6420 C   0  0  0  0  0
   12.7940    5.4900   11.6720 C   0  0  0  0  0
   12.1760    6.0380   10.7230 O   0  0  0  0  0
   13.2370    6.1120   12.6700 O   0  0  0  0  0
   14.3940    3.4480   11.9670 C   0  0  0  0  0
   14.2410    1.9850   12.5030 C   0  0  0  0  0
   13.8640    1.9000   14.0030 C   0  0  0  0  0
   15.0370    1.5680   14.8780 N   0  3  0  0  0
   12.9270    0.6890   14.1460 C   0  0  0  0  0
   11.4730    1.0390   13.7060 C   0  0  0  0  0
   11.3750    1.0900   12.2760 O   0  0  0  0  0
   10.3500    0.0840   14.1560 C   0  0  0  0  0
    9.8220    0.5000   15.4040 O   0  0  0  0  0
    9.3920    0.1270   12.9660 C   0  0  0  0  0
    8.4770    1.2400   13.0310 O   0  0  0  0  0
   10.3000    0.3080   11.7410 C   0  0  0  0  0
   10.8740   -0.8740   11.0440 N   0  0  0  0  0
   12.1130   -1.4550   11.0400 C   0  0  0  0  0
   12.2850   -2.5030   10.2220 N   0  0  0  0  0
   11.0340   -2.6530    9.6380 C   0  0  0  0  0
   10.4370   -3.5210    8.7010 C   0  0  0  0  0
   11.1860   -4.5100    8.1500 N   0  0  0  0  0
    9.1000   -3.3890    8.3390 N   0  0  0  0  0
    8.3070   -2.3970    8.8650 C   0  0  0  0  0
    8.8290   -1.5060    9.7690 N   0  0  0  0  0
   10.1560   -1.6470   10.1450 C   0  0  0  0  0
   11.4208    3.6889   10.3004 H   0  0  0  0  0
   12.9413    3.5055    9.6437 H   0  0  0  0  0
   12.3018    2.3091   10.6115 H   0  0  0  0  0
   12.3338    3.6233   12.4790 H   0  0  0  0  0
   11.9331    5.3731   10.0745 H   0  0  0  0  0
   14.8753    4.0862   12.7081 H   0  0  0  0  0
   15.0248    3.4735   11.0785 H   0  0  0  0  0
   15.2070    1.4943   12.3840 H   0  0  0  0  0
   13.4338    1.5169   11.9396 H   0  0  0  0  0
   13.4447    2.8620   14.2978 H   0  0  0  0  0
   14.7327    1.5250   15.8506 H   0  0  0  0  0
   15.4217    0.6650   14.6006 H   0  0  0  0  0
   15.7510    2.2891   14.7754 H   0  0  0  0  0
   12.9084    0.3877   15.1934 H   0  0  0  0  0
   13.2981   -0.1128   13.5076 H   0  0  0  0  0
   11.3126    1.9944   14.2056 H   0  0  0  0  0
   10.6458   -0.9443   14.3638 H   0  0  0  0  0
    9.1245   -0.1027   15.6720 H   0  0  0  0  0
    8.7807   -0.7750   12.9388 H   0  0  0  0  0
    7.8990    1.2228   12.2647 H   0  0  0  0  0
    9.6826    0.7238   10.9448 H   0  0  0  0  0
   12.9205   -1.0838   11.6711 H   0  0  0  0  0
   12.1651   -4.6164    8.4155 H   0  0  0  0  0
   10.7697   -5.1467    7.4705 H   0  0  0  0  0
    7.2624   -2.3179    8.5638 H   0  0  0  0  0
  1  2  1  0  0  0
  2  3  1  0  0  0
  2  6  1  0  0  0
  3  4  1  0  0  0
  3  5  2  0  0  0
  6  7  1  0  0  0
  7  8  1  0  0  0
  8  9  1  0  0  0
  8 10  1  0  0  0
 10 11  1  0  0  0
 11 12  1  0  0  0
 11 13  1  0  0  0
 12 17  1  0  0  0
 13 14  1  0  0  0
 13 15  1  0  0  0
 15 16  1  0  0  0
 15 17  1  0  0  0
 17 18  1  0  0  0
 18 19  4  0  0  0
 18 27  4  0  0  0
 19 20  4  0  0  0
 20 21  4  0  0  0
 21 22  4  0  0  0
 21 27  4  0  0  0
 22 23  1  0  0  0
 22 24  4  0  0  0
 24 25  4  0  0  0
 25 26  4  0  0  0
 26 27  4  0  0  0
  1 28  1  0  0  0
  1 29  1  0  0  0
  1 30  1  0  0  0
  2 31  1  0  0  0
  4 32  1  0  0  0
  6 33  1  0  0  0
  6 34  1  0  0  0
  7 35  1  0  0  0
  7 36  1  0  0  0
  8 37  1  0  0  0
  9 38  1  0  0  0
  9 39  1  0  0  0
  9 40  1  0  0  0
 10 41  1  0  0  0
 10 42  1  0  0  0
 11 43  1  0  0  0
 13 44  1  0  0  0
 14 45  1  0  0  0
 15 46  1  0  0  0
 16 47  1  0  0  0
 17 48  1  0  0  0
 19 49  1  0  0  0
 23 50  1  0  0  0
 23 51  1  0  0  0
 25 52  1  0  0  0
M  END
$$$$
