3ocp_ligand
  -I-interpret- 

 34 37  0  0  0  0  0  0  0  0999 V2000
   -3.0200   33.7660   27.3530 P   0  0  0  0  0
   -1.8590   32.8890   27.5550 O   0  0  0  0  0
   -4.3880   33.0150   26.8450 O   0  0  0  0  0
   -3.4280   34.4910   28.6750 O   0  0  0  0  0
   -2.4370   35.4280   29.0830 C   0  0  0  0  0
   -2.2180   36.3760   27.9470 C   0  0  0  0  0
   -1.1850   37.3520   28.1860 O   0  0  0  0  0
   -1.7470   35.7220   26.6780 C   0  0  0  0  0
   -2.7460   34.8610   26.1650 O   0  0  0  0  0
   -1.4250   36.9540   25.8490 C   0  0  0  0  0
   -2.6120   37.5830   25.3770 O   0  0  0  0  0
   -0.7650   37.8350   26.9200 C   0  0  0  0  0
    0.7060   37.7210   26.8720 N   0  0  0  0  0
    1.4260   36.6770   27.2750 C   0  0  0  0  0
    2.7530   36.9720   27.0750 N   0  0  0  0  0
    2.8230   38.2290   26.5330 C   0  0  0  0  0
    3.9530   39.0560   26.1190 C   0  0  0  0  0
    5.3010   38.5520   26.2710 N   0  0  0  0  0
    3.7500   40.2500   25.6160 N   0  0  0  0  0
    2.4610   40.7270   25.4840 C   0  0  0  0  0
    1.3720   39.9340   25.8870 N   0  0  0  0  0
    1.5860   38.7010   26.4050 C   0  0  0  0  0
   -5.0881   33.6636   26.7413 H   0  0  0  0  0
   -1.5089   34.9150   29.3351 H   0  0  0  0  0
   -2.7659   35.9676   29.9711 H   0  0  0  0  0
   -3.2110   36.8160   27.8557 H   0  0  0  0  0
   -0.8931   35.0479   26.7457 H   0  0  0  0  0
   -0.8250   36.7547   24.9611 H   0  0  0  0  0
   -2.3785   38.3561   24.8579 H   0  0  0  0  0
   -1.0486   38.8736   26.7497 H   0  0  0  0  0
    1.0319   35.7498   27.6911 H   0  0  0  0  0
    5.4572   37.6243   26.6653 H   0  0  0  0  0
    6.0949   39.1244   25.9839 H   0  0  0  0  0
    2.2875   41.7190   25.0671 H   0  0  0  0  0
  1  2  2  0  0  0
  1  3  1  0  0  0
  1  4  1  0  0  0
  1  9  1  0  0  0
  4  5  1  0  0  0
  5  6  1  0  0  0
  6  7  1  0  0  0
  6  8  1  0  0  0
  7 12  1  0  0  0
  8  9  1  0  0  0
  8 10  1  0  0  0
 10 11  1  0  0  0
 10 12  1  0  0  0
 12 13  1  0  0  0
 13 14  4  0  0  0
 13 22  4  0  0  0
 14 15  4  0  0  0
 15 16  4  0  0  0
 16 17  4  0  0  0
 16 22  4  0  0  0
 17 18  1  0  0  0
 17 19  4  0  0  0
 19 20  4  0  0  0
 20 21  4  0  0  0
 21 22  4  0  0  0
  3 23  1  0  0  0
  5 24  1  0  0  0
  5 25  1  0  0  0
  6 26  1  0  0  0
  8 27  1  0  0  0
 10 28  1  0  0  0
 11 29  1  0  0  0
 12 30  1  0  0  0
 14 31  1  0  0  0
 18 32  1  0  0  0
 18 33  1  0  0  0
 20 34  1  0  0  0
M  END
$$$$
