6e5x_ligand
  -I-interpret- 

208217  0  0  0  0  0  0  0  0999 V2000
   22.0520   -5.6780   26.8570 N   0  3  0  0  0
   21.5510   -4.3810   26.3140 C   0  0  0  0  0
   20.4320   -4.6430   25.3000 C   0  0  0  0  0
   20.5670   -5.4910   24.4160 O   0  0  0  0  0
   22.6920   -3.5910   25.6660 C   0  0  0  0  0
   22.2530   -2.3620   24.9120 C   0  0  0  0  0
   22.1380   -1.1390   25.5530 C   0  0  0  0  0
   21.9520   -2.4280   23.5610 C   0  0  0  0  0
   21.7330   -0.0100   24.8590 C   0  0  0  0  0
   21.5470   -1.2980   22.8680 C   0  0  0  0  0
   21.4390   -0.0910   23.5180 C   0  0  0  0  0
   19.3300   -3.9000   25.4430 N   0  0  0  0  0
   18.2140   -3.9620   24.5120 C   0  0  0  0  0
   17.9850   -2.5670   23.9380 C   0  0  0  0  0
   17.6810   -1.6300   24.6750 O   0  0  0  0  0
   16.9380   -4.5010   25.1860 C   0  0  0  0  0
   15.8270   -4.7270   24.1730 C   0  0  0  0  0
   17.2120   -5.7720   25.9770 C   0  0  0  0  0
   18.1220   -2.3860   22.6070 N   0  0  0  0  0
   17.9070   -1.0800   21.9890 C   0  0  0  0  0
   16.4500   -0.6360   22.1690 C   0  0  0  0  0
   15.5590   -1.4730   22.3120 O   0  0  0  0  0
   18.2350   -1.3060   20.5060 C   0  0  0  0  0
   18.0570   -2.8000   20.3040 C   0  0  0  0  0
   18.4560   -3.4270   21.6240 C   0  0  0  0  0
   16.2330    0.6800   22.1740 N   0  0  0  0  0
   14.8920    1.2330   22.1740 C   0  0  0  0  0
   14.2200    0.8300   20.8680 C   0  0  0  0  0
   14.7910    1.0010   19.7930 O   0  0  0  0  0
   14.9170    2.7630   22.3400 C   0  0  0  0  0
   13.5300    3.3710   22.1900 C   0  0  0  0  0
   15.5450    3.1730   23.6610 C   0  0  0  0  0
   12.9800    0.2990   20.9170 N   0  0  0  0  0
   12.2480   -0.0310   19.6990 C   0  0  0  0  0
   11.9750    1.2480   18.9170 C   0  0  0  0  0
   11.8730    2.3230   19.5030 O   0  0  0  0  0
   10.9510   -0.6840   20.1990 C   0  0  0  0  0
   10.7950   -0.1780   21.6210 C   0  0  0  0  0
   12.2030    0.0400   22.1370 C   0  0  0  0  0
   11.8660    1.1680   17.5760 N   0  0  0  0  0
   11.5230    2.3340   16.7650 C   0  0  0  0  0
   10.0680    2.7260   16.9980 C   0  0  0  0  0
    9.2520    1.8970   17.3910 O   0  0  0  0  0
   11.7570    1.8510   15.3290 C   0  0  0  0  0
   11.5230    0.3550   15.4040 C   0  0  0  0  0
   12.0300   -0.0520   16.7730 C   0  0  0  0  0
    9.7000    4.0050   16.7770 N   0  0  0  0  0
    8.3060    4.4240   16.8880 C   0  0  0  0  0
    7.4700    3.7260   15.8230 C   0  0  0  0  0
    7.9980    3.2640   14.8140 O   0  0  0  0  0
    8.3520    5.9460   16.6840 C   0  0  0  0  0
    9.6560    6.1980   15.9540 C   0  0  0  0  0
   10.6020    5.1060   16.4110 C   0  0  0  0  0
    6.1390    3.6090   16.0140 N   0  0  0  0  0
    5.2880    2.9860   15.0050 C   0  0  0  0  0
    5.3700    3.7410   13.6700 C   0  0  0  0  0
    5.4870    4.9680   13.6530 O   0  0  0  0  0
    3.8750    3.0450   15.6080 C   0  0  0  0  0
    3.9580    4.1000   16.6960 C   0  0  0  0  0
    5.3890    4.0630   17.1930 C   0  0  0  0  0
    5.3370    2.9790   12.5730 N   0  0  0  0  0
    5.2320    3.5150   11.2240 C   0  0  0  0  0
    3.7490    3.6730   10.8790 C   0  0  0  0  0
    2.9800    2.7190   10.9860 O   0  0  0  0  0
    5.9170    2.5600   10.2410 C   0  0  0  0  0
    7.4360    2.6860   10.1430 C   0  0  0  0  0
    8.0070    1.6200    9.2210 C   0  0  0  0  0
    7.8370    4.0740    9.6670 C   0  0  0  0  0
    3.3730    4.8900   10.4820 N   0  0  0  0  0
    2.0160    5.2030   10.0750 C   0  0  0  0  0
    1.8690    4.9180    8.5840 C   0  0  0  0  0
    2.8090    5.1110    7.8160 O   0  0  0  0  0
    1.6900    6.6570   10.4230 C   0  0  0  0  0
    1.3640    6.8810   11.8770 C   0  0  0  0  0
    2.3640    6.9500   12.8340 C   0  0  0  0  0
    0.0520    7.0010   12.3030 C   0  0  0  0  0
    2.0690    7.1460   14.1730 C   0  0  0  0  0
   -0.2600    7.2010   13.6370 C   0  0  0  0  0
    0.7520    7.2710   14.5770 C   0  0  0  0  0
    0.4440    7.4690   15.8930 O   0  0  0  0  0
    0.6920    4.4310    8.1320 N   0  0  0  0  0
    0.4600    4.1930    6.7080 C   0  0  0  0  0
    0.5500    5.4960    5.9200 C   0  0  0  0  0
    0.0890    6.5380    6.3810 O   0  0  0  0  0
   -0.9550    3.5940    6.6530 C   0  0  0  0  0
   -1.6060    4.0240    7.9550 C   0  0  0  0  0
   -0.4750    4.0950    8.9610 C   0  0  0  0  0
    1.1640    5.4830    4.7160 N   0  0  0  0  0
    1.2450    6.6830    3.8840 C   0  0  0  0  0
   -0.1080    7.0270    3.2690 C   0  0  0  0  0
   -0.8250    6.1430    2.8050 O   0  0  0  0  0
    2.2720    6.3000    2.8080 C   0  0  0  0  0
    2.1480    4.7920    2.6980 C   0  0  0  0  0
    1.8110    4.3170    4.0970 C   0  0  0  0  0
   -0.5030    8.3200    3.2580 N   0  0  0  0  0
   -1.7890    8.7300    2.6930 C   0  0  0  0  0
   -1.7770    8.7410    1.1560 C   0  0  0  0  0
   -2.7480    8.3150    0.5310 O   0  0  0  0  0
   -1.9740   10.1470    3.2530 C   0  0  0  0  0
   -0.5600   10.6660    3.4170 C   0  0  0  0  0
    0.2660    9.4530    3.7960 C   0  0  0  0  0
   -0.7960    9.1760    0.5520 O   0  0  0  0  0
   21.2785   -6.1881   27.2835 H   0  0  0  0  0
   22.4491   -6.2322   26.0983 H   0  0  0  0  0
   22.7695   -5.4969   27.5590 H   0  0  0  0  0
   21.1521   -3.7845   27.1345 H   0  0  0  0  0
   23.1691   -4.2541   24.9444 H   0  0  0  0  0
   23.3444   -3.2545   26.4718 H   0  0  0  0  0
   22.3688   -1.0641   26.6156 H   0  0  0  0  0
   22.0347   -3.3801   23.0369 H   0  0  0  0  0
   21.6472    0.9450   25.3775 H   0  0  0  0  0
   21.3136   -1.3662   21.8055 H   0  0  0  0  0
   21.1217    0.7978   22.9726 H   0  0  0  0  0
   19.2691   -3.2634   26.2376 H   0  0  0  0  0
   18.4560   -4.6575   23.7084 H   0  0  0  0  0
   16.6038   -3.7380   25.8890 H   0  0  0  0  0
   15.5871   -3.7837   23.6823 H   0  0  0  0  0
   16.1576   -5.4514   23.4287 H   0  0  0  0  0
   14.9427   -5.1073   24.6843 H   0  0  0  0  0
   17.5966   -6.5402   25.3061 H   0  0  0  0  0
   17.9485   -5.5638   26.7531 H   0  0  0  0  0
   16.2865   -6.1192   26.4363 H   0  0  0  0  0
   18.5212   -0.2963   22.4324 H   0  0  0  0  0
   19.2428   -0.9758   20.2544 H   0  0  0  0  0
   17.5878   -0.7239   19.8500 H   0  0  0  0  0
   18.6675   -3.1709   19.4807 H   0  0  0  0  0
   17.0316   -3.0506   20.0324 H   0  0  0  0  0
   17.9385   -4.3670   21.8157 H   0  0  0  0  0
   19.5082   -3.7100   21.6533 H   0  0  0  0  0
   17.0315    1.3146   22.1779 H   0  0  0  0  0
   14.3283    0.8400   23.0201 H   0  0  0  0  0
   15.5399    3.1562   21.5366 H   0  0  0  0  0
   13.1387    3.1402   21.1992 H   0  0  0  0  0
   12.8681    2.9547   22.9494 H   0  0  0  0  0
   13.5932    4.4520   22.3143 H   0  0  0  0  0
   14.9699    2.7468   24.4830 H   0  0  0  0  0
   16.5702    2.8052   23.7041 H   0  0  0  0  0
   15.5440    4.2601   23.7404 H   0  0  0  0  0
   12.7901   -0.6961   19.0267 H   0  0  0  0  0
   10.9981   -1.7721   20.1553 H   0  0  0  0  0
   10.0955   -0.4228   19.5761 H   0  0  0  0  0
   10.2518   -0.8926   22.2393 H   0  0  0  0  0
   10.2134    0.7433   21.6530 H   0  0  0  0  0
   12.2632    0.8603   22.8523 H   0  0  0  0  0
   12.5792   -0.8156   22.6978 H   0  0  0  0  0
   12.1104    3.2210   17.0022 H   0  0  0  0  0
   12.7558    2.0959   14.9678 H   0  0  0  0  0
   11.0928    2.3383   14.6153 H   0  0  0  0  0
   12.0423   -0.1760   14.6062 H   0  0  0  0  0
   10.4709    0.1031   15.2711 H   0  0  0  0  0
   11.4840   -0.9004   17.1856 H   0  0  0  0  0
   13.0623   -0.4011   16.7495 H   0  0  0  0  0
    7.8476    4.1659   17.8426 H   0  0  0  0  0
    8.3056    6.4844   17.6306 H   0  0  0  0  0
    7.4931    6.3062   16.1177 H   0  0  0  0  0
   10.0530    7.1874   16.1810 H   0  0  0  0  0
    9.5164    6.1753   14.8732 H   0  0  0  0  0
   11.3176    4.8221   15.6394 H   0  0  0  0  0
   11.2359    5.4211   17.2399 H   0  0  0  0  0
    5.5899    1.9640   14.7761 H   0  0  0  0  0
    3.5636    2.0786   16.0044 H   0  0  0  0  0
    3.1250    3.2956   14.8578 H   0  0  0  0  0
    3.2517    3.8977   17.5012 H   0  0  0  0  0
    3.6945    5.0865   16.3147 H   0  0  0  0  0
    5.7315    5.0289   17.5643 H   0  0  0  0  0
    5.5195    3.4073   18.0539 H   0  0  0  0  0
    5.3882    1.9667   12.6872 H   0  0  0  0  0
    5.7233    4.4858   11.1585 H   0  0  0  0  0
    5.5234    2.7998    9.2532 H   0  0  0  0  0
    5.7139    1.5508   10.5994 H   0  0  0  0  0
    7.8504    2.5356   11.1399 H   0  0  0  0  0
    7.7598    0.6330    9.6119 H   0  0  0  0  0
    7.5789    1.7355    8.2252 H   0  0  0  0  0
    9.0901    1.7301    9.1673 H   0  0  0  0  0
    7.4057    4.2579    8.6830 H   0  0  0  0  0
    7.4681    4.8191   10.3719 H   0  0  0  0  0
    8.9235    4.1360    9.6062 H   0  0  0  0  0
    4.0708    5.6337   10.4638 H   0  0  0  0  0
    1.3017    4.5780   10.6111 H   0  0  0  0  0
    0.8081    6.9374    9.8470 H   0  0  0  0  0
    2.5755    7.2503   10.1951 H   0  0  0  0  0
    3.4047    6.8479   12.5264 H   0  0  0  0  0
   -0.7535    6.9365   11.5715 H   0  0  0  0  0
    2.8730    7.2016   14.9069 H   0  0  0  0  0
   -1.3004    7.3030   13.9455 H   0  0  0  0  0
   -0.5088    7.5326   15.9914 H   0  0  0  0  0
    1.2022    3.5303    6.2628 H   0  0  0  0  0
   -0.9337    2.5093    6.5477 H   0  0  0  0  0
   -1.5119    3.9453    5.7843 H   0  0  0  0  0
   -2.3793    3.3226    8.2685 H   0  0  0  0  0
   -2.1138    4.9831    7.8529 H   0  0  0  0  0
   -0.6571    4.8278    9.7471 H   0  0  0  0  0
   -0.3445    3.1642    9.5130 H   0  0  0  0  0
    1.5329    7.5712    4.4465 H   0  0  0  0  0
    3.2822    6.6121    3.0730 H   0  0  0  0  0
    2.0797    6.7996    1.8585 H   0  0  0  0  0
    3.0688    4.3389    2.3308 H   0  0  0  0  0
    1.3805    4.5033    1.9799 H   0  0  0  0  0
    1.1666    3.4379    4.0931 H   0  0  0  0  0
    2.6927    3.9900    4.6482 H   0  0  0  0  0
   -2.5957    8.0454    2.9551 H   0  0  0  0  0
   -2.5261   10.1502    4.1928 H   0  0  0  0  0
   -2.5705   10.7767    2.5929 H   0  0  0  0  0
   -0.5029   11.4452    4.1770 H   0  0  0  0  0
   -0.1939   11.1325    2.5024 H   0  0  0  0  0
    1.2769    9.4972    3.3907 H   0  0  0  0  0
    0.4189    9.3759    4.8725 H   0  0  0  0  0
   -0.1345    9.4654    1.1847 H   0  0  0  0  0
  1  2  1  0  0  0
  2  3  1  0  0  0
  2  5  1  0  0  0
  3  4  2  0  0  0
  3 12  1  0  0  0
  5  6  1  0  0  0
  6  7  4  0  0  0
  6  8  4  0  0  0
  7  9  4  0  0  0
  8 10  4  0  0  0
  9 11  4  0  0  0
 10 11  4  0  0  0
 12 13  1  0  0  0
 13 14  1  0  0  0
 13 16  1  0  0  0
 14 15  2  0  0  0
 14 19  1  0  0  0
 16 17  1  0  0  0
 16 18  1  0  0  0
 19 20  1  0  0  0
 19 25  1  0  0  0
 20 21  1  0  0  0
 20 23  1  0  0  0
 21 22  2  0  0  0
 21 26  1  0  0  0
 23 24  1  0  0  0
 24 25  1  0  0  0
 26 27  1  0  0  0
 27 28  1  0  0  0
 27 30  1  0  0  0
 28 29  2  0  0  0
 28 33  1  0  0  0
 30 31  1  0  0  0
 30 32  1  0  0  0
 33 34  1  0  0  0
 33 39  1  0  0  0
 34 35  1  0  0  0
 34 37  1  0  0  0
 35 36  2  0  0  0
 35 40  1  0  0  0
 37 38  1  0  0  0
 38 39  1  0  0  0
 40 41  1  0  0  0
 40 46  1  0  0  0
 41 42  1  0  0  0
 41 44  1  0  0  0
 42 43  2  0  0  0
 42 47  1  0  0  0
 44 45  1  0  0  0
 45 46  1  0  0  0
 47 48  1  0  0  0
 47 53  1  0  0  0
 48 49  1  0  0  0
 48 51  1  0  0  0
 49 50  2  0  0  0
 49 54  1  0  0  0
 51 52  1  0  0  0
 52 53  1  0  0  0
 54 55  1  0  0  0
 54 60  1  0  0  0
 55 56  1  0  0  0
 55 58  1  0  0  0
 56 57  2  0  0  0
 56 61  1  0  0  0
 58 59  1  0  0  0
 59 60  1  0  0  0
 61 62  1  0  0  0
 62 63  1  0  0  0
 62 65  1  0  0  0
 63 64  2  0  0  0
 63 69  1  0  0  0
 65 66  1  0  0  0
 66 67  1  0  0  0
 66 68  1  0  0  0
 69 70  1  0  0  0
 70 71  1  0  0  0
 70 73  1  0  0  0
 71 72  2  0  0  0
 71 81  1  0  0  0
 73 74  1  0  0  0
 74 75  4  0  0  0
 74 76  4  0  0  0
 75 77  4  0  0  0
 76 78  4  0  0  0
 77 79  4  0  0  0
 78 79  4  0  0  0
 79 80  1  0  0  0
 81 82  1  0  0  0
 81 87  1  0  0  0
 82 83  1  0  0  0
 82 85  1  0  0  0
 83 84  2  0  0  0
 83 88  1  0  0  0
 85 86  1  0  0  0
 86 87  1  0  0  0
 88 89  1  0  0  0
 88 94  1  0  0  0
 89 90  1  0  0  0
 89 92  1  0  0  0
 90 91  2  0  0  0
 90 95  1  0  0  0
 92 93  1  0  0  0
 93 94  1  0  0  0
 95 96  1  0  0  0
 95101  1  0  0  0
 96 97  1  0  0  0
 96 99  1  0  0  0
 97 98  2  0  0  0
 97102  1  0  0  0
 99100  1  0  0  0
100101  1  0  0  0
  1103  1  0  0  0
  1104  1  0  0  0
  1105  1  0  0  0
  2106  1  0  0  0
  5107  1  0  0  0
  5108  1  0  0  0
  7109  1  0  0  0
  8110  1  0  0  0
  9111  1  0  0  0
 10112  1  0  0  0
 11113  1  0  0  0
 12114  1  0  0  0
 13115  1  0  0  0
 16116  1  0  0  0
 17117  1  0  0  0
 17118  1  0  0  0
 17119  1  0  0  0
 18120  1  0  0  0
 18121  1  0  0  0
 18122  1  0  0  0
 20123  1  0  0  0
 23124  1  0  0  0
 23125  1  0  0  0
 24126  1  0  0  0
 24127  1  0  0  0
 25128  1  0  0  0
 25129  1  0  0  0
 26130  1  0  0  0
 27131  1  0  0  0
 30132  1  0  0  0
 31133  1  0  0  0
 31134  1  0  0  0
 31135  1  0  0  0
 32136  1  0  0  0
 32137  1  0  0  0
 32138  1  0  0  0
 34139  1  0  0  0
 37140  1  0  0  0
 37141  1  0  0  0
 38142  1  0  0  0
 38143  1  0  0  0
 39144  1  0  0  0
 39145  1  0  0  0
 41146  1  0  0  0
 44147  1  0  0  0
 44148  1  0  0  0
 45149  1  0  0  0
 45150  1  0  0  0
 46151  1  0  0  0
 46152  1  0  0  0
 48153  1  0  0  0
 51154  1  0  0  0
 51155  1  0  0  0
 52156  1  0  0  0
 52157  1  0  0  0
 53158  1  0  0  0
 53159  1  0  0  0
 55160  1  0  0  0
 58161  1  0  0  0
 58162  1  0  0  0
 59163  1  0  0  0
 59164  1  0  0  0
 60165  1  0  0  0
 60166  1  0  0  0
 61167  1  0  0  0
 62168  1  0  0  0
 65169  1  0  0  0
 65170  1  0  0  0
 66171  1  0  0  0
 67172  1  0  0  0
 67173  1  0  0  0
 67174  1  0  0  0
 68175  1  0  0  0
 68176  1  0  0  0
 68177  1  0  0  0
 69178  1  0  0  0
 70179  1  0  0  0
 73180  1  0  0  0
 73181  1  0  0  0
 75182  1  0  0  0
 76183  1  0  0  0
 77184  1  0  0  0
 78185  1  0  0  0
 80186  1  0  0  0
 82187  1  0  0  0
 85188  1  0  0  0
 85189  1  0  0  0
 86190  1  0  0  0
 86191  1  0  0  0
 87192  1  0  0  0
 87193  1  0  0  0
 89194  1  0  0  0
 92195  1  0  0  0
 92196  1  0  0  0
 93197  1  0  0  0
 93198  1  0  0  0
 94199  1  0  0  0
 94200  1  0  0  0
 96201  1  0  0  0
 99202  1  0  0  0
 99203  1  0  0  0
100204  1  0  0  0
100205  1  0  0  0
101206  1  0  0  0
101207  1  0  0  0
102208  1  0  0  0
M  END
$$$$
