### 
### Created by X-TOOL on Mon Aug  2 16:17:03 2021
### 

@<TRIPOS>MOLECULE
6e5x_ligand
  207   216     1     0     0
SMALL
GAST_HUCK


@<TRIPOS>ATOM
      1 N          22.0520   -5.6780   26.8570 N.4       1 PHE         0.2394
      2 CA         21.5510   -4.3810   26.3140 C.3       1 PHE         0.0744
      3 C          20.4320   -4.6430   25.3000 C.2       1 PHE         0.2288
      4 O          20.5670   -5.4910   24.4160 O.2       1 PHE        -0.3905
      5 CB         22.6920   -3.5910   25.6660 C.3       1 PHE         0.0416
      6 CG         22.2530   -2.3620   24.9120 C.ar      1 PHE        -0.0353
      7 CD1        22.1380   -1.1390   25.5530 C.ar      1 PHE        -0.0600
      8 CD2        21.9520   -2.4280   23.5610 C.ar      1 PHE        -0.0600
      9 CE1        21.7330   -0.0100   24.8590 C.ar      1 PHE        -0.0686
     10 CE2        21.5470   -1.2980   22.8680 C.ar      1 PHE        -0.0686
     11 CZ         21.4390   -0.0910   23.5180 C.ar      1 PHE        -0.0687
     12 N          19.3300   -3.9000   25.4430 N.am      1 PHE        -0.2606
     13 CA         18.2140   -3.9620   24.5120 C.3       1 PHE         0.1336
     14 C          17.9850   -2.5670   23.9380 C.2       1 PHE         0.2067
     15 O          17.6810   -1.6300   24.6750 O.2       1 PHE        -0.3942
     16 CB         16.9380   -4.5010   25.1860 C.3       1 PHE        -0.0062
     17 CG1        15.8270   -4.7270   24.1730 C.3       1 PHE        -0.0584
     18 CG2        17.2120   -5.7720   25.9770 C.3       1 PHE        -0.0584
     19 N          18.1220   -2.3860   22.6070 N.am      1 PHE        -0.2498
     20 CA         17.9070   -1.0800   21.9890 C.3       1 PHE         0.1338
     21 C          16.4500   -0.6360   22.1690 C.2       1 PHE         0.2041
     22 O          15.5590   -1.4730   22.3120 O.2       1 PHE        -0.3944
     23 CB         18.2350   -1.3060   20.5060 C.3       1 PHE        -0.0104
     24 CG         18.0570   -2.8000   20.3040 C.3       1 PHE        -0.0281
     25 CD         18.4560   -3.4270   21.6240 C.3       1 PHE         0.0369
     26 N          16.2330    0.6800   22.1740 N.am      1 PHE        -0.2635
     27 CA         14.8920    1.2330   22.1740 C.3       1 PHE         0.1334
     28 C          14.2200    0.8300   20.8680 C.2       1 PHE         0.2066
     29 O          14.7910    1.0010   19.7930 O.2       1 PHE        -0.3942
     30 CB         14.9170    2.7630   22.3400 C.3       1 PHE        -0.0062
     31 CG1        13.5300    3.3710   22.1900 C.3       1 PHE        -0.0584
     32 CG2        15.5450    3.1730   23.6610 C.3       1 PHE        -0.0584
     33 N          12.9800    0.2990   20.9170 N.am      1 PHE        -0.2498
     34 CA         12.2480   -0.0310   19.6990 C.3       1 PHE         0.1340
     35 C          11.9750    1.2480   18.9170 C.2       1 PHE         0.2066
     36 O          11.8730    2.3230   19.5030 O.2       1 PHE        -0.3942
     37 CB         10.9510   -0.6840   20.1990 C.3       1 PHE        -0.0104
     38 CG         10.7950   -0.1780   21.6210 C.3       1 PHE        -0.0281
     39 CD         12.2030    0.0400   22.1370 C.3       1 PHE         0.0369
     40 N          11.8660    1.1680   17.5760 N.am      1 PHE        -0.2498
     41 CA         11.5230    2.3340   16.7650 C.3       1 PHE         0.1340
     42 C          10.0680    2.7260   16.9980 C.2       1 PHE         0.2066
     43 O           9.2520    1.8970   17.3910 O.2       1 PHE        -0.3942
     44 CB         11.7570    1.8510   15.3290 C.3       1 PHE        -0.0104
     45 CG         11.5230    0.3550   15.4040 C.3       1 PHE        -0.0281
     46 CD         12.0300   -0.0520   16.7730 C.3       1 PHE         0.0369
     47 N           9.7000    4.0050   16.7770 N.am      1 PHE        -0.2498
     48 CA          8.3060    4.4240   16.8880 C.3       1 PHE         0.1340
     49 C           7.4700    3.7260   15.8230 C.2       1 PHE         0.2066
     50 O           7.9980    3.2640   14.8140 O.2       1 PHE        -0.3942
     51 CB          8.3520    5.9460   16.6840 C.3       1 PHE        -0.0104
     52 CG          9.6560    6.1980   15.9540 C.3       1 PHE        -0.0281
     53 CD         10.6020    5.1060   16.4110 C.3       1 PHE         0.0369
     54 N           6.1390    3.6090   16.0140 N.am      1 PHE        -0.2498
     55 CA          5.2880    2.9860   15.0050 C.3       1 PHE         0.1338
     56 C           5.3700    3.7410   13.6700 C.2       1 PHE         0.2041
     57 O           5.4870    4.9680   13.6530 O.2       1 PHE        -0.3944
     58 CB          3.8750    3.0450   15.6080 C.3       1 PHE        -0.0104
     59 CG          3.9580    4.1000   16.6960 C.3       1 PHE        -0.0281
     60 CD          5.3890    4.0630   17.1930 C.3       1 PHE         0.0369
     61 N           5.3370    2.9790   12.5730 N.am      1 PHE        -0.2637
     62 CA          5.2320    3.5150   11.2240 C.3       1 PHE         0.1312
     63 C           3.7490    3.6730   10.8790 C.2       1 PHE         0.2040
     64 O           2.9800    2.7190   10.9860 O.2       1 PHE        -0.3944
     65 CB          5.9170    2.5600   10.2410 C.3       1 PHE        -0.0101
     66 CG          7.4360    2.6860   10.1430 C.3       1 PHE        -0.0425
     67 CD1         8.0070    1.6200    9.2210 C.3       1 PHE        -0.0625
     68 CD2         7.8370    4.0740    9.6670 C.3       1 PHE        -0.0625
     69 N           3.3730    4.8900   10.4820 N.am      1 PHE        -0.2621
     70 CA          2.0160    5.2030   10.0750 C.3       1 PHE         0.1392
     71 C           1.8690    4.9180    8.5840 C.2       1 PHE         0.2082
     72 O           2.8090    5.1110    7.8160 O.2       1 PHE        -0.3940
     73 CB          1.6900    6.6570   10.4230 C.3       1 PHE         0.0164
     74 CG          1.3640    6.8810   11.8770 C.ar      1 PHE        -0.0493
     75 CD1         2.3640    6.9500   12.8340 C.ar      1 PHE        -0.0685
     76 CD2         0.0520    7.0010   12.3030 C.ar      1 PHE        -0.0685
     77 CE1         2.0690    7.1460   14.1730 C.ar      1 PHE        -0.0398
     78 CE2        -0.2600    7.2010   13.6370 C.ar      1 PHE        -0.0398
     79 CZ          0.7520    7.2710   14.5770 C.ar      1 PHE         0.0805
     80 OH          0.4440    7.4690   15.8930 O.3       1 PHE        -0.3376
     81 N           0.6920    4.4310    8.1320 N.am      1 PHE        -0.2497
     82 CA          0.4600    4.1930    6.7080 C.3       1 PHE         0.1340
     83 C           0.5500    5.4960    5.9200 C.2       1 PHE         0.2066
     84 O           0.0890    6.5380    6.3810 O.2       1 PHE        -0.3942
     85 CB         -0.9550    3.5940    6.6530 C.3       1 PHE        -0.0104
     86 CG         -1.6060    4.0240    7.9550 C.3       1 PHE        -0.0281
     87 CD         -0.4750    4.0950    8.9610 C.3       1 PHE         0.0369
     88 N           1.1640    5.4830    4.7160 N.am      1 PHE        -0.2498
     89 CA          1.2450    6.6830    3.8840 C.3       1 PHE         0.1339
     90 C          -0.1080    7.0270    3.2690 C.2       1 PHE         0.2060
     91 O          -0.8250    6.1430    2.8050 O.2       1 PHE        -0.3942
     92 CB          2.2720    6.3000    2.8080 C.3       1 PHE        -0.0104
     93 CG          2.1480    4.7920    2.6980 C.3       1 PHE        -0.0281
     94 CD          1.8110    4.3170    4.0970 C.3       1 PHE         0.0369
     95 N          -0.5030    8.3200    3.2580 N.am      1 PHE        -0.2556
     96 CA         -1.7890    8.7300    2.6930 C.3       1 PHE         0.0972
     97 C          -1.7770    8.7410    1.1560 C.2       1 PHE         0.0603
     98 O          -2.7480    8.3150    0.5310 O.co2     1 PHE        -0.5666
     99 CB         -1.9740   10.1470    3.2530 C.3       1 PHE        -0.0159
    100 CG         -0.5600   10.6660    3.4170 C.3       1 PHE        -0.0288
    101 CD          0.2660    9.4530    3.7960 C.3       1 PHE         0.0362
    102 OXT        -0.7960    9.1760    0.5520 O.co2     1 PHE        -0.5666
    103 H1         22.7875   -5.5016   27.5233 H         1 PHE         0.2017
    104 H2         22.4104   -6.2422   26.1025 H         1 PHE         0.2017
    105 H3         21.2965   -6.1661   27.3120 H         1 PHE         0.2017
    106 H4         21.1421   -3.7861   27.1439 H         1 PHE         0.1122
    107 H5         23.2147   -4.2565   24.9632 H         1 PHE         0.0507
    108 H6         23.3864   -3.2773   26.4594 H         1 PHE         0.0507
    109 H7         22.3675   -1.0645   26.6098 H         1 PHE         0.0557
    110 H8         22.0343   -3.3749   23.0398 H         1 PHE         0.0557
    111 H9         21.6477    0.9397   25.3746 H         1 PHE         0.0599
    112 H10        21.3149   -1.3659   21.8113 H         1 PHE         0.0599
    113 H11        21.1234    0.7929   22.9756 H         1 PHE         0.0559
    114 H12        19.2703   -3.2759   26.2220 H         1 PHE         0.1885
    115 H13        18.4799   -4.6430   23.6901 H         1 PHE         0.0803
    116 H14        16.5915   -3.7357   25.8960 H         1 PHE         0.0343
    117 H15        14.9339   -5.1108   24.6879 H         1 PHE         0.0234
    118 H16        16.1593   -5.4580   23.4212 H         1 PHE         0.0234
    119 H17        15.5839   -3.7757   23.6771 H         1 PHE         0.0234
    120 H18        18.0176   -5.5858   26.7025 H         1 PHE         0.0234
    121 H19        17.5167   -6.5739   25.2885 H         1 PHE         0.0234
    122 H20        16.2998   -6.0749   26.5118 H         1 PHE         0.0234
    123 H21        18.5776   -0.3251   22.4254 H         1 PHE         0.0802
    124 H22        19.2695   -1.0039   20.2856 H         1 PHE         0.0313
    125 H23        17.5433   -0.7412   19.8638 H         1 PHE         0.0313
    126 H24        18.7072   -3.1603   19.4932 H         1 PHE         0.0287
    127 H25        17.0092   -3.0354   20.0658 H         1 PHE         0.0287
    128 H26        17.8822   -4.3463   21.8130 H         1 PHE         0.0524
    129 H27        19.5318   -3.6559   21.6424 H         1 PHE         0.0524
    130 H28        17.0159    1.3022   22.1779 H         1 PHE         0.1883
    131 H29        14.3276    0.8033   23.0147 H         1 PHE         0.0803
    132 H30        15.5454    3.1698   21.5340 H         1 PHE         0.0343
    133 H31        13.5925    4.4621   22.3153 H         1 PHE         0.0234
    134 H32        12.8610    2.9517   22.9559 H         1 PHE         0.0234
    135 H33        13.1340    3.1388   21.1904 H         1 PHE         0.0234
    136 H34        16.5449    2.7226   23.7470 H         1 PHE         0.0234
    137 H35        14.9132    2.8244   24.4912 H         1 PHE         0.0234
    138 H36        15.6318    4.2688   23.7013 H         1 PHE         0.0234
    139 H37        12.8173   -0.7330   19.0720 H         1 PHE         0.0802
    140 H38        11.0367   -1.7805   20.1837 H         1 PHE         0.0313
    141 H39        10.0960   -0.3743   19.5801 H         1 PHE         0.0313
    142 H40        10.2719   -0.9235   22.2379 H         1 PHE         0.0287
    143 H41        10.2322    0.7671   21.6320 H         1 PHE         0.0287
    144 H42        12.2426    0.9024   22.8187 H         1 PHE         0.0524
    145 H43        12.5742   -0.8556   22.6567 H         1 PHE         0.0524
    146 H44        12.1755    3.1874   17.0014 H         1 PHE         0.0802
    147 H45        12.7851    2.0704   15.0050 H         1 PHE         0.0313
    148 H46        11.0454    2.3240   14.6363 H         1 PHE         0.0313
    149 H47        12.0844   -0.1645   14.6135 H         1 PHE         0.0287
    150 H48        10.4518    0.1255   15.3043 H         1 PHE         0.0287
    151 H49        11.4307   -0.8774   17.1848 H         1 PHE         0.0524
    152 H50        13.0869   -0.3535   16.7272 H         1 PHE         0.0524
    153 H51         7.9023    4.1829   17.8824 H         1 PHE         0.0802
    154 H52         8.3428    6.4675   17.6525 H         1 PHE         0.0313
    155 H53         7.4974    6.2821   16.0784 H         1 PHE         0.0313
    156 H54        10.0575    7.1877   16.2174 H         1 PHE         0.0287
    157 H55         9.5032    6.1419   14.8661 H         1 PHE         0.0287
    158 H56        11.2792    4.8062   15.5977 H         1 PHE         0.0524
    159 H57        11.1934    5.4351   17.2781 H         1 PHE         0.0524
    160 H58         5.5889    1.9405   14.8425 H         1 PHE         0.0802
    161 H59         3.5953    2.0704   16.0346 H         1 PHE         0.0313
    162 H60         3.1397    3.3351   14.8431 H         1 PHE         0.0313
    163 H61         3.2615    3.8634   17.5139 H         1 PHE         0.0287
    164 H62         3.7195    5.0928   16.2869 H         1 PHE         0.0287
    165 H63         5.7220    5.0615   17.5126 H         1 PHE         0.0524
    166 H64         5.4990    3.3551   18.0278 H         1 PHE         0.0524
    167 H65         5.3872    1.9865   12.6849 H         1 PHE         0.1883
    168 H66         5.7247    4.4973   11.1770 H         1 PHE         0.0800
    169 H67         5.4975    2.7462    9.2413 H         1 PHE         0.0315
    170 H68         5.6828    1.5309   10.5511 H         1 PHE         0.0315
    171 H69         7.8575    2.5330   11.1475 H         1 PHE         0.0298
    172 H70         9.1001    1.7301    9.1659 H         1 PHE         0.0232
    173 H71         7.5758    1.7354    8.2157 H         1 PHE         0.0232
    174 H72         7.7583    0.6234    9.6145 H         1 PHE         0.0232
    175 H73         7.4153    4.8303   10.3454 H         1 PHE         0.0232
    176 H74         7.4518    4.2384    8.6499 H         1 PHE         0.0232
    177 H75         8.9338    4.1571    9.6616 H         1 PHE         0.0232
    178 H76         4.0572    5.6191   10.4642 H         1 PHE         0.1885
    179 H77         1.3194    4.5526   10.6243 H         1 PHE         0.0821
    180 H78         0.8237    6.9706    9.8221 H         1 PHE         0.0453
    181 H79         2.5601    7.2781   10.1640 H         1 PHE         0.0453
    182 H80         3.3990    6.8484   12.5281 H         1 PHE         0.0530
    183 H81        -0.7491    6.9369   11.5755 H         1 PHE         0.0530
    184 H82         2.8686    7.2013   14.9029 H         1 PHE         0.0525
    185 H83        -1.2947    7.3024   13.9438 H         1 PHE         0.0525
    186 H84         1.2443    7.4926   16.4043 H         1 PHE         0.2458
    187 H85         1.1955    3.4787    6.3095 H         1 PHE         0.0802
    188 H86        -0.9096    2.4970    6.5858 H         1 PHE         0.0313
    189 H87        -1.5113    3.9915    5.7913 H         1 PHE         0.0313
    190 H88        -2.3582    3.2867    8.2720 H         1 PHE         0.0287
    191 H89        -2.0829    5.0086    7.8409 H         1 PHE         0.0287
    192 H90        -0.6636    4.8765    9.7118 H         1 PHE         0.0524
    193 H91        -0.3349    3.1277    9.4657 H         1 PHE         0.0524
    194 H92         1.6011    7.5411    4.4729 H         1 PHE         0.0802
    195 H93         3.2877    6.5866    3.1180 H         1 PHE         0.0313
    196 H94         2.0314    6.7825    1.8492 H         1 PHE         0.0313
    197 H95         3.0969    4.3508    2.3592 H         1 PHE         0.0287
    198 H96         1.3462    4.5213    1.9953 H         1 PHE         0.0287
    199 H97         1.1239    3.4586    4.0646 H         1 PHE         0.0524
    200 H98         2.7221    4.0369    4.6459 H         1 PHE         0.0524
    201 H99        -2.5931    8.0642    3.0396 H         1 PHE         0.0728
    202 H100       -2.4948   10.1194    4.2215 H         1 PHE         0.0306
    203 H101       -2.5411   10.7742    2.5494 H         1 PHE         0.0306
    204 H102       -0.5174   11.4254    4.2116 H         1 PHE         0.0286
    205 H103       -0.1968   11.1009    2.4742 H         1 PHE         0.0286
    206 H104        1.2649    9.5009    3.3379 H         1 PHE         0.0524
    207 H105        0.3670    9.3740    4.8885 H         1 PHE         0.0524
@<TRIPOS>BOND
     1    1    2 1  
     2    2    3 1  
     3    2    5 1  
     4    3    4 2  
     5    3   12 am 
     6    5    6 1  
     7    6    7 ar 
     8    6    8 ar 
     9    7    9 ar 
    10    8   10 ar 
    11    9   11 ar 
    12   10   11 ar 
    13   12   13 1  
    14   13   14 1  
    15   13   16 1  
    16   14   15 2  
    17   14   19 am 
    18   16   17 1  
    19   16   18 1  
    20   19   20 1  
    21   19   25 1  
    22   20   21 1  
    23   20   23 1  
    24   21   22 2  
    25   21   26 am 
    26   23   24 1  
    27   24   25 1  
    28   26   27 1  
    29   27   28 1  
    30   27   30 1  
    31   28   29 2  
    32   28   33 am 
    33   30   31 1  
    34   30   32 1  
    35   33   34 1  
    36   33   39 1  
    37   34   35 1  
    38   34   37 1  
    39   35   36 2  
    40   35   40 am 
    41   37   38 1  
    42   38   39 1  
    43   40   41 1  
    44   40   46 1  
    45   41   42 1  
    46   41   44 1  
    47   42   43 2  
    48   42   47 am 
    49   44   45 1  
    50   45   46 1  
    51   47   48 1  
    52   47   53 1  
    53   48   49 1  
    54   48   51 1  
    55   49   50 2  
    56   49   54 am 
    57   51   52 1  
    58   52   53 1  
    59   54   55 1  
    60   54   60 1  
    61   55   56 1  
    62   55   58 1  
    63   56   57 2  
    64   56   61 am 
    65   58   59 1  
    66   59   60 1  
    67   61   62 1  
    68   62   63 1  
    69   62   65 1  
    70   63   64 2  
    71   63   69 am 
    72   65   66 1  
    73   66   67 1  
    74   66   68 1  
    75   69   70 1  
    76   70   71 1  
    77   70   73 1  
    78   71   72 2  
    79   71   81 am 
    80   73   74 1  
    81   74   75 ar 
    82   74   76 ar 
    83   75   77 ar 
    84   76   78 ar 
    85   77   79 ar 
    86   78   79 ar 
    87   79   80 1  
    88   81   82 1  
    89   81   87 1  
    90   82   83 1  
    91   82   85 1  
    92   83   84 2  
    93   83   88 am 
    94   85   86 1  
    95   86   87 1  
    96   88   89 1  
    97   88   94 1  
    98   89   90 1  
    99   89   92 1  
   100   90   91 2  
   101   90   95 am 
   102   92   93 1  
   103   93   94 1  
   104   95   96 1  
   105   95  101 1  
   106   96   97 1  
   107   96   99 1  
   108   97   98 ar 
   109   97  102 ar 
   110   99  100 1  
   111  100  101 1  
   112    1  103 1  
   113    1  104 1  
   114    1  105 1  
   115    2  106 1  
   116    5  107 1  
   117    5  108 1  
   118    7  109 1  
   119    8  110 1  
   120    9  111 1  
   121   10  112 1  
   122   11  113 1  
   123   12  114 1  
   124   13  115 1  
   125   16  116 1  
   126   17  117 1  
   127   17  118 1  
   128   17  119 1  
   129   18  120 1  
   130   18  121 1  
   131   18  122 1  
   132   20  123 1  
   133   23  124 1  
   134   23  125 1  
   135   24  126 1  
   136   24  127 1  
   137   25  128 1  
   138   25  129 1  
   139   26  130 1  
   140   27  131 1  
   141   30  132 1  
   142   31  133 1  
   143   31  134 1  
   144   31  135 1  
   145   32  136 1  
   146   32  137 1  
   147   32  138 1  
   148   34  139 1  
   149   37  140 1  
   150   37  141 1  
   151   38  142 1  
   152   38  143 1  
   153   39  144 1  
   154   39  145 1  
   155   41  146 1  
   156   44  147 1  
   157   44  148 1  
   158   45  149 1  
   159   45  150 1  
   160   46  151 1  
   161   46  152 1  
   162   48  153 1  
   163   51  154 1  
   164   51  155 1  
   165   52  156 1  
   166   52  157 1  
   167   53  158 1  
   168   53  159 1  
   169   55  160 1  
   170   58  161 1  
   171   58  162 1  
   172   59  163 1  
   173   59  164 1  
   174   60  165 1  
   175   60  166 1  
   176   61  167 1  
   177   62  168 1  
   178   65  169 1  
   179   65  170 1  
   180   66  171 1  
   181   67  172 1  
   182   67  173 1  
   183   67  174 1  
   184   68  175 1  
   185   68  176 1  
   186   68  177 1  
   187   69  178 1  
   188   70  179 1  
   189   73  180 1  
   190   73  181 1  
   191   75  182 1  
   192   76  183 1  
   193   77  184 1  
   194   78  185 1  
   195   80  186 1  
   196   82  187 1  
   197   85  188 1  
   198   85  189 1  
   199   86  190 1  
   200   86  191 1  
   201   87  192 1  
   202   87  193 1  
   203   89  194 1  
   204   92  195 1  
   205   92  196 1  
   206   93  197 1  
   207   93  198 1  
   208   94  199 1  
   209   94  200 1  
   210   96  201 1  
   211   99  202 1  
   212   99  203 1  
   213  100  204 1  
   214  100  205 1  
   215  101  206 1  
   216  101  207 1  
@<TRIPOS>SUBSTRUCTURE
     1 PHE         1

