2n14_ligand
  -I-interpret- 

 70 74  0  0  0  0  0  0  0  0999 V2000
   -1.3250   13.9540  -12.4990 N   0  0  0  0  0
    1.7950   14.0630  -11.2850 C   0  0  0  0  0
   -0.4140   12.0730  -11.1000 C   0  0  0  0  0
   -1.0010   15.5630  -14.2630 C   0  0  0  0  0
    2.4300   14.3170  -12.5070 C   0  0  0  0  0
    2.4550   13.2870  -10.3280 C   0  0  0  0  0
    0.3660   11.4520  -12.0810 C   0  0  0  0  0
   -0.9100   11.3040  -10.0430 C   0  0  0  0  0
   -1.9960   14.9560  -15.0460 C   0  0  0  0  0
   -0.2080   16.5590  -14.8640 C   0  0  0  0  0
    3.6910   13.7900  -12.7720 C   0  0  0  0  0
    3.7080   12.7410  -10.6010 C   0  0  0  0  0
    0.6700   10.0960  -11.9880 C   0  0  0  0  0
   -0.6380    9.9380   -9.9700 C   0  0  0  0  0
   -2.2540   15.3750  -16.3470 C   0  0  0  0  0
   -0.4820   16.9760  -16.1700 C   0  0  0  0  0
    4.3240   12.9970  -11.8220 C   0  0  0  0  0
    0.1560    9.3340  -10.9430 C   0  0  0  0  0
   -1.5090   16.4060  -16.9050 C   0  0  0  0  0
    5.8690   12.3190  -12.1820 Cl  0  0  0  0  0
    1.7030    9.3570  -13.1600 Cl  0  0  0  0  0
   -2.9700   16.6370  -18.8990 C   0  0  0  0  0
    2.8420   16.7030  -15.5920 C   0  0  0  0  0
    2.8510   18.3750  -13.6880 C   0  0  0  0  0
   -3.1910   18.7830  -11.8840 C   0  0  0  0  0
   -2.7440   20.0450  -11.8790 N   0  0  0  0  0
   -4.3830   18.5870  -11.7340 O   0  0  0  0  0
   -1.3300   20.3820  -12.0400 C   0  0  0  0  0
   -0.7320   17.9370  -11.7150 N   0  0  0  0  0
   -0.4230   19.3420  -11.3560 C   0  0  0  0  0
   -0.0280   15.6940  -11.8580 N   0  0  0  0  0
   -1.7410   16.8870  -18.1770 O   0  0  0  0  0
   -2.1670   17.6630  -12.0580 C   0  0  0  0  0
    0.1850   16.9630  -11.4380 C   0  0  0  0  0
    1.1630   17.2220  -10.7570 O   0  0  0  0  0
   -0.8610   15.0940  -12.8440 C   0  0  0  0  0
    0.8710   17.1010  -14.1890 O   0  0  0  0  0
   -0.7660   13.5580  -11.1850 C   0  0  0  0  0
    0.3870   14.5870  -10.9800 C   0  0  0  0  0
    2.0140   17.7430  -14.8100 C   0  0  0  0  0
    1.9329   14.9324  -13.2568 H   0  0  0  0  0
    1.9861   13.1074   -9.3605 H   0  0  0  0  0
    0.7386   12.0335  -12.9243 H   0  0  0  0  0
   -1.5148   11.7763   -9.2689 H   0  0  0  0  0
   -2.5797   14.1376  -14.6246 H   0  0  0  0  0
    4.1811   13.9989  -13.7229 H   0  0  0  0  0
    4.2042   12.1148   -9.8596 H   0  0  0  0  0
   -1.0461    9.3434   -9.1527 H   0  0  0  0  0
   -3.0407   14.8944  -16.9286 H   0  0  0  0  0
    0.1233   17.7639  -16.6182 H   0  0  0  0  0
    0.3739    8.2675  -10.8858 H   0  0  0  0  0
   -3.1033   15.5626  -19.0257 H   0  0  0  0  0
   -3.8098   17.0448  -18.3364 H   0  0  0  0  0
   -2.9193   17.1159  -19.8768 H   0  0  0  0  0
    3.7115   17.1902  -16.0334 H   0  0  0  0  0
    3.1705   15.9166  -14.9124 H   0  0  0  0  0
    2.2272   16.2698  -16.3809 H   0  0  0  0  0
    3.1795   17.5968  -12.9991 H   0  0  0  0  0
    3.7205   18.8703  -14.1201 H   0  0  0  0  0
    2.2449   19.1048  -13.1513 H   0  0  0  0  0
   -3.4168   20.8020  -11.7580 H   0  0  0  0  0
   -1.1511   21.3536  -11.5794 H   0  0  0  0  0
   -1.0969   20.3976  -13.1047 H   0  0  0  0  0
   -0.5746   19.4402  -10.2811 H   0  0  0  0  0
    0.5977   19.5406  -11.6829 H   0  0  0  0  0
   -2.1657   17.4444  -13.1259 H   0  0  0  0  0
   -2.4799   16.8834  -11.3635 H   0  0  0  0  0
   -1.4697   13.6105  -10.3543 H   0  0  0  0  0
    0.5033   14.8694   -9.9337 H   0  0  0  0  0
    1.6950   18.5086  -15.5172 H   0  0  0  0  0
 36  1  2  0  0  0
  1 38  1  0  0  0
  2  5  4  0  0  0
  2  6  4  0  0  0
 39  2  1  0  0  0
  3  7  4  0  0  0
  3  8  4  0  0  0
 38  3  1  0  0  0
  4  9  4  0  0  0
 10  4  4  0  0  0
  4 36  1  0  0  0
  5 11  4  0  0  0
  6 12  4  0  0  0
  7 13  4  0  0  0
  8 14  4  0  0  0
  9 15  4  0  0  0
 10 16  4  0  0  0
 37 10  1  0  0  0
 11 17  4  0  0  0
 12 17  4  0  0  0
 13 18  4  0  0  0
 13 21  1  0  0  0
 14 18  4  0  0  0
 19 15  4  0  0  0
 16 19  4  0  0  0
 17 20  1  0  0  0
 19 32  1  0  0  0
 32 22  1  0  0  0
 40 23  1  0  0  0
 40 24  1  0  0  0
 25 26  1  0  0  0
 25 27  2  0  0  0
 33 25  1  0  0  0
 28 26  1  0  0  0
 30 28  1  0  0  0
 29 30  1  0  0  0
 29 33  1  0  0  0
 34 29  1  0  0  0
 31 34  1  0  0  0
 36 31  1  0  0  0
 31 39  1  0  0  0
 34 35  2  0  0  0
 37 40  1  0  0  0
 38 39  1  0  0  0
  5 41  1  0  0  0
  6 42  1  0  0  0
  7 43  1  0  0  0
  8 44  1  0  0  0
  9 45  1  0  0  0
 11 46  1  0  0  0
 12 47  1  0  0  0
 14 48  1  0  0  0
 15 49  1  0  0  0
 16 50  1  0  0  0
 18 51  1  0  0  0
 22 52  1  0  0  0
 22 53  1  0  0  0
 22 54  1  0  0  0
 23 55  1  0  0  0
 23 56  1  0  0  0
 23 57  1  0  0  0
 24 58  1  0  0  0
 24 59  1  0  0  0
 24 60  1  0  0  0
 26 61  1  0  0  0
 28 62  1  0  0  0
 28 63  1  0  0  0
 30 64  1  0  0  0
 30 65  1  0  0  0
 33 66  1  0  0  0
 33 67  1  0  0  0
 38 68  1  0  0  0
 39 69  1  0  0  0
 40 70  1  0  0  0
M  END
$$$$
