5t6f_ligand
  -I-interpret- 

 78 80  0  0  0  0  0  0  0  0999 V2000
    4.3390   59.7860  -13.0800 C   0  0  0  0  0
    4.4750   61.3390  -11.2570 C   0  0  0  0  0
    3.9780   62.4780  -11.8790 C   0  0  0  0  0
    3.3870   63.4930  -11.1340 C   0  0  0  0  0
    3.3050   63.3940   -9.7500 C   0  0  0  0  0
    2.1040   65.4890   -9.6460 C   0  0  0  0  0
    1.9860   66.6920   -8.7020 C   0  0  0  0  0
    3.2420   67.5670   -8.8210 C   0  0  0  0  0
    6.0340   69.2940   -6.4440 C   0  0  0  0  0
    7.1590   70.1600   -6.9170 C   0  0  0  0  0
    7.9460   69.5690   -8.1000 C   0  0  0  0  0
    8.6230   68.3020   -7.5990 C   0  0  0  0  0
    9.6970   67.7940   -8.5390 C   0  0  0  0  0
   10.7060   68.8870   -8.8740 C   0  0  0  0  0
   10.0230   70.1510   -9.3970 C   0  0  0  0  0
    8.9540   70.6520   -8.4530 C   0  0  0  0  0
    5.5910   69.8520   -5.0760 C   0  0  0  0  0
    5.7200   69.7400   -2.5290 C   0  0  0  0  0
    4.9570   68.6310   -1.7590 C   0  0  0  0  0
    3.5950   68.2310   -2.3970 C   0  0  0  0  0
    2.8870   67.3760   -1.7040 C   0  0  0  0  0
    1.4310   69.1710   -2.6350 C   0  0  0  0  0
    2.6510   69.5900   -2.5420 C   0  0  0  0  0
    7.0040   70.1380   -1.8000 C   0  0  0  0  0
    3.8120   62.2590   -9.1400 C   0  0  0  0  0
    4.3920   61.2300   -9.8810 C   0  0  0  0  0
    4.9640   69.4040   -7.4120 N   0  0  0  0  0
    6.1170   69.2320   -3.8420 N   0  0  0  0  0
    1.3790   67.8650   -1.7900 N   0  0  0  0  0
    5.0880   60.3170  -12.0190 O   0  0  0  0  0
    2.7150   64.4190   -8.9530 O   0  0  0  0  0
    3.2300   66.3830   -1.1550 O   0  0  0  0  0
    7.5920   71.1930   -2.5020 O   0  0  0  0  0
    4.8760   70.7900   -5.0380 O   0  0  0  0  0
    3.7360   67.4520   -6.1950 O   0  0  0  0  0
    2.3840   69.2240   -6.9100 O   0  0  0  0  0
    3.5540   68.4350   -7.2620 S   0  0  0  0  0
    3.4169   59.3536  -12.6915 H   0  0  0  0  0
    4.0996   60.5801  -13.7872 H   0  0  0  0  0
    4.9206   59.0132  -13.5826 H   0  0  0  0  0
    4.0521   62.5770  -12.9620 H   0  0  0  0  0
    2.9856   64.3717  -11.6387 H   0  0  0  0  0
    2.7083   65.7590  -10.5121 H   0  0  0  0  0
    1.1125   65.1890   -9.9852 H   0  0  0  0  0
    1.8876   66.3381   -7.6757 H   0  0  0  0  0
    1.1088   67.2796   -8.9729 H   0  0  0  0  0
    3.0906   68.3008   -9.6126 H   0  0  0  0  0
    4.0973   66.9320   -9.0520 H   0  0  0  0  0
    6.3173   68.2463   -6.3429 H   0  0  0  0  0
    7.8559   70.2687   -6.0860 H   0  0  0  0  0
    6.7241   71.1007   -7.2546 H   0  0  0  0  0
    7.3463   69.3042   -8.9709 H   0  0  0  0  0
    7.8601   67.5279   -7.5169 H   0  0  0  0  0
    9.0982   68.5339   -6.6459 H   0  0  0  0  0
    9.2212   67.4671   -9.4636 H   0  0  0  0  0
   10.2242   66.9741   -8.0512 H   0  0  0  0  0
   11.3719   68.5115   -9.6509 H   0  0  0  0  0
   11.2483   69.1428   -7.9637 H   0  0  0  0  0
    9.5505   69.9126  -10.3499 H   0  0  0  0  0
   10.7795   70.9293   -9.4977 H   0  0  0  0  0
    9.4393   70.9767   -7.5326 H   0  0  0  0  0
    8.4202   71.4647   -8.9457 H   0  0  0  0  0
    5.0559   70.6005   -2.6101 H   0  0  0  0  0
    4.7433   69.0202   -0.7635 H   0  0  0  0  0
    5.5883   67.7425   -1.7664 H   0  0  0  0  0
    3.8557   67.7615   -3.3455 H   0  0  0  0  0
    1.1474   68.9894   -3.6717 H   0  0  0  0  0
    0.7228   69.9141   -2.2685 H   0  0  0  0  0
    2.9344   70.1749   -3.4171 H   0  0  0  0  0
    2.7764   70.2501   -1.6837 H   0  0  0  0  0
    7.6877   69.2904   -1.7532 H   0  0  0  0  0
    6.7767   70.4461   -0.7795 H   0  0  0  0  0
    3.7564   62.1678   -8.0552 H   0  0  0  0  0
    4.7783   60.3436   -9.3778 H   0  0  0  0  0
    5.0477   70.0608   -8.1879 H   0  0  0  0  0
    6.7616   68.4441   -3.9063 H   0  0  0  0  0
    0.5568   67.4209   -1.3813 H   0  0  0  0  0
    8.4016   71.4584   -2.0596 H   0  0  0  0  0
 30  1  1  0  0  0
  3  2  4  0  0  0
 26  2  4  0  0  0
  2 30  1  0  0  0
  4  3  4  0  0  0
  5  4  4  0  0  0
  5 25  4  0  0  0
 31  5  1  0  0  0
  7  6  1  0  0  0
  6 31  1  0  0  0
  8  7  1  0  0  0
 37  8  1  0  0  0
  9 10  1  0  0  0
  9 17  1  0  0  0
 27  9  1  0  0  0
 10 11  1  0  0  0
 11 12  1  0  0  0
 11 16  1  0  0  0
 12 13  1  0  0  0
 13 14  1  0  0  0
 15 14  1  0  0  0
 16 15  1  0  0  0
 17 28  1  0  0  0
 17 34  2  0  0  0
 18 19  1  0  0  0
 18 24  1  0  0  0
 28 18  1  0  0  0
 19 20  1  0  0  0
 20 21  1  0  0  0
 20 23  1  0  0  0
 21 29  1  0  0  0
 21 32  2  0  0  0
 23 22  1  0  0  0
 22 29  1  0  0  0
 24 33  1  0  0  0
 25 26  4  0  0  0
 27 37  1  0  0  0
 37 35  2  0  0  0
 37 36  2  0  0  0
  1 38  1  0  0  0
  1 39  1  0  0  0
  1 40  1  0  0  0
  3 41  1  0  0  0
  4 42  1  0  0  0
  6 43  1  0  0  0
  6 44  1  0  0  0
  7 45  1  0  0  0
  7 46  1  0  0  0
  8 47  1  0  0  0
  8 48  1  0  0  0
  9 49  1  0  0  0
 10 50  1  0  0  0
 10 51  1  0  0  0
 11 52  1  0  0  0
 12 53  1  0  0  0
 12 54  1  0  0  0
 13 55  1  0  0  0
 13 56  1  0  0  0
 14 57  1  0  0  0
 14 58  1  0  0  0
 15 59  1  0  0  0
 15 60  1  0  0  0
 16 61  1  0  0  0
 16 62  1  0  0  0
 18 63  1  0  0  0
 19 64  1  0  0  0
 19 65  1  0  0  0
 20 66  1  0  0  0
 22 67  1  0  0  0
 22 68  1  0  0  0
 23 69  1  0  0  0
 23 70  1  0  0  0
 24 71  1  0  0  0
 24 72  1  0  0  0
 25 73  1  0  0  0
 26 74  1  0  0  0
 27 75  1  0  0  0
 28 76  1  0  0  0
 29 77  1  0  0  0
 33 78  1  0  0  0
M  END
$$$$
