2wyf_ligand
  -I-interpret- 

 48 49  0  0  0  0  0  0  0  0999 V2000
   13.6330   18.1100   76.1820 C   0  0  0  0  0
   13.0000   19.3730   75.6300 C   0  0  0  0  0
   11.7170   19.0370   74.8800 C   0  0  0  0  0
   12.0300   18.0270   73.7820 C   0  0  0  0  0
   12.7060   16.7730   74.3500 C   0  0  0  0  0
   13.2730   15.8920   73.2570 C   0  0  0  0  0
   12.7450   20.2520   76.6990 O   0  0  0  0  0
   11.1800   20.2170   74.3000 O   0  0  0  0  0
   12.8470   18.6840   72.8310 O   0  0  0  0  0
   13.7930   17.0740   75.2180 O   0  0  0  0  0
   13.5870   14.6450   73.8240 O   0  0  0  0  0
   14.3580   17.2600   79.1750 C   0  0  0  0  0
   13.3610   16.7000   78.1350 C   0  0  0  0  0
   12.1570   15.9910   78.7600 C   0  0  0  0  0
   12.5200   15.1220   79.9630 C   0  0  0  0  0
   13.4790   15.8630   80.8970 C   0  0  0  0  0
   13.9070   15.0270   82.1050 C   0  0  0  0  0
   16.7560   17.0150   78.7720 C   0  0  0  0  0
   15.5590   17.7730   78.5520 O   0  0  0  0  0
   12.8050   17.7390   77.3330 O   0  0  0  0  0
   11.5250   15.1960   77.7410 O   0  0  0  0  0
   13.1260   13.9170   79.4780 O   0  0  0  0  0
   14.6410   16.2370   80.1440 O   0  0  0  0  0
   13.9590   15.8540   83.2710 O   0  0  0  0  0
   14.6652   18.2855   76.4851 H   0  0  0  0  0
   13.6778   19.8525   74.9238 H   0  0  0  0  0
   10.9890   18.6141   75.5723 H   0  0  0  0  0
   11.1121   17.6779   73.3090 H   0  0  0  0  0
   11.9130   16.2645   74.8984 H   0  0  0  0  0
   14.1668   16.3480   72.8312 H   0  0  0  0  0
   12.5439   15.7689   72.4562 H   0  0  0  0  0
   13.5673   20.4475   77.1542 H   0  0  0  0  0
   10.9835   20.8519   74.9928 H   0  0  0  0  0
   12.3900   19.4608   72.5005 H   0  0  0  0  0
   13.9491   14.0689   73.1468 H   0  0  0  0  0
   13.9059   18.1118   79.6831 H   0  0  0  0  0
   13.9568   15.9962   77.5539 H   0  0  0  0  0
   11.4788   16.7542   79.1417 H   0  0  0  0  0
   11.6214   14.8869   80.5334 H   0  0  0  0  0
   12.9547   16.7346   81.2887 H   0  0  0  0  0
   14.8937   14.6029   81.9190 H   0  0  0  0  0
   13.1855   14.2254   82.2630 H   0  0  0  0  0
   16.9649   16.9703   79.8409 H   0  0  0  0  0
   16.6215   16.0052   78.3842 H   0  0  0  0  0
   17.5884   17.4953   78.2576 H   0  0  0  0  0
   10.7659   14.7428   78.1152 H   0  0  0  0  0
   13.3615   13.3569   80.2213 H   0  0  0  0  0
   14.2279   15.3248   84.0255 H   0  0  0  0  0
  1  2  1  0  0  0
  1 10  1  0  0  0
 20  1  1  0  0  0
  2  3  1  0  0  0
  2  7  1  0  0  0
  3  4  1  0  0  0
  3  8  1  0  0  0
  5  4  1  0  0  0
  4  9  1  0  0  0
  5  6  1  0  0  0
 10  5  1  0  0  0
  6 11  1  0  0  0
 13 12  1  0  0  0
 12 19  1  0  0  0
 12 23  1  0  0  0
 13 14  1  0  0  0
 13 20  1  0  0  0
 14 15  1  0  0  0
 14 21  1  0  0  0
 15 16  1  0  0  0
 15 22  1  0  0  0
 16 17  1  0  0  0
 16 23  1  0  0  0
 17 24  1  0  0  0
 19 18  1  0  0  0
  1 25  1  0  0  0
  2 26  1  0  0  0
  3 27  1  0  0  0
  4 28  1  0  0  0
  5 29  1  0  0  0
  6 30  1  0  0  0
  6 31  1  0  0  0
  7 32  1  0  0  0
  8 33  1  0  0  0
  9 34  1  0  0  0
 11 35  1  0  0  0
 12 36  1  0  0  0
 13 37  1  0  0  0
 14 38  1  0  0  0
 15 39  1  0  0  0
 16 40  1  0  0  0
 17 41  1  0  0  0
 17 42  1  0  0  0
 18 43  1  0  0  0
 18 44  1  0  0  0
 18 45  1  0  0  0
 21 46  1  0  0  0
 22 47  1  0  0  0
 24 48  1  0  0  0
M  END
$$$$
