4uye_ligand
  -I-interpret- 

 55 58  0  0  0  0  0  0  0  0999 V2000
   10.2030   44.6420   22.1400 C   0  0  0  0  0
    9.1160   43.8890   21.5880 O   0  0  0  0  0
    9.1220   42.5390   21.7890 C   0  0  0  0  0
   10.0840   41.9210   22.5760 C   0  0  0  0  0
   10.0400   40.5500   22.7520 C   0  0  0  0  0
    9.0500   39.8070   22.1510 C   0  0  0  0  0
    8.0920   40.4110   21.3620 C   0  0  0  0  0
    8.1070   41.7950   21.1600 C   0  0  0  0  0
    6.9940   42.3110   20.2830 C   0  0  0  0  0
    6.3110   41.5670   19.5970 O   0  0  0  0  0
    6.8050   43.6480   20.2820 N   0  0  0  0  0
    5.8630   44.4800   19.6150 C   0  0  0  0  0
    5.1660   44.0360   18.4820 C   0  0  0  0  0
    4.2530   44.8830   17.8760 C   0  0  0  0  0
    3.4230   44.7520   16.7640 N   0  0  0  0  0
    3.2630   43.5540   15.9250 C   0  0  0  0  0
    2.7180   45.9260   16.5710 C   0  0  0  0  0
    1.9200   46.1540   15.6860 O   0  0  0  0  0
    3.1290   46.7940   17.5530 N   0  0  0  0  0
    2.6280   48.1690   17.7090 C   0  0  0  0  0
    4.0810   46.1700   18.3560 C   0  0  0  0  0
    4.7650   46.5820   19.4510 C   0  0  0  0  0
    5.7070   45.7760   20.1360 C   0  0  0  0  0
    6.3730   46.2250   21.2600 N   0  0  0  0  0
    5.7910   45.7010   22.4980 C   0  0  0  0  0
    6.7330   45.8310   23.6660 C   0  0  0  0  0
    7.2380   47.2520   23.8010 C   0  0  0  0  0
    7.8120   47.7630   22.4950 C   0  0  0  0  0
    6.8340   47.6050   21.3550 C   0  0  0  0  0
   10.2225   44.5099   23.2218 H   0  0  0  0  0
   11.1416   44.2893   21.7127 H   0  0  0  0  0
   10.0689   45.6976   21.9040 H   0  0  0  0  0
   10.8675   42.5113   23.0513 H   0  0  0  0  0
   10.7915   40.0567   23.3684 H   0  0  0  0  0
    9.0219   38.7276   22.2999 H   0  0  0  0  0
    7.3175   39.8045   20.8925 H   0  0  0  0  0
    7.4625   44.1586   20.8714 H   0  0  0  0  0
    5.3406   43.0367   18.0832 H   0  0  0  0  0
    4.2245   43.2889   15.4853 H   0  0  0  0  0
    2.9024   42.7281   16.5381 H   0  0  0  0  0
    2.5440   43.7606   15.1322 H   0  0  0  0  0
    2.8470   48.7388   16.8059 H   0  0  0  0  0
    1.5507   48.1454   17.8730 H   0  0  0  0  0
    3.1166   48.6376   18.5632 H   0  0  0  0  0
    4.5801   47.5889   19.8251 H   0  0  0  0  0
    5.5754   44.6427   22.3511 H   0  0  0  0  0
    4.8918   46.2754   22.7208 H   0  0  0  0  0
    7.5852   45.1713   23.5028 H   0  0  0  0  0
    6.1990   45.5618   24.5773 H   0  0  0  0  0
    8.0254   47.2688   24.5546 H   0  0  0  0  0
    6.4013   47.8906   24.0841 H   0  0  0  0  0
    8.7061   47.1842   22.2631 H   0  0  0  0  0
    8.0366   48.8234   22.6102 H   0  0  0  0  0
    5.9754   48.2520   21.5347 H   0  0  0  0  0
    7.3314   47.8756   20.4236 H   0  0  0  0  0
  1  2  1  0  0  0
  2  3  1  0  0  0
  3  4  4  0  0  0
  3  8  4  0  0  0
  4  5  4  0  0  0
  5  6  4  0  0  0
  6  7  4  0  0  0
  7  8  4  0  0  0
  8  9  1  0  0  0
  9 10  2  0  0  0
  9 11  1  0  0  0
 11 12  1  0  0  0
 12 13  4  0  0  0
 12 23  4  0  0  0
 13 14  4  0  0  0
 14 15  1  0  0  0
 14 21  4  0  0  0
 15 16  1  0  0  0
 15 17  1  0  0  0
 17 18  2  0  0  0
 17 19  1  0  0  0
 19 20  1  0  0  0
 19 21  1  0  0  0
 21 22  4  0  0  0
 22 23  4  0  0  0
 23 24  1  0  0  0
 24 25  1  0  0  0
 24 29  1  0  0  0
 25 26  1  0  0  0
 26 27  1  0  0  0
 27 28  1  0  0  0
 28 29  1  0  0  0
  1 30  1  0  0  0
  1 31  1  0  0  0
  1 32  1  0  0  0
  4 33  1  0  0  0
  5 34  1  0  0  0
  6 35  1  0  0  0
  7 36  1  0  0  0
 11 37  1  0  0  0
 13 38  1  0  0  0
 16 39  1  0  0  0
 16 40  1  0  0  0
 16 41  1  0  0  0
 20 42  1  0  0  0
 20 43  1  0  0  0
 20 44  1  0  0  0
 22 45  1  0  0  0
 25 46  1  0  0  0
 25 47  1  0  0  0
 26 48  1  0  0  0
 26 49  1  0  0  0
 27 50  1  0  0  0
 27 51  1  0  0  0
 28 52  1  0  0  0
 28 53  1  0  0  0
 29 54  1  0  0  0
 29 55  1  0  0  0
M  END
$$$$
