6psb_ligand
  -I-interpret- 

 41 44  0  0  0  0  0  0  0  0999 V2000
   17.2670  -15.3880   -3.4040 C   0  0  0  0  0
   18.6210  -17.1730   -4.6520 C   0  0  0  0  0
   18.2850  -16.4140   -5.8870 C   0  0  0  0  0
   17.6100  -14.4880   -4.4630 C   0  0  0  0  0
   18.0930  -15.0160   -5.6840 C   0  0  0  0  0
   18.7850  -13.8530   -7.9330 C   0  0  0  0  0
   17.6210  -14.1530   -9.0670 C   0  0  0  0  0
   16.6470  -12.9870   -9.1140 C   0  0  0  0  0
   14.3570  -12.8000  -10.2110 C   0  0  0  0  0
   15.4570  -15.0380   -9.4610 C   0  0  0  0  0
   16.7920  -15.4410   -8.7770 C   0  0  0  0  0
   17.9480  -12.7340   -5.9060 C   0  0  0  0  0
   17.5090  -13.1120   -4.6260 C   0  0  0  0  0
   17.1060  -12.1010   -3.7630 C   0  0  0  0  0
   17.1600  -10.8000   -4.2100 C   0  0  0  0  0
   17.6040  -10.4560   -5.5150 C   0  0  0  0  0
   17.9900  -11.4200   -6.3880 C   0  0  0  0  0
   17.7200  -16.7630   -3.5430 N   0  0  0  0  0
   18.2680  -13.9630   -6.5430 N   0  0  0  0  0
   15.4190  -13.6500   -9.6570 N   0  0  0  0  0
   16.5570  -15.0560   -2.4610 O   0  0  0  0  0
   14.5570  -15.7770   -9.7870 O   0  0  0  0  0
   19.6533  -16.9634   -4.3717 H   0  0  0  0  0
   18.4955  -18.2392   -4.8408 H   0  0  0  0  0
   17.3440  -16.8152   -6.2634 H   0  0  0  0  0
   19.1267  -16.5257   -6.5705 H   0  0  0  0  0
   19.1420  -12.8336   -8.0792 H   0  0  0  0  0
   19.5747  -14.5939   -8.0576 H   0  0  0  0  0
   18.1468  -14.2905  -10.0118 H   0  0  0  0  0
   16.9957  -12.1496   -9.7183 H   0  0  0  0  0
   16.4937  -12.5057   -8.1481 H   0  0  0  0  0
   13.9931  -12.1245   -9.4368 H   0  0  0  0  0
   14.7550  -12.2198  -11.0435 H   0  0  0  0  0
   13.5376  -13.4271  -10.5624 H   0  0  0  0  0
   16.7051  -15.7011   -7.7221 H   0  0  0  0  0
   17.2361  -16.3642   -9.1492 H   0  0  0  0  0
   16.7557  -12.3319   -2.7570 H   0  0  0  0  0
   16.8497  -10.0018   -3.5357 H   0  0  0  0  0
   17.6347   -9.4092   -5.8172 H   0  0  0  0  0
   18.3130  -11.1860   -7.4024 H   0  0  0  0  0
   17.4130  -17.4607   -2.8653 H   0  0  0  0  0
  4  1  1  0  0  0
  1 18  1  0  0  0
  1 21  2  0  0  0
  3  2  1  0  0  0
  2 18  1  0  0  0
  5  3  1  0  0  0
  5  4  4  0  0  0
  4 13  4  0  0  0
 19  5  4  0  0  0
  6  7  1  0  0  0
  6 19  1  0  0  0
  7  8  1  0  0  0
  7 11  1  0  0  0
  8 20  1  0  0  0
 20  9  1  0  0  0
 11 10  1  0  0  0
 10 20  1  0  0  0
 10 22  2  0  0  0
 13 12  4  0  0  0
 12 17  4  0  0  0
 12 19  4  0  0  0
 13 14  4  0  0  0
 14 15  4  0  0  0
 15 16  4  0  0  0
 16 17  4  0  0  0
  2 23  1  0  0  0
  2 24  1  0  0  0
  3 25  1  0  0  0
  3 26  1  0  0  0
  6 27  1  0  0  0
  6 28  1  0  0  0
  7 29  1  0  0  0
  8 30  1  0  0  0
  8 31  1  0  0  0
  9 32  1  0  0  0
  9 33  1  0  0  0
  9 34  1  0  0  0
 11 35  1  0  0  0
 11 36  1  0  0  0
 14 37  1  0  0  0
 15 38  1  0  0  0
 16 39  1  0  0  0
 17 40  1  0  0  0
 18 41  1  0  0  0
M  END
$$$$
