### 
### Created by X-TOOL on Mon Aug  2 16:17:22 2021
### 

@<TRIPOS>MOLECULE
6i97_ligand
   86    90     1     0     0
SMALL
GAST_HUCK


@<TRIPOS>ATOM
      1 O11       -19.9620   11.2830   74.7150 O.3       1 0UE         0.1180
      2 O12       -21.1800    9.3080   74.3720 O.3       1 0UE         0.0136
      3 O21       -22.6550   10.2190   76.6250 O.3       1 0UE         0.1180
      4 O22       -23.5440   10.5570   74.2510 O.3       1 0UE         0.0136
      5 O31       -22.2510   12.5720   74.0630 O.3       1 0UE         0.1180
      6 O32       -21.6020   12.2000   76.5960 O.3       1 0UE         0.0131
      7 N11       -19.4320   10.2310   74.9550 N.2       1 0UE        -0.0386
      8 C11       -19.9940    9.4820   74.0560 C.2       1 0UE         0.3661
      9 C12       -19.4110    8.9340   72.8220 C.3       1 0UE         0.1089
     10 C13       -19.0840    7.4660   72.9500 C.3       1 0UE         0.0687
     11 C14       -19.3780    6.9290   74.3180 C.2       1 0UE         0.1812
     12 O13       -18.8440    7.3800   75.3050 O.2       1 0UE        -0.3966
     13 N12       -20.2380    5.9210   74.3850 N.am      1 0UE        -0.2866
     14 C15       -21.2600    5.7610   75.4070 C.3       1 0UE         0.0309
     15 C16       -20.8100    6.2170   76.7490 C.3       1 0UE        -0.0327
     16 C18       -23.1520    7.1190   76.7250 C.3       1 0UE        -0.0254
     17 C17       -21.8980    6.9200   77.5230 C.3       1 0UE        -0.0490
     18 C19       -23.8490    8.3850   77.0880 C.3       1 0UE         0.0977
     19 N21       -23.5060    9.4660   76.1970 N.2       1 0UE        -0.0386
     20 C21       -24.1030    9.6610   74.9930 C.2       1 0UE         0.3661
     21 C22       -25.2830    8.9090   74.5270 C.3       1 0UE         0.1089
     22 C23       -25.8670    9.4990   73.2730 C.3       1 0UE         0.0687
     23 C24       -26.5940   10.7810   73.5350 C.2       1 0UE         0.1812
     24 O23       -27.3500   10.9030   74.4660 O.2       1 0UE        -0.3966
     25 N22       -26.3570   11.7780   72.6960 N.am      1 0UE        -0.2866
     26 C25       -26.7200   13.1500   72.9920 C.3       1 0UE         0.0309
     27 C26       -26.3360   13.5360   74.3770 C.3       1 0UE        -0.0327
     28 C27       -25.3370   14.6600   74.4220 C.3       1 0UE        -0.0490
     29 C28       -24.0880   14.4060   73.6180 C.3       1 0UE        -0.0254
     30 C29       -22.8560   14.6900   74.4210 C.3       1 0UE         0.0977
     31 N31       -22.2260   13.4810   74.8850 N.2       1 0UE        -0.0390
     32 C31       -21.5860   13.3750   76.0950 C.2       1 0UE         0.3609
     33 C32       -20.9570   14.5040   76.8330 C.3       1 0UE         0.0809
     34 C39       -18.4650    9.9650   76.0020 C.3       1 0UE         0.0977
     35 C40       -17.1850   10.7060   75.7830 C.3       1 0UE        -0.0253
     36 C41       -17.0910   11.9160   76.6680 C.3       1 0UE        -0.0460
     37 C42       -16.0850   11.7560   77.7730 C.3       1 0UE        -0.0126
     38 C43       -15.8680   13.0240   78.5670 C.3       1 0UE        -0.0354
     39 N44       -16.4450   14.1670   77.8860 N.4       1 0UE         0.2185
     40 FE        -21.8580   11.0230   75.0910 Fe        1 0UE         0.0000
     41 H1        -18.4867    9.4842   72.5919 H         1 0UE         0.0772
     42 H2        -20.1307    9.0664   72.0007 H         1 0UE         0.0772
     43 H3        -18.0142    7.3232   72.7376 H         1 0UE         0.0561
     44 H4        -19.6817    6.9062   72.2155 H         1 0UE         0.0561
     45 H5        -20.1788    5.2165   73.6777 H         1 0UE         0.1851
     46 H6        -21.5303    4.6966   75.4700 H         1 0UE         0.0520
     47 H7        -22.1438    6.3471   75.1149 H         1 0UE         0.0520
     48 H8        -19.9663    6.9108   76.6198 H         1 0UE         0.0285
     49 H9        -20.4790    5.3405   77.3253 H         1 0UE         0.0285
     50 H10       -23.8304    6.2737   76.9126 H         1 0UE         0.0289
     51 H11       -22.8920    7.1504   75.6566 H         1 0UE         0.0289
     52 H12       -21.5233    7.9051   77.8379 H         1 0UE         0.0267
     53 H13       -22.1402    6.3186   78.4116 H         1 0UE         0.0267
     54 H14       -23.5644    8.6658   78.1128 H         1 0UE         0.0602
     55 H15       -24.9353    8.2181   77.0418 H         1 0UE         0.0602
     56 H16       -26.0486    8.9242   75.3167 H         1 0UE         0.0772
     57 H17       -24.9849    7.8696   74.3252 H         1 0UE         0.0772
     58 H18       -26.5712    8.7757   72.8361 H         1 0UE         0.0561
     59 H19       -25.0519    9.6936   72.5604 H         1 0UE         0.0561
     60 H20       -25.9102   11.5765   71.8243 H         1 0UE         0.1851
     61 H21       -27.8084   13.2627   72.8797 H         1 0UE         0.0520
     62 H22       -26.2073   13.8153   72.2817 H         1 0UE         0.0520
     63 H23       -25.8984   12.6589   74.8761 H         1 0UE         0.0285
     64 H24       -27.2415   13.8510   74.9163 H         1 0UE         0.0285
     65 H25       -25.0459   14.8216   75.4704 H         1 0UE         0.0267
     66 H26       -25.8204   15.5676   74.0315 H         1 0UE         0.0267
     67 H27       -24.0948   15.0560   72.7306 H         1 0UE         0.0289
     68 H28       -24.0740   13.3528   73.3010 H         1 0UE         0.0289
     69 H29       -23.1324   15.3033   75.2913 H         1 0UE         0.0602
     70 H30       -22.1426   15.2443   73.7935 H         1 0UE         0.0602
     71 H31       -21.0459   15.4253   76.2386 H         1 0UE         0.0711
     72 H32       -19.8940   14.2812   77.0073 H         1 0UE         0.0711
     73 H33       -21.4663   14.6400   77.7985 H         1 0UE         0.0711
     74 H34       -18.2517    8.8861   76.0228 H         1 0UE         0.0602
     75 H35       -18.8929   10.2729   76.9674 H         1 0UE         0.0602
     76 H36       -17.1331   11.0269   74.7322 H         1 0UE         0.0289
     77 H37       -16.3415   10.0354   76.0037 H         1 0UE         0.0289
     78 H38       -18.0784   12.1004   77.1164 H         1 0UE         0.0268
     79 H39       -16.8010   12.7798   76.0518 H         1 0UE         0.0268
     80 H40       -15.1249   11.4515   77.3308 H         1 0UE         0.0317
     81 H41       -16.4389   10.9709   78.4574 H         1 0UE         0.0317
     82 H42       -14.7879   13.1885   78.6945 H         1 0UE         0.0813
     83 H43       -16.3416   12.9163   79.5540 H         1 0UE         0.0813
     84 H44       -16.2879   14.9987   78.4334 H         1 0UE         0.1994
     85 H45       -17.4359   14.0237   77.7694 H         1 0UE         0.1994
     86 H46       -16.0122   14.2732   76.9819 H         1 0UE         0.1994
@<TRIPOS>BOND
     1    7    1 1  
     2    8    2 1  
     3   19    3 1  
     4   20    4 1  
     5   31    5 1  
     6   32    6 1  
     7    8    7 2  
     8    7   34 1  
     9    9    8 1  
    10   10    9 1  
    11   11   10 1  
    12   11   12 2  
    13   13   11 am 
    14   14   13 1  
    15   15   14 1  
    16   17   15 1  
    17   16   17 1  
    18   18   16 1  
    19   19   18 1  
    20   20   19 2  
    21   21   20 1  
    22   22   21 1  
    23   23   22 1  
    24   23   24 2  
    25   25   23 am 
    26   26   25 1  
    27   27   26 1  
    28   28   27 1  
    29   29   28 1  
    30   30   29 1  
    31   31   30 1  
    32   31   32 2  
    33   32   33 1  
    34   34   35 1  
    35   35   36 1  
    36   36   37 1  
    37   37   38 1  
    38   38   39 1  
    39    1   40 1  
    40   40    2 1  
    41   40    3 1  
    42   40    4 1  
    43   40    5 1  
    44   40    6 1  
    45    9   41 1  
    46    9   42 1  
    47   10   43 1  
    48   10   44 1  
    49   13   45 1  
    50   14   46 1  
    51   14   47 1  
    52   15   48 1  
    53   15   49 1  
    54   16   50 1  
    55   16   51 1  
    56   17   52 1  
    57   17   53 1  
    58   18   54 1  
    59   18   55 1  
    60   21   56 1  
    61   21   57 1  
    62   22   58 1  
    63   22   59 1  
    64   25   60 1  
    65   26   61 1  
    66   26   62 1  
    67   27   63 1  
    68   27   64 1  
    69   28   65 1  
    70   28   66 1  
    71   29   67 1  
    72   29   68 1  
    73   30   69 1  
    74   30   70 1  
    75   33   71 1  
    76   33   72 1  
    77   33   73 1  
    78   34   74 1  
    79   34   75 1  
    80   35   76 1  
    81   35   77 1  
    82   36   78 1  
    83   36   79 1  
    84   37   80 1  
    85   37   81 1  
    86   38   82 1  
    87   38   83 1  
    88   39   84 1  
    89   39   85 1  
    90   39   86 1  
@<TRIPOS>SUBSTRUCTURE
     1 0UE         1

