6i97_ligand
  -I-interpret- 

 86 90  0  0  0  0  0  0  0  0999 V2000
  -19.9620   11.2830   74.7150 O   0  0  0  0  0
  -21.1800    9.3080   74.3720 O   0  0  0  0  0
  -22.6550   10.2190   76.6250 O   0  0  0  0  0
  -23.5440   10.5570   74.2510 O   0  0  0  0  0
  -22.2510   12.5720   74.0630 O   0  0  0  0  0
  -21.6020   12.2000   76.5960 O   0  0  0  0  0
  -19.4320   10.2310   74.9550 N   0  3  0  0  0
  -19.9940    9.4820   74.0560 C   0  0  0  0  0
  -19.4110    8.9340   72.8220 C   0  0  0  0  0
  -19.0840    7.4660   72.9500 C   0  0  0  0  0
  -19.3780    6.9290   74.3180 C   0  0  0  0  0
  -18.8440    7.3800   75.3050 O   0  0  0  0  0
  -20.2380    5.9210   74.3850 N   0  0  0  0  0
  -21.2600    5.7610   75.4070 C   0  0  0  0  0
  -20.8100    6.2170   76.7490 C   0  0  0  0  0
  -23.1520    7.1190   76.7250 C   0  0  0  0  0
  -21.8980    6.9200   77.5230 C   0  0  0  0  0
  -23.8490    8.3850   77.0880 C   0  0  0  0  0
  -23.5060    9.4660   76.1970 N   0  3  0  0  0
  -24.1030    9.6610   74.9930 C   0  0  0  0  0
  -25.2830    8.9090   74.5270 C   0  0  0  0  0
  -25.8670    9.4990   73.2730 C   0  0  0  0  0
  -26.5940   10.7810   73.5350 C   0  0  0  0  0
  -27.3500   10.9030   74.4660 O   0  0  0  0  0
  -26.3570   11.7780   72.6960 N   0  0  0  0  0
  -26.7200   13.1500   72.9920 C   0  0  0  0  0
  -26.3360   13.5360   74.3770 C   0  0  0  0  0
  -25.3370   14.6600   74.4220 C   0  0  0  0  0
  -24.0880   14.4060   73.6180 C   0  0  0  0  0
  -22.8560   14.6900   74.4210 C   0  0  0  0  0
  -22.2260   13.4810   74.8850 N   0  3  0  0  0
  -21.5860   13.3750   76.0950 C   0  0  0  0  0
  -20.9570   14.5040   76.8330 C   0  0  0  0  0
  -18.4650    9.9650   76.0020 C   0  0  0  0  0
  -17.1850   10.7060   75.7830 C   0  0  0  0  0
  -17.0910   11.9160   76.6680 C   0  0  0  0  0
  -16.0850   11.7560   77.7730 C   0  0  0  0  0
  -15.8680   13.0240   78.5670 C   0  0  0  0  0
  -16.4450   14.1670   77.8860 N   0  3  0  0  0
  -21.8580   11.0230   75.0910 Fe  0  0  0  0  0
  -18.4852    9.4713   72.6162 H   0  0  0  0  0
  -20.1408    9.0506   72.0208 H   0  0  0  0  0
  -18.0175    7.3416   72.7622 H   0  0  0  0  0
  -19.7005    6.9208   72.2353 H   0  0  0  0  0
  -20.1776    5.2024   73.6636 H   0  0  0  0  0
  -21.4978    4.6996   75.4777 H   0  0  0  0  0
  -22.1181    6.3682   75.1187 H   0  0  0  0  0
  -19.9930    6.9239   76.6047 H   0  0  0  0  0
  -20.5113    5.3365   77.3179 H   0  0  0  0  0
  -23.8248    6.2873   76.9340 H   0  0  0  0  0
  -22.8808    7.1693   75.6705 H   0  0  0  0  0
  -21.5230    7.9047   77.8021 H   0  0  0  0  0
  -22.1475    6.2985   78.3830 H   0  0  0  0  0
  -23.5438    8.6648   78.0963 H   0  0  0  0  0
  -24.9233    8.2143   77.0186 H   0  0  0  0  0
  -26.0424    8.9477   75.3080 H   0  0  0  0  0
  -24.9724    7.8869   74.3105 H   0  0  0  0  0
  -26.5794    8.7836   72.8621 H   0  0  0  0  0
  -25.0485    9.7085   72.5843 H   0  0  0  0  0
  -25.9013   11.5725   71.8069 H   0  0  0  0  0
  -27.8015   13.2468   72.8965 H   0  0  0  0  0
  -26.1927   13.8020   72.2957 H   0  0  0  0  0
  -25.8771   12.6665   74.8476 H   0  0  0  0  0
  -27.2374   13.8739   74.8882 H   0  0  0  0  0
  -25.0324   14.7792   75.4618 H   0  0  0  0  0
  -25.8212   15.5389   73.9964 H   0  0  0  0  0
  -24.0950   15.0642   72.7492 H   0  0  0  0  0
  -24.0742   13.3574   73.3209 H   0  0  0  0  0
  -23.1439   15.2806   75.2907 H   0  0  0  0  0
  -22.1484   15.2212   73.7844 H   0  0  0  0  0
  -20.1745   14.9477   76.2174 H   0  0  0  0  0
  -21.7137   15.2555   77.0585 H   0  0  0  0  0
  -20.5237   14.1328   77.7617 H   0  0  0  0  0
  -18.2455    8.8973   76.0003 H   0  0  0  0  0
  -18.8906   10.2925   76.9505 H   0  0  0  0  0
  -17.1496   11.0344   74.7443 H   0  0  0  0  0
  -16.3555   10.0397   76.0199 H   0  0  0  0  0
  -18.0678   12.0694   77.1268 H   0  0  0  0  0
  -16.7757   12.7567   76.0500 H   0  0  0  0  0
  -15.1330   11.4842   77.3169 H   0  0  0  0  0
  -16.4638   10.9975   78.4580 H   0  0  0  0  0
  -14.7963   13.1877   78.6795 H   0  0  0  0  0
  -16.3496   12.9155   79.5388 H   0  0  0  0  0
  -16.2855   15.0079   78.4408 H   0  0  0  0  0
  -16.0063   14.2734   76.9713 H   0  0  0  0  0
  -17.4476   14.0208   77.7686 H   0  0  0  0  0
  7  1  1  0  0  0
  8  2  1  0  0  0
 19  3  1  0  0  0
 20  4  1  0  0  0
 31  5  1  0  0  0
 32  6  1  0  0  0
  8  7  2  0  0  0
  7 34  1  0  0  0
  9  8  1  0  0  0
 10  9  1  0  0  0
 11 10  1  0  0  0
 11 12  2  0  0  0
 13 11  1  0  0  0
 14 13  1  0  0  0
 15 14  1  0  0  0
 17 15  1  0  0  0
 16 17  1  0  0  0
 18 16  1  0  0  0
 19 18  1  0  0  0
 20 19  2  0  0  0
 21 20  1  0  0  0
 22 21  1  0  0  0
 23 22  1  0  0  0
 23 24  2  0  0  0
 25 23  1  0  0  0
 26 25  1  0  0  0
 27 26  1  0  0  0
 28 27  1  0  0  0
 29 28  1  0  0  0
 30 29  1  0  0  0
 31 30  1  0  0  0
 31 32  2  0  0  0
 32 33  1  0  0  0
 34 35  1  0  0  0
 35 36  1  0  0  0
 36 37  1  0  0  0
 37 38  1  0  0  0
 38 39  1  0  0  0
  1 40  1  0  0  0
 40  2  1  0  0  0
 40  3  1  0  0  0
 40  4  1  0  0  0
 40  5  1  0  0  0
 40  6  1  0  0  0
  9 41  1  0  0  0
  9 42  1  0  0  0
 10 43  1  0  0  0
 10 44  1  0  0  0
 13 45  1  0  0  0
 14 46  1  0  0  0
 14 47  1  0  0  0
 15 48  1  0  0  0
 15 49  1  0  0  0
 16 50  1  0  0  0
 16 51  1  0  0  0
 17 52  1  0  0  0
 17 53  1  0  0  0
 18 54  1  0  0  0
 18 55  1  0  0  0
 21 56  1  0  0  0
 21 57  1  0  0  0
 22 58  1  0  0  0
 22 59  1  0  0  0
 25 60  1  0  0  0
 26 61  1  0  0  0
 26 62  1  0  0  0
 27 63  1  0  0  0
 27 64  1  0  0  0
 28 65  1  0  0  0
 28 66  1  0  0  0
 29 67  1  0  0  0
 29 68  1  0  0  0
 30 69  1  0  0  0
 30 70  1  0  0  0
 33 71  1  0  0  0
 33 72  1  0  0  0
 33 73  1  0  0  0
 34 74  1  0  0  0
 34 75  1  0  0  0
 35 76  1  0  0  0
 35 77  1  0  0  0
 36 78  1  0  0  0
 36 79  1  0  0  0
 37 80  1  0  0  0
 37 81  1  0  0  0
 38 82  1  0  0  0
 38 83  1  0  0  0
 39 84  1  0  0  0
 39 85  1  0  0  0
 39 86  1  0  0  0
M  END
$$$$
