6b1j_ligand
  -I-interpret- 

 51 52  0  0  0  0  0  0  0  0999 V2000
   -9.1650   -0.5460   -1.6270 O   0  0  0  0  0
   -9.1310   -1.6640   -0.6340 S   0  0  0  0  0
   -8.1260   -1.3930    0.4160 O   0  0  0  0  0
   -9.0350   -3.0410   -1.1790 O   0  0  0  0  0
  -10.5590   -1.6070   -0.0010 O   0  0  0  0  0
  -10.8130   -2.6450    1.0030 N   0  3  0  0  0
  -11.4720   -2.1740    2.2710 C   0  0  0  0  0
  -12.6550   -1.2890    1.8760 C   0  0  0  0  0
  -12.2480    0.0820    1.5690 C   0  0  0  0  0
  -10.5690   -1.4860    3.3250 C   0  0  0  0  0
  -10.3140   -0.0530    2.9080 N   0  0  0  0  0
   -9.0640    0.3940    2.6150 C   0  0  0  0  0
   -8.7850    1.4870    2.1220 O   0  0  0  0  0
  -11.5380    0.7010    2.7680 C   0  0  0  0  0
  -12.2270    1.0700    3.9390 C   0  0  0  0  0
  -11.8050    0.7640    5.0830 O   0  0  0  0  0
  -13.4820    1.5590    3.7730 N   0  0  0  0  0
  -14.1560    2.0470    4.8450 N   0  0  0  0  0
  -13.8820    3.3470    5.1510 C   0  0  0  0  0
  -12.9310    3.9900    4.7220 O   0  0  0  0  0
  -14.8950    4.0640    6.0830 C   0  0  0  0  0
  -16.1990    4.1540    5.3320 C   0  0  0  0  0
  -16.1260    5.0390    4.1040 C   0  0  0  0  0
  -15.7060    6.4480    4.5640 C   0  0  0  0  0
  -14.3920    6.3220    5.2400 N   0  3  0  0  0
  -14.4710    5.4630    6.4580 C   0  0  0  0  0
   -9.8216   -0.7377   -2.3006 H   0  0  0  0  0
   -9.9024   -3.0185    1.2708 H   0  0  0  0  0
  -11.4536   -3.3129    0.5740 H   0  0  0  0  0
  -11.7850   -3.0722    2.8033 H   0  0  0  0  0
  -13.3465   -1.2549    2.7179 H   0  0  0  0  0
  -13.1100   -1.7140    0.9813 H   0  0  0  0  0
  -13.1332    0.6730    1.3341 H   0  0  0  0  0
  -11.5670    0.0701    0.7180 H   0  0  0  0  0
   -9.6209   -2.0191    3.3965 H   0  0  0  0  0
  -11.0653   -1.5005    4.2954 H   0  0  0  0  0
   -8.2334   -0.2762    2.8367 H   0  0  0  0  0
  -11.3678    1.7539    2.5430 H   0  0  0  0  0
  -13.9153    1.5597    2.8496 H   0  0  0  0  0
  -14.8169    1.4843    5.3807 H   0  0  0  0  0
  -14.9697    3.4929    7.0084 H   0  0  0  0  0
  -16.9374    4.5877    6.0063 H   0  0  0  0  0
  -16.4560    3.1488    4.9979 H   0  0  0  0  0
  -17.0949    5.0764    3.6061 H   0  0  0  0  0
  -15.4017    4.6412    3.3931 H   0  0  0  0  0
  -16.4477    6.8635    5.2461 H   0  0  0  0  0
  -15.6329    7.1220    3.7105 H   0  0  0  0  0
  -14.0891    7.2533    5.5252 H   0  0  0  0  0
  -13.7372    5.8911    4.5873 H   0  0  0  0  0
  -13.4897    5.4236    6.9309 H   0  0  0  0  0
  -15.2038    5.8855    7.1455 H   0  0  0  0  0
  1  2  1  0  0  0
  2  3  2  0  0  0
  2  4  2  0  0  0
  2  5  1  0  0  0
  5  6  1  0  0  0
  6  7  1  0  0  0
  7  8  1  0  0  0
  7 10  1  0  0  0
  8  9  1  0  0  0
  9 14  1  0  0  0
 10 11  1  0  0  0
 11 12  1  0  0  0
 11 14  1  0  0  0
 12 13  2  0  0  0
 14 15  1  0  0  0
 15 16  2  0  0  0
 15 17  1  0  0  0
 17 18  1  0  0  0
 18 19  1  0  0  0
 19 20  2  0  0  0
 19 21  1  0  0  0
 21 22  1  0  0  0
 21 26  1  0  0  0
 22 23  1  0  0  0
 23 24  1  0  0  0
 24 25  1  0  0  0
 25 26  1  0  0  0
  1 27  1  0  0  0
  6 28  1  0  0  0
  6 29  1  0  0  0
  7 30  1  0  0  0
  8 31  1  0  0  0
  8 32  1  0  0  0
  9 33  1  0  0  0
  9 34  1  0  0  0
 10 35  1  0  0  0
 10 36  1  0  0  0
 12 37  1  0  0  0
 14 38  1  0  0  0
 17 39  1  0  0  0
 18 40  1  0  0  0
 21 41  1  0  0  0
 22 42  1  0  0  0
 22 43  1  0  0  0
 23 44  1  0  0  0
 23 45  1  0  0  0
 24 46  1  0  0  0
 24 47  1  0  0  0
 25 48  1  0  0  0
 25 49  1  0  0  0
 26 50  1  0  0  0
 26 51  1  0  0  0
M  END
$$$$
