4r6e_ligand
  -I-interpret- 

 45 48  0  0  0  0  0  0  0  0999 V2000
  -65.3360   25.2750   29.6600 C   0  0  0  0  0
  -65.2250   25.6390   31.1890 C   0  0  0  0  0
  -65.7090   27.0590   31.5170 C   0  0  0  0  0
  -67.0980   27.2800   31.0940 N   0  3  0  0  0
  -67.6690   26.3690   30.0110 C   0  0  0  0  0
  -66.6490   25.8190   28.9810 C   0  0  0  0  0
  -67.3010   24.8670   28.0570 C   0  0  0  0  0
  -67.2330   25.0560   26.6630 C   0  0  0  0  0
  -67.7910   24.0950   25.8040 C   0  0  0  0  0
  -68.0240   23.7270   28.5610 C   0  0  0  0  0
  -68.6520   22.7900   27.6490 C   0  0  0  0  0
  -68.6120   23.0520   26.2120 C   0  0  0  0  0
  -69.1870   22.1940   25.3040 N   0  0  0  0  0
  -68.7200   21.9550   24.0620 C   0  0  0  0  0
  -70.1180   21.3660   25.5600 N   0  0  0  0  0
  -70.4680   20.6460   24.5160 C   0  0  0  0  0
  -69.5380   21.0030   23.4990 C   0  0  0  0  0
  -69.5760   20.4190   22.2200 C   0  0  0  0  0
  -70.6220   19.4690   21.9740 C   0  0  0  0  0
  -71.5580   19.1010   23.0240 C   0  0  0  0  0
  -71.4870   19.6970   24.3410 C   0  0  0  0  0
  -72.4260   19.3450   25.3720 C   0  0  0  0  0
  -73.2820   18.5010   25.1860 O   0  0  0  0  0
  -72.4250   19.9330   26.5750 N   0  0  0  0  0
  -65.3517   24.1879   29.5814 H   0  0  0  0  0
  -64.4885   25.7338   29.1507 H   0  0  0  0  0
  -64.1720   25.5799   31.4643 H   0  0  0  0  0
  -65.8577   24.9420   31.7386 H   0  0  0  0  0
  -65.0742   27.7665   30.9836 H   0  0  0  0  0
  -65.6565   27.1954   32.5972 H   0  0  0  0  0
  -67.1138   28.2185   30.6949 H   0  0  0  0  0
  -67.6652   27.1039   31.9232 H   0  0  0  0  0
  -68.3803   26.9720   29.4465 H   0  0  0  0  0
  -68.0827   25.5020   30.5261 H   0  0  0  0  0
  -66.3019   26.6491   28.3658 H   0  0  0  0  0
  -66.7501   25.9430   26.2531 H   0  0  0  0  0
  -67.5633   24.1735   24.7409 H   0  0  0  0  0
  -68.0996   23.5674   29.6366 H   0  0  0  0  0
  -69.1491   21.8988   28.0320 H   0  0  0  0  0
  -67.8570   22.4271   23.5925 H   0  0  0  0  0
  -68.8457   20.6760   21.4527 H   0  0  0  0  0
  -70.7165   19.0169   20.9867 H   0  0  0  0  0
  -72.3298   18.3603   22.8148 H   0  0  0  0  0
  -73.1175   19.6649   27.2743 H   0  0  0  0  0
  -71.7317   20.6490   26.7921 H   0  0  0  0  0
  1  2  1  0  0  0
  1  6  1  0  0  0
  2  3  1  0  0  0
  3  4  1  0  0  0
  4  5  1  0  0  0
  5  6  1  0  0  0
  6  7  1  0  0  0
  7  8  4  0  0  0
  7 10  4  0  0  0
  8  9  4  0  0  0
  9 12  4  0  0  0
 10 11  4  0  0  0
 11 12  4  0  0  0
 12 13  1  0  0  0
 13 14  4  0  0  0
 13 15  4  0  0  0
 14 17  4  0  0  0
 15 16  4  0  0  0
 16 17  4  0  0  0
 16 21  4  0  0  0
 17 18  4  0  0  0
 18 19  4  0  0  0
 19 20  4  0  0  0
 20 21  4  0  0  0
 21 22  1  0  0  0
 22 23  2  0  0  0
 22 24  1  0  0  0
  1 25  1  0  0  0
  1 26  1  0  0  0
  2 27  1  0  0  0
  2 28  1  0  0  0
  3 29  1  0  0  0
  3 30  1  0  0  0
  4 31  1  0  0  0
  4 32  1  0  0  0
  5 33  1  0  0  0
  5 34  1  0  0  0
  6 35  1  0  0  0
  8 36  1  0  0  0
  9 37  1  0  0  0
 10 38  1  0  0  0
 11 39  1  0  0  0
 14 40  1  0  0  0
 18 41  1  0  0  0
 19 42  1  0  0  0
 20 43  1  0  0  0
 24 44  1  0  0  0
 24 45  1  0  0  0
M  END
$$$$
