4txe_ligand
  -I-interpret- 

 49 51  0  0  0  0  0  0  0  0999 V2000
   38.5880   23.4020   27.2770 C   0  0  0  0  0
   39.2930   24.7610   27.3810 C   0  0  0  0  0
   39.5460   25.5940   28.4600 C   0  0  0  0  0
   40.2300   26.8190   28.2800 C   0  0  0  0  0
   40.6910   27.1680   27.0340 C   0  0  0  0  0
   40.4000   26.3410   25.9560 C   0  0  0  0  0
   39.7020   25.1520   26.1190 C   0  0  0  0  0
   39.2680   24.0790   25.1220 C   0  0  0  0  0
   39.0410   22.8310   25.9380 C   0  0  0  0  0
   38.0370   21.8890   25.3810 N   0  3  0  0  0
   38.6470   21.4330   24.1050 C   0  0  0  0  0
   37.7240   20.6240   23.1880 C   0  0  0  0  0
   36.6130   20.0790   23.7480 O   0  0  0  0  0
   38.4770   19.5440   22.3670 C   0  0  0  0  0
   37.9670   18.1520   22.5060 O   0  0  0  0  0
   38.5090   17.3490   21.4630 C   0  0  0  0  0
   38.0920   16.0270   21.3130 C   0  0  0  0  0
   38.6170   15.2460   20.2540 C   0  0  0  0  0
   38.1310   13.7990   20.1340 C   0  0  0  0  0
   39.5940   15.7560   19.3590 C   0  0  0  0  0
   40.1950   14.9270   18.2110 C   0  0  0  0  0
   40.0140   17.0720   19.5050 C   0  0  0  0  0
   39.4650   17.8430   20.5310 C   0  0  0  0  0
   37.5039   23.5017   27.3302 H   0  0  0  0  0
   38.8475   22.7452   28.1073 H   0  0  0  0  0
   39.2147   25.3022   29.4566 H   0  0  0  0  0
   40.3909   27.4845   29.1281 H   0  0  0  0  0
   41.2748   28.0777   26.8934 H   0  0  0  0  0
   40.7277   26.6328   24.9582 H   0  0  0  0  0
   40.0256   23.9198   24.3547 H   0  0  0  0  0
   38.3648   24.3745   24.5882 H   0  0  0  0  0
   39.9375   22.2124   25.9791 H   0  0  0  0  0
   37.1277   22.3293   25.2408 H   0  0  0  0  0
   37.8381   21.1147   26.0145 H   0  0  0  0  0
   39.4741   20.7755   24.3728 H   0  0  0  0  0
   38.9240   22.3316   23.5537 H   0  0  0  0  0
   37.3531   21.4065   22.5259 H   0  0  0  0  0
   36.1200   19.6004   23.0776 H   0  0  0  0  0
   39.5021   19.5348   22.7375 H   0  0  0  0  0
   38.3543   19.8135   21.3180 H   0  0  0  0  0
   37.3677   15.5977   22.0052 H   0  0  0  0  0
   38.3821   13.2560   21.0451 H   0  0  0  0  0
   37.0505   13.7907   19.9907 H   0  0  0  0  0
   38.6156   13.3239   19.2811 H   0  0  0  0  0
   40.6909   14.0471   18.6209 H   0  0  0  0  0
   39.3993   14.6151   17.5345 H   0  0  0  0  0
   40.9192   15.5335   17.6670 H   0  0  0  0  0
   40.7587   17.4949   18.8307 H   0  0  0  0  0
   39.7860   18.8805   20.6237 H   0  0  0  0  0
  1  2  1  0  0  0
  1  9  1  0  0  0
  2  3  4  0  0  0
  2  7  4  0  0  0
  3  4  4  0  0  0
  4  5  4  0  0  0
  5  6  4  0  0  0
  6  7  4  0  0  0
  7  8  1  0  0  0
  8  9  1  0  0  0
  9 10  1  0  0  0
 10 11  1  0  0  0
 11 12  1  0  0  0
 12 13  1  0  0  0
 12 14  1  0  0  0
 14 15  1  0  0  0
 15 16  1  0  0  0
 16 17  4  0  0  0
 16 23  4  0  0  0
 17 18  4  0  0  0
 18 19  1  0  0  0
 18 20  4  0  0  0
 20 21  1  0  0  0
 20 22  4  0  0  0
 22 23  4  0  0  0
  1 24  1  0  0  0
  1 25  1  0  0  0
  3 26  1  0  0  0
  4 27  1  0  0  0
  5 28  1  0  0  0
  6 29  1  0  0  0
  8 30  1  0  0  0
  8 31  1  0  0  0
  9 32  1  0  0  0
 10 33  1  0  0  0
 10 34  1  0  0  0
 11 35  1  0  0  0
 11 36  1  0  0  0
 12 37  1  0  0  0
 13 38  1  0  0  0
 14 39  1  0  0  0
 14 40  1  0  0  0
 17 41  1  0  0  0
 19 42  1  0  0  0
 19 43  1  0  0  0
 19 44  1  0  0  0
 21 45  1  0  0  0
 21 46  1  0  0  0
 21 47  1  0  0  0
 22 48  1  0  0  0
 23 49  1  0  0  0
M  END
$$$$
