6cwi_ligand
  -I-interpret- 

 40 41  0  0  0  0  0  0  0  0999 V2000
   38.2960    0.8450  133.4200 C   0  0  0  0  0
   36.8830    0.4620  133.8160 C   0  0  0  0  0
   36.6330   -0.1820  134.8190 O   0  0  0  0  0
   35.9310    0.9200  133.0170 N   0  0  0  0  0
   34.5160    0.5950  133.2760 C   0  0  0  0  0
   33.7410    1.8850  133.5800 C   0  0  0  0  0
   34.3930    2.5430  134.7510 O   0  0  0  0  0
   33.7660    2.7190  132.3320 C   0  0  0  0  0
   32.9250    3.7630  132.5300 O   0  0  0  0  0
   32.8920    4.5510  131.3310 C   0  0  0  0  0
   31.8960    5.6950  131.5600 C   0  0  0  0  0
   34.2680    5.1580  131.1770 C   0  0  0  0  0
   34.7160    5.4770  130.0310 O   0  0  0  0  0
   34.8000    5.4400  132.2970 O   0  0  0  0  0
   32.4710    3.8400  130.1640 O   0  0  0  0  0
   33.2950    2.7130  129.8820 C   0  0  0  0  0
   33.2600    1.8990  131.1300 C   0  0  0  0  0
   34.1400    0.7530  130.9150 O   0  0  0  0  0
   34.0250   -0.1070  132.0650 C   0  0  0  0  0
   34.8390   -1.2750  131.9020 O   0  0  0  0  0
   34.4850   -2.0520  130.7470 C   0  0  0  0  0
   38.7412    1.4517  134.2086 H   0  0  0  0  0
   38.8891   -0.0581  133.2760 H   0  0  0  0  0
   38.2697    1.4158  132.4918 H   0  0  0  0  0
   36.1784    1.5018  132.2166 H   0  0  0  0  0
   34.3806   -0.0482  134.1455 H   0  0  0  0  0
   32.6979    1.7151  133.8468 H   0  0  0  0  0
   34.3433    1.9606  135.5125 H   0  0  0  0  0
   34.7825    3.0531  132.1244 H   0  0  0  0  0
   30.9105    5.2801  131.7716 H   0  0  0  0  0
   32.2264    6.2990  132.4050 H   0  0  0  0  0
   31.8458    6.3159  130.6655 H   0  0  0  0  0
   34.2603    5.0819  133.0056 H   0  0  0  0  0
   34.3103    3.0072  129.6160 H   0  0  0  0  0
   32.9359    2.1516  129.0194 H   0  0  0  0  0
   32.2394    1.5847  131.3485 H   0  0  0  0  0
   32.9749   -0.3807  132.1676 H   0  0  0  0  0
   33.4493   -2.3803  130.8350 H   0  0  0  0  0
   34.5992   -1.4416  129.8512 H   0  0  0  0  0
   35.1388   -2.9217  130.6814 H   0  0  0  0  0
  1  2  1  0  0  0
  2  3  2  0  0  0
  2  4  1  0  0  0
  4  5  1  0  0  0
  5  6  1  0  0  0
  5 19  1  0  0  0
  6  7  1  0  0  0
  6  8  1  0  0  0
  8  9  1  0  0  0
  8 17  1  0  0  0
  9 10  1  0  0  0
 10 11  1  0  0  0
 10 12  1  0  0  0
 10 15  1  0  0  0
 12 13  2  0  0  0
 12 14  1  0  0  0
 15 16  1  0  0  0
 16 17  1  0  0  0
 17 18  1  0  0  0
 18 19  1  0  0  0
 19 20  1  0  0  0
 20 21  1  0  0  0
  1 22  1  0  0  0
  1 23  1  0  0  0
  1 24  1  0  0  0
  4 25  1  0  0  0
  5 26  1  0  0  0
  6 27  1  0  0  0
  7 28  1  0  0  0
  8 29  1  0  0  0
 11 30  1  0  0  0
 11 31  1  0  0  0
 11 32  1  0  0  0
 14 33  1  0  0  0
 16 34  1  0  0  0
 16 35  1  0  0  0
 17 36  1  0  0  0
 19 37  1  0  0  0
 21 38  1  0  0  0
 21 39  1  0  0  0
 21 40  1  0  0  0
M  END
$$$$
