2r59_ligand
  -I-interpret- 

 67 69  0  0  0  0  0  0  0  0999 V2000
   34.1440    4.2310    3.4590 O   0  0  0  0  0
   32.6740    2.7490    1.1120 C   0  0  0  0  0
   31.9250    1.9930    0.0510 C   0  0  0  0  0
   32.3780    1.8490   -1.2850 C   0  0  0  0  0
   31.5450    1.1220   -2.1550 C   0  0  0  0  0
   30.3210    0.5870   -1.7880 C   0  0  0  0  0
   29.9130    0.7030   -0.4840 C   0  0  0  0  0
   30.7050    1.4180    0.4100 C   0  0  0  0  0
   34.1590    2.4400    1.2800 C   0  0  0  0  0
   34.7870    5.2380    0.9710 C   0  0  0  0  0
   34.7330    6.6000    1.6800 C   0  0  0  0  0
   34.4690    7.6510    0.6400 C   0  0  0  0  0
   33.2120    9.5880   -0.1850 C   0  0  0  0  0
   32.3020   10.6700    0.3840 C   0  0  0  0  0
   31.2240   10.0200    1.2170 C   0  0  0  0  0
   31.4400    9.7600    2.5910 C   0  0  0  0  0
   30.4200    9.1780    3.3160 C   0  0  0  0  0
   29.2220    8.8370    2.7010 C   0  0  0  0  0
   29.0160    9.1080    1.3620 C   0  0  0  0  0
   30.0230    9.7010    0.6330 C   0  0  0  0  0
   34.4680   10.2700   -0.6650 C   0  0  0  0  0
   34.9270    3.8450    2.1750 P   0  0  0  0  0
   36.5450    3.4940    2.5240 O   0  0  0  0  0
   34.3010    1.2490    2.1560 N   0  3  0  0  0
   36.1120    6.8800    2.2820 C   0  0  0  0  0
   36.0560    8.0130    3.3080 C   0  0  0  0  0
   37.1910    8.7810    3.5430 C   0  0  0  0  0
   37.2030    9.8470    4.4590 C   0  0  0  0  0
   36.0480   10.1100    5.1790 C   0  0  0  0  0
   34.9070    9.3190    5.0060 C   0  0  0  0  0
   34.9040    8.2690    4.0700 C   0  0  0  0  0
   35.1500    7.6490   -0.3360 O   0  0  0  0  0
   33.4920    8.5280    0.7690 N   0  0  0  0  0
   35.4190   10.5980    0.1270 O   0  0  0  0  0
   34.5220   10.4430   -1.8970 O   0  0  0  0  0
   32.2071    2.4700    2.0566 H   0  0  0  0  0
   32.6235    3.7971    0.8170 H   0  0  0  0  0
   33.3219    2.2789   -1.6202 H   0  0  0  0  0
   31.8832    0.9705   -3.1801 H   0  0  0  0  0
   29.6933    0.0828   -2.5228 H   0  0  0  0  0
   28.9825    0.2422   -0.1525 H   0  0  0  0  0
   30.3568    1.5340    1.4363 H   0  0  0  0  0
   34.6204    2.2725    0.3068 H   0  0  0  0  0
   35.6645    5.2223    0.3246 H   0  0  0  0  0
   33.8652    5.1098    0.4037 H   0  0  0  0  0
   33.9623    6.6038    2.4508 H   0  0  0  0  0
   32.7132    9.0841   -1.0129 H   0  0  0  0  0
   31.8467   11.2326   -0.4311 H   0  0  0  0  0
   32.8848   11.3507    1.0045 H   0  0  0  0  0
   32.3883   10.0131    3.0650 H   0  0  0  0  0
   30.5556    8.9843    4.3800 H   0  0  0  0  0
   28.4370    8.3510    3.2804 H   0  0  0  0  0
   28.0675    8.8554    0.8880 H   0  0  0  0  0
   29.8642    9.9202   -0.4228 H   0  0  0  0  0
   37.0025    3.2595    1.7132 H   0  0  0  0  0
   33.8855    0.4388    1.6963 H   0  0  0  0  0
   35.2904    1.0724    2.3300 H   0  0  0  0  0
   33.8243    1.4207    3.0412 H   0  0  0  0  0
   36.7863    7.1752    1.4781 H   0  0  0  0  0
   36.4597    5.9768    2.7835 H   0  0  0  0  0
   38.1050    8.5478    2.9968 H   0  0  0  0  0
   38.0986   10.4521    4.5998 H   0  0  0  0  0
   36.0286   10.9397    5.8856 H   0  0  0  0  0
   34.0150    9.5176    5.6001 H   0  0  0  0  0
   34.0120    7.6569    3.9366 H   0  0  0  0  0
   32.8939    8.4575    1.5922 H   0  0  0  0  0
   35.1728   10.3793    1.0287 H   0  0  0  0  0
 22  1  2  0  0  0
  2  3  1  0  0  0
  9  2  1  0  0  0
  3  4  4  0  0  0
  3  8  4  0  0  0
  4  5  4  0  0  0
  5  6  4  0  0  0
  7  6  4  0  0  0
  8  7  4  0  0  0
 22  9  1  0  0  0
  9 24  1  0  0  0
 11 10  1  0  0  0
 10 22  1  0  0  0
 12 11  1  0  0  0
 11 25  1  0  0  0
 12 32  2  0  0  0
 33 12  1  0  0  0
 13 14  1  0  0  0
 13 21  1  0  0  0
 13 33  1  0  0  0
 14 15  1  0  0  0
 15 16  4  0  0  0
 15 20  4  0  0  0
 16 17  4  0  0  0
 17 18  4  0  0  0
 18 19  4  0  0  0
 19 20  4  0  0  0
 21 34  1  0  0  0
 21 35  2  0  0  0
 22 23  1  0  0  0
 25 26  1  0  0  0
 26 27  4  0  0  0
 26 31  4  0  0  0
 27 28  4  0  0  0
 28 29  4  0  0  0
 29 30  4  0  0  0
 30 31  4  0  0  0
  2 36  1  0  0  0
  2 37  1  0  0  0
  4 38  1  0  0  0
  5 39  1  0  0  0
  6 40  1  0  0  0
  7 41  1  0  0  0
  8 42  1  0  0  0
  9 43  1  0  0  0
 10 44  1  0  0  0
 10 45  1  0  0  0
 11 46  1  0  0  0
 13 47  1  0  0  0
 14 48  1  0  0  0
 14 49  1  0  0  0
 16 50  1  0  0  0
 17 51  1  0  0  0
 18 52  1  0  0  0
 19 53  1  0  0  0
 20 54  1  0  0  0
 23 55  1  0  0  0
 24 56  1  0  0  0
 24 57  1  0  0  0
 24 58  1  0  0  0
 25 59  1  0  0  0
 25 60  1  0  0  0
 27 61  1  0  0  0
 28 62  1  0  0  0
 29 63  1  0  0  0
 30 64  1  0  0  0
 31 65  1  0  0  0
 33 66  1  0  0  0
 34 67  1  0  0  0
M  END
$$$$
