2o65_ligand
  -I-interpret- 

 32 34  0  0  0  0  0  0  0  0999 V2000
   75.0050   36.1570   -2.5710 O   0  0  0  0  0
   75.3120   35.7230   -1.4820 C   0  0  0  0  0
   75.7840   34.3130   -1.2840 C   0  0  0  0  0
   75.9250   33.2870   -2.3650 C   0  0  0  0  0
   75.6350   33.5700   -3.6340 O   0  0  0  0  0
   76.3860   32.0010   -2.0430 C   0  0  0  0  0
   76.7080   31.6640   -0.7210 C   0  0  0  0  0
   77.1320   30.4420   -0.4210 O   0  0  0  0  0
   76.1510   33.9010    0.0940 C   0  0  0  0  0
   76.5820   32.5810    0.3250 C   0  0  0  0  0
   76.0520   34.8120    1.1300 O   0  0  0  0  0
   75.6070   36.1690    0.8810 C   0  0  0  0  0
   75.2280   36.6180   -0.3290 C   0  0  0  0  0
   75.4620   37.0190    2.0780 C   0  0  0  0  0
   75.2920   38.3970    1.9260 C   0  0  0  0  0
   75.0920   39.2130    3.0380 C   0  0  0  0  0
   74.9690   40.5250    2.8320 O   0  0  0  0  0
   75.0260   38.5970    4.4060 C   0  0  0  0  0
   74.8330   39.3720    5.4760 O   0  0  0  0  0
   75.1680   37.1020    4.5140 C   0  0  0  0  0
   75.3740   36.3740    3.3270 C   0  0  0  0  0
   75.0910   36.4740    5.7040 O   0  0  0  0  0
   75.7861   32.7926   -4.1766 H   0  0  0  0  0
   76.4949   31.2553   -2.8305 H   0  0  0  0  0
   77.3049   30.3869    0.5217 H   0  0  0  0  0
   76.8224   32.2681    1.3411 H   0  0  0  0  0
   74.8623   37.6378   -0.4486 H   0  0  0  0  0
   75.3160   38.8379    0.9294 H   0  0  0  0  0
   74.8367   40.9688    3.6729 H   0  0  0  0  0
   74.8162   38.8266    6.2659 H   0  0  0  0  0
   75.4673   35.2891    3.3754 H   0  0  0  0  0
   75.2044   35.5296    5.5741 H   0  0  0  0  0
  1  2  2  0  0  0
  2  3  1  0  0  0
  2 13  1  0  0  0
  3  4  4  0  0  0
  3  9  4  0  0  0
  4  5  1  0  0  0
  4  6  4  0  0  0
  6  7  4  0  0  0
  7  8  1  0  0  0
  7 10  4  0  0  0
  9 10  4  0  0  0
  9 11  1  0  0  0
 11 12  1  0  0  0
 12 13  2  0  0  0
 12 14  1  0  0  0
 14 15  4  0  0  0
 14 21  4  0  0  0
 15 16  4  0  0  0
 16 17  1  0  0  0
 16 18  4  0  0  0
 18 19  1  0  0  0
 18 20  4  0  0  0
 20 21  4  0  0  0
 20 22  1  0  0  0
  5 23  1  0  0  0
  6 24  1  0  0  0
  8 25  1  0  0  0
 10 26  1  0  0  0
 13 27  1  0  0  0
 15 28  1  0  0  0
 17 29  1  0  0  0
 19 30  1  0  0  0
 21 31  1  0  0  0
 22 32  1  0  0  0
M  END
$$$$
