### 
### Created by X-TOOL on Mon Sep 10 21:12:55 2018
### 

@<TRIPOS>MOLECULE
2clf_ligand
   30    30     1     0     0
SMALL
GAST_HUCK


@<TRIPOS>ATOM
      1 C1         51.3500   23.4790   14.9440 C.ar      1 F6F         0.1060
      2 C2         50.0870   23.5570   15.6120 C.ar      1 F6F        -0.0266
      3 C3         49.2840   24.7300   15.5160 C.ar      1 F6F        -0.0504
      4 C4         49.7070   25.8750   14.7460 C.ar      1 F6F         0.0385
      5 C5         50.9820   25.8270   14.0430 C.ar      1 F6F        -0.0504
      6 C6         51.8100   24.6160   14.1450 C.ar      1 F6F        -0.0266
      7 O7         52.1640   22.3670   15.0480 O.3       1 F6F        -0.2218
      8 C8         51.9490   21.3240   14.1170 C.3       1 F6F         0.5476
      9 F9         50.6980   20.8780   14.1730 F         1 F6F        -0.1398
     10 F10        52.7490   20.3000   14.3780 F         1 F6F        -0.1398
     11 F11        52.1630   21.7260   12.8760 F         1 F6F        -0.1398
     12 C12        48.7640   27.0930   14.7660 C.2       1 F6F         0.1969
     13 N13        48.5000   27.3830   13.4590 N.am      1 F6F        -0.2852
     14 O14        47.7570   26.9380   15.4450 O.2       1 F6F        -0.3898
     15 C15        47.4010   28.3850   13.3530 C.3       1 F6F         0.0580
     16 C16        46.9470   28.7850   11.9860 C.3       1 F6F         0.0984
     17 O17        47.7180   28.3070   11.0060 O.3       1 F6F        -0.2741
     18 P18        47.9670   29.4990    9.9410 P.3       1 F6F         0.2008
     19 O19        48.2450   28.8830    8.5880 O.co2     1 F6F        -0.5537
     20 O20        49.1810   30.1960   10.4810 O.co2     1 F6F        -0.5537
     21 O21        46.6310   30.2190    9.8620 O.co2     1 F6F        -0.5537
     22 H1         49.7373   22.7144   16.1975 H         1 F6F         0.0556
     23 H2         48.3323   24.7632   16.0339 H         1 F6F         0.0642
     24 H3         51.3159   26.6726   13.4526 H         1 F6F         0.0642
     25 H4         52.7615   24.5653   13.6282 H         1 F6F         0.0556
     26 H5         48.9781   26.9789   12.6792 H         1 F6F         0.1842
     27 H6         47.7394   29.2975   13.8655 H         1 F6F         0.0545
     28 H7         46.5285   27.9709   13.8795 H         1 F6F         0.0545
     29 H8         46.9494   29.8834   11.9261 H         1 F6F         0.0632
     30 H9         45.9231   28.4119   11.8364 H         1 F6F         0.0632
@<TRIPOS>BOND
     1    1    2 ar 
     2    1    6 ar 
     3    1    7 1  
     4    2    3 ar 
     5    3    4 ar 
     6    4    5 ar 
     7    4   12 1  
     8    5    6 ar 
     9    7    8 1  
    10    8    9 1  
    11    8   10 1  
    12    8   11 1  
    13   12   13 am 
    14   12   14 2  
    15   13   15 1  
    16   15   16 1  
    17   16   17 1  
    18   17   18 1  
    19   18   19 ar 
    20   18   20 ar 
    21   18   21 ar 
    22    2   22 1  
    23    3   23 1  
    24    5   24 1  
    25    6   25 1  
    26   13   26 1  
    27   15   27 1  
    28   15   28 1  
    29   16   29 1  
    30   16   30 1  
@<TRIPOS>SUBSTRUCTURE
     1 F6F         1

