2clf_ligand
  -I-interpret- 

 32 32  0  0  0  0  0  0  0  0999 V2000
   51.3500   23.4790   14.9440 C   0  0  0  0  0
   50.0870   23.5570   15.6120 C   0  0  0  0  0
   49.2840   24.7300   15.5160 C   0  0  0  0  0
   49.7070   25.8750   14.7460 C   0  0  0  0  0
   50.9820   25.8270   14.0430 C   0  0  0  0  0
   51.8100   24.6160   14.1450 C   0  0  0  0  0
   52.1640   22.3670   15.0480 O   0  0  0  0  0
   51.9490   21.3240   14.1170 C   0  0  0  0  0
   50.6980   20.8780   14.1730 F   0  0  0  0  0
   52.7490   20.3000   14.3780 F   0  0  0  0  0
   52.1630   21.7260   12.8760 F   0  0  0  0  0
   48.7640   27.0930   14.7660 C   0  0  0  0  0
   48.5000   27.3830   13.4590 N   0  0  0  0  0
   47.7570   26.9380   15.4450 O   0  0  0  0  0
   47.4010   28.3850   13.3530 C   0  0  0  0  0
   46.9470   28.7850   11.9860 C   0  0  0  0  0
   47.7180   28.3070   11.0060 O   0  0  0  0  0
   47.9670   29.4990    9.9410 P   0  0  0  0  0
   48.2450   28.8830    8.5880 O   0  0  0  0  0
   49.1810   30.1960   10.4810 O   0  0  0  0  0
   46.6310   30.2190    9.8620 O   0  0  0  0  0
   49.7354   22.7097   16.2007 H   0  0  0  0  0
   48.3270   24.7634   16.0367 H   0  0  0  0  0
   51.3178   26.6773   13.4494 H   0  0  0  0  0
   52.7668   24.5650   13.6254 H   0  0  0  0  0
   48.9877   26.9708   12.6636 H   0  0  0  0  0
   47.7945   29.2953   13.8054 H   0  0  0  0  0
   46.5351   27.9156   13.8199 H   0  0  0  0  0
   46.9879   29.8729   11.9331 H   0  0  0  0  0
   45.9458   28.3789   11.8420 H   0  0  0  0  0
   47.4528   28.4452    8.2681 H   0  0  0  0  0
   45.9708   29.6268    9.4945 H   0  0  0  0  0
  1  2  4  0  0  0
  1  6  4  0  0  0
  1  7  1  0  0  0
  2  3  4  0  0  0
  3  4  4  0  0  0
  4  5  4  0  0  0
  4 12  1  0  0  0
  5  6  4  0  0  0
  7  8  1  0  0  0
  8  9  1  0  0  0
  8 10  1  0  0  0
  8 11  1  0  0  0
 12 13  1  0  0  0
 12 14  2  0  0  0
 13 15  1  0  0  0
 15 16  1  0  0  0
 16 17  1  0  0  0
 17 18  1  0  0  0
 18 19  1  0  0  0
 18 20  2  0  0  0
 18 21  1  0  0  0
  2 22  1  0  0  0
  3 23  1  0  0  0
  5 24  1  0  0  0
  6 25  1  0  0  0
 13 26  1  0  0  0
 15 27  1  0  0  0
 15 28  1  0  0  0
 16 29  1  0  0  0
 16 30  1  0  0  0
 19 31  1  0  0  0
 21 32  1  0  0  0
M  END
$$$$
