1r6z_ligand
  -I-interpret- 

 45 46  0  0  0  0  0  0  0  0999 V2000
   36.0640   92.3140   -1.2490 C   0  0  0  0  0
   37.2190   91.3780   -1.7100 C   0  0  0  0  0
   38.1590   92.1320   -2.6160 C   0  0  0  0  0
   37.3180   92.6800   -3.8230 C   0  0  0  0  0
   36.2220   93.5850   -3.3130 C   0  0  0  0  0
   35.3160   94.0360   -4.4130 C   0  0  0  0  0
   36.7270   93.3000   -0.4780 O   0  0  0  0  0
   37.9260   90.8320   -0.5660 O   0  0  0  0  0
   39.2090   91.2740   -3.0960 O   0  0  0  0  0
   38.1260   93.4220   -4.7380 O   0  0  0  0  0
   35.4150   92.8430   -2.3560 O   0  0  0  0  0
   34.3920   95.1080   -3.9320 O   0  0  0  0  0
   35.8060   95.3850    3.0780 C   0  0  0  0  0
   35.9080   93.8700    3.1300 C   0  0  0  0  0
   36.6880   93.3540    1.9390 C   0  0  0  0  0
   35.9970   93.7830    0.6740 C   0  0  0  0  0
   36.0880   95.3540    0.5960 C   0  0  0  0  0
   35.3660   95.9130   -0.6410 C   0  0  0  0  0
   36.9860   95.9440    3.3780 O   0  0  0  0  0
   36.5790   93.4840    4.2990 O   0  0  0  0  0
   36.6780   91.9290    2.0570 O   0  0  0  0  0
   35.5680   95.9150    1.8190 O   0  0  0  0  0
   35.5780   97.3190   -0.5240 O   0  0  0  0  0
   35.2851   91.8148   -0.6727 H   0  0  0  0  0
   36.7945   90.5426   -2.2668 H   0  0  0  0  0
   38.6281   92.9490   -2.0678 H   0  0  0  0  0
   36.8982   91.8196   -4.3440 H   0  0  0  0  0
   36.6927   94.4590   -2.8627 H   0  0  0  0  0
   34.7232   93.1862   -4.7514 H   0  0  0  0  0
   35.9219   94.4330   -5.2275 H   0  0  0  0  0
   37.3075   90.3577   -0.0056 H   0  0  0  0  0
   39.7170   90.9444   -2.3511 H   0  0  0  0  0
   38.8286   92.8593   -5.0717 H   0  0  0  0  0
   33.8200   95.3828   -4.6524 H   0  0  0  0  0
   34.9857   95.5939    3.7647 H   0  0  0  0  0
   34.9000   93.4554    3.1158 H   0  0  0  0  0
   37.7074   93.7388    1.9100 H   0  0  0  0  0
   34.9747   93.4048    0.6786 H   0  0  0  0  0
   37.1335   95.6421    0.4867 H   0  0  0  0  0
   34.3100   95.6449   -0.6724 H   0  0  0  0  0
   35.7482   95.5032   -1.5759 H   0  0  0  0  0
   36.9047   96.8998    3.3408 H   0  0  0  0  0
   36.6420   92.5265    4.3292 H   0  0  0  0  0
   37.1621   91.5448    1.3224 H   0  0  0  0  0
   35.1585   97.7672   -1.2621 H   0  0  0  0  0
  1  2  1  0  0  0
  7  1  1  0  0  0
  1 11  1  0  0  0
  2  3  1  0  0  0
  2  8  1  0  0  0
  3  4  1  0  0  0
  3  9  1  0  0  0
  5  4  1  0  0  0
  4 10  1  0  0  0
  5  6  1  0  0  0
 11  5  1  0  0  0
  6 12  1  0  0  0
 16  7  1  0  0  0
 14 13  1  0  0  0
 13 19  1  0  0  0
 13 22  1  0  0  0
 15 14  1  0  0  0
 14 20  1  0  0  0
 15 16  1  0  0  0
 15 21  1  0  0  0
 16 17  1  0  0  0
 17 18  1  0  0  0
 17 22  1  0  0  0
 18 23  1  0  0  0
  1 24  1  0  0  0
  2 25  1  0  0  0
  3 26  1  0  0  0
  4 27  1  0  0  0
  5 28  1  0  0  0
  6 29  1  0  0  0
  6 30  1  0  0  0
  8 31  1  0  0  0
  9 32  1  0  0  0
 10 33  1  0  0  0
 12 34  1  0  0  0
 13 35  1  0  0  0
 14 36  1  0  0  0
 15 37  1  0  0  0
 16 38  1  0  0  0
 17 39  1  0  0  0
 18 40  1  0  0  0
 18 41  1  0  0  0
 19 42  1  0  0  0
 20 43  1  0  0  0
 21 44  1  0  0  0
 23 45  1  0  0  0
M  END
$$$$
