1a52_ligand
  -I-interpret- 

 44 47  0  0  0  0  0  0  0  0999 V2000
  107.0080   15.8600   99.4560 C   0  0  0  0  0
  106.9320   16.9300  100.3660 C   0  0  0  0  0
  106.8330   18.2290   99.8920 C   0  0  0  0  0
  106.8010   19.2390  100.8130 O   0  0  0  0  0
  106.7930   18.5030   98.4870 C   0  0  0  0  0
  106.8760   17.4240   97.5440 C   0  0  0  0  0
  106.9380   17.7140   96.0430 C   0  0  0  0  0
  107.3090   16.5030   95.1650 C   0  0  0  0  0
  106.6720   15.1910   95.6810 C   0  0  0  0  0
  107.1900   14.8700   97.1230 C   0  0  0  0  0
  106.9980   16.0650   98.0500 C   0  0  0  0  0
  106.5900   13.5520   97.6420 C   0  0  0  0  0
  106.7820   12.3640   96.6670 C   0  0  0  0  0
  106.3220   12.6680   95.2400 C   0  0  0  0  0
  107.0200   13.9910   94.7660 C   0  0  0  0  0
  106.7430   14.0160   93.2620 C   0  0  0  0  0
  106.9650   12.5440   92.8370 C   0  0  0  0  0
  106.8760   11.6910   94.1710 C   0  0  0  0  0
  106.1970   10.4170   93.9680 O   0  0  0  0  0
  104.7600   12.6910   95.1400 C   0  0  0  0  0
  107.0767   14.8426   99.8412 H   0  0  0  0  0
  106.9509   16.7386  101.4389 H   0  0  0  0  0
  106.7316   20.0822  100.3593 H   0  0  0  0  0
  106.6996   19.5300   98.1340 H   0  0  0  0  0
  107.7181   18.4612   95.8972 H   0  0  0  0  0
  105.9396   18.0300   95.7404 H   0  0  0  0  0
  108.3925   16.3862   95.1881 H   0  0  0  0  0
  106.9367   16.6876   94.1573 H   0  0  0  0  0
  105.5920   15.3382   95.6846 H   0  0  0  0  0
  108.2665   14.7020   97.0921 H   0  0  0  0  0
  105.5181   13.7052   97.7668 H   0  0  0  0  0
  107.1017   13.3010   98.5711 H   0  0  0  0  0
  106.1788   11.5349   97.0368 H   0  0  0  0  0
  107.8481   12.1404   96.6277 H   0  0  0  0  0
  108.1019   14.0570   94.8810 H   0  0  0  0  0
  107.3905   14.7105   92.7267 H   0  0  0  0  0
  105.7418   14.3758   93.0247 H   0  0  0  0  0
  107.9299   12.4140   92.3469 H   0  0  0  0  0
  106.2176   12.2239   92.1110 H   0  0  0  0  0
  107.8353   11.3232   94.5350 H   0  0  0  0  0
  106.6482    9.9211   93.2809 H   0  0  0  0  0
  104.3641   11.7188   95.4334 H   0  0  0  0  0
  104.3660   13.4605   95.8038 H   0  0  0  0  0
  104.4661   12.9097   94.1134 H   0  0  0  0  0
  1  2  4  0  0  0
  1 11  4  0  0  0
  2  3  4  0  0  0
  3  4  1  0  0  0
  3  5  4  0  0  0
  5  6  4  0  0  0
  6  7  1  0  0  0
  6 11  4  0  0  0
  7  8  1  0  0  0
  8  9  1  0  0  0
  9 10  1  0  0  0
  9 15  1  0  0  0
 10 11  1  0  0  0
 10 12  1  0  0  0
 12 13  1  0  0  0
 13 14  1  0  0  0
 14 15  1  0  0  0
 14 18  1  0  0  0
 14 20  1  0  0  0
 15 16  1  0  0  0
 16 17  1  0  0  0
 17 18  1  0  0  0
 18 19  1  0  0  0
  1 21  1  0  0  0
  2 22  1  0  0  0
  4 23  1  0  0  0
  5 24  1  0  0  0
  7 25  1  0  0  0
  7 26  1  0  0  0
  8 27  1  0  0  0
  8 28  1  0  0  0
  9 29  1  0  0  0
 10 30  1  0  0  0
 12 31  1  0  0  0
 12 32  1  0  0  0
 13 33  1  0  0  0
 13 34  1  0  0  0
 15 35  1  0  0  0
 16 36  1  0  0  0
 16 37  1  0  0  0
 17 38  1  0  0  0
 17 39  1  0  0  0
 18 40  1  0  0  0
 19 41  1  0  0  0
 20 42  1  0  0  0
 20 43  1  0  0  0
 20 44  1  0  0  0
M  END
$$$$
