### 
### Created by X-TOOL on Mon Sep 10 21:13:10 2018
### 

@<TRIPOS>MOLECULE
4ayt_ligand
   45    47     1     0     0
SMALL
GAST_HUCK


@<TRIPOS>ATOM
      1 PG        -16.9840   22.8330    7.1760 P.3       1 ACP         0.0781
      2 O1G       -15.7910   21.9320    7.1020 O.co2     1 ACP        -0.5611
      3 O2G       -16.6800   24.1790    7.8740 O.co2     1 ACP        -0.5611
      4 O3G       -18.2020   22.1880    7.8830 O.co2     1 ACP        -0.5611
      5 PB        -18.4000   22.0080    4.7820 P.3       1 ACP         0.1787
      6 O1B       -17.6480   20.9050    4.0530 O.co2     1 ACP        -0.6143
      7 O2B       -19.6080   21.5530    5.6680 O.co2     1 ACP        -0.6143
      8 C3B       -17.4710   23.2210    5.5510 C.3       1 ACP         0.1130
      9 PA        -20.4650   23.4290    3.2750 P.3       1 ACP         0.2952
     10 O1A       -20.9590   24.2210    4.4250 O.co2     1 ACP        -0.6125
     11 O2A       -21.4420   22.4740    2.6030 O.co2     1 ACP        -0.6125
     12 O3A       -19.1310   22.5970    3.4790 O.3       1 ACP        -0.1584
     13 O5'       -20.2900   24.3750    1.9710 O.3       1 ACP        -0.2475
     14 C5'       -19.4170   24.1570    0.8430 C.3       1 ACP         0.1128
     15 C4'       -19.0910   25.4880    0.2050 C.3       1 ACP         0.1189
     16 O4'       -20.3080   26.2010   -0.1170 O.3       1 ACP        -0.3364
     17 C3'       -18.2210   26.4460    1.0240 C.3       1 ACP         0.1149
     18 O3'       -17.1290   26.9480    0.2570 O.3       1 ACP        -0.3864
     19 C2'       -19.2130   27.5220    1.4910 C.3       1 ACP         0.1385
     20 O2'       -18.6180   28.8020    1.6800 O.3       1 ACP        -0.3836
     21 C1'       -20.2230   27.5360    0.3440 C.3       1 ACP         0.2010
     22 N9        -21.5670   27.9910    0.7040 N.pl3     1 ACP        -0.1919
     23 C8        -22.3130   27.5910    1.7810 C.2       1 ACP         0.1123
     24 N7        -23.5150   28.1160    1.8270 N.2       1 ACP        -0.2958
     25 C5        -23.5670   28.9180    0.6970 C.ar      1 ACP         0.1045
     26 C6        -24.5890   29.7180    0.1440 C.ar      1 ACP         0.1298
     27 N6        -25.8010   29.8550    0.6920 N.pl3     1 ACP        -0.3152
     28 N1        -24.3260   30.3710   -1.0140 N.ar      1 ACP        -0.2698
     29 C2        -23.1140   30.2360   -1.5680 C.ar      1 ACP         0.0533
     30 N3        -22.0750   29.5090   -1.1430 N.ar      1 ACP        -0.2714
     31 C4        -22.3690   28.8610    0.0000 C.ar      1 ACP         0.1613
     32 H1        -16.5645   23.3914    4.9517 H         1 ACP         0.0680
     33 H2        -18.0688   24.1438    5.5822 H         1 ACP         0.0680
     34 H3        -19.9187   23.5097    0.1087 H         1 ACP         0.0648
     35 H4        -18.4889   23.6746    1.1834 H         1 ACP         0.0648
     36 H5        -18.5520   25.2693   -0.7286 H         1 ACP         0.0651
     37 H6        -17.8076   25.9241    1.8996 H         1 ACP         0.0648
     38 H7        -16.6113   27.5371    0.7931 H         1 ACP         0.2100
     39 H8        -19.6941   27.2177    2.4323 H         1 ACP         0.0676
     40 H9        -18.2414   29.0991    0.8600 H         1 ACP         0.2101
     41 H10       -19.8411   28.1882   -0.4552 H         1 ACP         0.0996
     42 H11       -21.9410   26.8975    2.5337 H         1 ACP         0.1349
     43 H12       -26.5059   30.4546    0.2397 H         1 ACP         0.1820
     44 H13       -26.0297   29.3610    1.5664 H         1 ACP         0.1820
     45 H14       -22.9535   30.7912   -2.4851 H         1 ACP         0.0996
@<TRIPOS>BOND
     1    1    2 ar 
     2    1    3 ar 
     3    1    4 ar 
     4    8    1 1  
     5    5    6 ar 
     6    5    7 ar 
     7    5    8 1  
     8   12    5 1  
     9    9   10 ar 
    10    9   11 ar 
    11    9   12 1  
    12    9   13 1  
    13   13   14 1  
    14   14   15 1  
    15   15   16 1  
    16   15   17 1  
    17   16   21 1  
    18   17   18 1  
    19   17   19 1  
    20   19   20 1  
    21   19   21 1  
    22   21   22 1  
    23   22   23 1  
    24   22   31 1  
    25   23   24 2  
    26   24   25 1  
    27   25   26 ar 
    28   25   31 ar 
    29   26   27 1  
    30   26   28 ar 
    31   28   29 ar 
    32   29   30 ar 
    33   30   31 ar 
    34    8   32 1  
    35    8   33 1  
    36   14   34 1  
    37   14   35 1  
    38   15   36 1  
    39   17   37 1  
    40   18   38 1  
    41   19   39 1  
    42   20   40 1  
    43   21   41 1  
    44   23   42 1  
    45   27   43 1  
    46   27   44 1  
    47   29   45 1  
@<TRIPOS>SUBSTRUCTURE
     1 ACP         1

