4ayt_ligand
  -I-interpret- 

 49 51  0  0  0  0  0  0  0  0999 V2000
  -16.9840   22.8330    7.1760 P   0  0  0  0  0
  -15.7910   21.9320    7.1020 O   0  0  0  0  0
  -16.6800   24.1790    7.8740 O   0  0  0  0  0
  -18.2020   22.1880    7.8830 O   0  0  0  0  0
  -18.4000   22.0080    4.7820 P   0  0  0  0  0
  -17.6480   20.9050    4.0530 O   0  0  0  0  0
  -19.6080   21.5530    5.6680 O   0  0  0  0  0
  -17.4710   23.2210    5.5510 C   0  0  0  0  0
  -20.4650   23.4290    3.2750 P   0  0  0  0  0
  -20.9590   24.2210    4.4250 O   0  0  0  0  0
  -21.4420   22.4740    2.6030 O   0  0  0  0  0
  -19.1310   22.5970    3.4790 O   0  0  0  0  0
  -20.2900   24.3750    1.9710 O   0  0  0  0  0
  -19.4170   24.1570    0.8430 C   0  0  0  0  0
  -19.0910   25.4880    0.2050 C   0  0  0  0  0
  -20.3080   26.2010   -0.1170 O   0  0  0  0  0
  -18.2210   26.4460    1.0240 C   0  0  0  0  0
  -17.1290   26.9480    0.2570 O   0  0  0  0  0
  -19.2130   27.5220    1.4910 C   0  0  0  0  0
  -18.6180   28.8020    1.6800 O   0  0  0  0  0
  -20.2230   27.5360    0.3440 C   0  0  0  0  0
  -21.5670   27.9910    0.7040 N   0  0  0  0  0
  -22.3130   27.5910    1.7810 C   0  0  0  0  0
  -23.5150   28.1160    1.8270 N   0  0  0  0  0
  -23.5670   28.9180    0.6970 C   0  0  0  0  0
  -24.5890   29.7180    0.1440 C   0  0  0  0  0
  -25.8010   29.8550    0.6920 N   0  0  0  0  0
  -24.3260   30.3710   -1.0140 N   0  0  0  0  0
  -23.1140   30.2360   -1.5680 C   0  0  0  0  0
  -22.0750   29.5090   -1.1430 N   0  0  0  0  0
  -22.3690   28.8610    0.0000 C   0  0  0  0  0
  -17.4762   24.7150    7.8937 H   0  0  0  0  0
  -18.9302   22.8134    7.8977 H   0  0  0  0  0
  -20.0089   22.3220    6.0798 H   0  0  0  0  0
  -16.5601   23.3451    4.9654 H   0  0  0  0  0
  -18.0950   24.1129    5.6088 H   0  0  0  0  0
  -21.0013   22.0249    1.8780 H   0  0  0  0  0
  -19.9116   23.5132    0.1157 H   0  0  0  0  0
  -18.4980   23.6763    1.1783 H   0  0  0  0  0
  -18.5078   25.2042   -0.6711 H   0  0  0  0  0
  -17.7263   25.9744    1.8731 H   0  0  0  0  0
  -16.6058   27.5433    0.7987 H   0  0  0  0  0
  -19.6404   27.3018    2.4692 H   0  0  0  0  0
  -19.2879   29.4253    1.9702 H   0  0  0  0  0
  -19.8704   28.2492   -0.4011 H   0  0  0  0  0
  -21.9406   26.8969    2.5344 H   0  0  0  0  0
  -26.0275   29.3658    1.5579 H   0  0  0  0  0
  -26.4991   30.4487    0.2441 H   0  0  0  0  0
  -22.9526   30.7943   -2.4902 H   0  0  0  0  0
  1  2  2  0  0  0
  1  3  1  0  0  0
  1  4  1  0  0  0
  8  1  1  0  0  0
  5  6  2  0  0  0
  5  7  1  0  0  0
  5  8  1  0  0  0
 12  5  1  0  0  0
  9 10  2  0  0  0
  9 11  1  0  0  0
  9 12  1  0  0  0
  9 13  1  0  0  0
 13 14  1  0  0  0
 14 15  1  0  0  0
 15 16  1  0  0  0
 15 17  1  0  0  0
 16 21  1  0  0  0
 17 18  1  0  0  0
 17 19  1  0  0  0
 19 20  1  0  0  0
 19 21  1  0  0  0
 21 22  1  0  0  0
 22 23  4  0  0  0
 22 31  4  0  0  0
 23 24  4  0  0  0
 24 25  4  0  0  0
 25 26  4  0  0  0
 25 31  4  0  0  0
 26 27  1  0  0  0
 26 28  4  0  0  0
 28 29  4  0  0  0
 29 30  4  0  0  0
 30 31  4  0  0  0
  3 32  1  0  0  0
  4 33  1  0  0  0
  7 34  1  0  0  0
  8 35  1  0  0  0
  8 36  1  0  0  0
 11 37  1  0  0  0
 14 38  1  0  0  0
 14 39  1  0  0  0
 15 40  1  0  0  0
 17 41  1  0  0  0
 18 42  1  0  0  0
 19 43  1  0  0  0
 20 44  1  0  0  0
 21 45  1  0  0  0
 23 46  1  0  0  0
 27 47  1  0  0  0
 27 48  1  0  0  0
 29 49  1  0  0  0
M  END
$$$$
