### 
### Created by X-TOOL on Wed Jan  1 15:39:36 2020
### 

@<TRIPOS>MOLECULE
5od5_ligand
  106   116     1     0     0
SMALL
GAST_HUCK


@<TRIPOS>ATOM
      1 OAH        -9.9910   11.2360    1.0000 O.3       1 95B        -0.3312
      2 CBA        -9.0700   12.1000    0.5120 C.ar      1 95B         0.1379
      3 CAY        -7.8450   11.5390    0.1550 C.ar      1 95B         0.1223
      4 OAF        -7.7560   10.1840    0.3070 O.3       1 95B        -0.3357
      5 CAL        -6.8120   12.3550   -0.2640 C.ar      1 95B        -0.0372
      6 CAJ        -7.0190   13.7330   -0.3760 C.ar      1 95B        -0.0763
      7 CAN        -8.2400   14.2770   -0.0960 C.ar      1 95B        -0.0617
      8 CBC        -9.3020   13.4880    0.3770 C.ar      1 95B         0.0702
      9 CAW       -10.6420   14.1110    0.6340 C.2       1 95B         0.1987
     10 OAC       -10.7830   15.3290    0.4640 O.2       1 95B        -0.3910
     11 N         -11.6740   13.2690    0.8830 N.am      1 95B        -0.2670
     12 CA        -13.0990   13.6220    0.8830 C.3       1 95B         0.1302
     13 C         -13.7200   13.3780    2.2760 C.2       1 95B         0.2034
     14 OXT       -13.1750   14.0060    3.2170 O.2       1 95B        -0.3944
     15 CB        -13.9080   12.8620   -0.2170 C.3       1 95B        -0.0124
     16 CAP       -13.6140   11.3590   -0.4110 C.3       1 95B        -0.0470
     17 CAO       -14.0180   10.8700   -1.8080 C.3       1 95B        -0.0326
     18 CAQ       -14.0550    9.3670   -2.0890 C.3       1 95B         0.0301
     19 NAS       -12.7890    8.7190   -1.7690 N.am      1 95B        -0.2882
     20 CAV       -12.2110    7.7840   -2.5420 C.2       1 95B         0.1964
     21 OAB       -12.6790    7.4610   -3.6340 O.2       1 95B        -0.3912
     22 CBB       -11.0220    7.0580   -1.9970 C.ar      1 95B         0.0700
     23 CAM       -10.5840    5.8480   -2.5680 C.ar      1 95B        -0.0617
     24 CAI        -9.5170    5.1620   -2.0330 C.ar      1 95B        -0.0763
     25 CAK        -8.8340    5.6660   -0.9120 C.ar      1 95B        -0.0372
     26 CAX        -9.2570    6.8510   -0.3180 C.ar      1 95B         0.1223
     27 OAE        -8.7170    7.4270    0.8010 O.3       1 95B        -0.3357
     28 CAZ       -10.3440    7.5480   -0.8530 C.ar      1 95B         0.1379
     29 OAG       -10.6500    8.7240   -0.2310 O.3       1 95B        -0.3312
     30 N1        -14.7410   12.7510    2.7850 N.am      1 9RT        -0.2737
     31 C1        -15.8450   12.0660    3.4960 C.3       1 9RT         0.0645
     32 C2        -16.4080   10.8540    2.7810 C.ar      1 9RT        -0.0209
     33 C3        -16.4390    9.6110    3.3950 C.ar      1 9RT        -0.0567
     34 C4        -16.9520    8.5050    2.7430 C.ar      1 9RT        -0.0450
     35 C5        -17.4690    8.6430    1.4620 C.ar      1 9RT         0.0655
     36 S1        -18.1040    7.2280    0.6160 S.o2      1 9RT        -0.0635
     37 O1        -19.1360    6.6450    1.4150 O.2       1 9RT        -0.1851
     38 O2        -18.3620    7.5700   -0.7470 O.2       1 9RT        -0.1851
     39 N2        -16.8950    6.1670    0.5950 N.am      1 9RT        -0.5504
     40 C6        -15.5440    6.6540    0.8400 C.3       1 9RT        -0.0731
     41 C7        -14.4860    5.7440    0.2820 C.ar      1 9RT         0.0051
     42 C8        -13.1620    5.8770    0.6290 C.ar      1 9RT        -0.0395
     43 C9        -12.2440    5.0100    0.0770 C.ar      1 9RT        -0.0549
     44 C10       -12.6700    4.0550   -0.8170 C.ar      1 9RT        -0.0380
     45 C11       -14.0070    3.9820   -1.1050 C.ar      1 9RT         0.0284
     46 N3        -14.9110    4.8200   -0.5830 N.ar      1 9RT        -0.2980
     47 C12       -17.4250    9.8670    0.8220 C.ar      1 9RT        -0.0450
     48 C13       -16.9100   10.9630    1.4920 C.ar      1 9RT        -0.0567
     49 C17       -16.4430    2.3040    0.2730 C.ar      1 RIR        -0.0676
     50 C18       -16.1100    2.9170   -0.9020 C.ar      1 RIR        -0.0533
     51 C19       -17.1390    3.7510   -1.2530 C.ar      1 RIR        -0.0676
     52 C20       -18.1130    3.6540   -0.2910 C.ar      1 RIR        -0.0700
     53 C21       -17.6820    2.7640    0.6580 C.ar      1 RIR        -0.0700
     54 C22       -15.6130    1.2970    1.0130 C.3       1 RIR        -0.0435
     55 C23       -14.8410    2.7090   -1.6770 C.3       1 RIR         0.0149
     56 C24       -17.1870    4.6230   -2.4730 C.3       1 RIR        -0.0435
     57 C25       -19.4150    4.3900   -0.2710 C.3       1 RIR        -0.0442
     58 C26       -18.4380    2.3440    1.8840 C.3       1 RIR        -0.0442
     59 IR1       -16.4090    4.2950    0.5190 Ir        1 RIR         1.0000
     60 H1        -10.1810   10.5743    0.3453 H         1 95B         0.2472
     61 H2         -7.9008    9.9585    1.2184 H         1 95B         0.2443
     62 H3         -5.8450   11.9285   -0.5049 H         1 95B         0.0543
     63 H4         -6.2033   14.3753   -0.6878 H         1 95B         0.0508
     64 H5         -8.3931   15.3402   -0.2418 H         1 95B         0.0544
     65 H6        -11.4432   12.3174    1.0859 H         1 95B         0.1872
     66 H7        -13.1727   14.6974    0.6637 H         1 95B         0.0799
     67 H8        -13.7094   13.3625   -1.1762 H         1 95B         0.0312
     68 H9        -14.9748   12.9589    0.0332 H         1 95B         0.0312
     69 H10       -14.1763   10.7871    0.3418 H         1 95B         0.0268
     70 H11       -12.5364   11.1871   -0.2725 H         1 95B         0.0268
     71 H12       -13.3081   11.3133   -2.5218 H         1 95B         0.0285
     72 H13       -15.0277   11.2591   -2.0055 H         1 95B         0.0285
     73 H14       -14.2740    9.2106   -3.1556 H         1 95B         0.0519
     74 H15       -14.8504    8.9117   -1.4807 H         1 95B         0.0519
     75 H16       -12.3235    8.9858   -0.9251 H         1 95B         0.1840
     76 H17       -11.0929    5.4518   -3.4392 H         1 95B         0.0544
     77 H18        -9.2010    4.2261   -2.4794 H         1 95B         0.0508
     78 H19        -7.9797    5.1324   -0.5114 H         1 95B         0.0543
     79 H20        -9.1854    8.2291    1.0003 H         1 95B         0.2443
     80 H21        -9.9041    9.3102   -0.2799 H         1 95B         0.2472
     81 H22       -15.1337   12.5577    1.8859 H         1 95B         0.1878
     82 H23       -16.6615   12.7894    3.6374 H         1 95B         0.0683
     83 H24       -15.4696   11.7402    4.4773 H         1 95B         0.0683
     84 H25       -16.0546    9.5047    4.4030 H         1 95B         0.0558
     85 H26       -16.9505    7.5361    3.2290 H         1 95B         0.0618
     86 H28       -15.3940    6.7425    1.9261 H         1 9RT         0.0265
     87 H29       -15.4374    7.6443    0.3732 H         1 9RT         0.0265
     88 H30       -12.8468    6.6481    1.3226 H         1 9RT         0.0599
     89 H31       -11.1959    5.0798    0.3447 H         1 9RT         0.0704
     90 H32       -11.9643    3.3765   -1.2824 H         1 9RT         0.0594
     91 H34       -17.7899    9.9676   -0.1938 H         1 95B         0.0618
     92 H35       -16.8985   11.9282    0.9988 H         1 95B         0.0558
     93 H37       -14.6730    1.1251    0.4681 H         1 9RT         0.0375
     94 H38       -16.1688    0.3511    1.0927 H         1 9RT         0.0375
     95 H39       -15.3884    1.6764    2.0208 H         1 9RT         0.0375
     96 H40       -14.3573    1.7517   -1.4331 H         1 9RT         0.0602
     97 H41       -15.0024    2.7720   -2.7633 H         1 9RT         0.0602
     98 H42       -16.2644    4.4882   -3.0566 H         1 9RT         0.0375
     99 H43       -17.2772    5.6759   -2.1678 H         1 9RT         0.0375
    100 H44       -18.0545    4.3442   -3.0891 H         1 9RT         0.0375
    101 H45       -19.4864    5.0329   -1.1607 H         1 9RT         0.0371
    102 H46       -19.4715    5.0107    0.6354 H         1 9RT         0.0371
    103 H47       -20.2446    3.6677   -0.2730 H         1 9RT         0.0371
    104 H48       -17.8381    1.6196    2.4544 H         1 9RT         0.0371
    105 H49       -19.3894    1.8788    1.5867 H         1 9RT         0.0371
    106 H50       -18.6407    3.2256    2.5098 H         1 9RT         0.0371
@<TRIPOS>BOND
     1    2    1 1  
     2    2    3 ar 
     3    8    2 ar 
     4    3    4 1  
     5    3    5 ar 
     6    6    5 ar 
     7    7    6 ar 
     8    8    7 ar 
     9    9    8 1  
    10    9   10 2  
    11   11    9 am 
    12   12   11 1  
    13   13   12 1  
    14   12   15 1  
    15   13   14 2  
    16   30   13 am 
    17   15   16 1  
    18   16   17 1  
    19   17   18 1  
    20   18   19 1  
    21   19   20 am 
    22   20   21 2  
    23   20   22 1  
    24   22   23 ar 
    25   22   28 ar 
    26   23   24 ar 
    27   24   25 ar 
    28   26   25 ar 
    29   26   27 1  
    30   28   26 ar 
    31   28   29 1  
    32   31   30 1  
    33   32   31 1  
    34   33   32 ar 
    35   48   32 ar 
    36   34   33 ar 
    37   35   34 ar 
    38   36   35 1  
    39   35   47 ar 
    40   36   37 2  
    41   36   38 2  
    42   39   36 am 
    43   40   39 1  
    44   41   40 1  
    45   41   42 1  
    46   46   41 ar 
    47   43   42 1  
    48   44   43 1  
    49   45   44 ar 
    50   45   46 ar 
    51   55   45 1  
    52   47   48 ar 
    53   50   49 ar 
    54   49   53 ar 
    55   49   54 1  
    56   50   51 ar 
    57   50   55 1  
    58   51   52 ar 
    59   51   56 1  
    60   52   53 ar 
    61   52   57 1  
    62   53   58 1  
    63   39   59 1  
    64   59   46 1  
    65   59   53 1  
    66    1   60 1  
    67    4   61 1  
    68    5   62 1  
    69    6   63 1  
    70    7   64 1  
    71   11   65 1  
    72   12   66 1  
    73   15   67 1  
    74   15   68 1  
    75   16   69 1  
    76   16   70 1  
    77   17   71 1  
    78   17   72 1  
    79   18   73 1  
    80   18   74 1  
    81   19   75 1  
    82   23   76 1  
    83   24   77 1  
    84   25   78 1  
    85   27   79 1  
    86   29   80 1  
    87   30   81 1  
    88   31   82 1  
    89   31   83 1  
    90   33   84 1  
    91   34   85 1  
    92   51   59 1  
    93   40   86 1  
    94   40   87 1  
    95   42   88 1  
    96   43   89 1  
    97   44   90 1  
    98   50   59 1  
    99   47   91 1  
   100   48   92 1  
   101   59   49 1  
   102   54   93 1  
   103   54   94 1  
   104   54   95 1  
   105   55   96 1  
   106   55   97 1  
   107   56   98 1  
   108   56   99 1  
   109   56  100 1  
   110   57  101 1  
   111   57  102 1  
   112   57  103 1  
   113   58  104 1  
   114   58  105 1  
   115   58  106 1  
   116   52   59 1  
@<TRIPOS>SUBSTRUCTURE
     1 95B         1

