5od5_ligand
  -I-interpret- 

108118  0  0  0  0  0  0  0  0999 V2000
   -9.9910   11.2360    1.0000 O   0  0  0  0  0
   -9.0700   12.1000    0.5120 C   0  0  0  0  0
   -7.8450   11.5390    0.1550 C   0  0  0  0  0
   -7.7560   10.1840    0.3070 O   0  0  0  0  0
   -6.8120   12.3550   -0.2640 C   0  0  0  0  0
   -7.0190   13.7330   -0.3760 C   0  0  0  0  0
   -8.2400   14.2770   -0.0960 C   0  0  0  0  0
   -9.3020   13.4880    0.3770 C   0  0  0  0  0
  -10.6420   14.1110    0.6340 C   0  0  0  0  0
  -10.7830   15.3290    0.4640 O   0  0  0  0  0
  -11.6740   13.2690    0.8830 N   0  0  0  0  0
  -13.0990   13.6220    0.8830 C   0  0  0  0  0
  -13.7200   13.3780    2.2760 C   0  0  0  0  0
  -13.1750   14.0060    3.2170 O   0  0  0  0  0
  -13.9080   12.8620   -0.2170 C   0  0  0  0  0
  -13.6140   11.3590   -0.4110 C   0  0  0  0  0
  -14.0180   10.8700   -1.8080 C   0  0  0  0  0
  -14.0550    9.3670   -2.0890 C   0  0  0  0  0
  -12.7890    8.7190   -1.7690 N   0  0  0  0  0
  -12.2110    7.7840   -2.5420 C   0  0  0  0  0
  -12.6790    7.4610   -3.6340 O   0  0  0  0  0
  -11.0220    7.0580   -1.9970 C   0  0  0  0  0
  -10.5840    5.8480   -2.5680 C   0  0  0  0  0
   -9.5170    5.1620   -2.0330 C   0  0  0  0  0
   -8.8340    5.6660   -0.9120 C   0  0  0  0  0
   -9.2570    6.8510   -0.3180 C   0  0  0  0  0
   -8.7170    7.4270    0.8010 O   0  0  0  0  0
  -10.3440    7.5480   -0.8530 C   0  0  0  0  0
  -10.6500    8.7240   -0.2310 O   0  0  0  0  0
  -14.7410   12.7510    2.7850 N   0  0  0  0  0
  -15.8450   12.0660    3.4960 C   0  0  0  0  0
  -16.4080   10.8540    2.7810 C   0  0  0  0  0
  -16.4390    9.6110    3.3950 C   0  0  0  0  0
  -16.9520    8.5050    2.7430 C   0  0  0  0  0
  -17.4690    8.6430    1.4620 C   0  0  0  0  0
  -18.1040    7.2280    0.6160 S   0  0  0  0  0
  -19.1360    6.6450    1.4150 O   0  0  0  0  0
  -18.3620    7.5700   -0.7470 O   0  0  0  0  0
  -16.8950    6.1670    0.5950 N   0  0  0  0  0
  -15.5440    6.6540    0.8400 C   0  0  0  0  0
  -14.4860    5.7440    0.2820 C   0  0  0  0  0
  -13.1620    5.8770    0.6290 C   0  0  0  0  0
  -12.2440    5.0100    0.0770 C   0  0  0  0  0
  -12.6700    4.0550   -0.8170 C   0  0  0  0  0
  -14.0070    3.9820   -1.1050 C   0  0  0  0  0
  -14.9110    4.8200   -0.5830 N   0  0  0  0  0
  -17.4250    9.8670    0.8220 C   0  0  0  0  0
  -16.9100   10.9630    1.4920 C   0  0  0  0  0
  -16.4430    2.3040    0.2730 C   0  0  0  0  0
  -16.1100    2.9170   -0.9020 C   0  0  0  0  0
  -17.1390    3.7510   -1.2530 C   0  0  0  0  0
  -18.1130    3.6540   -0.2910 C   0  0  0  0  0
  -17.6820    2.7640    0.6580 C   0  0  0  0  0
  -15.6130    1.2970    1.0130 C   0  0  0  0  0
  -14.8410    2.7090   -1.6770 C   0  0  0  0  0
  -17.1870    4.6230   -2.4730 C   0  0  0  0  0
  -19.4150    4.3900   -0.2710 C   0  0  0  0  0
  -18.4380    2.3440    1.8840 C   0  0  0  0  0
  -16.4090    4.2950    0.5190 Ir  0  0  0  0  0
  -10.7948   11.7148    1.2153 H   0  0  0  0  0
   -6.8827    9.8897    0.0382 H   0  0  0  0  0
   -5.8396   11.9262   -0.5063 H   0  0  0  0  0
   -6.1988   14.3788   -0.6895 H   0  0  0  0  0
   -8.3939   15.3461   -0.2426 H   0  0  0  0  0
  -11.4386   12.2984    1.0900 H   0  0  0  0  0
  -13.1601   14.6840    0.6454 H   0  0  0  0  0
  -13.6372   13.3371   -1.1599 H   0  0  0  0  0
  -14.9507   12.9181    0.0956 H   0  0  0  0  0
  -14.1917   10.8008    0.3258 H   0  0  0  0  0
  -12.5417   11.2033   -0.2923 H   0  0  0  0  0
  -13.2486   11.2602   -2.4742 H   0  0  0  0  0
  -15.0480   11.2035   -1.9340 H   0  0  0  0  0
  -14.2515    9.2241   -3.1516 H   0  0  0  0  0
  -14.8315    8.9233   -1.4659 H   0  0  0  0  0
  -12.3142    8.9911   -0.9082 H   0  0  0  0  0
  -11.0957    5.4496   -3.4441 H   0  0  0  0  0
   -9.1992    4.2209   -2.4819 H   0  0  0  0  0
   -7.9749    5.1295   -0.5092 H   0  0  0  0  0
   -9.1903    8.2376    1.0024 H   0  0  0  0  0
  -10.0627    8.8510    0.5177 H   0  0  0  0  0
  -15.1416   12.5539    1.8679 H   0  0  0  0  0
  -16.6583   12.7862    3.5853 H   0  0  0  0  0
  -15.4393   11.7133    4.4442 H   0  0  0  0  0
  -16.0525    9.5041    4.4085 H   0  0  0  0  0
  -16.9505    7.5307    3.2317 H   0  0  0  0  0
  -15.4003    6.7103    1.9190 H   0  0  0  0  0
  -15.4442    7.6220    0.3490 H   0  0  0  0  0
  -13.1285    5.6810    1.7007 H   0  0  0  0  0
  -12.8721    6.8641    0.2689 H   0  0  0  0  0
  -11.8534    4.4440    0.9227 H   0  0  0  0  0
  -11.5710    5.6469   -0.4970 H   0  0  0  0  0
  -11.9604    3.3727   -1.2850 H   0  0  0  0  0
  -17.7919    9.9681   -0.1994 H   0  0  0  0  0
  -16.8985   11.9336    0.9960 H   0  0  0  0  0
  -15.4420    0.4298    0.3752 H   0  0  0  0  0
  -14.6568    1.7447    1.2837 H   0  0  0  0  0
  -16.1393    0.9874    1.9159 H   0  0  0  0  0
  -14.3639    1.7386   -1.5397 H   0  0  0  0  0
  -14.9559    2.6749   -2.7604 H   0  0  0  0  0
  -16.3538    5.3254   -2.4490 H   0  0  0  0  0
  -17.1143    4.0014   -3.3654 H   0  0  0  0  0
  -18.1276    5.1735   -2.4878 H   0  0  0  0  0
  -19.2241    5.4630   -0.2544 H   0  0  0  0  0
  -19.9885    4.1354   -1.1623 H   0  0  0  0  0
  -19.9778    4.1060    0.6182 H   0  0  0  0  0
  -18.6236    1.2706    1.8449 H   0  0  0  0  0
  -17.8498    2.5802    2.7707 H   0  0  0  0  0
  -19.3879    2.8771    1.9240 H   0  0  0  0  0
  2  1  1  0  0  0
  2  3  4  0  0  0
  8  2  4  0  0  0
  3  4  1  0  0  0
  3  5  4  0  0  0
  6  5  4  0  0  0
  7  6  4  0  0  0
  8  7  4  0  0  0
  9  8  1  0  0  0
  9 10  2  0  0  0
 11  9  1  0  0  0
 12 11  1  0  0  0
 13 12  1  0  0  0
 12 15  1  0  0  0
 13 14  2  0  0  0
 30 13  1  0  0  0
 15 16  1  0  0  0
 16 17  1  0  0  0
 17 18  1  0  0  0
 18 19  1  0  0  0
 19 20  1  0  0  0
 20 21  2  0  0  0
 20 22  1  0  0  0
 22 23  4  0  0  0
 22 28  4  0  0  0
 23 24  4  0  0  0
 24 25  4  0  0  0
 26 25  4  0  0  0
 26 27  1  0  0  0
 28 26  4  0  0  0
 28 29  1  0  0  0
 31 30  1  0  0  0
 32 31  1  0  0  0
 33 32  4  0  0  0
 48 32  4  0  0  0
 34 33  4  0  0  0
 35 34  4  0  0  0
 36 35  1  0  0  0
 35 47  4  0  0  0
 36 37  2  0  0  0
 36 38  2  0  0  0
 39 36  1  0  0  0
 40 39  1  0  0  0
 41 40  1  0  0  0
 41 42  1  0  0  0
 46 41  4  0  0  0
 43 42  1  0  0  0
 44 43  1  0  0  0
 45 44  4  0  0  0
 45 46  4  0  0  0
 55 45  1  0  0  0
 47 48  4  0  0  0
 50 49  4  0  0  0
 49 53  4  0  0  0
 49 54  1  0  0  0
 50 51  4  0  0  0
 50 55  1  0  0  0
 51 52  4  0  0  0
 51 56  1  0  0  0
 52 53  4  0  0  0
 52 57  1  0  0  0
 53 58  1  0  0  0
 39 59  1  0  0  0
 59 46  1  0  0  0
 59 53  1  0  0  0
 51 59  1  0  0  0
 50 59  1  0  0  0
 59 49  1  0  0  0
 52 59  1  0  0  0
  1 60  1  0  0  0
  4 61  1  0  0  0
  5 62  1  0  0  0
  6 63  1  0  0  0
  7 64  1  0  0  0
 11 65  1  0  0  0
 12 66  1  0  0  0
 15 67  1  0  0  0
 15 68  1  0  0  0
 16 69  1  0  0  0
 16 70  1  0  0  0
 17 71  1  0  0  0
 17 72  1  0  0  0
 18 73  1  0  0  0
 18 74  1  0  0  0
 19 75  1  0  0  0
 23 76  1  0  0  0
 24 77  1  0  0  0
 25 78  1  0  0  0
 27 79  1  0  0  0
 29 80  1  0  0  0
 30 81  1  0  0  0
 31 82  1  0  0  0
 31 83  1  0  0  0
 33 84  1  0  0  0
 34 85  1  0  0  0
 40 86  1  0  0  0
 40 87  1  0  0  0
 42 88  1  0  0  0
 42 89  1  0  0  0
 43 90  1  0  0  0
 43 91  1  0  0  0
 44 92  1  0  0  0
 47 93  1  0  0  0
 48 94  1  0  0  0
 54 95  1  0  0  0
 54 96  1  0  0  0
 54 97  1  0  0  0
 55 98  1  0  0  0
 55 99  1  0  0  0
 56100  1  0  0  0
 56101  1  0  0  0
 56102  1  0  0  0
 57103  1  0  0  0
 57104  1  0  0  0
 57105  1  0  0  0
 58106  1  0  0  0
 58107  1  0  0  0
 58108  1  0  0  0
M  END
$$$$
