2g9x_ligand
  -I-interpret- 

 66 69  0  0  0  0  0  0  0  0999 V2000
   -2.9360  -28.3320   26.8310 O   0  0  0  0  0
   -2.8770  -27.5210   25.6500 S   0  0  0  0  0
   -2.7900  -28.4260   24.5250 O   0  0  0  0  0
   -1.5680  -26.4910   25.7520 C   0  0  0  0  0
   -0.4450  -26.9770   24.8550 C   0  0  0  0  0
   -0.5150  -26.4000   23.5210 N   0  3  0  0  0
    0.7140  -25.9890   22.8510 C   0  0  0  0  0
    0.8080  -26.5510   21.4330 C   0  0  0  0  0
    1.1280  -28.0470   21.4110 C   0  0  0  0  0
    0.0470  -28.7930   21.9940 O   0  0  0  0  0
   -4.2310  -26.6820   25.4720 C   0  0  0  0  0
   -5.3430  -27.0140   26.2290 C   0  0  0  0  0
   -6.5350  -26.3140   26.0770 C   0  0  0  0  0
   -6.6500  -25.2680   25.1710 C   0  0  0  0  0
   -5.5380  -24.9280   24.4000 C   0  0  0  0  0
   -4.3370  -25.6330   24.5530 C   0  0  0  0  0
   -7.8540  -24.6440   25.0980 N   0  0  0  0  0
   -8.2000  -23.6080   24.2970 C   0  0  0  0  0
   -7.2940  -23.0690   23.4500 N   0  0  0  0  0
   -7.5790  -22.0300   22.6460 C   0  0  0  0  0
   -8.9400  -21.4760   22.6850 C   0  0  0  0  0
   -9.5900  -20.4930   22.0490 N   0  0  0  0  0
  -10.8510  -20.4910   22.5400 C   0  0  0  0  0
  -11.0330  -21.4570   23.4810 N   0  0  0  0  0
   -9.8830  -22.1090   23.6190 C   0  0  0  0  0
   -9.4650  -23.1400   24.3780 N   0  0  0  0  0
   -6.6440  -21.5150   21.8070 O   0  0  0  0  0
   -5.3010  -21.3330   22.2350 C   0  0  0  0  0
   -4.4120  -21.9920   21.1740 C   0  0  0  0  0
   -4.9830  -21.7410   19.7550 C   0  0  0  0  0
   -4.0310  -21.2700   18.6500 C   0  0  0  0  0
   -2.5620  -21.5290   18.9600 C   0  0  0  0  0
   -2.2300  -20.9160   20.3190 C   0  0  0  0  0
   -2.9340  -21.6660   21.4450 C   0  0  0  0  0
   -1.2146  -26.4654   26.7828 H   0  0  0  0  0
   -1.8732  -25.4946   25.4323 H   0  0  0  0  0
   -0.5321  -28.0594   24.7603 H   0  0  0  0  0
    0.5013  -26.6760   25.3045 H   0  0  0  0  0
   -1.0463  -25.5374   23.6395 H   0  0  0  0  0
   -0.8921  -27.1455   22.9358 H   0  0  0  0  0
    1.5589  -26.3692   23.4252 H   0  0  0  0  0
    0.7203  -24.9009   22.7876 H   0  0  0  0  0
    1.6146  -26.0285   20.9186 H   0  0  0  0  0
   -0.1595  -26.4085   20.9516 H   0  0  0  0  0
    2.0367  -28.2265   21.9856 H   0  0  0  0  0
    1.2672  -28.3674   20.3785 H   0  0  0  0  0
    0.2588  -29.7292   21.9747 H   0  0  0  0  0
   -5.2830  -27.8300   26.9491 H   0  0  0  0  0
   -7.3977  -26.5925   26.6822 H   0  0  0  0  0
   -5.6037  -24.1137   23.6784 H   0  0  0  0  0
   -3.4729  -25.3601   23.9472 H   0  0  0  0  0
   -8.5826  -24.9966   25.7187 H   0  0  0  0  0
  -11.6288  -19.7978   22.2197 H   0  0  0  0  0
   -5.1392  -21.7839   23.2141 H   0  0  0  0  0
   -5.0648  -20.2739   22.3385 H   0  0  0  0  0
   -4.4296  -23.0800   21.2378 H   0  0  0  0  0
   -5.6983  -20.9278   19.8777 H   0  0  0  0  0
   -5.3462  -22.7127   19.4203 H   0  0  0  0  0
   -4.1582  -20.1925   18.5461 H   0  0  0  0  0
   -4.2777  -21.8273   17.7463 H   0  0  0  0  0
   -1.9369  -21.0785   18.1890 H   0  0  0  0  0
   -2.3731  -22.6023   18.9829 H   0  0  0  0  0
   -2.5666  -19.8793   20.3261 H   0  0  0  0  0
   -1.1534  -20.9792   20.4770 H   0  0  0  0  0
   -2.4160  -22.6175   21.5648 H   0  0  0  0  0
   -2.9074  -21.0194   22.3221 H   0  0  0  0  0
  1  2  2  0  0  0
  2  3  2  0  0  0
  2  4  1  0  0  0
  2 11  1  0  0  0
  4  5  1  0  0  0
  5  6  1  0  0  0
  6  7  1  0  0  0
  7  8  1  0  0  0
  8  9  1  0  0  0
  9 10  1  0  0  0
 11 12  4  0  0  0
 11 16  4  0  0  0
 12 13  4  0  0  0
 13 14  4  0  0  0
 14 15  4  0  0  0
 14 17  1  0  0  0
 15 16  4  0  0  0
 17 18  1  0  0  0
 18 19  4  0  0  0
 18 26  4  0  0  0
 19 20  4  0  0  0
 20 21  4  0  0  0
 20 27  1  0  0  0
 21 22  4  0  0  0
 21 25  4  0  0  0
 22 23  4  0  0  0
 23 24  4  0  0  0
 24 25  4  0  0  0
 25 26  4  0  0  0
 27 28  1  0  0  0
 28 29  1  0  0  0
 29 30  1  0  0  0
 29 34  1  0  0  0
 30 31  1  0  0  0
 31 32  1  0  0  0
 32 33  1  0  0  0
 33 34  1  0  0  0
  4 35  1  0  0  0
  4 36  1  0  0  0
  5 37  1  0  0  0
  5 38  1  0  0  0
  6 39  1  0  0  0
  6 40  1  0  0  0
  7 41  1  0  0  0
  7 42  1  0  0  0
  8 43  1  0  0  0
  8 44  1  0  0  0
  9 45  1  0  0  0
  9 46  1  0  0  0
 10 47  1  0  0  0
 12 48  1  0  0  0
 13 49  1  0  0  0
 15 50  1  0  0  0
 16 51  1  0  0  0
 17 52  1  0  0  0
 23 53  1  0  0  0
 28 54  1  0  0  0
 28 55  1  0  0  0
 29 56  1  0  0  0
 30 57  1  0  0  0
 30 58  1  0  0  0
 31 59  1  0  0  0
 31 60  1  0  0  0
 32 61  1  0  0  0
 32 62  1  0  0  0
 33 63  1  0  0  0
 33 64  1  0  0  0
 34 65  1  0  0  0
 34 66  1  0  0  0
M  END
$$$$
