3ml5_ligand
  -I-interpret- 

 19 19  0  0  0  0  0  0  0  0999 V2000
   -2.5460   -2.7960   19.6090 C   0  0  0  0  0
   -4.5190   -2.4240   20.8150 C   0  0  0  0  0
   -6.6040   -1.1100   20.9090 C   0  0  0  0  0
   -7.7590   -0.8200   21.8100 C   0  0  0  0  0
    0.1220   -2.4650   19.3250 N   0  0  0  0  0
   -3.7630   -3.3400   21.3670 N   0  0  0  0  0
   -2.6110   -3.5520   20.6560 N   0  0  0  0  0
   -5.7180   -2.0670   21.3910 N   0  0  0  0  0
   -1.0470   -4.2190   18.1030 O   0  0  0  0  0
   -1.4030   -1.8260   17.5280 O   0  0  0  0  0
   -6.4290   -0.5650   19.8370 O   0  0  0  0  0
   -1.1590   -2.8480   18.4960 S   0  0  0  0  0
   -3.8800   -1.7330   19.3570 S   0  0  0  0  0
   -7.7427    0.2327   22.0921 H   0  0  0  0  0
   -8.6898   -1.0434   21.2887 H   0  0  0  0  0
   -7.6846   -1.4384   22.7045 H   0  0  0  0  0
    0.8483   -3.1614   19.4923 H   0  0  0  0  0
    0.2263   -1.5203   19.6952 H   0  0  0  0  0
   -5.9803   -2.5493   22.2507 H   0  0  0  0  0
  1  7  4  0  0  0
  1 12  1  0  0  0
 13  1  4  0  0  0
  2  6  4  0  0  0
  8  2  1  0  0  0
  2 13  4  0  0  0
  3  4  1  0  0  0
  3  8  1  0  0  0
  3 11  2  0  0  0
 12  5  1  0  0  0
  6  7  4  0  0  0
 12  9  2  0  0  0
 12 10  2  0  0  0
  4 14  1  0  0  0
  4 15  1  0  0  0
  4 16  1  0  0  0
  5 17  1  0  0  0
  5 18  1  0  0  0
  8 19  1  0  0  0
M  END
$$$$
