3e62_ligand
  -I-interpret- 

 16 17  0  0  0  0  0  0  0  0999 V2000
   33.7560   40.6770   36.4760 C   0  0  0  0  0
   33.1580   39.5960   37.1320 C   0  0  0  0  0
   33.4490   42.0510   36.3260 C   0  0  0  0  0
   32.3800   42.6610   36.8630 N   0  0  0  0  0
   33.7830   38.3500   37.0230 C   0  0  0  0  0
   34.9720   38.1490   36.3020 C   0  0  0  0  0
   32.9450   36.9070   37.9130 Br  0  0  0  0  0
   35.5840   39.2270   35.6420 C   0  0  0  0  0
   34.9400   40.4720   35.7550 C   0  0  0  0  0
   35.2370   41.7040   35.2440 N   0  0  0  0  0
   34.3560   42.6620   35.5880 N   0  0  0  0  0
   32.2399   39.7202   37.7062 H   0  0  0  0  0
   31.7181   42.1276   37.4267 H   0  0  0  0  0
   32.2299   43.6578   36.7072 H   0  0  0  0  0
   35.4195   37.1562   36.2549 H   0  0  0  0  0
   36.5064   39.1055   35.0741 H   0  0  0  0  0
  1  2  4  0  0  0
  1  3  4  0  0  0
  1  9  4  0  0  0
  2  5  4  0  0  0
  3  4  1  0  0  0
  3 11  4  0  0  0
  5  6  4  0  0  0
  5  7  1  0  0  0
  6  8  4  0  0  0
  8  9  4  0  0  0
  9 10  4  0  0  0
 10 11  4  0  0  0
  2 12  1  0  0  0
  4 13  1  0  0  0
  4 14  1  0  0  0
  6 15  1  0  0  0
  8 16  1  0  0  0
M  END
$$$$
