3okv_ligand
  -I-interpret- 

 53 56  0  0  0  0  0  0  0  0999 V2000
   -5.2380    5.8260   15.0670 C   0  0  0  0  0
   -1.2650    4.9030   10.2280 C   0  0  0  0  0
   -5.4230   -0.3350   16.4610 N   0  0  0  0  0
   -1.2530    5.0900    6.9310 O   0  0  0  0  0
   -5.4680    1.2950   18.3910 O   0  0  0  0  0
   -7.1130    1.6020   16.6270 O   0  0  0  0  0
   -4.0990    1.2730   14.2150 C   0  0  0  0  0
   -5.0260    3.5870   12.9930 C   0  0  0  0  0
   -5.9500    4.4720   15.1510 C   0  0  0  0  0
   -0.1020    3.1340    7.8800 C   0  0  0  0  0
   -3.1590    0.3170   12.1470 C   0  0  0  0  0
   -0.5010    2.3540    9.1530 C   0  0  0  0  0
   -2.5880    0.7560   10.8010 C   0  0  0  0  0
   -4.1630    4.2820   10.3470 C   0  0  0  0  0
   -3.4600    4.6200    9.0060 C   0  0  0  0  0
   -4.8710    2.0370   16.3160 O   0  0  0  0  0
   -1.1430    4.2610    7.8320 C   0  0  0  0  0
   -5.2030    3.4020   14.3680 C   0  0  0  0  0
   -3.8940    1.4600   12.8530 C   0  0  0  0  0
   -4.7770    2.2170   14.9520 C   0  0  0  0  0
   -4.3650    2.6170   12.2390 C   0  0  0  0  0
   -4.0750    2.7930   10.7490 C   0  0  0  0  0
   -2.6330    2.2690   10.6100 C   0  0  0  0  0
   -1.9950    2.6630    9.2790 C   0  0  0  0  0
   -2.0030    4.1600    9.0970 C   0  0  0  0  0
   -5.7530    1.1560   16.9260 S   0  0  0  0  0
   -4.2333    5.7329   15.4794 H   0  0  0  0  0
   -5.1768    6.1388   14.0246 H   0  0  0  0  0
   -5.7991    6.5661   15.6374 H   0  0  0  0  0
   -1.2844    5.9747   10.0300 H   0  0  0  0  0
   -1.7589    4.6987   11.1779 H   0  0  0  0  0
   -0.2316    4.5592   10.2730 H   0  0  0  0  0
   -5.0752   -1.0149   17.1371 H   0  0  0  0  0
   -5.5599   -0.6078   15.4877 H   0  0  0  0  0
   -3.7208    0.3741   14.7018 H   0  0  0  0  0
   -5.4042    4.4884   12.5108 H   0  0  0  0  0
   -6.9479    4.5788   14.7257 H   0  0  0  0  0
   -5.9937    4.1683   16.1969 H   0  0  0  0  0
   -0.1061    2.5139    6.9836 H   0  0  0  0  0
    0.9228    3.5039    7.9126 H   0  0  0  0  0
   -2.3327   -0.0028   12.7818 H   0  0  0  0  0
   -3.8699   -0.4903   11.9707 H   0  0  0  0  0
    0.0713    2.6510   10.0318 H   0  0  0  0  0
   -0.2909    1.2868    9.0824 H   0  0  0  0  0
   -3.1917    0.3007   10.0160 H   0  0  0  0  0
   -1.5444    0.4438   10.7615 H   0  0  0  0  0
   -5.2196    4.5210   10.2259 H   0  0  0  0  0
   -3.6625    4.8562   11.1267 H   0  0  0  0  0
   -3.5021    5.6936    8.8223 H   0  0  0  0  0
   -3.9616    4.1115    8.1827 H   0  0  0  0  0
   -4.7837    2.2701   10.1068 H   0  0  0  0  0
   -2.0460    2.7417   11.3975 H   0  0  0  0  0
   -2.5871    2.0924    8.5635 H   0  0  0  0  0
  9  1  1  0  0  0
 25  2  1  0  0  0
 26  3  1  0  0  0
 17  4  2  0  0  0
 26  5  2  0  0  0
 26  6  2  0  0  0
 19  7  4  0  0  0
  7 20  4  0  0  0
  8 18  4  0  0  0
 21  8  4  0  0  0
 18  9  1  0  0  0
 10 12  1  0  0  0
 17 10  1  0  0  0
 11 13  1  0  0  0
 19 11  1  0  0  0
 12 24  1  0  0  0
 13 23  1  0  0  0
 14 15  1  0  0  0
 22 14  1  0  0  0
 15 25  1  0  0  0
 20 16  1  0  0  0
 16 26  1  0  0  0
 25 17  1  0  0  0
 18 20  4  0  0  0
 21 19  4  0  0  0
 21 22  1  0  0  0
 22 23  1  0  0  0
 23 24  1  0  0  0
 24 25  1  0  0  0
  1 27  1  0  0  0
  1 28  1  0  0  0
  1 29  1  0  0  0
  2 30  1  0  0  0
  2 31  1  0  0  0
  2 32  1  0  0  0
  3 33  1  0  0  0
  3 34  1  0  0  0
  7 35  1  0  0  0
  8 36  1  0  0  0
  9 37  1  0  0  0
  9 38  1  0  0  0
 10 39  1  0  0  0
 10 40  1  0  0  0
 11 41  1  0  0  0
 11 42  1  0  0  0
 12 43  1  0  0  0
 12 44  1  0  0  0
 13 45  1  0  0  0
 13 46  1  0  0  0
 14 47  1  0  0  0
 14 48  1  0  0  0
 15 49  1  0  0  0
 15 50  1  0  0  0
 22 51  1  0  0  0
 23 52  1  0  0  0
 24 53  1  0  0  0
M  END
$$$$
