5cjf_ligand
  -I-interpret- 

 41 43  0  0  0  0  0  0  0  0999 V2000
   67.9780   39.2800   -6.5830 C   0  0  0  0  0
   69.0270   39.7780   -7.3480 C   0  0  0  0  0
   69.9060   38.9020   -7.9760 C   0  0  0  0  0
   70.9360   39.3900   -8.7260 N   0  0  0  0  0
   69.7360   37.5290   -7.8390 C   0  0  0  0  0
   68.6860   37.0310   -7.0740 C   0  0  0  0  0
   67.8080   37.9070   -6.4470 C   0  0  0  0  0
   66.6810   37.3720   -5.6230 C   0  0  0  0  0
   65.6350   37.0300   -6.1520 O   0  0  0  0  0
   66.8540   37.2640   -4.1430 C   0  0  0  0  0
   68.1090   37.4370   -3.5710 C   0  0  0  0  0
   68.2650   37.3430   -2.1920 C   0  0  0  0  0
   65.7550   36.9940   -3.3340 C   0  0  0  0  0
   65.9110   36.9000   -1.9560 C   0  0  0  0  0
   67.1670   37.0770   -1.3830 C   0  0  0  0  0
   67.3120   37.0170   -0.0020 C   0  0  0  0  0
   68.3770   37.6690    0.6120 C   0  0  0  0  0
   68.4900   37.6670    1.9980 C   0  0  0  0  0
   67.5390   37.0110    2.7710 C   0  0  0  0  0
   67.2770   38.4130    4.8830 O   0  0  0  0  0
   66.8330   36.0030    5.0410 O   0  0  0  0  0
   66.4800   36.3500    2.1590 C   0  0  0  0  0
   66.3680   36.3530    0.7720 C   0  0  0  0  0
   67.6430   37.0710    4.5260 S   0  0  0  0  0
   69.1600   36.8210    4.9250 N   0  0  0  0  0
   67.2892   39.9660   -6.0901 H   0  0  0  0  0
   69.1603   40.8545   -7.4554 H   0  0  0  0  0
   71.0614   40.3973   -8.8261 H   0  0  0  0  0
   71.5806   38.7475   -9.1865 H   0  0  0  0  0
   70.4253   36.8427   -8.3309 H   0  0  0  0  0
   68.5521   35.9546   -6.9665 H   0  0  0  0  0
   68.9716   37.6465   -4.2036 H   0  0  0  0  0
   69.2500   37.4782   -1.7453 H   0  0  0  0  0
   64.7706   36.8560   -3.7812 H   0  0  0  0  0
   65.0490   36.6875   -1.3236 H   0  0  0  0  0
   69.1236   38.1820    0.0058 H   0  0  0  0  0
   69.3237   38.1795    2.4779 H   0  0  0  0  0
   65.7382   35.8299    2.7651 H   0  0  0  0  0
   65.5386   35.8337    0.2919 H   0  0  0  0  0
   69.7017   37.5663    5.3626 H   0  0  0  0  0
   69.5924   35.9152    4.7436 H   0  0  0  0  0
  1  2  4  0  0  0
  1  7  4  0  0  0
  2  3  4  0  0  0
  3  4  1  0  0  0
  3  5  4  0  0  0
  5  6  4  0  0  0
  6  7  4  0  0  0
  7  8  1  0  0  0
  8  9  2  0  0  0
  8 10  1  0  0  0
 10 11  4  0  0  0
 10 13  4  0  0  0
 11 12  4  0  0  0
 12 15  4  0  0  0
 13 14  4  0  0  0
 14 15  4  0  0  0
 15 16  1  0  0  0
 16 17  4  0  0  0
 16 23  4  0  0  0
 17 18  4  0  0  0
 18 19  4  0  0  0
 19 22  4  0  0  0
 19 24  1  0  0  0
 24 20  2  0  0  0
 24 21  2  0  0  0
 22 23  4  0  0  0
 24 25  1  0  0  0
  1 26  1  0  0  0
  2 27  1  0  0  0
  4 28  1  0  0  0
  4 29  1  0  0  0
  5 30  1  0  0  0
  6 31  1  0  0  0
 11 32  1  0  0  0
 12 33  1  0  0  0
 13 34  1  0  0  0
 14 35  1  0  0  0
 17 36  1  0  0  0
 18 37  1  0  0  0
 22 38  1  0  0  0
 23 39  1  0  0  0
 25 40  1  0  0  0
 25 41  1  0  0  0
M  END
$$$$
