2b1q_ligand
  -I-interpret- 

 45 46  0  0  0  0  0  0  0  0999 V2000
   45.7210    1.4390   95.4410 C   0  0  0  0  0
   44.8050    1.7230   94.2200 C   0  0  0  0  0
   45.1410    0.6560   93.1350 C   0  0  0  0  0
   46.6210    0.8970   92.7430 C   0  0  0  0  0
   47.5470    0.6710   93.9890 C   0  0  0  0  0
   49.0150    0.9020   93.7600 C   0  0  0  0  0
   45.3590    0.1600   95.8730 O   0  0  0  0  0
   43.4830    1.5880   94.6420 O   0  0  0  0  0
   44.3320    0.8730   92.0230 O   0  0  0  0  0
   47.0540   -0.0010   91.7860 O   0  0  0  0  0
   47.1670    1.5390   95.0760 O   0  0  0  0  0
   49.1670    2.1530   93.0900 O   0  0  0  0  0
   45.9820   -0.4870   96.9840 C   0  0  0  0  0
   45.9320   -1.8380   97.7020 C   0  0  0  0  0
   44.4770   -1.9430   98.3430 C   0  0  0  0  0
   44.4250   -0.8410   99.4200 C   0  0  0  0  0
   44.5890    0.5730   98.7230 C   0  0  0  0  0
   44.5850    1.6960   99.7440 C   0  0  0  0  0
   46.0470   -2.7960   96.7240 O   0  0  0  0  0
   44.3390   -3.1600   98.9980 O   0  0  0  0  0
   43.1740   -0.8420  100.0820 O   0  0  0  0  0
   45.8560    0.5680   98.0210 O   0  0  0  0  0
   45.7530    1.5770  100.5310 O   0  0  0  0  0
   45.5904    2.1725   96.2366 H   0  0  0  0  0
   44.9529    2.7231   93.8126 H   0  0  0  0  0
   44.9798   -0.3593   93.4973 H   0  0  0  0  0
   46.6761    1.9168   92.3620 H   0  0  0  0  0
   47.4031   -0.3855   94.2153 H   0  0  0  0  0
   49.4321    0.0978   93.1539 H   0  0  0  0  0
   49.5460    0.9183   94.7118 H   0  0  0  0  0
   43.2919    2.2513   95.3092 H   0  0  0  0  0
   43.4143    0.7245   92.2625 H   0  0  0  0  0
   46.5186    0.0933   90.9948 H   0  0  0  0  0
   50.0994    2.3199   92.9339 H   0  0  0  0  0
   46.8052   -0.9047   96.4043 H   0  0  0  0  0
   46.7071   -1.9541   98.4595 H   0  0  0  0  0
   43.7031   -1.8482   97.5813 H   0  0  0  0  0
   45.2237   -1.0300  100.1373 H   0  0  0  0  0
   43.7550    0.7419   98.0418 H   0  0  0  0  0
   43.6983    1.6279  100.3743 H   0  0  0  0  0
   44.5680    2.6623   99.2400 H   0  0  0  0  0
   46.0209   -3.6672   97.1264 H   0  0  0  0  0
   43.4610   -3.2177   99.3820 H   0  0  0  0  0
   43.1644   -0.1494  100.7467 H   0  0  0  0  0
   45.7699    2.2797  101.1848 H   0  0  0  0  0
  1  2  1  0  0  0
  1  7  1  0  0  0
  1 11  1  0  0  0
  2  3  1  0  0  0
  2  8  1  0  0  0
  3  4  1  0  0  0
  3  9  1  0  0  0
  4  5  1  0  0  0
  4 10  1  0  0  0
  5  6  1  0  0  0
  5 11  1  0  0  0
  6 12  1  0  0  0
  7 13  1  0  0  0
 13 14  1  0  0  0
 13 22  1  0  0  0
 14 15  1  0  0  0
 14 19  1  0  0  0
 15 16  1  0  0  0
 15 20  1  0  0  0
 16 17  1  0  0  0
 16 21  1  0  0  0
 17 18  1  0  0  0
 17 22  1  0  0  0
 18 23  1  0  0  0
  1 24  1  0  0  0
  2 25  1  0  0  0
  3 26  1  0  0  0
  4 27  1  0  0  0
  5 28  1  0  0  0
  6 29  1  0  0  0
  6 30  1  0  0  0
  8 31  1  0  0  0
  9 32  1  0  0  0
 10 33  1  0  0  0
 12 34  1  0  0  0
 13 35  1  0  0  0
 14 36  1  0  0  0
 15 37  1  0  0  0
 16 38  1  0  0  0
 17 39  1  0  0  0
 18 40  1  0  0  0
 18 41  1  0  0  0
 19 42  1  0  0  0
 20 43  1  0  0  0
 21 44  1  0  0  0
 23 45  1  0  0  0
M  END
$$$$
