6apw_ligand
  -I-interpret- 

 54 57  0  0  0  0  0  0  0  0999 V2000
   54.0740   21.0410   18.5560 C   0  0  0  0  0
   54.5020   24.6820   19.5610 C   0  0  0  0  0
   55.1660   23.3650   17.5120 C   0  0  0  0  0
   52.6550   17.1330   17.8050 N   0  0  0  0  0
   49.0980   14.1950   25.1110 C   0  0  0  0  0
   47.7540   14.9230   23.4100 C   0  0  0  0  0
   47.6470   16.2780   22.9610 C   0  0  0  0  0
   49.0070   16.7920   22.2140 C   0  0  0  0  0
   49.1800   16.1690   20.8290 C   0  0  0  0  0
   49.8750   17.1160   19.8500 C   0  0  0  0  0
   49.8150   16.6080   18.4090 C   0  0  0  0  0
   50.1860   17.6910   17.3960 C   0  0  0  0  0
   51.6960   17.9340   17.3330 C   0  0  0  0  0
   52.3610   19.0690   16.7530 C   0  0  0  0  0
   54.7390   19.7240   16.5060 C   0  0  0  0  0
   54.6770   21.0250   17.3080 C   0  0  0  0  0
   54.0180   22.2200   19.2820 C   0  0  0  0  0
   54.5640   23.3820   18.7600 C   0  0  0  0  0
   55.2220   22.1870   16.7860 C   0  0  0  0  0
   46.4420   16.3750   25.2010 C   0  0  0  0  0
   46.8850   14.8520   24.8830 C   0  0  0  0  0
   49.0220   14.5230   23.6690 N   0  0  0  0  0
   53.6650   18.8410   16.9330 N   0  0  0  0  0
   53.8270   17.6890   17.5580 N   0  0  0  0  0
   47.6890   14.4350   25.7960 N   0  0  0  0  0
   50.0680   13.8110   25.6700 O   0  0  0  0  0
   53.4460   24.9950   20.1710 O   0  0  0  0  0
   55.5060   25.4390   19.6100 O   0  0  0  0  0
   47.3580   17.2130   24.3680 S   0  0  0  0  0
   53.6443   20.1270   18.9659 H   0  0  0  0  0
   55.5955   24.2789   17.1017 H   0  0  0  0  0
   47.3763   14.2717   22.6218 H   0  0  0  0  0
   46.8470   16.3718   22.2266 H   0  0  0  0  0
   49.8600   16.4981   22.8256 H   0  0  0  0  0
   48.9375   17.8729   22.0919 H   0  0  0  0  0
   48.1898   15.9413   20.4343 H   0  0  0  0  0
   49.7982   15.2774   20.9339 H   0  0  0  0  0
   50.9234   17.1908   20.1387 H   0  0  0  0  0
   49.3648   18.0783   19.8907 H   0  0  0  0  0
   48.7926   16.2901   18.2049 H   0  0  0  0  0
   50.5301   15.7916   18.3083 H   0  0  0  0  0
   49.7063   18.6203   17.7032 H   0  0  0  0  0
   49.8550   17.3609   16.4113 H   0  0  0  0  0
   51.9002   19.9307   16.2700 H   0  0  0  0  0
   55.6994   19.2373   16.6760 H   0  0  0  0  0
   54.6277   19.9453   15.4445 H   0  0  0  0  0
   53.5445   22.2335   20.2637 H   0  0  0  0  0
   55.6948   22.1740   15.8040 H   0  0  0  0  0
   46.5239   16.6112   26.2619 H   0  0  0  0  0
   45.3938   16.5540   24.9616 H   0  0  0  0  0
   46.0208   14.1893   24.8368 H   0  0  0  0  0
   49.7845   14.4594   22.9945 H   0  0  0  0  0
   47.4619   14.2862   26.7792 H   0  0  0  0  0
   52.7833   24.3147   20.0309 H   0  0  0  0  0
 16  1  4  0  0  0
  1 17  4  0  0  0
 18  2  1  0  0  0
  2 27  1  0  0  0
  2 28  2  0  0  0
  3 18  4  0  0  0
 19  3  4  0  0  0
 13  4  4  0  0  0
  4 24  4  0  0  0
 22  5  1  0  0  0
  5 25  1  0  0  0
  5 26  2  0  0  0
  7  6  1  0  0  0
  6 21  1  0  0  0
  6 22  1  0  0  0
  8  7  1  0  0  0
  7 29  1  0  0  0
  9  8  1  0  0  0
 10  9  1  0  0  0
 11 10  1  0  0  0
 12 11  1  0  0  0
 13 12  1  0  0  0
 14 13  4  0  0  0
 23 14  4  0  0  0
 16 15  1  0  0  0
 15 23  1  0  0  0
 16 19  4  0  0  0
 17 18  4  0  0  0
 21 20  1  0  0  0
 20 29  1  0  0  0
 21 25  1  0  0  0
 23 24  4  0  0  0
  1 30  1  0  0  0
  3 31  1  0  0  0
  6 32  1  0  0  0
  7 33  1  0  0  0
  8 34  1  0  0  0
  8 35  1  0  0  0
  9 36  1  0  0  0
  9 37  1  0  0  0
 10 38  1  0  0  0
 10 39  1  0  0  0
 11 40  1  0  0  0
 11 41  1  0  0  0
 12 42  1  0  0  0
 12 43  1  0  0  0
 14 44  1  0  0  0
 15 45  1  0  0  0
 15 46  1  0  0  0
 17 47  1  0  0  0
 19 48  1  0  0  0
 20 49  1  0  0  0
 20 50  1  0  0  0
 21 51  1  0  0  0
 22 52  1  0  0  0
 25 53  1  0  0  0
 27 54  1  0  0  0
M  END
$$$$
