### 
### Created by X-TOOL on Wed Jan  1 15:39:37 2020
### 

@<TRIPOS>MOLECULE
6apw_ligand
   52    55     1     0     0
SMALL
GAST_HUCK


@<TRIPOS>ATOM
      1 C16        54.0740   21.0410   18.5560 C.ar      1 BTV        -0.0537
      2 C19        54.5020   24.6820   19.5610 C.2       1 BTV         0.0584
      3 C22        55.1660   23.3650   17.5120 C.ar      1 BTV        -0.0542
      4 N25        52.6550   17.1330   17.8050 N.2       1 BTV        -0.2263
      5 C02        49.0980   14.1950   25.1110 C.2       1 BTV         0.2604
      6 C04        47.7540   14.9230   23.4100 C.3       1 BTV         0.0858
      7 C05        47.6470   16.2780   22.9610 C.3       1 BTV         0.0428
      8 C06        49.0070   16.7920   22.2140 C.3       1 BTV        -0.0362
      9 C07        49.1800   16.1690   20.8290 C.3       1 BTV        -0.0516
     10 C08        49.8750   17.1160   19.8500 C.3       1 BTV        -0.0517
     11 C09        49.8150   16.6080   18.4090 C.3       1 BTV        -0.0462
     12 C10        50.1860   17.6910   17.3960 C.3       1 BTV        -0.0185
     13 C11        51.6960   17.9340   17.3330 C.2       1 BTV         0.0372
     14 C12        52.3610   19.0690   16.7530 C.2       1 BTV         0.0718
     15 C14        54.7390   19.7240   16.5060 C.3       1 BTV         0.1101
     16 C15        54.6770   21.0250   17.3080 C.ar      1 BTV        -0.0073
     17 C17        54.0180   22.2200   19.2820 C.ar      1 BTV        -0.0542
     18 C18        54.5640   23.3820   18.7600 C.ar      1 BTV         0.0032
     19 C23        55.2220   22.1870   16.7860 C.ar      1 BTV        -0.0537
     20 C27        46.4420   16.3750   25.2010 C.2       1 BTV        -0.0349
     21 C28        46.8850   14.8520   24.8830 C.3       1 BTV         0.0844
     22 N03        49.0220   14.5230   23.6690 N.am      1 BTV        -0.2642
     23 N13        53.6650   18.8410   16.9330 N.pl3     1 BTV        -0.1695
     24 N24        53.8270   17.6890   17.5580 N.2       1 BTV        -0.0999
     25 N29        47.6890   14.4350   25.7960 N.am      1 BTV        -0.2593
     26 O01        50.0680   13.8110   25.6700 O.2       1 BTV        -0.4006
     27 O20        53.4460   24.9950   20.1710 O.co2     1 BTV        -0.5625
     28 O21        55.5060   25.4390   19.6100 O.co2     1 BTV        -0.5625
     29 S26        47.3580   17.2130   24.3680 S.3       1 BTV        -0.1260
     30 H1         53.6466   20.1320   18.9637 H         1 BTV         0.0565
     31 H2         55.5932   24.2739   17.1039 H         1 BTV         0.0634
     32 H3         47.3098   14.2519   22.6601 H         1 BTV         0.0617
     33 H4         46.8015   16.3719   22.2637 H         1 BTV         0.0469
     34 H5         49.8746   16.5220   22.8340 H         1 BTV         0.0279
     35 H6         48.9595   17.8857   22.1063 H         1 BTV         0.0279
     36 H7         48.1875   15.9132   20.4296 H         1 BTV         0.0266
     37 H8         49.7835   15.2544   20.9253 H         1 BTV         0.0266
     38 H9         50.9297   17.2183   20.1453 H         1 BTV         0.0266
     39 H10        49.3834   18.0988   19.8992 H         1 BTV         0.0266
     40 H11        48.7924   16.2620   18.1982 H         1 BTV         0.0281
     41 H12        50.5162   15.7674   18.3008 H         1 BTV         0.0281
     42 H13        49.6883   18.6291   17.6827 H         1 BTV         0.0380
     43 H14        49.8360   17.3795   16.4008 H         1 BTV         0.0380
     44 H15        51.9006   19.9299   16.2705 H         1 BTV         0.0901
     45 H16        55.7081   19.2328   16.6780 H         1 BTV         0.0819
     46 H17        54.6262   19.9475   15.4349 H         1 BTV         0.0819
     47 H18        53.5471   22.2334   20.2583 H         1 BTV         0.0634
     48 H19        55.6922   22.1740   15.8094 H         1 BTV         0.0565
     49 H20        45.6535   16.7138   25.8714 H         1 BTV         0.0362
     50 H21        46.0090   14.1914   24.8042 H         1 BTV         0.0725
     51 H22        49.7696   14.4607   23.0077 H         1 BTV         0.1852
     52 H23        47.4664   14.2891   26.7599 H         1 BTV         0.1882
@<TRIPOS>BOND
     1   16    1 ar 
     2    1   17 ar 
     3   18    2 1  
     4    2   27 ar 
     5    2   28 ar 
     6    3   18 ar 
     7   19    3 ar 
     8   13    4 1  
     9    4   24 2  
    10   22    5 am 
    11    5   25 am 
    12    5   26 2  
    13    7    6 1  
    14    6   21 1  
    15    6   22 1  
    16    8    7 1  
    17    7   29 1  
    18    9    8 1  
    19   10    9 1  
    20   11   10 1  
    21   12   11 1  
    22   13   12 1  
    23   14   13 2  
    24   23   14 1  
    25   16   15 1  
    26   15   23 1  
    27   16   19 ar 
    28   17   18 ar 
    29   21   20 1  
    30   20   29 1  
    31   21   25 1  
    32   23   24 1  
    33    1   30 1  
    34    3   31 1  
    35    6   32 1  
    36    7   33 1  
    37    8   34 1  
    38    8   35 1  
    39    9   36 1  
    40    9   37 1  
    41   10   38 1  
    42   10   39 1  
    43   11   40 1  
    44   11   41 1  
    45   12   42 1  
    46   12   43 1  
    47   14   44 1  
    48   15   45 1  
    49   15   46 1  
    50   17   47 1  
    51   19   48 1  
    52   20   49 1  
    53   21   50 1  
    54   22   51 1  
    55   25   52 1  
@<TRIPOS>SUBSTRUCTURE
     1 BTV         1

