### 
### Created by X-TOOL on Wed Jan  1 15:39:38 2020
### 

@<TRIPOS>MOLECULE
6ex0_ligand
   54    56     1     0     0
SMALL
GAST_HUCK


@<TRIPOS>ATOM
      1 PD         94.2080   18.4820   60.1740 P.3       1 C1Z         0.2069
      2 O1D        93.2080   18.5840   59.1160 O.co2     1 C1Z        -0.5891
      3 O2D        95.1710   19.5360   59.8630 O.co2     1 C1Z        -0.5891
      4 O3D        93.5000   18.9580   61.3720 O.co2     1 C1Z        -0.5891
      5 PG         87.2590   19.7740   55.7070 P.3       1 C1Z         0.1879
      6 O1G        87.6960   19.2560   54.4090 O.co2     1 C1Z        -0.6091
      7 O2G        85.9650   20.3860   55.4440 O.co2     1 C1Z        -0.6091
      8 O3G        86.9580   18.5710   56.4840 O.co2     1 C1Z        -0.6091
      9 PB         89.7480   20.2150   57.0410 P.3       1 C1Z         0.3553
     10 O1B        90.4710   21.2120   57.8240 O.co2     1 C1Z        -0.5652
     11 O2B        89.5000   19.1890   58.0400 O.co2     1 C1Z        -0.5652
     12 O3B        88.3280   20.7970   56.4500 O.3       1 C1Z        -0.1546
     13 O3A        90.6380   19.6050   55.7600 O.3       1 C1Z        -0.1171
     14 PA         90.7290   17.9500   55.5020 P.3       1 C1Z         0.3266
     15 O1A        89.3980   17.3460   55.3310 O.co2     1 C1Z        -0.5692
     16 O2A        91.3560   17.5470   54.2350 O.co2     1 C1Z        -0.5692
     17 O5'        91.5400   17.3380   56.8440 O.3       1 C1Z        -0.2441
     18 C5'        90.8970   16.3310   57.6220 C.3       1 C1Z         0.1135
     19 C4'        91.8220   15.1620   57.7060 C.3       1 C1Z         0.1244
     20 O4'        92.2570   14.6460   56.3570 O.3       1 C1Z        -0.3347
     21 C3'        93.0480   15.5780   58.3640 C.3       1 C1Z         0.1548
     22 O3'        92.7550   15.4970   59.7670 O.3       1 C1Z        -0.2374
     23 C2'        94.0420   14.6150   57.9730 C.3       1 C1Z         0.1456
     24 O2'        93.9480   13.4630   58.8940 O.3       1 C1Z        -0.3831
     25 C1'        93.6670   14.1740   56.6080 C.3       1 C1Z         0.2180
     26 N9         94.4980   14.6680   55.5480 N.pl3     1 C1Z        -0.1121
     27 C8         93.9600   15.1760   54.5720 C.2       1 C1Z         0.1656
     28 N7         94.8900   15.5640   53.6700 N.2       1 C1Z        -0.2182
     29 C5         96.1720   15.1230   54.3920 C.2       1 C1Z         0.2119
     30 C6         97.6050   15.2000   54.0400 C.3       1 C1Z         0.2134
     31 O6         97.9820   15.7820   52.8150 O.3       1 C1Z        -0.3453
     32 N1         98.6120   14.6660   54.9770 N.pl3     1 C1Z        -0.2902
     33 C2         98.2270   14.1260   56.1220 C.cat     1 C1Z         0.1692
     34 N2         99.2280   13.5970   57.0550 N.pl3     1 C1Z        -0.3505
     35 N3         96.7310   14.0330   56.5070 N.pl3     1 C1Z        -0.2143
     36 C4         95.7500   14.5540   55.5880 C.2       1 C1Z         0.3063
     37 PC         94.0390   15.6240   60.7900 P.3       1 C1Z         0.3279
     38 O1C        94.8240   14.3850   60.7470 O.co2     1 C1Z        -0.5556
     39 O2C        93.5820   15.6890   62.1700 O.co2     1 C1Z        -0.5556
     40 O3C        94.9000   16.9740   60.3400 O.3       1 C1Z        -0.1548
     41 H1         89.9553   16.0296   57.1400 H         1 C1Z         0.0648
     42 H2         90.6860   16.7149   58.6310 H         1 C1Z         0.0648
     43 H3         91.3313   14.3565   58.2720 H         1 C1Z         0.0655
     44 H4         93.3523   16.5962   58.0799 H         1 C1Z         0.0712
     45 H5         95.0526   15.0489   57.9892 H         1 C1Z         0.0681
     46 H6         94.1065   13.7564   59.7836 H         1 C1Z         0.2102
     47 H7         93.6999   13.0748   56.5816 H         1 C1Z         0.1015
     48 H8         92.8850   15.2980   54.4481 H         1 C1Z         0.1696
     49 H9         97.6773   16.1835   54.5273 H         1 C1Z         0.1220
     50 H10        97.2050   16.0667   52.3485 H         1 C1Z         0.2187
     51 H11        99.6133   14.7135   54.7401 H         1 C1Z         0.1767
     52 H12        98.9295   13.1764   57.9466 H         1 C1Z         0.1660
     53 H13       100.2293   13.6462   56.8184 H         1 C1Z         0.1660
     54 H14        96.4426   13.6083   57.4000 H         1 C1Z         0.2388
@<TRIPOS>BOND
     1    1    2 ar 
     2    1    3 ar 
     3    1    4 ar 
     4   40    1 1  
     5    5    6 ar 
     6    5    7 ar 
     7    5    8 ar 
     8   12    5 1  
     9    9   10 ar 
    10    9   11 ar 
    11    9   12 1  
    12   13    9 1  
    13   14   13 1  
    14   14   15 ar 
    15   14   16 ar 
    16   17   14 1  
    17   18   17 1  
    18   19   18 1  
    19   19   20 1  
    20   21   19 1  
    21   25   20 1  
    22   22   21 1  
    23   21   23 1  
    24   37   22 1  
    25   23   24 1  
    26   23   25 1  
    27   25   26 1  
    28   26   27 1  
    29   26   36 1  
    30   27   28 2  
    31   29   28 1  
    32   29   30 1  
    33   36   29 2  
    34   30   31 1  
    35   30   32 1  
    36   33   32 ar 
    37   33   34 ar 
    38   35   33 ar 
    39   36   35 1  
    40   37   38 ar 
    41   37   39 ar 
    42   37   40 1  
    43   18   41 1  
    44   18   42 1  
    45   19   43 1  
    46   21   44 1  
    47   23   45 1  
    48   24   46 1  
    49   25   47 1  
    50   27   48 1  
    51   30   49 1  
    52   31   50 1  
    53   32   51 1  
    54   34   52 1  
    55   34   53 1  
    56   35   54 1  
@<TRIPOS>SUBSTRUCTURE
     1 C1Z         1

