6ex0_ligand
  -I-interpret- 

 60 62  0  0  0  0  0  0  0  0999 V2000
   94.2080   18.4820   60.1740 P   0  0  0  0  0
   93.2080   18.5840   59.1160 O   0  0  0  0  0
   95.1710   19.5360   59.8630 O   0  0  0  0  0
   93.5000   18.9580   61.3720 O   0  0  0  0  0
   87.2590   19.7740   55.7070 P   0  0  0  0  0
   87.6960   19.2560   54.4090 O   0  0  0  0  0
   85.9650   20.3860   55.4440 O   0  0  0  0  0
   86.9580   18.5710   56.4840 O   0  0  0  0  0
   89.7480   20.2150   57.0410 P   0  0  0  0  0
   90.4710   21.2120   57.8240 O   0  0  0  0  0
   89.5000   19.1890   58.0400 O   0  0  0  0  0
   88.3280   20.7970   56.4500 O   0  0  0  0  0
   90.6380   19.6050   55.7600 O   0  0  0  0  0
   90.7290   17.9500   55.5020 P   0  0  0  0  0
   89.3980   17.3460   55.3310 O   0  0  0  0  0
   91.3560   17.5470   54.2350 O   0  0  0  0  0
   91.5400   17.3380   56.8440 O   0  0  0  0  0
   90.8970   16.3310   57.6220 C   0  0  0  0  0
   91.8220   15.1620   57.7060 C   0  0  0  0  0
   92.2570   14.6460   56.3570 O   0  0  0  0  0
   93.0480   15.5780   58.3640 C   0  0  0  0  0
   92.7550   15.4970   59.7670 O   0  0  0  0  0
   94.0420   14.6150   57.9730 C   0  0  0  0  0
   93.9480   13.4630   58.8940 O   0  0  0  0  0
   93.6670   14.1740   56.6080 C   0  0  0  0  0
   94.4980   14.6680   55.5480 N   0  0  0  0  0
   93.9600   15.1760   54.5720 C   0  0  0  0  0
   94.8900   15.5640   53.6700 N   0  0  0  0  0
   96.1720   15.1230   54.3920 C   0  0  0  0  0
   97.6050   15.2000   54.0400 C   0  0  0  0  0
   97.9820   15.7820   52.8150 O   0  0  0  0  0
   98.6120   14.6660   54.9770 N   0  0  0  0  0
   98.2270   14.1260   56.1220 C   0  0  0  0  0
   99.2280   13.5970   57.0550 N   0  0  0  0  0
   96.7310   14.0330   56.5070 N   0  0  0  0  0
   95.7500   14.5540   55.5880 C   0  0  0  0  0
   94.0390   15.6240   60.7900 P   0  0  0  0  0
   94.8240   14.3850   60.7470 O   0  0  0  0  0
   93.5820   15.6890   62.1700 O   0  0  0  0  0
   94.9000   16.9740   60.3400 O   0  0  0  0  0
   95.8694   19.5343   60.5217 H   0  0  0  0  0
   94.0922   18.9242   62.1269 H   0  0  0  0  0
   88.5526   18.8336   54.5062 H   0  0  0  0  0
   87.7758   18.1141   56.6939 H   0  0  0  0  0
   90.6960   21.9570   57.2619 H   0  0  0  0  0
   88.8614   17.5325   56.1049 H   0  0  0  0  0
   89.9555   16.0369   57.1581 H   0  0  0  0  0
   90.6716   16.7086   58.6194 H   0  0  0  0  0
   91.2736   14.3845   58.2378 H   0  0  0  0  0
   93.4010   16.5787   58.1146 H   0  0  0  0  0
   95.0523   15.0234   57.9986 H   0  0  0  0  0
   94.6044   12.8060   58.6509 H   0  0  0  0  0
   93.7838   13.0904   56.5906 H   0  0  0  0  0
   92.8840   15.2981   54.4479 H   0  0  0  0  0
   98.6819   15.2310   53.8741 H   0  0  0  0  0
   98.9381   15.7583   52.7315 H   0  0  0  0  0
   99.6035   14.7131   54.7424 H   0  0  0  0  0
  100.2195   13.6457   56.8207 H   0  0  0  0  0
   96.4454   13.6124   57.3913 H   0  0  0  0  0
   95.1707   14.2578   59.8609 H   0  0  0  0  0
  1  2  2  0  0  0
  1  3  1  0  0  0
  1  4  1  0  0  0
 40  1  1  0  0  0
  5  6  1  0  0  0
  5  7  2  0  0  0
  5  8  1  0  0  0
 12  5  1  0  0  0
  9 10  1  0  0  0
  9 11  2  0  0  0
  9 12  1  0  0  0
 13  9  1  0  0  0
 14 13  1  0  0  0
 14 15  1  0  0  0
 14 16  2  0  0  0
 17 14  1  0  0  0
 18 17  1  0  0  0
 19 18  1  0  0  0
 19 20  1  0  0  0
 21 19  1  0  0  0
 25 20  1  0  0  0
 22 21  1  0  0  0
 21 23  1  0  0  0
 37 22  1  0  0  0
 23 24  1  0  0  0
 23 25  1  0  0  0
 25 26  1  0  0  0
 26 27  4  0  0  0
 26 36  4  0  0  0
 27 28  4  0  0  0
 29 28  4  0  0  0
 29 30  1  0  0  0
 36 29  4  0  0  0
 30 31  1  0  0  0
 30 32  1  0  0  0
 33 32  1  0  0  0
 33 34  2  0  0  0
 35 33  1  0  0  0
 36 35  1  0  0  0
 37 38  1  0  0  0
 37 39  2  0  0  0
 37 40  1  0  0  0
  3 41  1  0  0  0
  4 42  1  0  0  0
  6 43  1  0  0  0
  8 44  1  0  0  0
 10 45  1  0  0  0
 15 46  1  0  0  0
 18 47  1  0  0  0
 18 48  1  0  0  0
 19 49  1  0  0  0
 21 50  1  0  0  0
 23 51  1  0  0  0
 24 52  1  0  0  0
 25 53  1  0  0  0
 27 54  1  0  0  0
 30 55  1  0  0  0
 31 56  1  0  0  0
 32 57  1  0  0  0
 34 58  1  0  0  0
 35 59  1  0  0  0
 38 60  1  0  0  0
M  END
$$$$
