### 
### Created by X-TOOL on Mon Sep 10 21:13:05 2018
### 

@<TRIPOS>MOLECULE
2rqu_ligand
  303   304     1     0     0
SMALL
GAST_HUCK


@<TRIPOS>ATOM
      1 N          17.5200    8.4010   14.0860 N.4       1 CYS         0.2385
      2 CA         18.4300    9.4360   13.5580 C.3       1 CYS         0.0739
      3 C          17.6350   10.5610   12.9140 C.2       1 CYS         0.2275
      4 O          16.9900   10.3570   11.8850 O.2       1 CYS        -0.3907
      5 CB         19.3620    8.8190   12.5150 C.3       1 CYS         0.0511
      6 SG         20.2360    7.3450   13.0870 S.3       1 CYS        -0.1701
      7 N          17.6700   11.7390   13.5250 N.am      1 ILE        -0.2607
      8 CA         17.0080   12.9010   12.9570 C.3       1 ILE         0.1336
      9 C          17.7150   13.3400   11.6880 C.2       1 ILE         0.2042
     10 O          18.9410   13.4840   11.6580 O.2       1 ILE        -0.3944
     11 CB         16.9580   14.0960   13.9360 C.3       1 ILE        -0.0037
     12 CG1        16.0160   13.8020   15.1010 C.3       1 ILE        -0.0491
     13 CG2        16.5260   15.3700   13.2160 C.3       1 ILE        -0.0582
     14 CD1        15.7670   15.0090   15.9780 C.3       1 ILE        -0.0648
     15 N          16.9410   13.5350   10.6440 N.am      1 ILE        -0.2635
     16 CA         17.4640   14.0530    9.4000 C.3       1 ILE         0.1335
     17 C          17.5700   15.5670    9.4860 C.2       1 ILE         0.2042
     18 O          16.6550   16.2190    9.9590 O.2       1 ILE        -0.3944
     19 CB         16.5790   13.6200    8.2010 C.3       1 ILE        -0.0037
     20 CG1        17.0740   12.2910    7.6350 C.3       1 ILE        -0.0491
     21 CG2        16.5270   14.6750    7.1100 C.3       1 ILE        -0.0582
     22 CD1        17.0140   11.1690    8.6350 C.3       1 ILE        -0.0648
     23 N          18.7240   16.0900    9.0990 N.am      1 SER        -0.2616
     24 CA         18.9560   17.5280    9.0060 C.3       1 SER         0.1539
     25 C          18.4570   18.2750   10.2500 C.2       1 SER         0.2062
     26 O          18.5990   17.8020   11.3860 O.2       1 SER        -0.3943
     27 CB         18.2450   18.0590    7.7570 C.3       1 SER         0.0843
     28 OG         18.7390   19.3350    7.3700 O.3       1 SER        -0.3903
     29 N          17.9130   19.4580   10.0130 N.am      1 ALA        -0.2639
     30 CA         17.2000   20.2130   11.0220 C.3       1 ALA         0.1282
     31 C          15.7090   20.1550   10.7150 C.2       1 ALA         0.2036
     32 O          15.3230   20.0130    9.5530 O.2       1 ALA        -0.3944
     33 CB         17.6810   21.6520   11.0410 C.3       1 ALA        -0.0244
     34 N          14.8830   20.2660   11.7480 N.am      1 MET        -0.2637
     35 CA         13.4340   20.1320   11.6060 C.3       1 MET         0.1319
     36 C          12.8650   21.0740   10.5500 C.2       1 MET         0.2064
     37 O          13.1730   22.2670   10.5340 O.2       1 MET        -0.3942
     38 CB         12.7430   20.3720   12.9520 C.3       1 MET        -0.0034
     39 CG         11.2380   20.5580   12.8430 C.3       1 MET        -0.0024
     40 SD         10.3450   19.7850   14.2000 S.3       1 MET        -0.1639
     41 CE         10.6850   18.0660   13.8430 C.3       1 MET        -0.0181
     42 N          12.0150   20.5370    9.6590 N.am      1 PRO        -0.2498
     43 CA         11.3500   21.3110    8.6320 C.3       1 PRO         0.1338
     44 C          10.1040   21.9830    9.1770 C.2       1 PRO         0.2042
     45 O           9.8030   21.8920   10.3720 O.2       1 PRO        -0.3944
     46 CB         10.9900   20.2610    7.5860 C.3       1 PRO        -0.0104
     47 CG         10.7620   19.0180    8.3670 C.3       1 PRO        -0.0281
     48 CD         11.6190   19.1190    9.6000 C.3       1 PRO         0.0369
     49 N           9.3800   22.6470    8.3110 N.am      1 THR        -0.2613
     50 CA          8.2220   23.3930    8.7290 C.3       1 THR         0.1565
     51 C           6.9610   22.7060    8.2480 C.2       1 THR         0.2065
     52 O           6.8780   22.2850    7.0920 O.2       1 THR        -0.3943
     53 CB          8.2620   24.8270    8.1760 C.3       1 THR         0.0924
     54 OG1         9.5790   25.3660    8.3360 O.3       1 THR        -0.3874
     55 CG2         7.2590   25.7170    8.8970 C.3       1 THR        -0.0346
     56 N           6.0020   22.5550    9.1460 N.am      1 LYS        -0.2637
     57 CA          4.7000   22.0550    8.7760 C.3       1 LYS         0.1310
     58 C           4.0980   23.0000    7.7510 C.2       1 LYS         0.2040
     59 O           3.7200   24.1250    8.0730 O.2       1 LYS        -0.3944
     60 CB          3.8030   21.9490   10.0020 C.3       1 LYS        -0.0122
     61 CG          2.5600   21.1200    9.7640 C.3       1 LYS        -0.0440
     62 CD          1.5990   21.2270   10.9290 C.3       1 LYS        -0.0124
     63 CE          2.1910   20.6490   12.2050 C.3       1 LYS        -0.0354
     64 NZ          1.3810   21.0070   13.3990 N.4       1 LYS         0.2185
     65 N           4.0400   22.5420    6.5170 N.am      1 SER        -0.2616
     66 CA          3.6600   23.3840    5.3880 C.3       1 SER         0.1539
     67 C           2.1990   23.8190    5.4400 C.2       1 SER         0.2062
     68 O           1.7610   24.6150    4.6080 O.2       1 SER        -0.3943
     69 CB          3.9230   22.6320    4.0910 C.3       1 SER         0.0843
     70 OG          3.4390   21.3040    4.1810 O.3       1 SER        -0.3903
     71 N           1.4690   23.3000    6.4270 N.am      1 SER        -0.2615
     72 CA          0.0290   23.5020    6.5390 C.3       1 SER         0.1539
     73 C          -0.6850   22.8080    5.3910 C.2       1 SER         0.2062
     74 O          -0.4860   23.1350    4.2230 O.2       1 SER        -0.3943
     75 CB         -0.3270   24.9870    6.5750 C.3       1 SER         0.0843
     76 OG          0.2110   25.6190    7.7300 O.3       1 SER        -0.3903
     77 N          -1.5040   21.8350    5.7260 N.am      1 ARG        -0.2637
     78 CA         -2.1530   21.0230    4.7190 C.3       1 ARG         0.1311
     79 C          -3.1470   21.8420    3.9100 C.2       1 ARG         0.2039
     80 O          -4.2390   22.1570    4.3760 O.2       1 ARG        -0.3944
     81 CB         -2.8230   19.8230    5.3740 C.3       1 ARG        -0.0092
     82 CG         -3.4300   18.8500    4.3870 C.3       1 ARG        -0.0156
     83 CD         -3.4800   17.4550    4.9750 C.3       1 ARG         0.0627
     84 NE         -4.4310   17.3370    6.0770 N.pl3     1 ARG        -0.2723
     85 CZ         -5.6860   16.9180    5.9290 C.cat     1 ARG         0.2882
     86 NH1        -6.1740   16.6770    4.7170 N.pl3     1 ARG        -0.2849
     87 NH2        -6.4500   16.7480    6.9940 N.pl3     1 ARG        -0.2849
     88 N          -2.7430   22.1700    2.6860 N.am      1 LYS        -0.2637
     89 CA         -3.5270   23.0080    1.7830 C.3       1 LYS         0.1310
     90 C          -4.8860   22.3750    1.5020 C.2       1 LYS         0.2039
     91 O          -5.8830   23.0700    1.2880 O.2       1 LYS        -0.3944
     92 CB         -2.7760   23.2170    0.4570 C.3       1 LYS        -0.0122
     93 CG         -1.3550   23.7690    0.5970 C.3       1 LYS        -0.0440
     94 CD         -0.3630   22.6970    1.0430 C.3       1 LYS        -0.0124
     95 CE          1.0550   23.2390    1.1680 C.3       1 LYS        -0.0354
     96 NZ          1.6480   23.5620   -0.1560 N.4       1 LYS         0.2185
     97 N          -4.9080   21.0500    1.5060 N.am      1 ALA        -0.2640
     98 CA         -6.1290   20.2940    1.2770 C.3       1 ALA         0.1282
     99 C          -7.1890   20.6090    2.3290 C.2       1 ALA         0.2036
    100 O          -8.3700   20.7430    2.0100 O.2       1 ALA        -0.3944
    101 CB         -5.8230   18.8050    1.2780 C.3       1 ALA        -0.0244
    102 N          -6.7690   20.7470    3.5800 N.am      1 LYS        -0.2637
    103 CA         -7.7150   20.9370    4.6690 C.3       1 LYS         0.1310
    104 C          -7.8690   22.4140    4.9980 C.2       1 LYS         0.2039
    105 O          -6.9190   23.1910    4.8960 O.2       1 LYS        -0.3944
    106 CB         -7.2800   20.1650    5.9220 C.3       1 LYS        -0.0122
    107 CG         -6.1610   20.8270    6.7150 C.3       1 LYS        -0.0440
    108 CD         -5.8860   20.0840    8.0120 C.3       1 LYS        -0.0124
    109 CE         -7.1540   19.9350    8.8460 C.3       1 LYS        -0.0354
    110 NZ         -6.9290   19.1320   10.0700 N.4       1 LYS         0.2185
    111 N          -9.0760   22.7990    5.3650 N.am      1 LYS        -0.2637
    112 CA         -9.3510   24.1590    5.7790 C.3       1 LYS         0.1312
    113 C          -9.6210   24.1850    7.2720 C.2       1 LYS         0.2064
    114 O         -10.3000   23.3000    7.7960 O.2       1 LYS        -0.3942
    115 CB        -10.5430   24.7410    5.0070 C.3       1 LYS        -0.0122
    116 CG        -10.1970   25.2250    3.6040 C.3       1 LYS        -0.0440
    117 CD         -9.7060   24.0960    2.7100 C.3       1 LYS        -0.0124
    118 CE         -9.2670   24.6100    1.3520 C.3       1 LYS        -0.0354
    119 NZ         -8.6860   23.5300    0.5110 N.4       1 LYS         0.2185
    120 N          -9.0570   25.1690    7.9820 N.am      1 PRO        -0.2498
    121 CA         -9.2600   25.3220    9.4230 C.3       1 PRO         0.1338
    122 C         -10.7200   25.6090    9.7580 C.2       1 PRO         0.2041
    123 O         -11.1590   26.7610    9.7310 O.2       1 PRO        -0.3944
    124 CB         -8.3720   26.5170    9.7980 C.3       1 PRO        -0.0104
    125 CG         -7.4200   26.6650    8.6590 C.3       1 PRO        -0.0281
    126 CD         -8.1660   26.2060    7.4430 C.3       1 PRO         0.0369
    127 N         -11.4670   24.5480   10.0470 N.am      1 ALA        -0.2640
    128 CA        -12.8790   24.6590   10.3880 C.3       1 ALA         0.1282
    129 C         -13.0800   25.5560   11.6090 C.2       1 ALA         0.2031
    130 O         -12.6310   25.2290   12.7090 O.2       1 ALA        -0.3944
    131 CB        -13.4650   23.2790   10.6470 C.3       1 ALA        -0.0244
    132 N         -13.7350   26.6910   11.4110 N.am      1 GLN        -0.2693
    133 CA        -13.9920   27.6220   12.4930 C.3       1 GLN         0.0964
    134 C         -15.4830   27.6720   12.7820 C.2       1 GLN         0.0602
    135 O         -16.2240   28.2750   11.9810 O.co2     1 GLN        -0.5666
    136 CB        -13.4740   29.0190   12.1370 C.3       1 GLN        -0.0010
    137 CG        -11.9570   29.1220   12.0870 C.3       1 GLN         0.0407
    138 CD        -11.3110   28.9430   13.4490 C.2       1 GLN         0.1737
    139 OE1       -10.9770   27.8300   13.8570 O.2       1 GLN        -0.3973
    140 NE2       -11.1250   30.0420   14.1640 N.am      1 GLN        -0.3009
    141 OXT       -15.9100   27.1080   13.8080 O.co2     1 GLN        -0.5666
    142 H1         18.0603    7.6628   14.5093 H         1 CYS         0.2015
    143 H2         16.9675    8.0232   13.3323 H         1 CYS         0.2015
    144 H3         16.9107    8.8101   14.7770 H         1 CYS         0.2015
    145 H4         19.0291    9.8442   14.3853 H         1 CYS         0.1106
    146 H5         20.1089    9.5743   12.2292 H         1 CYS         0.0455
    147 H6         18.7621    8.5450   11.6346 H         1 CYS         0.0455
    148 H7         20.8272    6.9984   12.3479 H         1 CYS         0.1020
    149 H8         18.1608   11.8282   14.3917 H         1 ILE         0.1885
    150 H9         15.9755   12.6158   12.7069 H         1 ILE         0.0803
    151 H10        17.9692   14.2528   14.3395 H         1 ILE         0.0345
    152 H11        16.4587   13.0059   15.7176 H         1 ILE         0.0267
    153 H12        15.0529   13.4588   14.6952 H         1 ILE         0.0267
    154 H13        17.2126   15.5695   12.3801 H         1 ILE         0.0235
    155 H14        16.5500   16.2150   13.9198 H         1 ILE         0.0235
    156 H15        15.5041   15.2439   12.8290 H         1 ILE         0.0235
    157 H16        15.0840   14.7338   16.7952 H         1 ILE         0.0230
    158 H17        15.3150   15.8119   15.3771 H         1 ILE         0.0230
    159 H18        16.7208   15.3590   16.3995 H         1 ILE         0.0230
    160 H19        15.9668   13.3198   10.7118 H         1 ILE         0.1883
    161 H20        18.4726   13.6415    9.2475 H         1 ILE         0.0803
    162 H21        15.5548   13.4737    8.5746 H         1 ILE         0.0345
    163 H22        18.1173   12.4152    7.3094 H         1 ILE         0.0267
    164 H23        16.4493   12.0236    6.7700 H         1 ILE         0.0267
    165 H24        16.1689   15.6244    7.5348 H         1 ILE         0.0235
    166 H25        15.8409   14.3471    6.3152 H         1 ILE         0.0235
    167 H26        17.5335   14.8179    6.6898 H         1 ILE         0.0235
    168 H27        17.3820   10.2428    8.1694 H         1 ILE         0.0230
    169 H28        15.9741   11.0260    8.9637 H         1 ILE         0.0230
    170 H29        17.6421   11.4176    9.5031 H         1 ILE         0.0230
    171 H30        19.4714   15.4703    8.8593 H         1 SER         0.1884
    172 H31        20.0372   17.7040    8.9062 H         1 SER         0.0823
    173 H32        17.1689   18.1432    7.9687 H         1 SER         0.0606
    174 H33        18.4018   17.3509    6.9300 H         1 SER         0.0606
    175 H34        18.2761   19.6308    6.5949 H         1 SER         0.2097
    176 H35        17.9982   19.8479    9.0961 H         1 ALA         0.1883
    177 H36        17.3840   19.7629   12.0087 H         1 ALA         0.0797
    178 H37        17.1310   22.2123   11.8114 H         1 ALA         0.0277
    179 H38        17.5037   22.1109   10.0572 H         1 ALA         0.0277
    180 H39        18.7570   21.6760   11.2683 H         1 ALA         0.0277
    181 H40        15.2647   20.4475   12.6543 H         1 MET         0.1883
    182 H41        13.2209   19.1007   11.2882 H         1 MET         0.0800
    183 H42        13.1725   21.2771   13.4062 H         1 MET         0.0320
    184 H43        12.9395   19.5068   13.6022 H         1 MET         0.0320
    185 H44        10.8956   20.1128   11.8972 H         1 MET         0.0378
    186 H45        11.0153   21.6352   12.8431 H         1 MET         0.0378
    187 H46        10.1989   17.4315   14.5987 H         1 MET         0.0340
    188 H47        11.7714   17.8949   13.8646 H         1 MET         0.0340
    189 H48        10.2938   17.8142   12.8462 H         1 MET         0.0340
    190 H49        12.0240   22.0723    8.2124 H         1 PRO         0.0802
    191 H50        11.8155   20.1251    6.8719 H         1 PRO         0.0313
    192 H51        10.0787   20.5508    7.0423 H         1 PRO         0.0313
    193 H52        11.0533   18.1387    7.7738 H         1 PRO         0.0287
    194 H53         9.7017   18.9359    8.6480 H         1 PRO         0.0287
    195 H54        11.0460   18.8377   10.4958 H         1 PRO         0.0524
    196 H55        12.5039   18.4715    9.5125 H         1 PRO         0.0524
    197 H56         9.6356   22.6356    7.3443 H         1 THR         0.1884
    198 H57         8.2091   23.4369    9.8280 H         1 THR         0.0826
    199 H58         8.0101   24.8021    7.1055 H         1 THR         0.0639
    200 H59         9.6011   26.2519    7.9936 H         1 THR         0.2101
    201 H60         7.3081   26.7349    8.4830 H         1 THR         0.0257
    202 H61         7.4992   25.7457    9.9701 H         1 THR         0.0257
    203 H62         6.2450   25.3135    8.7588 H         1 THR         0.0257
    204 H63         6.1828   22.7921   10.1005 H         1 LYS         0.1883
    205 H64         4.8083   21.0561    8.3282 H         1 LYS         0.0800
    206 H65         3.4952   22.9627   10.2982 H         1 LYS         0.0312
    207 H66         4.3794   21.4878   10.8175 H         1 LYS         0.0312
    208 H67         2.8504   20.0670    9.6341 H         1 LYS         0.0269
    209 H68         2.0595   21.4775    8.8521 H         1 LYS         0.0269
    210 H69         0.6786   20.6773   10.6829 H         1 LYS         0.0317
    211 H70         1.3592   22.2874   11.0964 H         1 LYS         0.0317
    212 H71         3.2101   21.0420   12.3349 H         1 LYS         0.0813
    213 H72         2.2291   19.5533   12.1157 H         1 LYS         0.0813
    214 H73         1.8026   20.6078   14.2230 H         1 LYS         0.1994
    215 H74         0.4461   20.6458   13.2914 H         1 LYS         0.1994
    216 H75         1.3451   22.0100   13.4923 H         1 LYS         0.1994
    217 H76         4.2646   21.5823    6.3482 H         1 SER         0.1884
    218 H77         4.2867   24.2878    5.4076 H         1 SER         0.0823
    219 H78         5.0057   22.6104    3.8982 H         1 SER         0.0606
    220 H79         3.4134   23.1477    3.2637 H         1 SER         0.0606
    221 H80         3.6109   20.8495    3.3647 H         1 SER         0.2097
    222 H81         1.9293   22.7474    7.1218 H         1 SER         0.1884
    223 H82        -0.3088   23.0476    7.4821 H         1 SER         0.0823
    224 H83        -1.4218   25.0930    6.5857 H         1 SER         0.0606
    225 H84         0.0799   25.4750    5.6771 H         1 SER         0.0606
    226 H85        -0.0258   26.5390    7.7255 H         1 SER         0.2097
    227 H86        -1.6814   21.6531    6.6932 H         1 ARG         0.1883
    228 H87        -1.3818   20.6501    4.0290 H         1 ARG         0.0800
    229 H88        -3.6216   20.1897    6.0356 H         1 ARG         0.0313
    230 H89        -2.0696   19.2876    5.9704 H         1 ARG         0.0313
    231 H90        -2.8193   18.8349    3.4722 H         1 ARG         0.0301
    232 H91        -4.4515   19.1751    4.1406 H         1 ARG         0.0301
    233 H92        -2.4780   17.1945    5.3466 H         1 ARG         0.0689
    234 H93        -3.7718   16.7502    4.1825 H         1 ARG         0.0689
    235 H94        -4.1126   17.5925    7.0227 H         1 ARG         0.2642
    236 H95        -7.1456   16.3530    4.6081 H         1 ARG         0.2615
    237 H96        -5.5807   16.8142    3.8863 H         1 ARG         0.2615
    238 H97        -6.0723   16.9347    7.9339 H         1 ARG         0.2615
    239 H98        -7.4231   16.4289    6.8841 H         1 ARG         0.2615
    240 H99        -1.8593   21.8260    2.3686 H         1 LYS         0.1883
    241 H100       -3.6840   23.9865    2.2604 H         1 LYS         0.0800
    242 H101       -3.3566   23.9217   -0.1564 H         1 LYS         0.0312
    243 H102       -2.7157   22.2466   -0.0574 H         1 LYS         0.0312
    244 H103       -1.3608   24.5785    1.3417 H         1 LYS         0.0269
    245 H104       -1.0321   24.1681   -0.3759 H         1 LYS         0.0269
    246 H105       -0.3665   21.8821    0.3041 H         1 LYS         0.0317
    247 H106       -0.6800   22.3064    2.0212 H         1 LYS         0.0317
    248 H107        1.6818   22.4823    1.6624 H         1 LYS         0.0813
    249 H108        1.0329   24.1532    1.7794 H         1 LYS         0.0813
    250 H109        2.5830   23.9162   -0.0280 H         1 LYS         0.1994
    251 H110        1.0843   24.2600   -0.6154 H         1 LYS         0.1994
    252 H111        1.6790   22.7289   -0.7226 H         1 LYS         0.1994
    253 H112       -4.0562   20.5532    1.6721 H         1 ALA         0.1883
    254 H113       -6.5279   20.5708    0.2900 H         1 ALA         0.0797
    255 H114       -6.7507   18.2399    1.1043 H         1 ALA         0.0277
    256 H115       -5.3962   18.5190    2.2506 H         1 ALA         0.0277
    257 H116       -5.1009   18.5785    0.4798 H         1 ALA         0.0277
    258 H117       -5.7890   20.7201    3.7771 H         1 LYS         0.1883
    259 H118       -8.6923   20.5493    4.3458 H         1 LYS         0.0800
    260 H119       -6.9360   19.1681    5.6092 H         1 LYS         0.0312
    261 H120       -8.1538   20.0610    6.5821 H         1 LYS         0.0312
    262 H121       -6.4523   21.8614    6.9500 H         1 LYS         0.0269
    263 H122       -5.2455   20.8334    6.1052 H         1 LYS         0.0269
    264 H123       -5.1385   20.6434    8.5937 H         1 LYS         0.0317
    265 H124       -5.4933   19.0840    7.7756 H         1 LYS         0.0317
    266 H125       -7.9236   19.4407    8.2349 H         1 LYS         0.0813
    267 H126       -7.5049   20.9356    9.1387 H         1 LYS         0.0813
    268 H127       -7.7908   19.0603   10.5879 H         1 LYS         0.1994
    269 H128       -6.2297   19.5795   10.6417 H         1 LYS         0.1994
    270 H129       -6.6134   18.2097    9.8135 H         1 LYS         0.1994
    271 H130       -9.8220   22.1331    5.3571 H         1 LYS         0.1883
    272 H131       -8.4655   24.7767    5.5686 H         1 LYS         0.0800
    273 H132      -10.9422   25.5924    5.5778 H         1 LYS         0.0312
    274 H133      -11.3146   23.9615    4.9233 H         1 LYS         0.0312
    275 H134       -9.4075   25.9874    3.6772 H         1 LYS         0.0269
    276 H135      -11.0955   25.6697    3.1513 H         1 LYS         0.0269
    277 H136      -10.5211   23.3707    2.5707 H         1 LYS         0.0317
    278 H137       -8.8532   23.6003    3.1968 H         1 LYS         0.0317
    279 H138       -8.5095   25.3943    1.4966 H         1 LYS         0.0813
    280 H139      -10.1394   25.0340    0.8333 H         1 LYS         0.0813
    281 H140       -8.4077   23.9108   -0.3798 H         1 LYS         0.1994
    282 H141       -9.3751   22.8085    0.3674 H         1 LYS         0.1994
    283 H142       -7.8814   23.1387    0.9752 H         1 LYS         0.1994
    284 H143       -8.9379   24.4154    9.9563 H         1 PRO         0.0802
    285 H144       -7.8279   26.3158   10.7326 H         1 PRO         0.0313
    286 H145       -8.9784   27.4272    9.9154 H         1 PRO         0.0313
    287 H146       -6.5290   26.0404    8.8205 H         1 PRO         0.0287
    288 H147       -7.1157   27.7162    8.5479 H         1 PRO         0.0287
    289 H148       -8.7414   27.0302    6.9963 H         1 PRO         0.0524
    290 H149       -7.4802   25.7880    6.6914 H         1 PRO         0.0524
    291 H150      -11.0448   23.6417   10.0297 H         1 ALA         0.1883
    292 H151      -13.4079   25.1098    9.5354 H         1 ALA         0.0797
    293 H152      -14.5304   23.3753   10.9033 H         1 ALA         0.0277
    294 H153      -12.9287   22.8036   11.4815 H         1 ALA         0.0277
    295 H154      -13.3597   22.6604    9.7435 H         1 ALA         0.0277
    296 H155      -14.0606   26.9113   10.4915 H         1 GLN         0.1875
    297 H156      -13.4672   27.2712   13.3938 H         1 GLN         0.0727
    298 H157      -13.8441   29.7280   12.8921 H         1 GLN         0.0330
    299 H158      -13.8721   29.2943   11.1492 H         1 GLN         0.0330
    300 H159      -11.6845   30.1135   11.6962 H         1 GLN         0.0504
    301 H160      -11.5738   28.3434   11.4110 H         1 GLN         0.0504
    302 H161      -10.7036   29.9843   15.0690 H         1 GLN         0.1814
    303 H162      -11.4059   30.9296   13.7989 H         1 GLN         0.1814
@<TRIPOS>BOND
     1    1    2 1  
     2    2    3 1  
     3    2    5 1  
     4    3    4 2  
     5    3    7 am 
     6    5    6 1  
     7    7    8 1  
     8    8    9 1  
     9    8   11 1  
    10    9   10 2  
    11    9   15 am 
    12   11   12 1  
    13   11   13 1  
    14   12   14 1  
    15   15   16 1  
    16   16   17 1  
    17   16   19 1  
    18   17   18 2  
    19   17   23 am 
    20   19   20 1  
    21   19   21 1  
    22   20   22 1  
    23   23   24 1  
    24   24   25 1  
    25   24   27 1  
    26   25   26 2  
    27   25   29 am 
    28   27   28 1  
    29   29   30 1  
    30   30   31 1  
    31   30   33 1  
    32   31   32 2  
    33   31   34 am 
    34   34   35 1  
    35   35   36 1  
    36   35   38 1  
    37   36   37 2  
    38   36   42 am 
    39   38   39 1  
    40   39   40 1  
    41   40   41 1  
    42   42   43 1  
    43   42   48 1  
    44   43   44 1  
    45   43   46 1  
    46   44   45 2  
    47   44   49 am 
    48   46   47 1  
    49   47   48 1  
    50   49   50 1  
    51   50   51 1  
    52   50   53 1  
    53   51   52 2  
    54   51   56 am 
    55   53   54 1  
    56   53   55 1  
    57   56   57 1  
    58   57   58 1  
    59   57   60 1  
    60   58   59 2  
    61   58   65 am 
    62   60   61 1  
    63   61   62 1  
    64   62   63 1  
    65   63   64 1  
    66   65   66 1  
    67   66   67 1  
    68   66   69 1  
    69   67   68 2  
    70   67   71 am 
    71   69   70 1  
    72   71   72 1  
    73   72   73 1  
    74   72   75 1  
    75   73   74 2  
    76   73   77 am 
    77   75   76 1  
    78   77   78 1  
    79   78   79 1  
    80   78   81 1  
    81   79   80 2  
    82   79   88 am 
    83   81   82 1  
    84   82   83 1  
    85   83   84 1  
    86   84   85 ar 
    87   85   86 ar 
    88   85   87 ar 
    89   88   89 1  
    90   89   90 1  
    91   89   92 1  
    92   90   91 2  
    93   90   97 am 
    94   92   93 1  
    95   93   94 1  
    96   94   95 1  
    97   95   96 1  
    98   97   98 1  
    99   98   99 1  
   100   98  101 1  
   101   99  100 2  
   102   99  102 am 
   103  102  103 1  
   104  103  104 1  
   105  103  106 1  
   106  104  105 2  
   107  104  111 am 
   108  106  107 1  
   109  107  108 1  
   110  108  109 1  
   111  109  110 1  
   112  111  112 1  
   113  112  113 1  
   114  112  115 1  
   115  113  114 2  
   116  113  120 am 
   117  115  116 1  
   118  116  117 1  
   119  117  118 1  
   120  118  119 1  
   121  120  121 1  
   122  120  126 1  
   123  121  122 1  
   124  121  124 1  
   125  122  123 2  
   126  122  127 am 
   127  124  125 1  
   128  125  126 1  
   129  127  128 1  
   130  128  129 1  
   131  128  131 1  
   132  129  130 2  
   133  129  132 am 
   134  132  133 1  
   135  133  134 1  
   136  133  136 1  
   137  134  135 ar 
   138  134  141 ar 
   139  136  137 1  
   140  137  138 1  
   141  138  139 2  
   142  138  140 am 
   143    1  142 1  
   144    1  143 1  
   145    1  144 1  
   146    2  145 1  
   147    5  146 1  
   148    5  147 1  
   149    6  148 1  
   150    7  149 1  
   151    8  150 1  
   152   11  151 1  
   153   12  152 1  
   154   12  153 1  
   155   13  154 1  
   156   13  155 1  
   157   13  156 1  
   158   14  157 1  
   159   14  158 1  
   160   14  159 1  
   161   15  160 1  
   162   16  161 1  
   163   19  162 1  
   164   20  163 1  
   165   20  164 1  
   166   21  165 1  
   167   21  166 1  
   168   21  167 1  
   169   22  168 1  
   170   22  169 1  
   171   22  170 1  
   172   23  171 1  
   173   24  172 1  
   174   27  173 1  
   175   27  174 1  
   176   28  175 1  
   177   29  176 1  
   178   30  177 1  
   179   33  178 1  
   180   33  179 1  
   181   33  180 1  
   182   34  181 1  
   183   35  182 1  
   184   38  183 1  
   185   38  184 1  
   186   39  185 1  
   187   39  186 1  
   188   41  187 1  
   189   41  188 1  
   190   41  189 1  
   191   43  190 1  
   192   46  191 1  
   193   46  192 1  
   194   47  193 1  
   195   47  194 1  
   196   48  195 1  
   197   48  196 1  
   198   49  197 1  
   199   50  198 1  
   200   53  199 1  
   201   54  200 1  
   202   55  201 1  
   203   55  202 1  
   204   55  203 1  
   205   56  204 1  
   206   57  205 1  
   207   60  206 1  
   208   60  207 1  
   209   61  208 1  
   210   61  209 1  
   211   62  210 1  
   212   62  211 1  
   213   63  212 1  
   214   63  213 1  
   215   64  214 1  
   216   64  215 1  
   217   64  216 1  
   218   65  217 1  
   219   66  218 1  
   220   69  219 1  
   221   69  220 1  
   222   70  221 1  
   223   71  222 1  
   224   72  223 1  
   225   75  224 1  
   226   75  225 1  
   227   76  226 1  
   228   77  227 1  
   229   78  228 1  
   230   81  229 1  
   231   81  230 1  
   232   82  231 1  
   233   82  232 1  
   234   83  233 1  
   235   83  234 1  
   236   84  235 1  
   237   86  236 1  
   238   86  237 1  
   239   87  238 1  
   240   87  239 1  
   241   88  240 1  
   242   89  241 1  
   243   92  242 1  
   244   92  243 1  
   245   93  244 1  
   246   93  245 1  
   247   94  246 1  
   248   94  247 1  
   249   95  248 1  
   250   95  249 1  
   251   96  250 1  
   252   96  251 1  
   253   96  252 1  
   254   97  253 1  
   255   98  254 1  
   256  101  255 1  
   257  101  256 1  
   258  101  257 1  
   259  102  258 1  
   260  103  259 1  
   261  106  260 1  
   262  106  261 1  
   263  107  262 1  
   264  107  263 1  
   265  108  264 1  
   266  108  265 1  
   267  109  266 1  
   268  109  267 1  
   269  110  268 1  
   270  110  269 1  
   271  110  270 1  
   272  111  271 1  
   273  112  272 1  
   274  115  273 1  
   275  115  274 1  
   276  116  275 1  
   277  116  276 1  
   278  117  277 1  
   279  117  278 1  
   280  118  279 1  
   281  118  280 1  
   282  119  281 1  
   283  119  282 1  
   284  119  283 1  
   285  121  284 1  
   286  124  285 1  
   287  124  286 1  
   288  125  287 1  
   289  125  288 1  
   290  126  289 1  
   291  126  290 1  
   292  127  291 1  
   293  128  292 1  
   294  131  293 1  
   295  131  294 1  
   296  131  295 1  
   297  132  296 1  
   298  133  297 1  
   299  136  298 1  
   300  136  299 1  
   301  137  300 1  
   302  137  301 1  
   303  140  302 1  
   304  140  303 1  
@<TRIPOS>SUBSTRUCTURE
     1 CYS         1

