2rqu_ligand
  -I-interpret- 

303304  0  0  0  0  0  0  0  0999 V2000
   17.5200    8.4010   14.0860 N   0  3  0  0  0
   18.4300    9.4360   13.5580 C   0  0  0  0  0
   17.6350   10.5610   12.9140 C   0  0  0  0  0
   16.9900   10.3570   11.8850 O   0  0  0  0  0
   19.3620    8.8190   12.5150 C   0  0  0  0  0
   20.2360    7.3450   13.0870 S   0  0  0  0  0
   17.6700   11.7390   13.5250 N   0  0  0  0  0
   17.0080   12.9010   12.9570 C   0  0  0  0  0
   17.7150   13.3400   11.6880 C   0  0  0  0  0
   18.9410   13.4840   11.6580 O   0  0  0  0  0
   16.9580   14.0960   13.9360 C   0  0  0  0  0
   16.0160   13.8020   15.1010 C   0  0  0  0  0
   16.5260   15.3700   13.2160 C   0  0  0  0  0
   15.7670   15.0090   15.9780 C   0  0  0  0  0
   16.9410   13.5350   10.6440 N   0  0  0  0  0
   17.4640   14.0530    9.4000 C   0  0  0  0  0
   17.5700   15.5670    9.4860 C   0  0  0  0  0
   16.6550   16.2190    9.9590 O   0  0  0  0  0
   16.5790   13.6200    8.2010 C   0  0  0  0  0
   17.0740   12.2910    7.6350 C   0  0  0  0  0
   16.5270   14.6750    7.1100 C   0  0  0  0  0
   17.0140   11.1690    8.6350 C   0  0  0  0  0
   18.7240   16.0900    9.0990 N   0  0  0  0  0
   18.9560   17.5280    9.0060 C   0  0  0  0  0
   18.4570   18.2750   10.2500 C   0  0  0  0  0
   18.5990   17.8020   11.3860 O   0  0  0  0  0
   18.2450   18.0590    7.7570 C   0  0  0  0  0
   18.7390   19.3350    7.3700 O   0  0  0  0  0
   17.9130   19.4580   10.0130 N   0  0  0  0  0
   17.2000   20.2130   11.0220 C   0  0  0  0  0
   15.7090   20.1550   10.7150 C   0  0  0  0  0
   15.3230   20.0130    9.5530 O   0  0  0  0  0
   17.6810   21.6520   11.0410 C   0  0  0  0  0
   14.8830   20.2660   11.7480 N   0  0  0  0  0
   13.4340   20.1320   11.6060 C   0  0  0  0  0
   12.8650   21.0740   10.5500 C   0  0  0  0  0
   13.1730   22.2670   10.5340 O   0  0  0  0  0
   12.7430   20.3720   12.9520 C   0  0  0  0  0
   11.2380   20.5580   12.8430 C   0  0  0  0  0
   10.3450   19.7850   14.2000 S   0  0  0  0  0
   10.6850   18.0660   13.8430 C   0  0  0  0  0
   12.0150   20.5370    9.6590 N   0  0  0  0  0
   11.3500   21.3110    8.6320 C   0  0  0  0  0
   10.1040   21.9830    9.1770 C   0  0  0  0  0
    9.8030   21.8920   10.3720 O   0  0  0  0  0
   10.9900   20.2610    7.5860 C   0  0  0  0  0
   10.7620   19.0180    8.3670 C   0  0  0  0  0
   11.6190   19.1190    9.6000 C   0  0  0  0  0
    9.3800   22.6470    8.3110 N   0  0  0  0  0
    8.2220   23.3930    8.7290 C   0  0  0  0  0
    6.9610   22.7060    8.2480 C   0  0  0  0  0
    6.8780   22.2850    7.0920 O   0  0  0  0  0
    8.2620   24.8270    8.1760 C   0  0  0  0  0
    9.5790   25.3660    8.3360 O   0  0  0  0  0
    7.2590   25.7170    8.8970 C   0  0  0  0  0
    6.0020   22.5550    9.1460 N   0  0  0  0  0
    4.7000   22.0550    8.7760 C   0  0  0  0  0
    4.0980   23.0000    7.7510 C   0  0  0  0  0
    3.7200   24.1250    8.0730 O   0  0  0  0  0
    3.8030   21.9490   10.0020 C   0  0  0  0  0
    2.5600   21.1200    9.7640 C   0  0  0  0  0
    1.5990   21.2270   10.9290 C   0  0  0  0  0
    2.1910   20.6490   12.2050 C   0  0  0  0  0
    1.3810   21.0070   13.3990 N   0  3  0  0  0
    4.0400   22.5420    6.5170 N   0  0  0  0  0
    3.6600   23.3840    5.3880 C   0  0  0  0  0
    2.1990   23.8190    5.4400 C   0  0  0  0  0
    1.7610   24.6150    4.6080 O   0  0  0  0  0
    3.9230   22.6320    4.0910 C   0  0  0  0  0
    3.4390   21.3040    4.1810 O   0  0  0  0  0
    1.4690   23.3000    6.4270 N   0  0  0  0  0
    0.0290   23.5020    6.5390 C   0  0  0  0  0
   -0.6850   22.8080    5.3910 C   0  0  0  0  0
   -0.4860   23.1350    4.2230 O   0  0  0  0  0
   -0.3270   24.9870    6.5750 C   0  0  0  0  0
    0.2110   25.6190    7.7300 O   0  0  0  0  0
   -1.5040   21.8350    5.7260 N   0  0  0  0  0
   -2.1530   21.0230    4.7190 C   0  0  0  0  0
   -3.1470   21.8420    3.9100 C   0  0  0  0  0
   -4.2390   22.1570    4.3760 O   0  0  0  0  0
   -2.8230   19.8230    5.3740 C   0  0  0  0  0
   -3.4300   18.8500    4.3870 C   0  0  0  0  0
   -3.4800   17.4550    4.9750 C   0  0  0  0  0
   -4.4310   17.3370    6.0770 N   0  0  0  0  0
   -5.6860   16.9180    5.9290 C   0  0  0  0  0
   -6.1740   16.6770    4.7170 N   0  0  0  0  0
   -6.4500   16.7480    6.9940 N   0  0  0  0  0
   -2.7430   22.1700    2.6860 N   0  0  0  0  0
   -3.5270   23.0080    1.7830 C   0  0  0  0  0
   -4.8860   22.3750    1.5020 C   0  0  0  0  0
   -5.8830   23.0700    1.2880 O   0  0  0  0  0
   -2.7760   23.2170    0.4570 C   0  0  0  0  0
   -1.3550   23.7690    0.5970 C   0  0  0  0  0
   -0.3630   22.6970    1.0430 C   0  0  0  0  0
    1.0550   23.2390    1.1680 C   0  0  0  0  0
    1.6480   23.5620   -0.1560 N   0  3  0  0  0
   -4.9080   21.0500    1.5060 N   0  0  0  0  0
   -6.1290   20.2940    1.2770 C   0  0  0  0  0
   -7.1890   20.6090    2.3290 C   0  0  0  0  0
   -8.3700   20.7430    2.0100 O   0  0  0  0  0
   -5.8230   18.8050    1.2780 C   0  0  0  0  0
   -6.7690   20.7470    3.5800 N   0  0  0  0  0
   -7.7150   20.9370    4.6690 C   0  0  0  0  0
   -7.8690   22.4140    4.9980 C   0  0  0  0  0
   -6.9190   23.1910    4.8960 O   0  0  0  0  0
   -7.2800   20.1650    5.9220 C   0  0  0  0  0
   -6.1610   20.8270    6.7150 C   0  0  0  0  0
   -5.8860   20.0840    8.0120 C   0  0  0  0  0
   -7.1540   19.9350    8.8460 C   0  0  0  0  0
   -6.9290   19.1320   10.0700 N   0  3  0  0  0
   -9.0760   22.7990    5.3650 N   0  0  0  0  0
   -9.3510   24.1590    5.7790 C   0  0  0  0  0
   -9.6210   24.1850    7.2720 C   0  0  0  0  0
  -10.3000   23.3000    7.7960 O   0  0  0  0  0
  -10.5430   24.7410    5.0070 C   0  0  0  0  0
  -10.1970   25.2250    3.6040 C   0  0  0  0  0
   -9.7060   24.0960    2.7100 C   0  0  0  0  0
   -9.2670   24.6100    1.3520 C   0  0  0  0  0
   -8.6860   23.5300    0.5110 N   0  3  0  0  0
   -9.0570   25.1690    7.9820 N   0  0  0  0  0
   -9.2600   25.3220    9.4230 C   0  0  0  0  0
  -10.7200   25.6090    9.7580 C   0  0  0  0  0
  -11.1590   26.7610    9.7310 O   0  0  0  0  0
   -8.3720   26.5170    9.7980 C   0  0  0  0  0
   -7.4200   26.6650    8.6590 C   0  0  0  0  0
   -8.1660   26.2060    7.4430 C   0  0  0  0  0
  -11.4670   24.5480   10.0470 N   0  0  0  0  0
  -12.8790   24.6590   10.3880 C   0  0  0  0  0
  -13.0800   25.5560   11.6090 C   0  0  0  0  0
  -12.6310   25.2290   12.7090 O   0  0  0  0  0
  -13.4650   23.2790   10.6470 C   0  0  0  0  0
  -13.7350   26.6910   11.4110 N   0  0  0  0  0
  -13.9920   27.6220   12.4930 C   0  0  0  0  0
  -15.4830   27.6720   12.7820 C   0  0  0  0  0
  -16.2240   28.2750   11.9810 O   0  0  0  0  0
  -13.4740   29.0190   12.1370 C   0  0  0  0  0
  -11.9570   29.1220   12.0870 C   0  0  0  0  0
  -11.3110   28.9430   13.4490 C   0  0  0  0  0
  -10.9770   27.8300   13.8570 O   0  0  0  0  0
  -11.1250   30.0420   14.1640 N   0  0  0  0  0
  -15.9100   27.1080   13.8080 O   0  0  0  0  0
   16.9004    8.8173   14.7812 H   0  0  0  0  0
   16.9652    8.0157   13.3217 H   0  0  0  0  0
   18.0676    7.6572   14.5188 H   0  0  0  0  0
   19.0153    9.8393   14.3844 H   0  0  0  0  0
   20.1163    9.5678   12.2734 H   0  0  0  0  0
   18.7448    8.5196   11.6679 H   0  0  0  0  0
   21.0161    6.8876   12.1117 H   0  0  0  0  0
   18.1706   11.8300   14.4090 H   0  0  0  0  0
   15.9835   12.5983   12.7403 H   0  0  0  0  0
   17.9622   14.2473   14.3320 H   0  0  0  0  0
   16.4807   13.0330   15.7181 H   0  0  0  0  0
   15.0582   13.4913   14.6836 H   0  0  0  0  0
   17.2373   15.5958   12.4216 H   0  0  0  0  0
   15.5344   15.2251   12.7872 H   0  0  0  0  0
   16.4987   16.1960   13.9267 H   0  0  0  0  0
   16.7128   15.3548   16.3950 H   0  0  0  0  0
   15.3192   15.8038   15.3814 H   0  0  0  0  0
   15.0902   14.7351   16.7873 H   0  0  0  0  0
   15.9473   13.3155   10.7132 H   0  0  0  0  0
   18.4586   13.6394    9.2333 H   0  0  0  0  0
   15.5625   13.4978    8.5750 H   0  0  0  0  0
   18.1162   12.4213    7.3435 H   0  0  0  0  0
   16.4286   12.0251    6.7978 H   0  0  0  0  0
   16.1145   15.5978    7.5180 H   0  0  0  0  0
   17.5343   14.8597    6.7366 H   0  0  0  0  0
   15.8950   14.3222    6.2950 H   0  0  0  0  0
   17.6367   11.4165    9.4947 H   0  0  0  0  0
   15.9831   11.0284    8.9599 H   0  0  0  0  0
   17.3788   10.2519    8.1725 H   0  0  0  0  0
   19.4863   15.4580    8.8545 H   0  0  0  0  0
   20.0302   17.7000    8.9389 H   0  0  0  0  0
   17.1832   18.1570    7.9830 H   0  0  0  0  0
   18.4223   17.3607    6.9391 H   0  0  0  0  0
   18.2712   19.6339    6.5868 H   0  0  0  0  0
   17.9999   19.8556    9.0777 H   0  0  0  0  0
   17.3879   19.7815   12.0051 H   0  0  0  0  0
   18.7472   21.6744   11.2662 H   0  0  0  0  0
   17.5048   22.1056   10.0656 H   0  0  0  0  0
   17.1353   22.2061   11.8047 H   0  0  0  0  0
   15.2724   20.4511   12.6724 H   0  0  0  0  0
   13.2376   19.1130   11.2725 H   0  0  0  0  0
   13.1551   21.2903   13.3703 H   0  0  0  0  0
   12.9183   19.4911   13.5696 H   0  0  0  0  0
   10.9086   20.0902   11.9152 H   0  0  0  0  0
   11.0294   21.6275   12.8704 H   0  0  0  0  0
   10.2970   17.8178   12.8551 H   0  0  0  0  0
   11.7617   17.8978   13.8646 H   0  0  0  0  0
   10.2028   17.4383   14.5924 H   0  0  0  0  0
   11.9680   22.1170    8.2364 H   0  0  0  0  0
   11.7787   20.1375    6.8439 H   0  0  0  0  0
   10.1113   20.5461    7.0075 H   0  0  0  0  0
   11.0260   18.1373    7.7815 H   0  0  0  0  0
    9.7100   18.9135    8.6326 H   0  0  0  0  0
   11.0833   18.8068   10.4965 H   0  0  0  0  0
   12.4824   18.4554    9.5529 H   0  0  0  0  0
    9.6407   22.6354    7.3249 H   0  0  0  0  0
    8.2245   23.4371    9.8181 H   0  0  0  0  0
    7.9992   24.7954    7.1186 H   0  0  0  0  0
    9.6014   26.2612    7.9900 H   0  0  0  0  0
    6.2548   25.3161    8.7593 H   0  0  0  0  0
    7.4980   25.7445    9.9601 H   0  0  0  0  0
    7.3086   26.7253    8.4859 H   0  0  0  0  0
    6.1864   22.7968   10.1196 H   0  0  0  0  0
    4.7923   21.0572    8.3471 H   0  0  0  0  0
    3.4816   22.9572   10.2633 H   0  0  0  0  0
    4.3779   21.4622   10.7898 H   0  0  0  0  0
    2.8542   20.0766    9.6505 H   0  0  0  0  0
    2.0621   21.4891    8.8673 H   0  0  0  0  0
    0.6989   20.6635   10.6833 H   0  0  0  0  0
    1.3829   22.2818   11.0989 H   0  0  0  0  0
    3.1929   21.0583   12.3346 H   0  0  0  0  0
    2.2074   19.5629   12.1145 H   0  0  0  0  0
    1.8085   20.6026   14.2321 H   0  0  0  0  0
    1.3454   22.0221   13.4923 H   0  0  0  0  0
    0.4353   20.6411   13.2890 H   0  0  0  0  0
    4.2691   21.5631    6.3448 H   0  0  0  0  0
    4.2644   24.2897    5.4388 H   0  0  0  0  0
    4.9973   22.6059    3.9083 H   0  0  0  0  0
    3.4096   23.1417    3.2757 H   0  0  0  0  0
    3.6127   20.8447    3.3561 H   0  0  0  0  0
    1.9385   22.7363    7.1357 H   0  0  0  0  0
   -0.3021   23.0632    7.4802 H   0  0  0  0  0
   -1.4124   25.0833    6.6004 H   0  0  0  0  0
    0.0921   25.4660    5.6901 H   0  0  0  0  0
   -0.0283   26.5487    7.7254 H   0  0  0  0  0
   -1.6849   21.6495    6.7125 H   0  0  0  0  0
   -1.3974   20.6584    4.0232 H   0  0  0  0  0
   -3.6329   20.2023    5.9971 H   0  0  0  0  0
   -2.0555   19.2855    5.9309 H   0  0  0  0  0
   -2.8162   18.8317    3.4864 H   0  0  0  0  0
   -4.4451   19.1712    4.1534 H   0  0  0  0  0
   -2.4888   17.2218    5.3640 H   0  0  0  0  0
   -3.7973   16.7724    4.1867 H   0  0  0  0  0
   -4.1157   17.5900    7.0135 H   0  0  0  0  0
   -7.1378   16.3610    4.6088 H   0  0  0  0  0
   -5.5849   16.8080    3.8947 H   0  0  0  0  0
   -6.0775   16.9377    7.9244 H   0  0  0  0  0
   -1.8416   21.8191    2.3623 H   0  0  0  0  0
   -3.6788   23.9728    2.2670 H   0  0  0  0  0
   -3.3439   23.9520   -0.1133 H   0  0  0  0  0
   -2.6877   22.2370   -0.0120 H   0  0  0  0  0
   -1.3686   24.5547    1.3524 H   0  0  0  0  0
   -1.0377   24.1415   -0.3770 H   0  0  0  0  0
   -0.3584   21.9067    0.2923 H   0  0  0  0  0
   -0.6743   22.3343    2.0226 H   0  0  0  0  0
    1.6715   22.4736    1.6394 H   0  0  0  0  0
    1.0183   24.1554    1.7571 H   0  0  0  0  0
    2.5940   23.9203   -0.0252 H   0  0  0  0  0
    1.6788   22.7183   -0.7284 H   0  0  0  0  0
    1.0767   24.2683   -0.6199 H   0  0  0  0  0
   -4.0391   20.5433    1.6754 H   0  0  0  0  0
   -6.5265   20.5847    0.3046 H   0  0  0  0  0
   -5.1074   18.5819    0.4867 H   0  0  0  0  0
   -5.4001   18.5229    2.2422 H   0  0  0  0  0
   -6.7429   18.2462    1.1058 H   0  0  0  0  0
   -5.7694   20.7195    3.7810 H   0  0  0  0  0
   -8.6781   20.5466    4.3401 H   0  0  0  0  0
   -6.9045   19.1982    5.5867 H   0  0  0  0  0
   -8.1474   20.1096    6.5797 H   0  0  0  0  0
   -6.4641   21.8456    6.9571 H   0  0  0  0  0
   -5.2542   20.8151    6.1102 H   0  0  0  0  0
   -5.1564   20.6522    8.5890 H   0  0  0  0  0
   -5.5120   19.0894    7.7691 H   0  0  0  0  0
   -7.9009   19.4241    8.2384 H   0  0  0  0  0
   -7.4790   20.9303    9.1489 H   0  0  0  0  0
   -7.8016   19.0601   10.5932 H   0  0  0  0  0
   -6.6097   18.1990    9.8092 H   0  0  0  0  0
   -6.2213   19.5858   10.6476 H   0  0  0  0  0
   -9.8369   22.1198    5.3569 H   0  0  0  0  0
   -8.4808   24.7768    5.5571 H   0  0  0  0  0
  -10.9005   25.6047    5.5677 H   0  0  0  0  0
  -11.2796   23.9445    4.9015 H   0  0  0  0  0
   -9.3988   25.9625    3.6874 H   0  0  0  0  0
  -11.0995   25.6425    3.1576 H   0  0  0  0  0
  -10.5249   23.3917    2.5635 H   0  0  0  0  0
   -8.8508   23.6222    3.1919 H   0  0  0  0  0
   -8.5026   25.3717    1.5059 H   0  0  0  0  0
  -10.1418   25.0093    0.8388 H   0  0  0  0  0
   -8.4048   23.9165   -0.3901 H   0  0  0  0  0
   -7.8720   23.1348    0.9818 H   0  0  0  0  0
   -9.3841   22.8005    0.3664 H   0  0  0  0  0
   -9.0072   24.4146    9.9714 H   0  0  0  0  0
   -7.8505   26.3519   10.7408 H   0  0  0  0  0
   -8.9587   27.4224    9.9537 H   0  0  0  0  0
   -6.5171   26.0752    8.8170 H   0  0  0  0  0
   -7.0848   27.6968    8.5532 H   0  0  0  0  0
   -8.7047   27.0124    6.9454 H   0  0  0  0  0
   -7.5090   25.8349    6.6564 H   0  0  0  0  0
  -11.0363   23.6235   10.0294 H   0  0  0  0  0
  -13.3983   25.1138    9.5445 H   0  0  0  0  0
  -13.3600   22.6671    9.7511 H   0  0  0  0  0
  -12.9327   22.8090   11.4740 H   0  0  0  0  0
  -14.5206   23.3757   10.9008 H   0  0  0  0  0
  -14.0671   26.9157   10.4731 H   0  0  0  0  0
  -13.4655   27.2796   13.3839 H   0  0  0  0  0
  -15.6946   28.6336   11.2649 H   0  0  0  0  0
  -13.8189   29.6998   12.9152 H   0  0  0  0  0
  -13.8474   29.2584   11.1413 H   0  0  0  0  0
  -11.7015   30.1176   11.7242 H   0  0  0  0  0
  -11.5895   28.3288   11.4360 H   0  0  0  0  0
  -10.6921   29.9836   15.0857 H   0  0  0  0  0
  -11.4147   30.9469   13.7930 H   0  0  0  0  0
  1  2  1  0  0  0
  2  3  1  0  0  0
  2  5  1  0  0  0
  3  4  2  0  0  0
  3  7  1  0  0  0
  5  6  1  0  0  0
  7  8  1  0  0  0
  8  9  1  0  0  0
  8 11  1  0  0  0
  9 10  2  0  0  0
  9 15  1  0  0  0
 11 12  1  0  0  0
 11 13  1  0  0  0
 12 14  1  0  0  0
 15 16  1  0  0  0
 16 17  1  0  0  0
 16 19  1  0  0  0
 17 18  2  0  0  0
 17 23  1  0  0  0
 19 20  1  0  0  0
 19 21  1  0  0  0
 20 22  1  0  0  0
 23 24  1  0  0  0
 24 25  1  0  0  0
 24 27  1  0  0  0
 25 26  2  0  0  0
 25 29  1  0  0  0
 27 28  1  0  0  0
 29 30  1  0  0  0
 30 31  1  0  0  0
 30 33  1  0  0  0
 31 32  2  0  0  0
 31 34  1  0  0  0
 34 35  1  0  0  0
 35 36  1  0  0  0
 35 38  1  0  0  0
 36 37  2  0  0  0
 36 42  1  0  0  0
 38 39  1  0  0  0
 39 40  1  0  0  0
 40 41  1  0  0  0
 42 43  1  0  0  0
 42 48  1  0  0  0
 43 44  1  0  0  0
 43 46  1  0  0  0
 44 45  2  0  0  0
 44 49  1  0  0  0
 46 47  1  0  0  0
 47 48  1  0  0  0
 49 50  1  0  0  0
 50 51  1  0  0  0
 50 53  1  0  0  0
 51 52  2  0  0  0
 51 56  1  0  0  0
 53 54  1  0  0  0
 53 55  1  0  0  0
 56 57  1  0  0  0
 57 58  1  0  0  0
 57 60  1  0  0  0
 58 59  2  0  0  0
 58 65  1  0  0  0
 60 61  1  0  0  0
 61 62  1  0  0  0
 62 63  1  0  0  0
 63 64  1  0  0  0
 65 66  1  0  0  0
 66 67  1  0  0  0
 66 69  1  0  0  0
 67 68  2  0  0  0
 67 71  1  0  0  0
 69 70  1  0  0  0
 71 72  1  0  0  0
 72 73  1  0  0  0
 72 75  1  0  0  0
 73 74  2  0  0  0
 73 77  1  0  0  0
 75 76  1  0  0  0
 77 78  1  0  0  0
 78 79  1  0  0  0
 78 81  1  0  0  0
 79 80  2  0  0  0
 79 88  1  0  0  0
 81 82  1  0  0  0
 82 83  1  0  0  0
 83 84  1  0  0  0
 84 85  1  0  0  0
 85 86  1  0  0  0
 85 87  2  0  0  0
 88 89  1  0  0  0
 89 90  1  0  0  0
 89 92  1  0  0  0
 90 91  2  0  0  0
 90 97  1  0  0  0
 92 93  1  0  0  0
 93 94  1  0  0  0
 94 95  1  0  0  0
 95 96  1  0  0  0
 97 98  1  0  0  0
 98 99  1  0  0  0
 98101  1  0  0  0
 99100  2  0  0  0
 99102  1  0  0  0
102103  1  0  0  0
103104  1  0  0  0
103106  1  0  0  0
104105  2  0  0  0
104111  1  0  0  0
106107  1  0  0  0
107108  1  0  0  0
108109  1  0  0  0
109110  1  0  0  0
111112  1  0  0  0
112113  1  0  0  0
112115  1  0  0  0
113114  2  0  0  0
113120  1  0  0  0
115116  1  0  0  0
116117  1  0  0  0
117118  1  0  0  0
118119  1  0  0  0
120121  1  0  0  0
120126  1  0  0  0
121122  1  0  0  0
121124  1  0  0  0
122123  2  0  0  0
122127  1  0  0  0
124125  1  0  0  0
125126  1  0  0  0
127128  1  0  0  0
128129  1  0  0  0
128131  1  0  0  0
129130  2  0  0  0
129132  1  0  0  0
132133  1  0  0  0
133134  1  0  0  0
133136  1  0  0  0
134135  1  0  0  0
134141  2  0  0  0
136137  1  0  0  0
137138  1  0  0  0
138139  2  0  0  0
138140  1  0  0  0
  1142  1  0  0  0
  1143  1  0  0  0
  1144  1  0  0  0
  2145  1  0  0  0
  5146  1  0  0  0
  5147  1  0  0  0
  6148  1  0  0  0
  7149  1  0  0  0
  8150  1  0  0  0
 11151  1  0  0  0
 12152  1  0  0  0
 12153  1  0  0  0
 13154  1  0  0  0
 13155  1  0  0  0
 13156  1  0  0  0
 14157  1  0  0  0
 14158  1  0  0  0
 14159  1  0  0  0
 15160  1  0  0  0
 16161  1  0  0  0
 19162  1  0  0  0
 20163  1  0  0  0
 20164  1  0  0  0
 21165  1  0  0  0
 21166  1  0  0  0
 21167  1  0  0  0
 22168  1  0  0  0
 22169  1  0  0  0
 22170  1  0  0  0
 23171  1  0  0  0
 24172  1  0  0  0
 27173  1  0  0  0
 27174  1  0  0  0
 28175  1  0  0  0
 29176  1  0  0  0
 30177  1  0  0  0
 33178  1  0  0  0
 33179  1  0  0  0
 33180  1  0  0  0
 34181  1  0  0  0
 35182  1  0  0  0
 38183  1  0  0  0
 38184  1  0  0  0
 39185  1  0  0  0
 39186  1  0  0  0
 41187  1  0  0  0
 41188  1  0  0  0
 41189  1  0  0  0
 43190  1  0  0  0
 46191  1  0  0  0
 46192  1  0  0  0
 47193  1  0  0  0
 47194  1  0  0  0
 48195  1  0  0  0
 48196  1  0  0  0
 49197  1  0  0  0
 50198  1  0  0  0
 53199  1  0  0  0
 54200  1  0  0  0
 55201  1  0  0  0
 55202  1  0  0  0
 55203  1  0  0  0
 56204  1  0  0  0
 57205  1  0  0  0
 60206  1  0  0  0
 60207  1  0  0  0
 61208  1  0  0  0
 61209  1  0  0  0
 62210  1  0  0  0
 62211  1  0  0  0
 63212  1  0  0  0
 63213  1  0  0  0
 64214  1  0  0  0
 64215  1  0  0  0
 64216  1  0  0  0
 65217  1  0  0  0
 66218  1  0  0  0
 69219  1  0  0  0
 69220  1  0  0  0
 70221  1  0  0  0
 71222  1  0  0  0
 72223  1  0  0  0
 75224  1  0  0  0
 75225  1  0  0  0
 76226  1  0  0  0
 77227  1  0  0  0
 78228  1  0  0  0
 81229  1  0  0  0
 81230  1  0  0  0
 82231  1  0  0  0
 82232  1  0  0  0
 83233  1  0  0  0
 83234  1  0  0  0
 84235  1  0  0  0
 86236  1  0  0  0
 86237  1  0  0  0
 87238  1  0  0  0
 88239  1  0  0  0
 89240  1  0  0  0
 92241  1  0  0  0
 92242  1  0  0  0
 93243  1  0  0  0
 93244  1  0  0  0
 94245  1  0  0  0
 94246  1  0  0  0
 95247  1  0  0  0
 95248  1  0  0  0
 96249  1  0  0  0
 96250  1  0  0  0
 96251  1  0  0  0
 97252  1  0  0  0
 98253  1  0  0  0
101254  1  0  0  0
101255  1  0  0  0
101256  1  0  0  0
102257  1  0  0  0
103258  1  0  0  0
106259  1  0  0  0
106260  1  0  0  0
107261  1  0  0  0
107262  1  0  0  0
108263  1  0  0  0
108264  1  0  0  0
109265  1  0  0  0
109266  1  0  0  0
110267  1  0  0  0
110268  1  0  0  0
110269  1  0  0  0
111270  1  0  0  0
112271  1  0  0  0
115272  1  0  0  0
115273  1  0  0  0
116274  1  0  0  0
116275  1  0  0  0
117276  1  0  0  0
117277  1  0  0  0
118278  1  0  0  0
118279  1  0  0  0
119280  1  0  0  0
119281  1  0  0  0
119282  1  0  0  0
121283  1  0  0  0
124284  1  0  0  0
124285  1  0  0  0
125286  1  0  0  0
125287  1  0  0  0
126288  1  0  0  0
126289  1  0  0  0
127290  1  0  0  0
128291  1  0  0  0
131292  1  0  0  0
131293  1  0  0  0
131294  1  0  0  0
132295  1  0  0  0
133296  1  0  0  0
135297  1  0  0  0
136298  1  0  0  0
136299  1  0  0  0
137300  1  0  0  0
137301  1  0  0  0
140302  1  0  0  0
140303  1  0  0  0
M  END
$$$$
