6n82_ligand
  -I-interpret- 

 49 52  0  0  0  0  0  0  0  0999 V2000
    2.3420   76.1090   28.4660 C   0  0  0  0  0
    2.0430   77.4580   28.5490 C   0  0  0  0  0
    0.2970   77.9630   28.8590 Cl  0  0  0  0  0
    3.0540   78.4130   28.4030 C   0  0  0  0  0
    2.6940   79.7590   28.4710 C   0  0  0  0  0
    4.3910   77.9790   28.2090 C   0  0  0  0  0
    4.6720   76.6030   28.1270 C   0  0  0  0  0
    3.6460   75.6340   28.2610 C   0  0  0  0  0
    3.8300   74.2670   28.2010 C   0  0  0  0  0
    2.6450   73.0300   28.7710 S   0  0  0  0  0
    4.8890   73.5750   27.7040 C   0  0  0  0  0
    4.8070   72.1830   27.7550 C   0  0  0  0  0
    3.6500   71.6890   28.3060 C   0  0  0  0  0
    3.4100   70.3570   28.4380 N   0  0  0  0  0
    4.3440   69.4230   28.0070 C   0  0  0  0  0
    5.5210   69.9180   27.4390 N   0  0  0  0  0
    5.7230   71.2570   27.3270 C   0  0  0  0  0
    6.8770   71.7280   26.7870 N   0  0  0  0  0
    8.0080   70.8550   26.3590 C   0  0  0  0  0
    8.5430   71.4430   24.6840 P   0  0  0  0  0
    9.6750   70.3760   24.1230 O   0  0  0  0  0
    9.3390   72.8940   24.9220 O   0  0  0  0  0
    7.3020   71.5400   23.8310 O   0  0  0  0  0
    9.1920   70.8840   27.3650 C   0  0  0  0  0
    8.7030   70.2870   28.5220 C   0  0  0  0  0
    8.2080   71.0990   29.5470 C   0  0  0  0  0
    7.6700   70.5170   30.6890 C   0  0  0  0  0
    7.2300   71.3130   31.6430 F   0  0  0  0  0
    7.6230   69.1230   30.8130 C   0  0  0  0  0
    8.1060   68.3110   29.7820 C   0  0  0  0  0
    8.6370   68.8920   28.6280 C   0  0  0  0  0
    1.5316   75.3867   28.5639 H   0  0  0  0  0
    1.9751   79.9818   27.6826 H   0  0  0  0  0
    2.2451   79.9651   29.4426 H   0  0  0  0  0
    3.5815   80.3782   28.3407 H   0  0  0  0  0
    5.1965   78.7084   28.1239 H   0  0  0  0  0
    5.6978   76.2758   27.9573 H   0  0  0  0  0
    5.7588   74.0821   27.2865 H   0  0  0  0  0
    4.1667   68.3522   28.1074 H   0  0  0  0  0
    6.9757   72.7361   26.6674 H   0  0  0  0  0
    7.6786   69.8165   26.3241 H   0  0  0  0  0
   10.4300   70.3710   24.7159 H   0  0  0  0  0
   10.1125   72.7470   25.4713 H   0  0  0  0  0
    9.5355   71.9014   27.5521 H   0  0  0  0  0
   10.0623   70.3548   26.9767 H   0  0  0  0  0
    8.2438   72.1842   29.4510 H   0  0  0  0  0
    7.2095   68.6703   31.7142 H   0  0  0  0  0
    8.0682   67.2260   29.8788 H   0  0  0  0  0
    8.9981   68.2630   27.8143 H   0  0  0  0  0
  1  2  4  0  0  0
  1  8  4  0  0  0
  2  3  1  0  0  0
  2  4  4  0  0  0
  4  5  1  0  0  0
  4  6  4  0  0  0
  6  7  4  0  0  0
  7  8  4  0  0  0
  8  9  1  0  0  0
  9 10  4  0  0  0
  9 11  4  0  0  0
 10 13  4  0  0  0
 11 12  4  0  0  0
 12 13  4  0  0  0
 12 17  4  0  0  0
 13 14  4  0  0  0
 14 15  4  0  0  0
 15 16  4  0  0  0
 16 17  4  0  0  0
 17 18  1  0  0  0
 18 19  1  0  0  0
 19 20  1  0  0  0
 19 24  1  0  0  0
 20 21  1  0  0  0
 20 22  1  0  0  0
 20 23  2  0  0  0
 24 25  1  0  0  0
 25 26  4  0  0  0
 25 31  4  0  0  0
 26 27  4  0  0  0
 27 28  1  0  0  0
 27 29  4  0  0  0
 29 30  4  0  0  0
 30 31  4  0  0  0
  1 32  1  0  0  0
  5 33  1  0  0  0
  5 34  1  0  0  0
  5 35  1  0  0  0
  6 36  1  0  0  0
  7 37  1  0  0  0
 11 38  1  0  0  0
 15 39  1  0  0  0
 18 40  1  0  0  0
 19 41  1  0  0  0
 21 42  1  0  0  0
 22 43  1  0  0  0
 24 44  1  0  0  0
 24 45  1  0  0  0
 26 46  1  0  0  0
 29 47  1  0  0  0
 30 48  1  0  0  0
 31 49  1  0  0  0
M  END
$$$$
