### 
### Created by X-TOOL on Mon Aug  2 16:15:14 2021
### 

@<TRIPOS>MOLECULE
6n82_ligand
   47    50     1     0     0
SMALL
GAST_HUCK


@<TRIPOS>ATOM
      1 CAF         2.3420   76.1090   28.4660 C.ar      1 YF7        -0.0453
      2 CAA         2.0430   77.4580   28.5490 C.ar      1 YF7         0.0422
      3 CLA         0.2970   77.9630   28.8590 Cl        1 YF7        -0.0768
      4 CAB         3.0540   78.4130   28.4030 C.ar      1 YF7        -0.0310
      5 CAG         2.6940   79.7590   28.4710 C.3       1 YF7        -0.0300
      6 CAC         4.3910   77.9790   28.2090 C.ar      1 YF7        -0.0587
      7 CAD         4.6720   76.6030   28.1270 C.ar      1 YF7        -0.0591
      8 CAE         3.6460   75.6340   28.2610 C.ar      1 YF7        -0.0122
      9 CAI         3.8300   74.2670   28.2010 C.2       1 YF7         0.0373
     10 SAJ         2.6450   73.0300   28.7710 S.3       1 YF7        -0.0140
     11 CAM         4.8890   73.5750   27.7040 C.2       1 YF7        -0.0456
     12 C5          4.8070   72.1830   27.7550 C.ar      1 YF7         0.0469
     13 C6          3.6500   71.6890   28.3060 C.ar      1 YF7         0.1085
     14 N1          3.4100   70.3570   28.4380 N.ar      1 YF7        -0.2773
     15 C2          4.3440   69.4230   28.0070 C.ar      1 YF7         0.0586
     16 N3          5.5210   69.9180   27.4390 N.ar      1 YF7        -0.2639
     17 C4          5.7230   71.2570   27.3270 C.ar      1 YF7         0.1295
     18 NAR         6.8770   71.7280   26.7870 N.pl3     1 YF7        -0.2805
     19 CAS         8.0080   70.8550   26.3590 C.3       1 YF7         0.1217
     20 PBB         8.5430   71.4430   24.6840 P.3       1 YF7         0.0872
     21 OBD         9.6750   70.3760   24.1230 O.co2     1 YF7        -0.5606
     22 OBE         9.3390   72.8940   24.9220 O.co2     1 YF7        -0.5606
     23 OBC         7.3020   71.5400   23.8310 O.co2     1 YF7        -0.5606
     24 CAT         9.1920   70.8840   27.3650 C.3       1 YF7         0.0193
     25 CAU         8.7030   70.2870   28.5220 C.ar      1 YF7        -0.0413
     26 CAZ         8.2080   71.0990   29.5470 C.ar      1 YF7        -0.0269
     27 CAY         7.6700   70.5170   30.6890 C.ar      1 YF7         0.1258
     28 FBA         7.2300   71.3130   31.6430 F         1 YF7        -0.1853
     29 CAX         7.6230   69.1230   30.8130 C.ar      1 YF7        -0.0352
     30 CAW         8.1060   68.3110   29.7820 C.ar      1 YF7        -0.0704
     31 CAV         8.6370   68.8920   28.6280 C.ar      1 YF7        -0.0642
     32 H1          1.5360   75.3906   28.5633 H         1 YF7         0.0612
     33 H2          3.5889   80.3850   28.3397 H         1 YF7         0.0397
     34 H3          2.2408   79.9683   29.4512 H         1 YF7         0.0397
     35 H4          1.9685   79.9852   27.6757 H         1 YF7         0.0397
     36 H5          5.1921   78.7044   28.1244 H         1 YF7         0.0561
     37 H6          5.6921   76.2776   27.9582 H         1 YF7         0.0608
     38 H7          5.7580   74.0816   27.2868 H         1 YF7         0.0448
     39 H8          4.1676   68.3581   28.1068 H         1 YF7         0.1012
     40 H9          6.9767   72.7460   26.6662 H         1 YF7         0.1885
     41 H10         7.6494   69.8180   26.2814 H         1 YF7         0.0781
     42 H11         9.5012   71.9201   27.5669 H         1 YF7         0.0463
     43 H12        10.0475   70.3163   26.9702 H         1 YF7         0.0463
     44 H13         8.2436   72.1782   29.4515 H         1 YF7         0.0542
     45 H14         7.2117   68.6728   31.7092 H         1 YF7         0.0546
     46 H15         8.0684   67.2319   29.8782 H         1 YF7         0.0589
     47 H16         8.9961   68.2665   27.8188 H         1 YF7         0.0523
@<TRIPOS>BOND
     1    1    2 ar 
     2    1    8 ar 
     3    2    3 1  
     4    2    4 ar 
     5    4    5 1  
     6    4    6 ar 
     7    6    7 ar 
     8    7    8 ar 
     9    8    9 1  
    10    9   10 1  
    11    9   11 2  
    12   10   13 1  
    13   11   12 1  
    14   12   13 ar 
    15   12   17 ar 
    16   13   14 ar 
    17   14   15 ar 
    18   15   16 ar 
    19   16   17 ar 
    20   17   18 1  
    21   18   19 1  
    22   19   20 1  
    23   19   24 1  
    24   20   21 ar 
    25   20   22 ar 
    26   20   23 ar 
    27   24   25 1  
    28   25   26 ar 
    29   25   31 ar 
    30   26   27 ar 
    31   27   28 1  
    32   27   29 ar 
    33   29   30 ar 
    34   30   31 ar 
    35    1   32 1  
    36    5   33 1  
    37    5   34 1  
    38    5   35 1  
    39    6   36 1  
    40    7   37 1  
    41   11   38 1  
    42   15   39 1  
    43   18   40 1  
    44   19   41 1  
    45   24   42 1  
    46   24   43 1  
    47   26   44 1  
    48   29   45 1  
    49   30   46 1  
    50   31   47 1  
@<TRIPOS>SUBSTRUCTURE
     1 YF7         1

