3nc4_ligand
  -I-interpret- 

 43 44  0  0  0  0  0  0  0  0999 V2000
   33.4640   22.8070   27.8490 C   0  0  0  0  0
   33.8170   23.0800   26.3820 C   0  0  0  0  0
   34.0110   24.4760   26.1600 O   0  0  0  0  0
   32.6990   22.5210   25.4850 C   0  0  0  0  0
   33.0320   22.6650   24.1010 O   0  0  0  0  0
   32.4340   21.0410   25.7940 C   0  0  0  0  0
   31.2660   20.6220   25.0870 O   0  0  0  0  0
   32.2410   20.8310   27.3040 C   0  0  0  0  0
   33.3590   21.3850   28.0090 O   0  0  0  0  0
   32.0780   19.3720   27.7270 C   0  0  0  0  0
   33.1730   18.5820   27.2390 O   0  0  0  0  0
   34.5500   23.2690   28.7160 N   0  0  0  0  0
   34.3470   23.9480   29.8570 C   0  0  0  0  0
   35.4190   24.2960   30.5710 N   0  0  0  0  0
   32.7870   24.3730   30.3890 S   0  0  0  0  0
   35.3300   24.9270   31.6370 N   0  0  0  0  0
   36.3820   25.2240   32.2800 C   0  0  0  0  0
   36.3840   25.9870   33.5590 C   0  0  0  0  0
   35.2130   26.4440   34.1880 C   0  0  0  0  0
   35.3210   27.1730   35.3740 C   0  0  0  0  0
   36.5660   27.4330   35.9450 C   0  0  0  0  0
   37.7280   26.9880   35.3150 C   0  0  0  0  0
   37.6330   26.2690   34.1280 C   0  0  0  0  0
   33.9530   26.2090   33.6810 O   0  0  0  0  0
   32.5381   23.3196   28.1098 H   0  0  0  0  0
   34.7537   22.5813   26.1331 H   0  0  0  0  0
   34.7126   24.7954   26.7321 H   0  0  0  0  0
   31.7964   23.0949   25.6949 H   0  0  0  0  0
   33.1978   23.5906   23.9075 H   0  0  0  0  0
   33.2909   20.4472   25.4758 H   0  0  0  0  0
   31.3973   20.7574   24.1457 H   0  0  0  0  0
   31.3076   21.3354   27.5538 H   0  0  0  0  0
   31.1482   18.9842   27.3107 H   0  0  0  0  0
   32.0601   19.3186   28.8155 H   0  0  0  0  0
   33.0550   17.6696   27.5132 H   0  0  0  0  0
   35.5102   23.0646   28.4391 H   0  0  0  0  0
   36.9012   25.8961   31.5968 H   0  0  0  0  0
   36.7655   24.2487   32.5798 H   0  0  0  0  0
   34.4189   27.5441   35.8604 H   0  0  0  0  0
   36.6312   27.9838   36.8833 H   0  0  0  0  0
   38.7042   27.2022   35.7499 H   0  0  0  0  0
   38.5406   25.9210   33.6348 H   0  0  0  0  0
   33.2974   26.6043   34.2602 H   0  0  0  0  0
  1  2  1  0  0  0
  1  9  1  0  0  0
  1 12  1  0  0  0
  2  3  1  0  0  0
  2  4  1  0  0  0
  4  5  1  0  0  0
  4  6  1  0  0  0
  6  7  1  0  0  0
  6  8  1  0  0  0
  8  9  1  0  0  0
  8 10  1  0  0  0
 10 11  1  0  0  0
 12 13  1  0  0  0
 13 14  1  0  0  0
 13 15  2  0  0  0
 14 16  2  0  0  0
 16 17  1  0  0  0
 17 18  1  0  0  0
 18 19  4  0  0  0
 18 23  4  0  0  0
 19 20  4  0  0  0
 19 24  1  0  0  0
 20 21  4  0  0  0
 21 22  4  0  0  0
 22 23  4  0  0  0
  1 25  1  0  0  0
  2 26  1  0  0  0
  3 27  1  0  0  0
  4 28  1  0  0  0
  5 29  1  0  0  0
  6 30  1  0  0  0
  7 31  1  0  0  0
  8 32  1  0  0  0
 10 33  1  0  0  0
 10 34  1  0  0  0
 11 35  1  0  0  0
 12 36  1  0  0  0
 17 37  1  0  0  0
 17 38  1  0  0  0
 20 39  1  0  0  0
 21 40  1  0  0  0
 22 41  1  0  0  0
 23 42  1  0  0  0
 24 43  1  0  0  0
M  END
$$$$
