3d2e_ligand
  -I-interpret- 

 47 49  0  0  0  0  0  0  0  0999 V2000
   88.2830   75.8590  182.1110 P   0  0  0  0  0
   89.2420   75.5350  183.2250 O   0  0  0  0  0
   88.8280   75.3100  180.8380 O   0  0  0  0  0
   86.8260   75.5800  182.3340 O   0  0  0  0  0
   87.5300   78.6660  182.7590 P   0  0  0  0  0
   88.5480   79.4760  183.4680 O   0  0  0  0  0
   86.4020   78.0720  183.5760 O   0  0  0  0  0
   88.3630   77.4920  181.9610 O   0  0  0  0  0
   85.6650   80.3020  181.2070 P   0  0  0  0  0
   85.4640   81.2220  182.3710 O   0  0  0  0  0
   84.5300   79.3940  180.7310 O   0  0  0  0  0
   86.9870   79.4280  181.4420 O   0  0  0  0  0
   85.9990   81.1680  179.9120 O   0  0  0  0  0
   87.1140   82.0470  179.8260 C   0  0  0  0  0
   87.5510   81.9130  178.3820 C   0  0  0  0  0
   86.4420   82.3220  177.5560 O   0  0  0  0  0
   88.7260   82.8150  178.0450 C   0  0  0  0  0
   89.5530   82.1360  177.1060 O   0  0  0  0  0
   88.0670   83.9860  177.3480 C   0  0  0  0  0
   88.9230   84.5660  176.3980 O   0  0  0  0  0
   86.9080   83.3340  176.6360 C   0  0  0  0  0
   85.8820   84.3400  176.3080 N   0  0  0  0  0
   85.2140   85.0830  177.2090 C   0  0  0  0  0
   84.3390   85.9070  176.6020 N   0  0  0  0  0
   84.4510   85.7020  175.2710 C   0  0  0  0  0
   83.8020   86.2510  174.0490 C   0  0  0  0  0
   82.8480   87.2040  174.1490 N   0  0  0  0  0
   84.2040   85.7600  172.8510 N   0  0  0  0  0
   85.1610   84.7920  172.7490 C   0  0  0  0  0
   85.7740   84.2390  173.8150 N   0  0  0  0  0
   85.4700   84.6520  175.0790 C   0  0  0  0  0
   88.9006   75.8845  184.0514 H   0  0  0  0  0
   86.5522   75.9638  183.1702 H   0  0  0  0  0
   85.8177   77.5749  182.9989 H   0  0  0  0  0
   84.8298   78.8754  179.9808 H   0  0  0  0  0
   87.9059   81.7913  180.5300 H   0  0  0  0  0
   86.8621   83.0727  180.0952 H   0  0  0  0  0
   87.8548   80.8801  178.2122 H   0  0  0  0  0
   89.3288   83.1002  178.9072 H   0  0  0  0  0
   90.3025   82.6919  176.8807 H   0  0  0  0  0
   87.7893   84.7820  178.0389 H   0  0  0  0  0
   88.4770   85.3034  175.9750 H   0  0  0  0  0
   87.1782   82.8867  175.6794 H   0  0  0  0  0
   85.3616   85.0255  178.2874 H   0  0  0  0  0
   82.5685   87.5516  175.0663 H   0  0  0  0  0
   82.4078   87.5753  173.3071 H   0  0  0  0  0
   85.4443   84.4483  171.7542 H   0  0  0  0  0
  1  2  1  0  0  0
  1  3  2  0  0  0
  1  4  1  0  0  0
  8  1  1  0  0  0
  5  6  2  0  0  0
  5  7  1  0  0  0
  5  8  1  0  0  0
 12  5  1  0  0  0
  9 10  2  0  0  0
  9 11  1  0  0  0
  9 12  1  0  0  0
  9 13  1  0  0  0
 13 14  1  0  0  0
 14 15  1  0  0  0
 15 16  1  0  0  0
 15 17  1  0  0  0
 16 21  1  0  0  0
 17 18  1  0  0  0
 17 19  1  0  0  0
 19 20  1  0  0  0
 19 21  1  0  0  0
 21 22  1  0  0  0
 22 23  4  0  0  0
 22 31  4  0  0  0
 23 24  4  0  0  0
 24 25  4  0  0  0
 25 26  4  0  0  0
 25 31  4  0  0  0
 26 27  1  0  0  0
 26 28  4  0  0  0
 28 29  4  0  0  0
 29 30  4  0  0  0
 30 31  4  0  0  0
  2 32  1  0  0  0
  4 33  1  0  0  0
  7 34  1  0  0  0
 11 35  1  0  0  0
 14 36  1  0  0  0
 14 37  1  0  0  0
 15 38  1  0  0  0
 17 39  1  0  0  0
 18 40  1  0  0  0
 19 41  1  0  0  0
 20 42  1  0  0  0
 21 43  1  0  0  0
 23 44  1  0  0  0
 27 45  1  0  0  0
 27 46  1  0  0  0
 29 47  1  0  0  0
M  END
$$$$
