4xoe_ligand
  -I-interpret- 

 45 45  0  0  0  0  0  0  0  0999 V2000
  -11.6130  -55.0510   -5.2910 O   0  0  0  0  0
  -11.7920  -56.3320   -5.8560 C   0  0  0  0  0
  -10.4580  -57.0490   -6.0060 C   0  0  0  0  0
  -11.0180  -60.5390  -10.5260 C   0  0  0  0  0
   -9.6290  -56.3150   -6.8580 O   0  0  0  0  0
   -9.7900  -57.2220   -4.6470 C   0  0  0  0  0
  -10.5360  -58.1220   -3.8780 O   0  0  0  0  0
   -8.3700  -57.7670   -4.8270 C   0  0  0  0  0
   -7.7010  -57.7820   -3.5970 O   0  0  0  0  0
   -7.6060  -56.8880   -5.7960 C   0  0  0  0  0
   -7.4570  -55.5870   -5.2720 O   0  0  0  0  0
   -8.3590  -56.8120   -7.0980 C   0  0  0  0  0
   -8.4440  -58.1210   -7.6400 O   0  0  0  0  0
   -9.1480  -58.1970   -8.8590 C   0  0  0  0  0
   -8.9540  -59.5630   -9.4810 C   0  0  0  0  0
   -9.8190  -59.6350  -10.7240 C   0  0  0  0  0
  -14.4120  -60.6910  -12.1780 C   0  0  0  0  0
  -12.9960  -61.1470  -11.8980 C   0  0  0  0  0
  -12.2040  -60.0030  -11.3030 C   0  0  0  0  0
  -12.4656  -54.6181   -5.2059 H   0  0  0  0  0
  -12.2436  -56.2209   -6.8418 H   0  0  0  0  0
  -12.4340  -56.9188   -5.1991 H   0  0  0  0  0
  -10.6316  -58.0373   -6.4317 H   0  0  0  0  0
  -11.2697  -60.5745   -9.4660 H   0  0  0  0  0
  -10.7764  -61.5395  -10.8847 H   0  0  0  0  0
   -9.7417  -56.2555   -4.1454 H   0  0  0  0  0
  -11.4266  -57.7822   -3.7640 H   0  0  0  0  0
   -8.4303  -58.7826   -5.2181 H   0  0  0  0  0
   -8.1816  -58.3380   -2.9794 H   0  0  0  0  0
   -6.6182  -57.3196   -5.9571 H   0  0  0  0  0
   -6.9715  -55.0448   -5.8980 H   0  0  0  0  0
   -7.8478  -56.1542   -7.8010 H   0  0  0  0  0
   -8.7706  -57.4346   -9.5405 H   0  0  0  0  0
  -10.2095  -58.0344   -8.6721 H   0  0  0  0  0
   -9.2401  -60.3434   -8.7758 H   0  0  0  0  0
   -7.9063  -59.7147   -9.7405 H   0  0  0  0  0
  -10.1808  -58.6313  -10.9472 H   0  0  0  0  0
   -9.2162  -60.0399  -11.5369 H   0  0  0  0  0
  -14.8799  -60.3706  -11.2471 H   0  0  0  0  0
  -14.3919  -59.8585  -12.8814 H   0  0  0  0  0
  -14.9802  -61.5166  -12.6064 H   0  0  0  0  0
  -12.5274  -61.4671  -12.8286 H   0  0  0  0  0
  -13.0155  -61.9792  -11.1944 H   0  0  0  0  0
  -11.8442  -59.3608  -12.1069 H   0  0  0  0  0
  -12.8462  -59.4357  -10.6293 H   0  0  0  0  0
  2  1  1  0  0  0
  3  2  1  0  0  0
  5  3  1  0  0  0
  3  6  1  0  0  0
  4 16  1  0  0  0
 19  4  1  0  0  0
 12  5  1  0  0  0
  6  7  1  0  0  0
  8  6  1  0  0  0
  8  9  1  0  0  0
 10  8  1  0  0  0
 10 11  1  0  0  0
 12 10  1  0  0  0
 13 12  1  0  0  0
 14 13  1  0  0  0
 15 14  1  0  0  0
 16 15  1  0  0  0
 18 17  1  0  0  0
 18 19  1  0  0  0
  1 20  1  0  0  0
  2 21  1  0  0  0
  2 22  1  0  0  0
  3 23  1  0  0  0
  4 24  1  0  0  0
  4 25  1  0  0  0
  6 26  1  0  0  0
  7 27  1  0  0  0
  8 28  1  0  0  0
  9 29  1  0  0  0
 10 30  1  0  0  0
 11 31  1  0  0  0
 12 32  1  0  0  0
 14 33  1  0  0  0
 14 34  1  0  0  0
 15 35  1  0  0  0
 15 36  1  0  0  0
 16 37  1  0  0  0
 16 38  1  0  0  0
 17 39  1  0  0  0
 17 40  1  0  0  0
 17 41  1  0  0  0
 18 42  1  0  0  0
 18 43  1  0  0  0
 19 44  1  0  0  0
 19 45  1  0  0  0
M  END
$$$$
