4hki_ligand
  -I-interpret- 

 27 29  0  0  0  0  0  0  0  0999 V2000
    5.9850  -12.6210   12.4720 O   0  0  0  0  0
    5.8560  -12.9760   13.7780 C   0  0  0  0  0
    6.5320  -12.2360   14.7390 C   0  0  0  0  0
    7.3810  -11.1660   14.3570 C   0  0  0  0  0
    7.4610  -10.8340   13.0050 C   0  0  0  0  0
    6.7310  -11.5630   12.0710 C   0  0  0  0  0
    6.6270  -11.3080   10.6920 C   0  0  0  0  0
    7.2470  -10.2220   10.0600 C   0  0  0  0  0
    7.0800   -9.9680    8.7010 C   0  0  0  0  0
    6.2880  -10.7750    7.9380 C   0  0  0  0  0
    5.6630  -11.8760    8.5330 C   0  0  0  0  0
    5.8070  -12.1360    9.9000 C   0  0  0  0  0
    8.1300  -10.5810   15.1690 O   0  0  0  0  0
    6.3380  -12.5760   16.0760 C   0  0  0  0  0
    5.5120  -13.6420   16.4150 C   0  0  0  0  0
    4.8410  -14.3910   15.4440 C   0  0  0  0  0
    5.0200  -14.0230   14.1000 C   0  0  0  0  0
    8.0927  -10.0069   12.6811 H   0  0  0  0  0
    7.8783   -9.5567   10.6491 H   0  0  0  0  0
    7.5860   -9.1179    8.2435 H   0  0  0  0  0
    6.1440  -10.5647    6.8782 H   0  0  0  0  0
    5.0540  -12.5420    7.9217 H   0  0  0  0  0
    5.2849  -12.9791   10.3524 H   0  0  0  0  0
    6.8356  -12.0042   16.8593 H   0  0  0  0  0
    5.3843  -13.9005   17.4662 H   0  0  0  0  0
    4.2021  -15.2300   15.7196 H   0  0  0  0  0
    4.4977  -14.5656   13.3121 H   0  0  0  0  0
  1  2  1  0  0  0
  1  6  1  0  0  0
  2  3  4  0  0  0
  2 17  4  0  0  0
  3  4  1  0  0  0
  3 14  4  0  0  0
  4  5  1  0  0  0
  4 13  2  0  0  0
  5  6  2  0  0  0
  6  7  1  0  0  0
  7  8  4  0  0  0
  7 12  4  0  0  0
  8  9  4  0  0  0
  9 10  4  0  0  0
 10 11  4  0  0  0
 11 12  4  0  0  0
 14 15  4  0  0  0
 15 16  4  0  0  0
 16 17  4  0  0  0
  5 18  1  0  0  0
  8 19  1  0  0  0
  9 20  1  0  0  0
 10 21  1  0  0  0
 11 22  1  0  0  0
 12 23  1  0  0  0
 14 24  1  0  0  0
 15 25  1  0  0  0
 16 26  1  0  0  0
 17 27  1  0  0  0
M  END
$$$$
