6uil_ligand
  -I-interpret- 

 40 39  0  0  0  0  0  0  0  0999 V2000
   70.5310  110.7690  274.7880 C   0  0  0  0  0
   69.2000  110.6660  275.5800 C   0  0  0  0  0
   69.2730  109.7240  276.8060 C   0  0  0  0  0
   66.8980  109.1740  277.4180 C   0  0  0  0  0
   65.7090  110.0950  277.0120 C   0  0  0  0  0
   64.3120  109.5560  277.4030 C   0  0  0  0  0
   63.2050  109.8810  276.3700 C   0  0  0  0  0
   61.8450  110.2440  276.9890 C   0  0  0  0  0
   60.6160  109.8690  276.1200 C   0  0  0  0  0
   59.2920  110.6820  276.5950 C   0  0  0  0  0
   58.1930  110.1850  275.9960 F   0  0  0  0  0
   59.0390  110.6070  277.9060 F   0  0  0  0  0
   59.2950  111.9790  276.2890 F   0  0  0  0  0
   68.1320  109.9520  277.7420 N   0  3  0  0  0
   70.3900  110.7190  273.3360 N   0  3  0  0  0
   60.8050  110.1890  274.7930 O   0  0  0  0  0
   60.3190  108.5310  276.2540 O   0  0  0  0  0
   71.1356  109.9088  275.0753 H   0  0  0  0  0
   70.9663  111.7389  275.0288 H   0  0  0  0  0
   68.4494  110.2594  274.9022 H   0  0  0  0  0
   68.9645  111.6637  275.9506 H   0  0  0  0  0
   70.2020  109.9243  277.3398 H   0  0  0  0  0
   69.2282  108.6939  276.4524 H   0  0  0  0  0
   67.1220  108.5194  276.5757 H   0  0  0  0  0
   66.6058  108.6167  278.3080 H   0  0  0  0  0
   65.7258  110.1748  275.9251 H   0  0  0  0  0
   65.8442  111.0392  277.5395 H   0  0  0  0  0
   64.0307  110.0331  278.3418 H   0  0  0  0  0
   64.3886  108.4706  277.4667 H   0  0  0  0  0
   63.0540  108.9836  275.7701 H   0  0  0  0  0
   63.5409  110.7499  275.8040 H   0  0  0  0  0
   61.8301  111.3273  277.1087 H   0  0  0  0  0
   61.7595  109.6815  277.9187 H   0  0  0  0  0
   67.8868  110.9400  277.6780 H   0  0  0  0  0
   68.4401  109.6508  278.6665 H   0  0  0  0  0
   71.3108  110.7932  272.9034 H   0  0  0  0  0
   69.9573  109.8351  273.0679 H   0  0  0  0  0
   69.8038  111.4939  273.0256 H   0  0  0  0  0
   61.0109  111.1235  274.7165 H   0  0  0  0  0
   60.1904  108.3244  277.1826 H   0  0  0  0  0
  2  1  1  0  0  0
  1 15  1  0  0  0
  3  2  1  0  0  0
 14  3  1  0  0  0
  4  5  1  0  0  0
  4 14  1  0  0  0
  5  6  1  0  0  0
  6  7  1  0  0  0
  7  8  1  0  0  0
  8  9  1  0  0  0
  9 10  1  0  0  0
  9 16  1  0  0  0
  9 17  1  0  0  0
 10 11  1  0  0  0
 10 12  1  0  0  0
 10 13  1  0  0  0
  1 18  1  0  0  0
  1 19  1  0  0  0
  2 20  1  0  0  0
  2 21  1  0  0  0
  3 22  1  0  0  0
  3 23  1  0  0  0
  4 24  1  0  0  0
  4 25  1  0  0  0
  5 26  1  0  0  0
  5 27  1  0  0  0
  6 28  1  0  0  0
  6 29  1  0  0  0
  7 30  1  0  0  0
  7 31  1  0  0  0
  8 32  1  0  0  0
  8 33  1  0  0  0
 14 34  1  0  0  0
 14 35  1  0  0  0
 15 36  1  0  0  0
 15 37  1  0  0  0
 15 38  1  0  0  0
 16 39  1  0  0  0
 17 40  1  0  0  0
M  END
$$$$
