### 
### Created by X-TOOL on Mon Sep 10 21:13:33 2018
### 

@<TRIPOS>MOLECULE
6esy_ligand
   39    41     1     0     0
SMALL
GAST_HUCK


@<TRIPOS>ATOM
      1 N1          3.8030  -12.2370  -10.9210 N.pl3     1 TFX        -0.2622
      2 S1          4.1920  -14.0700  -12.4210 S.3       1 TFX        -0.0248
      3 C2          2.2050  -11.6660  -16.0780 C.ar      1 TFX         0.0223
      4 N2          1.7090  -11.2730  -17.3850 N.pl3     1 TFX        -0.3241
      5 C3          2.3340  -10.7070  -15.0920 C.ar      1 TFX        -0.0629
      6 C4          2.7970  -11.0670  -13.8410 C.ar      1 TFX        -0.0866
      7 C5          3.1510  -12.3740  -13.5500 C.ar      1 TFX        -0.0266
      8 C6          3.0150  -13.3370  -14.5430 C.ar      1 TFX        -0.0866
      9 C7          2.5460  -12.9840  -15.8020 C.ar      1 TFX        -0.0629
     10 C8          3.6130  -12.6510  -12.2590 C.2       1 TFX         0.1168
     11 C9          4.5180  -13.3950  -10.1340 C.ar      1 TFX         0.0788
     12 C10         4.7410  -14.4730  -11.0370 C.ar      1 TFX         0.0555
     13 C11         5.3670  -15.6220  -10.5700 C.ar      1 TFX        -0.0542
     14 C12         5.7660  -15.7070   -9.2300 C.ar      1 TFX        -0.0634
     15 C13         5.5410  -14.6350   -8.3450 C.ar      1 TFX        -0.0771
     16 C14         4.9140  -13.4800   -8.8080 C.ar      1 TFX        -0.0486
     17 C15         1.4080   -9.8780  -17.6480 C.3       1 TFX         0.0125
     18 C16         1.5070  -12.2620  -18.4270 C.3       1 TFX         0.0125
     19 C17         3.4180  -10.9800  -10.3170 C.3       1 TFX         0.0363
     20 C18         6.4500  -16.9780   -8.7250 C.3       1 TFX        -0.0381
     21 H1          2.0728   -9.6755  -15.2991 H         1 TFX         0.0475
     22 H2          2.8851  -10.3098  -13.0703 H         1 TFX         0.0434
     23 H3          3.2761  -14.3681  -14.3340 H         1 TFX         0.0434
     24 H4          2.4457  -13.7401  -16.5722 H         1 TFX         0.0475
     25 H5          5.5467  -16.4528  -11.2427 H         1 TFX         0.0464
     26 H6          5.8537  -14.7079   -7.3097 H         1 TFX         0.0476
     27 H7          4.7363  -12.6503   -8.1334 H         1 TFX         0.0485
     28 H8          1.0468   -9.7694  -18.6813 H         1 TFX         0.0474
     29 H9          2.3177   -9.2747  -17.5123 H         1 TFX         0.0474
     30 H10         0.6313   -9.5325  -16.9499 H         1 TFX         0.0474
     31 H11         1.7863  -13.2562  -18.0480 H         1 TFX         0.0474
     32 H12         2.1329  -12.0119  -19.2963 H         1 TFX         0.0474
     33 H13         0.4487  -12.2679  -18.7267 H         1 TFX         0.0474
     34 H14         2.9375  -10.3418  -11.0732 H         1 TFX         0.0549
     35 H15         4.3116  -10.4732   -9.9238 H         1 TFX         0.0549
     36 H16         2.7122  -11.1692   -9.4948 H         1 TFX         0.0549
     37 H17         6.5395  -17.6991   -9.5508 H         1 TFX         0.0369
     38 H18         5.8506  -17.4201   -7.9156 H         1 TFX         0.0369
     39 H19         7.4520  -16.7291   -8.3454 H         1 TFX         0.0369
@<TRIPOS>BOND
     1   10    1 1  
     2    1   11 1  
     3    1   19 1  
     4   10    2 1  
     5    2   12 1  
     6    3    4 1  
     7    5    3 ar 
     8    3    9 ar 
     9    4   17 1  
    10    4   18 1  
    11    6    5 ar 
    12    7    6 ar 
    13    7    8 ar 
    14    7   10 1  
    15    8    9 ar 
    16   11   12 ar 
    17   11   16 ar 
    18   12   13 ar 
    19   13   14 ar 
    20   14   15 ar 
    21   14   20 1  
    22   15   16 ar 
    23    5   21 1  
    24    6   22 1  
    25    8   23 1  
    26    9   24 1  
    27   13   25 1  
    28   15   26 1  
    29   16   27 1  
    30   17   28 1  
    31   17   29 1  
    32   17   30 1  
    33   18   31 1  
    34   18   32 1  
    35   18   33 1  
    36   19   34 1  
    37   19   35 1  
    38   19   36 1  
    39   20   37 1  
    40   20   38 1  
    41   20   39 1  
@<TRIPOS>SUBSTRUCTURE
     1 TFX         1

