6esy_ligand
  -I-interpret- 

 40 42  0  0  0  0  0  0  0  0999 V2000
    3.8030  -12.2370  -10.9210 N   0  0  0  0  0
    4.1920  -14.0700  -12.4210 S   0  0  0  0  0
    2.2050  -11.6660  -16.0780 C   0  0  0  0  0
    1.7090  -11.2730  -17.3850 N   0  0  0  0  0
    2.3340  -10.7070  -15.0920 C   0  0  0  0  0
    2.7970  -11.0670  -13.8410 C   0  0  0  0  0
    3.1510  -12.3740  -13.5500 C   0  0  0  0  0
    3.0150  -13.3370  -14.5430 C   0  0  0  0  0
    2.5460  -12.9840  -15.8020 C   0  0  0  0  0
    3.6130  -12.6510  -12.2590 C   0  0  0  0  0
    4.5180  -13.3950  -10.1340 C   0  0  0  0  0
    4.7410  -14.4730  -11.0370 C   0  0  0  0  0
    5.3670  -15.6220  -10.5700 C   0  0  0  0  0
    5.7660  -15.7070   -9.2300 C   0  0  0  0  0
    5.5410  -14.6350   -8.3450 C   0  0  0  0  0
    4.9140  -13.4800   -8.8080 C   0  0  0  0  0
    1.4080   -9.8780  -17.6480 C   0  0  0  0  0
    1.5070  -12.2620  -18.4270 C   0  0  0  0  0
    3.4180  -10.9800  -10.3170 C   0  0  0  0  0
    6.4500  -16.9780   -8.7250 C   0  0  0  0  0
    2.0714   -9.6698  -15.3003 H   0  0  0  0  0
    2.8856  -10.3056  -13.0660 H   0  0  0  0  0
    3.2775  -14.3738  -14.3329 H   0  0  0  0  0
    2.4452  -13.7443  -16.5765 H   0  0  0  0  0
    3.1985  -11.6605  -12.0715 H   0  0  0  0  0
    5.5477  -16.4574  -11.2464 H   0  0  0  0  0
    5.8555  -14.7083   -7.3039 H   0  0  0  0  0
    4.7354  -12.6457   -8.1297 H   0  0  0  0  0
    2.0243   -9.5242  -18.4745 H   0  0  0  0  0
    0.3547   -9.7780  -17.9099 H   0  0  0  0  0
    1.6197   -9.2876  -16.7565 H   0  0  0  0  0
    0.4580  -12.2668  -18.7231 H   0  0  0  0  0
    2.1277  -12.0130  -19.2877 H   0  0  0  0  0
    1.7841  -13.2466  -18.0503 H   0  0  0  0  0
    3.9175  -10.1614  -10.8351 H   0  0  0  0  0
    2.3379  -10.8563  -10.3958 H   0  0  0  0  0
    3.7095  -10.9787   -9.2667 H   0  0  0  0  0
    5.7805  -17.8275   -8.8599 H   0  0  0  0  0
    7.3678  -17.1439   -9.2892 H   0  0  0  0  0
    6.6876  -16.8654   -7.6672 H   0  0  0  0  0
 10  1  1  0  0  0
  1 11  1  0  0  0
  1 19  1  0  0  0
 10  2  1  0  0  0
  2 12  1  0  0  0
  3  4  1  0  0  0
  5  3  4  0  0  0
  3  9  4  0  0  0
  4 17  1  0  0  0
  4 18  1  0  0  0
  6  5  4  0  0  0
  7  6  4  0  0  0
  7  8  4  0  0  0
  7 10  1  0  0  0
  8  9  4  0  0  0
 11 12  4  0  0  0
 11 16  4  0  0  0
 12 13  4  0  0  0
 13 14  4  0  0  0
 14 15  4  0  0  0
 14 20  1  0  0  0
 15 16  4  0  0  0
  5 21  1  0  0  0
  6 22  1  0  0  0
  8 23  1  0  0  0
  9 24  1  0  0  0
 10 25  1  0  0  0
 13 26  1  0  0  0
 15 27  1  0  0  0
 16 28  1  0  0  0
 17 29  1  0  0  0
 17 30  1  0  0  0
 17 31  1  0  0  0
 18 32  1  0  0  0
 18 33  1  0  0  0
 18 34  1  0  0  0
 19 35  1  0  0  0
 19 36  1  0  0  0
 19 37  1  0  0  0
 20 38  1  0  0  0
 20 39  1  0  0  0
 20 40  1  0  0  0
M  END
$$$$
