#	Name:			6j8r_ligand
#	Creating user name:	wangrx
#	Creation time:		Thu Aug  5 17:20:29 2021

#	Modifying user name:	wangrx
#	Modification time:	Thu Aug  5 17:21:12 2021

@<TRIPOS>MOLECULE
6j8r_ligand
   24    23     1     0     0
SMALL
GAST_HUCK


@<TRIPOS>ATOM
      1 C1        -23.6340   11.7000  102.8070 C.3       1 BHU        -0.2408 
      2 N2        -23.5910   12.2770  104.1430 N.am      1 BHU        -0.4407 
      3 C3        -23.1800   11.4680  105.2790 C.2       1 BHU         0.1511 
      4 O4        -22.8700   10.3300  105.1340 O.2       1 BHU        -0.3993 
      5 C5        -23.1230   12.1290  106.6520 C.3       1 BHU         0.0521 
      6 C6        -23.4400   11.1840  107.8050 C.3       1 BHU         0.0100 
      7 S7        -25.1410   10.5640  107.7190 S.3       1 BHU        -0.1756 
      8 C8        -21.6690   12.5770  106.8300 C.3       1 BHU        -0.0447 
      9 B9        -25.0620   11.1530  102.4760 B         1 BHU         3.0000 
     10 O10       -25.1320   10.0620  101.6920 O.3       1 BHU        -0.4105 
     11 O11       -26.1010   12.0060  102.4770 O.3       1 BHU        -0.8710 
     12 H1        -23.1160   12.3674  102.1025 H         1 BHU        -0.1856 
     13 H3        -23.1371   10.7187  102.8153 H         1 BHU        -0.1856 
     14 H4        -23.8454   13.2344  104.2800 H         1 BHU         0.1457 
     15 H5        -23.8104   12.9873  106.6809 H         1 BHU         0.0542 
     16 H6        -23.3051   11.7229  108.7544 H         1 BHU         0.0401 
     17 H7        -22.7475   10.3302  107.7663 H         1 BHU         0.0401 
     18 H8        -25.3113    9.9447  108.4958 H         1 BHU         0.1018 
     19 H9        -21.3948   13.2641  106.0159 H         1 BHU         0.0257 
     20 H10       -21.0087   11.6976  106.8055 H         1 BHU         0.0257 
     21 H11       -21.5594   13.0911  107.7963 H         1 BHU         0.0257 
     22 H12       -25.2289   10.3303  100.7859 H         1 BHU         0.2052 
     23 H13       -25.2289   10.3303  100.7859 H         1 BHU         0.2052 
     24 H14       -26.8837   11.5496  102.7625 H         1 BHU        -0.1290 
@<TRIPOS>BOND
     1    1    2 1    
     2    1    9 1    
     3    2    3 am   
     4    3    4 2    
     5    3    5 1    
     6    5    6 1    
     7    5    8 1    
     8    6    7 1    
     9    9   10 1    
    10    9   11 1    
    11    1   12 1    
    12    1   13 1    
    13    2   14 1    
    14    5   15 1    
    15    6   16 1    
    16    6   17 1    
    17    7   18 1    
    18    8   19 1    
    19    8   20 1    
    20    8   21 1    
    21   10   22 1    
    22   10   23 1    
    23   11   24 1    
@<TRIPOS>SUBSTRUCTURE
     1 BHU         1 PERM              0 ****  ****    0 ROOT 
