6j8r_ligand

Created by X-TOOL on Mon Aug  2 16:17:18 2021
 26 25  0  0  0  0  0  0  0  0999 V2000
  -23.6340   11.7000  102.8070  C 0  0  0  4  0  5
  -23.5910   12.2770  104.1430  N 0  0  0  2  0  3
  -23.1800   11.4680  105.2790  C 0  0  0  1  0  3
  -22.8700   10.3300  105.1340  O 0  0  0  1  0  1
  -23.1230   12.1290  106.6520  C 0  0  0  2  0  4
  -23.4400   11.1840  107.8050  C 0  0  0  3  0  4
  -25.1410   10.5640  107.7190  S 0  0  0  2  0  2
  -21.6690   12.5770  106.8300  C 0  0  0  4  0  4
  -25.0620   11.1530  102.4760  B 0  0  0  1  0  3
  -25.1320   10.0620  101.6920  O 0  0  0  3  0  3
  -26.1010   12.0060  102.4770  O 0  0  0  3  0  3
  -23.1160   12.3674  102.1025  H 0  0  0  1  0  1
  -24.6814   11.5780  102.4939  H 0  0  0  1  0  1
  -23.1371   10.7187  102.8153  H 0  0  0  1  0  1
  -23.8454   13.2344  104.2800  H 0  0  0  1  0  1
  -23.8104   12.9873  106.6809  H 0  0  0  1  0  1
  -23.3051   11.7229  108.7544  H 0  0  0  1  0  1
  -22.7475   10.3302  107.7663  H 0  0  0  1  0  1
  -25.3113    9.9447  108.4958  H 0  0  0  1  0  1
  -21.3948   13.2641  106.0159  H 0  0  0  1  0  1
  -21.0087   11.6976  106.8055  H 0  0  0  1  0  1
  -21.5594   13.0911  107.7963  H 0  0  0  1  0  1
  -25.2289   10.3303  100.7859  H 0  0  0  1  0  1
  -25.2289   10.3303  100.7859  H 0  0  0  1  0  1
  -26.8837   11.5496  102.7625  H 0  0  0  1  0  1
  -25.9183   12.7252  103.0702  H 0  0  0  1  0  1
  1  2  1  0  0  2
  1  9  1  0  0  2
  2  3  1  0  0  2
  3  4  2  0  0  2
  3  5  1  0  0  2
  5  6  1  0  0  2
  5  8  1  0  0  2
  6  7  1  0  0  2
  9 10  1  0  0  2
  9 11  1  0  0  2
  1 12  1  0  0  2
  1 13  1  0  0  2
  1 14  1  0  0  2
  2 15  1  0  0  2
  5 16  1  0  0  2
  6 17  1  0  0  2
  6 18  1  0  0  2
  7 19  1  0  0  2
  8 20  1  0  0  2
  8 21  1  0  0  2
  8 22  1  0  0  2
 10 23  1  0  0  2
 10 24  1  0  0  2
 11 25  1  0  0  2
 11 26  1  0  0  2
M  END
> <MOLECULAR_FORMULA>
C5H15NO3SB

> <MOLECULAR_WEIGHT>
179.9

> <NUM_HB_ATOMS>
5  

> <NUM_ROTOR>
4  

> <XLOGP2>
-1.00

$$$$
