5bms_ligand
  -I-interpret- 

 42 46  0  0  0  0  0  0  0  0999 V2000
  -32.4630   15.6050  -11.2790 C   0  0  0  0  0
  -33.3170   15.7740  -12.3800 C   0  0  0  0  0
  -33.9540   14.6750  -12.9320 C   0  0  0  0  0
  -34.8780   14.8300  -14.1170 C   0  0  0  0  0
  -37.0590   11.4770  -15.2010 C   0  0  0  0  0
  -34.0720   11.3050  -16.2490 C   0  0  0  0  0
  -31.7050   11.6170  -17.1930 C   0  0  0  0  0
  -31.6110   13.1420  -17.2640 C   0  0  0  0  0
  -33.7440   13.4090  -12.4020 C   0  0  0  0  0
  -32.9060   13.2290  -11.3200 C   0  0  0  0  0
  -32.2590   14.3190  -10.7480 C   0  0  0  0  0
  -36.2850   14.6550  -13.7280 N   0  0  0  0  0
  -37.0030   13.5300  -14.1220 C   0  0  0  0  0
  -38.2870   13.4350  -13.7970 N   0  0  0  0  0
  -39.0080   12.3780  -14.1500 C   0  0  0  0  0
  -38.4120   11.3600  -14.8670 C   0  0  0  0  0
  -36.3990   12.5680  -14.8110 N   0  0  0  0  0
  -36.4500   10.4480  -15.9230 N   0  0  0  0  0
  -35.1890   10.5030  -16.5590 C   0  0  0  0  0
  -33.0820   11.0060  -17.1290 C   0  0  0  0  0
  -33.5380   10.0520  -17.9600 N   0  0  0  0  0
  -34.8500    9.7540  -17.5810 N   0  0  0  0  0
  -31.2170   12.4100  -15.9780 C   0  0  0  0  0
  -33.5610   17.3690  -13.0250 Cl  0  0  0  0  0
  -31.7160   16.4630  -10.5310 N   0  0  0  0  0
  -31.0860   15.8040   -9.6030 C   0  0  0  0  0
  -31.3840   14.4780   -9.6890 N   0  0  0  0  0
  -34.6257   14.0678  -14.8542 H   0  0  0  0  0
  -34.7539   15.8338  -14.5232 H   0  0  0  0  0
  -34.0132   12.0372  -15.4437 H   0  0  0  0  0
  -31.3078   10.7900  -17.7815 H   0  0  0  0  0
  -32.2307   13.9859  -17.5671 H   0  0  0  0  0
  -31.2047   13.9059  -17.9269 H   0  0  0  0  0
  -34.2459   12.5487  -12.8448 H   0  0  0  0  0
  -32.7510   12.2299  -10.9128 H   0  0  0  0  0
  -36.7418   15.3691  -13.1607 H   0  0  0  0  0
  -40.0611   12.3144  -13.8762 H   0  0  0  0  0
  -38.9846   10.4823  -15.1669 H   0  0  0  0  0
  -36.9657    9.5712  -15.9986 H   0  0  0  0  0
  -30.3906   12.3919  -15.2674 H   0  0  0  0  0
  -31.4154   12.4718  -14.9080 H   0  0  0  0  0
  -30.4178   16.2479   -8.8651 H   0  0  0  0  0
  2  1  4  0  0  0
  1 11  4  0  0  0
  1 25  4  0  0  0
  3  2  4  0  0  0
  2 24  1  0  0  0
  4  3  1  0  0  0
  3  9  4  0  0  0
 12  4  1  0  0  0
  5 16  4  0  0  0
  5 17  4  0  0  0
 18  5  1  0  0  0
 19  6  4  0  0  0
  6 20  4  0  0  0
  7  8  1  0  0  0
 20  7  1  0  0  0
  7 23  1  0  0  0
 23  8  1  0  0  0
  9 10  4  0  0  0
 10 11  4  0  0  0
 11 27  4  0  0  0
 13 12  1  0  0  0
 13 14  4  0  0  0
 17 13  4  0  0  0
 15 14  4  0  0  0
 16 15  4  0  0  0
 18 19  1  0  0  0
 19 22  4  0  0  0
 20 21  4  0  0  0
 21 22  4  0  0  0
 25 26  4  0  0  0
 26 27  4  0  0  0
  4 28  1  0  0  0
  4 29  1  0  0  0
  6 30  1  0  0  0
  7 31  1  0  0  0
  8 32  1  0  0  0
  8 33  1  0  0  0
  9 34  1  0  0  0
 10 35  1  0  0  0
 12 36  1  0  0  0
 15 37  1  0  0  0
 16 38  1  0  0  0
 18 39  1  0  0  0
 23 40  1  0  0  0
 23 41  1  0  0  0
 26 42  1  0  0  0
M  END
$$$$
