1sqi_ligand
  -I-interpret- 

 57 59  0  0  0  0  0  0  0  0999 V2000
   45.7410    1.5990    8.0700 O   0  0  0  0  0
   47.1160    1.8760    8.3900 C   0  0  0  0  0
   44.8060    1.1630    5.7870 C   0  0  0  0  0
   44.9830    0.5580    4.5250 C   0  0  0  0  0
   46.1780   -0.1590    4.3240 C   0  0  0  0  0
   47.1740   -0.2880    5.2560 C   0  0  0  0  0
   46.9690    0.3120    6.5100 C   0  0  0  0  0
   45.7780    1.0360    6.7610 C   0  0  0  0  0
   44.9710   -1.3850    2.7410 C   0  0  0  0  0
   44.9260   -1.7960    1.3680 C   0  0  0  0  0
   46.0010   -1.3190    0.5940 C   0  0  0  0  0
   47.0630   -0.4980    1.0990 C   0  0  0  0  0
   47.0730   -0.0570    2.4270 C   0  0  0  0  0
   45.9910   -0.5360    3.2610 C   0  0  0  0  0
   43.9270   -1.8440    3.5890 C   0  0  0  0  0
   44.7360   -4.1020    0.6560 C   0  0  0  0  0
   43.6300   -4.8120    0.4470 C   0  0  0  0  0
   45.9510   -4.7200    0.7620 C   0  0  0  0  0
   44.1140   -6.0720    0.4150 N   0  0  0  0  0
   45.5960   -5.9980    0.6170 N   0  0  0  0  0
   42.2850   -4.5980    0.2980 O   0  0  0  0  0
   44.1030   -2.9680    0.6160 C   0  0  0  0  0
   42.8230   -2.6630    0.4160 O   0  0  0  0  0
   48.3160    0.7470    2.8370 S   0  0  0  0  0
   49.2610    0.2880    2.2240 O   0  0  0  0  0
   48.6460    0.6080    4.1630 O   0  0  0  0  0
   48.4050    1.9280    2.6670 C   0  0  0  0  0
   43.6240   -7.5700    0.4260 C   0  0  0  0  0
   43.3960   -7.8750    1.9170 C   0  0  0  0  0
   42.4490   -7.8120   -0.4330 C   0  0  0  0  0
   44.6530   -8.6610    0.0180 C   0  0  0  0  0
   47.6876    0.9482    8.3647 H   0  0  0  0  0
   47.5237    2.5755    7.6602 H   0  0  0  0  0
   47.1748    2.3134    9.3867 H   0  0  0  0  0
   43.8999    1.7323    5.9944 H   0  0  0  0  0
   44.2296    0.6417    3.7418 H   0  0  0  0  0
   48.0901   -0.8350    5.0333 H   0  0  0  0  0
   47.7260    0.2203    7.2889 H   0  0  0  0  0
   46.0280   -1.5923   -0.4608 H   0  0  0  0  0
   47.8787   -0.2118    0.4351 H   0  0  0  0  0
   42.9692   -1.4891    3.2086 H   0  0  0  0  0
   43.9300   -2.9338    3.6096 H   0  0  0  0  0
   44.0840   -1.4599    4.5969 H   0  0  0  0  0
   45.7592   -3.8335    0.9187 H   0  0  0  0  0
   46.9387   -4.2873    0.9213 H   0  0  0  0  0
   49.3591    2.2795    3.0598 H   0  0  0  0  0
   48.3474    2.1456    1.6005 H   0  0  0  0  0
   47.5893    2.4310    3.1863 H   0  0  0  0  0
   44.3317   -7.7441    2.4605 H   0  0  0  0  0
   42.6445   -7.1932    2.3152 H   0  0  0  0  0
   43.0509   -8.9030    2.0276 H   0  0  0  0  0
   41.6182   -7.1940   -0.0925 H   0  0  0  0  0
   42.6951   -7.5564   -1.4636 H   0  0  0  0  0
   42.1687   -8.8638   -0.3752 H   0  0  0  0  0
   44.9937   -8.4746   -1.0005 H   0  0  0  0  0
   45.5037   -8.6289    0.6987 H   0  0  0  0  0
   44.1807   -9.6419    0.0707 H   0  0  0  0  0
  1  2  1  0  0  0
  8  1  1  0  0  0
  4  3  4  0  0  0
  3  8  4  0  0  0
  5  4  4  0  0  0
  5  6  4  0  0  0
 14  5  1  0  0  0
  6  7  4  0  0  0
  7  8  4  0  0  0
 10  9  4  0  0  0
  9 14  4  0  0  0
  9 15  1  0  0  0
 10 11  4  0  0  0
 22 10  1  0  0  0
 11 12  4  0  0  0
 12 13  4  0  0  0
 14 13  4  0  0  0
 13 24  1  0  0  0
 16 17  1  0  0  0
 16 18  1  0  0  0
 16 22  1  0  0  0
 17 19  1  0  0  0
 17 21  2  0  0  0
 18 20  2  0  0  0
 19 20  1  0  0  0
 19 28  1  0  0  0
 22 23  2  0  0  0
 24 25  2  0  0  0
 24 26  2  0  0  0
 24 27  1  0  0  0
 28 29  1  0  0  0
 28 30  1  0  0  0
 28 31  1  0  0  0
  2 32  1  0  0  0
  2 33  1  0  0  0
  2 34  1  0  0  0
  3 35  1  0  0  0
  4 36  1  0  0  0
  6 37  1  0  0  0
  7 38  1  0  0  0
 11 39  1  0  0  0
 12 40  1  0  0  0
 15 41  1  0  0  0
 15 42  1  0  0  0
 15 43  1  0  0  0
 16 44  1  0  0  0
 18 45  1  0  0  0
 27 46  1  0  0  0
 27 47  1  0  0  0
 27 48  1  0  0  0
 29 49  1  0  0  0
 29 50  1  0  0  0
 29 51  1  0  0  0
 30 52  1  0  0  0
 30 53  1  0  0  0
 30 54  1  0  0  0
 31 55  1  0  0  0
 31 56  1  0  0  0
 31 57  1  0  0  0
M  END
$$$$
