4mbj_ligand
  -I-interpret- 

 41 43  0  0  0  0  0  0  0  0999 V2000
   16.2590  -23.7990   -0.1980 C   0  0  0  0  0
   17.4560  -24.4170   -0.0890 C   0  0  0  0  0
   17.7270  -25.6840   -0.4870 N   0  0  0  0  0
   16.6600  -26.3320   -1.0400 C   0  0  0  0  0
   15.4060  -25.7910   -1.1960 C   0  0  0  0  0
   15.2000  -24.4810   -0.7610 C   0  0  0  0  0
   16.2650  -22.5000    0.2910 N   0  0  0  0  0
   17.5310  -22.3890    0.6940 C   0  0  0  0  0
   18.2980  -23.4790    0.5050 N   0  0  0  0  0
   14.3230  -26.5040   -1.7800 N   0  0  0  0  0
   13.0510  -26.0880   -1.8880 C   0  0  0  0  0
   12.1040  -27.0190   -2.5950 C   0  0  0  0  0
   12.6510  -24.9960   -1.4870 O   0  0  0  0  0
   12.5620  -28.0230   -3.3660 C   0  0  0  0  0
   11.6170  -28.8850   -4.0740 C   0  0  0  0  0
   10.3060  -28.6950   -3.9640 C   0  0  0  0  0
    9.8510  -27.6880   -3.1730 C   0  0  0  0  0
   10.7740  -26.8280   -2.4830 C   0  0  0  0  0
   10.3160  -25.8050   -1.7090 F   0  0  0  0  0
   13.8870  -28.2120   -3.4720 F   0  0  0  0  0
   11.9140  -29.7850   -4.8040 N   0  0  0  0  0
   10.8450  -30.8020   -5.6760 S   0  0  0  0  0
    9.8160  -31.5270   -4.3500 C   0  0  0  0  0
    8.4260  -31.9050   -4.8800 C   0  0  0  0  0
    7.4940  -30.6890   -5.0250 C   0  0  0  0  0
    9.9630  -29.9710   -6.5260 O   0  0  0  0  0
   11.6180  -31.8810   -6.3220 O   0  0  0  0  0
   16.8141  -27.3549   -1.3835 H   0  0  0  0  0
   14.2238  -24.0070   -0.8638 H   0  0  0  0  0
   17.9191  -21.4764    1.1464 H   0  0  0  0  0
   14.5347  -27.4282   -2.1562 H   0  0  0  0  0
    9.6068  -29.3369   -4.4999 H   0  0  0  0  0
    8.7782  -27.5310   -3.0607 H   0  0  0  0  0
   12.9110  -29.9667   -4.9200 H   0  0  0  0  0
    9.6996  -30.7909   -3.5546 H   0  0  0  0  0
   10.3061  -32.4269   -3.9785 H   0  0  0  0  0
    7.9712  -32.5917   -4.1660 H   0  0  0  0  0
    8.5538  -32.3481   -5.8677 H   0  0  0  0  0
    7.3633  -30.2150   -4.0522 H   0  0  0  0  0
    7.9348  -29.9760   -5.7217 H   0  0  0  0  0
    6.5261  -31.0178   -5.4034 H   0  0  0  0  0
  1  2  4  0  0  0
  1  6  4  0  0  0
  1  7  4  0  0  0
  2  3  4  0  0  0
  2  9  4  0  0  0
  3  4  4  0  0  0
  4  5  4  0  0  0
  5  6  4  0  0  0
  5 10  1  0  0  0
  7  8  4  0  0  0
  8  9  4  0  0  0
 10 11  1  0  0  0
 11 12  1  0  0  0
 11 13  2  0  0  0
 12 14  4  0  0  0
 12 18  4  0  0  0
 14 15  4  0  0  0
 14 20  1  0  0  0
 15 16  4  0  0  0
 15 21  1  0  0  0
 16 17  4  0  0  0
 17 18  4  0  0  0
 18 19  1  0  0  0
 21 22  1  0  0  0
 22 23  1  0  0  0
 22 26  2  0  0  0
 22 27  2  0  0  0
 23 24  1  0  0  0
 24 25  1  0  0  0
  4 28  1  0  0  0
  6 29  1  0  0  0
  8 30  1  0  0  0
 10 31  1  0  0  0
 16 32  1  0  0  0
 17 33  1  0  0  0
 21 34  1  0  0  0
 23 35  1  0  0  0
 23 36  1  0  0  0
 24 37  1  0  0  0
 24 38  1  0  0  0
 25 39  1  0  0  0
 25 40  1  0  0  0
 25 41  1  0  0  0
M  END
$$$$
