3v2p_ligand
  -I-interpret- 

 56 55  0  0  0  0  0  0  0  0999 V2000
    0.2880   -0.1900   11.3940 C   0  0  0  0  0
   -0.4980   -1.1340   11.5470 O   0  0  0  0  0
    0.0240    0.9440   11.8210 O   0  0  0  0  0
    1.5920   -0.4530   10.6650 C   0  0  0  0  0
    1.4520   -0.6400    9.1670 C   0  0  0  0  0
    2.7800   -0.9010    8.4810 C   0  0  0  0  0
    3.4780    0.3800    8.0480 C   0  0  0  0  0
    3.7600    0.4540    6.5570 C   0  0  0  0  0
    5.1320   -0.1450    6.2240 C   0  0  0  0  0
    5.4150   -0.0660    4.7200 C   0  0  0  0  0
    6.8680    0.2390    4.4270 C   0  0  0  0  0
    7.1930    0.3320    2.9540 C   0  0  0  0  0
    8.6780    0.3710    2.6640 C   0  0  0  0  0
    8.9130    1.1280    1.3650 C   0  0  0  0  0
    9.6380    0.2380    0.3740 C   0  0  0  0  0
   11.0580    0.7150    0.1480 C   0  0  0  0  0
   11.5800    0.2950   -1.2200 C   0  0  0  0  0
   12.4750    1.3870   -1.8020 C   0  0  0  0  0
   12.7610    1.2980   -3.3260 C   0  0  0  0  0
   14.0090    0.6510   -3.9020 C   0  0  0  0  0
    0.7463    1.5402   11.6102 H   0  0  0  0  0
    1.9978   -1.3823   11.0648 H   0  0  0  0  0
    2.2239    0.4218   10.8184 H   0  0  0  0  0
    1.0371    0.2790    8.7530 H   0  0  0  0  0
    0.8123   -1.5059    8.9968 H   0  0  0  0  0
    2.5848   -1.4945    7.5878 H   0  0  0  0  0
    3.4293   -1.4126    9.1915 H   0  0  0  0  0
    4.4387    0.4151    8.5616 H   0  0  0  0  0
    2.8149    1.2094    8.2939 H   0  0  0  0  0
    3.7531    1.5005    6.2523 H   0  0  0  0  0
    2.9941   -0.1137    6.0286 H   0  0  0  0  0
    5.1394   -1.1921    6.5268 H   0  0  0  0  0
    5.8985    0.4202    6.7543 H   0  0  0  0  0
    4.8088    0.7380    4.3026 H   0  0  0  0  0
    5.1759   -1.0335    4.2786 H   0  0  0  0  0
    7.4589   -0.5801    4.8369 H   0  0  0  0  0
    7.0893    1.2107    4.8684 H   0  0  0  0  0
    6.7622    1.2615    2.5818 H   0  0  0  0  0
    6.7887   -0.5585    2.4727 H   0  0  0  0  0
    9.0596   -0.6456    2.5697 H   0  0  0  0  0
    9.1975    0.8735    3.4799 H   0  0  0  0  0
    9.5201    2.0103    1.5675 H   0  0  0  0  0
    7.9531    1.4276    0.9444 H   0  0  0  0  0
    9.1049    0.2683   -0.5763 H   0  0  0  0  0
    9.6705   -0.7752    0.7746 H   0  0  0  0  0
   11.6962    0.2701    0.9114 H   0  0  0  0  0
   11.0680    1.8037    0.2009 H   0  0  0  0  0
   10.7352    0.1322   -1.8893 H   0  0  0  0  0
   12.1595   -0.6221   -1.1142 H   0  0  0  0  0
   13.4398    1.2875   -1.3046 H   0  0  0  0  0
   11.9483    2.3283   -1.6453 H   0  0  0  0  0
   12.8677    2.3427   -3.6182 H   0  0  0  0  0
   11.9596    0.6551   -3.6901 H   0  0  0  0  0
   14.8913    1.1722   -3.5306 H   0  0  0  0  0
   14.0481   -0.3948   -3.5974 H   0  0  0  0  0
   13.9798    0.7130   -4.9898 H   0  0  0  0  0
  1  2  2  0  0  0
  1  3  1  0  0  0
  1  4  1  0  0  0
  4  5  1  0  0  0
  5  6  1  0  0  0
  6  7  1  0  0  0
  7  8  1  0  0  0
  8  9  1  0  0  0
  9 10  1  0  0  0
 10 11  1  0  0  0
 11 12  1  0  0  0
 12 13  1  0  0  0
 13 14  1  0  0  0
 14 15  1  0  0  0
 15 16  1  0  0  0
 16 17  1  0  0  0
 17 18  1  0  0  0
 18 19  1  0  0  0
 19 20  1  0  0  0
  3 21  1  0  0  0
  4 22  1  0  0  0
  4 23  1  0  0  0
  5 24  1  0  0  0
  5 25  1  0  0  0
  6 26  1  0  0  0
  6 27  1  0  0  0
  7 28  1  0  0  0
  7 29  1  0  0  0
  8 30  1  0  0  0
  8 31  1  0  0  0
  9 32  1  0  0  0
  9 33  1  0  0  0
 10 34  1  0  0  0
 10 35  1  0  0  0
 11 36  1  0  0  0
 11 37  1  0  0  0
 12 38  1  0  0  0
 12 39  1  0  0  0
 13 40  1  0  0  0
 13 41  1  0  0  0
 14 42  1  0  0  0
 14 43  1  0  0  0
 15 44  1  0  0  0
 15 45  1  0  0  0
 16 46  1  0  0  0
 16 47  1  0  0  0
 17 48  1  0  0  0
 17 49  1  0  0  0
 18 50  1  0  0  0
 18 51  1  0  0  0
 19 52  1  0  0  0
 19 53  1  0  0  0
 20 54  1  0  0  0
 20 55  1  0  0  0
 20 56  1  0  0  0
M  END
$$$$
