1ndj_ligand
  -I-interpret- 

 32 33  0  0  0  0  0  0  0  0999 V2000
    4.8740  -16.4020   23.9080 C   0  0  0  0  0
    4.5210  -15.1980   23.8090 O   0  0  0  0  0
    4.3800  -17.3080   23.1850 O   0  0  0  0  0
    5.8760  -16.6900   24.9620 C   0  0  0  0  0
    6.7710  -15.4720   25.2500 C   0  0  0  0  0
    7.6500  -15.1560   24.0450 C   0  0  0  0  0
    8.7530  -14.1100   24.3050 C   0  0  0  0  0
    9.3260  -13.3910   23.1020 C   0  0  0  0  0
   10.5710  -14.3270   22.1360 S   0  0  0  0  0
   10.9080  -12.8280   21.1610 C   0  0  0  0  0
   10.9240  -11.6750   22.1420 C   0  0  0  0  0
   12.2060  -11.4600   22.7970 N   0  0  0  0  0
   12.1270  -11.6340   24.1220 C   0  0  0  0  0
   13.0460  -11.4910   24.9600 O   0  0  0  0  0
   10.8620  -11.9760   24.4610 N   0  0  0  0  0
    9.9770  -12.0340   23.3110 C   0  0  0  0  0
    4.7786  -18.1510   23.4133 H   0  0  0  0  0
    6.5103  -17.5066   24.6170 H   0  0  0  0  0
    5.3444  -16.9480   25.8779 H   0  0  0  0  0
    7.4097  -15.6968   26.1042 H   0  0  0  0  0
    6.1379  -14.6103   25.4613 H   0  0  0  0  0
    6.9967  -14.7424   23.2767 H   0  0  0  0  0
    8.1521  -16.0830   23.7680 H   0  0  0  0  0
    9.5850  -14.6614   24.7430 H   0  0  0  0  0
    8.2881  -13.3369   24.9168 H   0  0  0  0  0
    8.3789  -13.2709   22.5760 H   0  0  0  0  0
   10.1464  -12.6798   20.3954 H   0  0  0  0  0
   11.8600  -12.9084   20.6362 H   0  0  0  0  0
   10.6552  -10.7931   21.5605 H   0  0  0  0  0
   13.0628  -11.2068   22.3049 H   0  0  0  0  0
   10.5638  -12.1711   25.4167 H   0  0  0  0  0
    9.1230  -11.3655   23.4203 H   0  0  0  0  0
  1  2  2  0  0  0
  1  3  1  0  0  0
  1  4  1  0  0  0
  4  5  1  0  0  0
  5  6  1  0  0  0
  6  7  1  0  0  0
  7  8  1  0  0  0
  8  9  1  0  0  0
  8 16  1  0  0  0
  9 10  1  0  0  0
 10 11  1  0  0  0
 11 12  1  0  0  0
 11 16  1  0  0  0
 12 13  1  0  0  0
 13 14  2  0  0  0
 13 15  1  0  0  0
 15 16  1  0  0  0
  3 17  1  0  0  0
  4 18  1  0  0  0
  4 19  1  0  0  0
  5 20  1  0  0  0
  5 21  1  0  0  0
  6 22  1  0  0  0
  6 23  1  0  0  0
  7 24  1  0  0  0
  7 25  1  0  0  0
  8 26  1  0  0  0
 10 27  1  0  0  0
 10 28  1  0  0  0
 11 29  1  0  0  0
 12 30  1  0  0  0
 15 31  1  0  0  0
 16 32  1  0  0  0
M  END
$$$$
