6m95_ligand
  -I-interpret- 

 50 52  0  0  0  0  0  0  0  0999 V2000
  -17.7220   -4.5040  -23.7310 C   0  0  0  0  0
  -18.6030   -5.5090  -24.0350 C   0  0  0  0  0
  -16.7250   -7.2380  -22.7600 C   0  0  0  0  0
  -19.8130   -5.2250  -24.6350 C   0  0  0  0  0
  -19.2920   -2.9160  -24.6280 C   0  0  0  0  0
  -21.4250    1.1670  -23.3110 C   0  0  0  0  0
  -22.4140    1.1390  -21.0120 C   0  0  0  0  0
  -22.5970    4.9770  -20.9540 C   0  0  0  0  0
  -23.8310    5.2010  -21.5590 C   0  0  0  0  0
  -24.5750    4.1220  -21.9660 C   0  0  0  0  0
  -20.7150   -0.5980  -21.6580 C   0  0  0  0  0
  -16.1070   -2.3670  -22.9610 C   0  0  0  0  0
  -19.7440   -1.5360  -24.9710 C   0  0  0  0  0
  -20.2370    0.7590  -24.1570 C   0  0  0  0  0
  -21.1520    0.8620  -21.8460 C   0  0  0  0  0
  -22.8630    2.5920  -21.1930 C   0  0  0  0  0
  -22.1210    3.6800  -20.7690 C   0  0  0  0  0
  -24.0960    2.8370  -21.7720 C   0  0  0  0  0
  -19.5760   -1.0130  -22.5670 C   0  0  0  0  0
  -18.0780   -3.1930  -24.0310 C   0  0  0  0  0
  -20.1610   -3.9280  -24.9440 C   0  0  0  0  0
  -19.9120   -0.6570  -23.9300 N   0  0  0  0  0
  -20.0010   -1.2860  -26.1350 O   0  0  0  0  0
  -17.2630   -2.1180  -23.7760 O   0  0  0  0  0
  -18.2510   -7.2130  -23.6930 S   0  0  0  0  0
  -16.7627   -4.7272  -23.2641 H   0  0  0  0  0
  -15.9301   -6.7867  -23.3538 H   0  0  0  0  0
  -16.8558   -6.6735  -21.8368 H   0  0  0  0  0
  -16.4625   -8.2690  -22.5228 H   0  0  0  0  0
  -20.5021   -6.0369  -24.8674 H   0  0  0  0  0
  -22.3036    0.6092  -23.6351 H   0  0  0  0  0
  -21.5970    2.2370  -23.4278 H   0  0  0  0  0
  -22.1903    0.9643  -19.9596 H   0  0  0  0  0
  -23.2127    0.4759  -21.3444 H   0  0  0  0  0
  -21.9973    5.8244  -20.6218 H   0  0  0  0  0
  -24.1998    6.2160  -21.7068 H   0  0  0  0  0
  -25.5433    4.2764  -22.4421 H   0  0  0  0  0
  -21.5710   -1.2286  -21.8984 H   0  0  0  0  0
  -20.3682   -0.7053  -20.6302 H   0  0  0  0  0
  -16.4242   -2.7379  -21.9864 H   0  0  0  0  0
  -15.4753   -3.1110  -23.4463 H   0  0  0  0  0
  -15.5472   -1.4404  -22.8339 H   0  0  0  0  0
  -19.3774    1.3702  -23.8821 H   0  0  0  0  0
  -20.4825    0.9038  -25.2091 H   0  0  0  0  0
  -20.3416    1.5078  -21.5081 H   0  0  0  0  0
  -21.1565    3.5217  -20.2865 H   0  0  0  0  0
  -24.7094    1.9921  -22.0852 H   0  0  0  0  0
  -19.4194   -2.0893  -22.4946 H   0  0  0  0  0
  -18.6603   -0.5032  -22.2675 H   0  0  0  0  0
  -21.1113   -3.7104  -25.4315 H   0  0  0  0  0
  1  2  4  0  0  0
 20  1  4  0  0  0
  2  4  4  0  0  0
  2 25  1  0  0  0
 25  3  1  0  0  0
 21  4  4  0  0  0
  5 13  1  0  0  0
 20  5  4  0  0  0
  5 21  4  0  0  0
 14  6  1  0  0  0
  6 15  1  0  0  0
 15  7  1  0  0  0
  7 16  1  0  0  0
  8  9  4  0  0  0
 17  8  4  0  0  0
 10  9  4  0  0  0
 18 10  4  0  0  0
 11 15  1  0  0  0
 19 11  1  0  0  0
 24 12  1  0  0  0
 13 22  1  0  0  0
 13 23  2  0  0  0
 22 14  1  0  0  0
 16 17  4  0  0  0
 16 18  4  0  0  0
 22 19  1  0  0  0
 20 24  1  0  0  0
  1 26  1  0  0  0
  3 27  1  0  0  0
  3 28  1  0  0  0
  3 29  1  0  0  0
  4 30  1  0  0  0
  6 31  1  0  0  0
  6 32  1  0  0  0
  7 33  1  0  0  0
  7 34  1  0  0  0
  8 35  1  0  0  0
  9 36  1  0  0  0
 10 37  1  0  0  0
 11 38  1  0  0  0
 11 39  1  0  0  0
 12 40  1  0  0  0
 12 41  1  0  0  0
 12 42  1  0  0  0
 14 43  1  0  0  0
 14 44  1  0  0  0
 15 45  1  0  0  0
 17 46  1  0  0  0
 18 47  1  0  0  0
 19 48  1  0  0  0
 19 49  1  0  0  0
 21 50  1  0  0  0
M  END
$$$$
