4y4j_ligand
  -I-interpret- 

 24 24  0  0  0  0  0  0  0  0999 V2000
   -5.8870    2.7370   11.1760 O   0  0  0  0  0
   -4.7160    2.0970   10.9360 C   0  0  0  0  0
   -3.5310    2.7820   10.7060 C   0  0  0  0  0
   -4.7300    0.6980   10.8850 C   0  0  0  0  0
   -5.9010    0.0520   11.1390 O   0  0  0  0  0
   -3.5610    0.0190   10.5920 C   0  0  0  0  0
   -2.3870    0.7070   10.3590 C   0  0  0  0  0
   -2.3580    2.1000   10.4130 C   0  0  0  0  0
   -1.0740    2.8520   10.1300 C   0  0  0  0  0
   -1.2270    3.8040    9.0800 O   0  0  0  0  0
   -0.6020    3.6220   11.3500 C   0  0  0  0  0
    0.6210    4.4030   11.0880 N   0  3  0  0  0
   -6.5830    2.0893   11.3087 H   0  0  0  0  0
   -3.5213    3.8708   10.7561 H   0  0  0  0  0
   -5.7640   -0.8956   11.0695 H   0  0  0  0  0
   -3.5668   -1.0700   10.5446 H   0  0  0  0  0
   -1.4745    0.1563   10.1308 H   0  0  0  0  0
   -0.3498    2.0890    9.8444 H   0  0  0  0  0
   -0.3923    4.2555    8.9348 H   0  0  0  0  0
   -0.3781    2.9011   12.1363 H   0  0  0  0  0
   -1.3910    4.3186   11.6335 H   0  0  0  0  0
    0.8943    4.8992   11.9362 H   0  0  0  0  0
    1.3713    3.7728   10.8046 H   0  0  0  0  0
    0.4404    5.0754   10.3426 H   0  0  0  0  0
  1  2  1  0  0  0
  2  3  4  0  0  0
  2  4  4  0  0  0
  3  8  4  0  0  0
  4  5  1  0  0  0
  4  6  4  0  0  0
  6  7  4  0  0  0
  7  8  4  0  0  0
  8  9  1  0  0  0
  9 10  1  0  0  0
  9 11  1  0  0  0
 11 12  1  0  0  0
  1 13  1  0  0  0
  3 14  1  0  0  0
  5 15  1  0  0  0
  6 16  1  0  0  0
  7 17  1  0  0  0
  9 18  1  0  0  0
 10 19  1  0  0  0
 11 20  1  0  0  0
 11 21  1  0  0  0
 12 22  1  0  0  0
 12 23  1  0  0  0
 12 24  1  0  0  0
M  END
$$$$
