### 
### Created by X-TOOL on Mon Sep 10 21:13:34 2018
### 

@<TRIPOS>MOLECULE
5U4A_LIGAND
   32    33     1     0     0
SMALL
GAST_HUCK


@<TRIPOS>ATOM
      1 C01        43.6680   -0.9610   30.8630 C.ar      1 7VG        -0.0671
      2 C02        42.8170    0.0320   30.3100 C.ar      1 7VG        -0.0772
      3 C03        42.6880    0.2800   28.9130 C.ar      1 7VG         0.0044
      4 C04        43.4320   -0.4620   27.9160 C.ar      1 7VG        -0.0880
      5 O04        44.7630   -2.1930   32.8660 O.3       1 7VG        -0.8710
      6 C05        44.2570   -1.4430   28.5150 C.ar      1 7VG        -0.0954
      7 C06        44.3690   -1.6680   29.8990 C.ar      1 7VG        -0.0905
      8 C11        43.0300   -1.0240   22.0570 C.ar      1 7VG         0.0499
      9 C12        42.8170    0.0310   21.1610 C.ar      1 7VG        -0.0342
     10 C13        42.4990    1.2750   21.7110 C.ar      1 7VG         0.0499
     11 C14        42.3990    1.4830   23.1050 C.ar      1 7VG        -0.0789
     12 C07        43.3520   -0.2840   26.4000 C.2       1 7VG        -0.1500
     13 C08        42.5480    0.4030   25.5340 C.2       1 7VG        -0.1552
     14 C09        42.6170    0.4110   24.0170 C.ar      1 7VG        -0.1194
     15 C10        42.9250   -0.8370   23.4370 C.ar      1 7VG        -0.0789
     16 O01        42.2860    2.3560   20.8520 O.3       1 7VG        -0.3435
     17 O02        43.3450   -2.3070   21.6240 O.3       1 7VG        -0.3435
     18 O03        43.0470   -0.6630   33.3890 O.3       1 7VG        -0.8710
     19 CL1        41.6010    1.5340   28.4640 Cl        1 7VG        -0.0943
     20 B01        43.8280   -1.2750   32.4390 B         1 7VG         3.0000
     21 H          42.2272    0.6409   30.9952 H         1 7VG         0.0533
     22 H          45.3821   -1.7642   33.4613 H         1 7VG        -0.1290
     23 H          44.8515   -2.0728   27.8532 H         1 7VG         0.0397
     24 H          45.0512   -2.4489   30.2350 H         1 7VG         0.0525
     25 H          42.8958   -0.1121   20.0833 H         1 7VG         0.0250
     26 H          42.1525    2.4740   23.4863 H         1 7VG         0.0227
     27 H          44.1293   -0.8442   25.8803 H         1 7VG         0.0027
     28 H          41.7672    1.0159   25.9843 H         1 7VG         0.0009
     29 H          43.0880   -1.6917   24.0935 H         1 7VG         0.0227
     30 H          42.3864    2.0653   19.9426 H         1 7VG         0.2464
     31 H          43.3905   -2.3178   20.6651 H         1 7VG         0.2464
     32 H          43.6082   -0.1826   34.0020 H         1 7VG        -0.1290
@<TRIPOS>BOND
     1    2    1 ar 
     2    7    1 ar 
     3    1   20 1  
     4    3    2 ar 
     5    4    3 ar 
     6    3   19 1  
     7    4    6 ar 
     8   12    4 1  
     9   20    5 1  
    10    6    7 ar 
    11    9    8 ar 
    12    8   15 ar 
    13    8   17 1  
    14   10    9 ar 
    15   11   10 ar 
    16   10   16 1  
    17   14   11 ar 
    18   13   12 2  
    19   13   14 1  
    20   14   15 ar 
    21   20   18 1  
    22    2   21 1  
    23    5   22 1  
    24    6   23 1  
    25    7   24 1  
    26    9   25 1  
    27   11   26 1  
    28   12   27 1  
    29   13   28 1  
    30   15   29 1  
    31   16   30 1  
    32   17   31 1  
    33   18   32 1  
@<TRIPOS>SUBSTRUCTURE
     1 7VG         1

