5U4A_LIGAND
  -I-interpret- 

 32 33  0  0  0  0  0  0  0  0999 V2000
   43.6680   -0.9610   30.8630 C   0  0  0  0  0
   42.8170    0.0320   30.3100 C   0  0  0  0  0
   42.6880    0.2800   28.9130 C   0  0  0  0  0
   43.4320   -0.4620   27.9160 C   0  0  0  0  0
   44.7630   -2.1930   32.8660 O   0  0  0  0  0
   44.2570   -1.4430   28.5150 C   0  0  0  0  0
   44.3690   -1.6680   29.8990 C   0  0  0  0  0
   43.0300   -1.0240   22.0570 C   0  0  0  0  0
   42.8170    0.0310   21.1610 C   0  0  0  0  0
   42.4990    1.2750   21.7110 C   0  0  0  0  0
   42.3990    1.4830   23.1050 C   0  0  0  0  0
   43.3520   -0.2840   26.4000 C   0  0  0  0  0
   42.5480    0.4030   25.5340 C   0  0  0  0  0
   42.6170    0.4110   24.0170 C   0  0  0  0  0
   42.9250   -0.8370   23.4370 C   0  0  0  0  0
   42.2860    2.3560   20.8520 O   0  0  0  0  0
   43.3450   -2.3070   21.6240 O   0  0  0  0  0
   43.0470   -0.6630   33.3890 O   0  0  0  0  0
   41.6010    1.5340   28.4640 Cl  0  0  0  0  0
   43.8280   -1.2750   32.4390 B   0  0  0  0  0
   42.2272    0.6409   30.9952 H   0  0  0  0  0
   45.2364   -2.5423   32.1074 H   0  0  0  0  0
   44.8515   -2.0728   27.8532 H   0  0  0  0  0
   45.0512   -2.4489   30.2350 H   0  0  0  0  0
   42.8958   -0.1121   20.0833 H   0  0  0  0  0
   42.1525    2.4740   23.4863 H   0  0  0  0  0
   44.1293   -0.8442   25.8803 H   0  0  0  0  0
   41.7672    1.0159   25.9843 H   0  0  0  0  0
   43.0880   -1.6917   24.0935 H   0  0  0  0  0
   42.0780    3.1378   21.3688 H   0  0  0  0  0
   43.4513   -2.8831   22.3845 H   0  0  0  0  0
   42.4433   -0.0521   32.9602 H   0  0  0  0  0
  2  1  4  0  0  0
  7  1  4  0  0  0
  1 20  1  0  0  0
  3  2  4  0  0  0
  4  3  4  0  0  0
  3 19  1  0  0  0
  4  6  4  0  0  0
 12  4  1  0  0  0
 20  5  1  0  0  0
  6  7  4  0  0  0
  9  8  4  0  0  0
  8 15  4  0  0  0
  8 17  1  0  0  0
 10  9  4  0  0  0
 11 10  4  0  0  0
 10 16  1  0  0  0
 14 11  4  0  0  0
 13 12  2  0  0  0
 13 14  1  0  0  0
 14 15  4  0  0  0
 20 18  1  0  0  0
  2 21  1  0  0  0
  5 22  1  0  0  0
  6 23  1  0  0  0
  7 24  1  0  0  0
  9 25  1  0  0  0
 11 26  1  0  0  0
 12 27  1  0  0  0
 13 28  1  0  0  0
 15 29  1  0  0  0
 16 30  1  0  0  0
 17 31  1  0  0  0
 18 32  1  0  0  0
M  END
$$$$
