4e8y_ligand
  -I-interpret- 

 51 54  0  0  0  0  0  0  0  0999 V2000
    6.0190  -11.0650   30.0990 O   0  0  0  0  0
    7.0580  -11.7640   30.0790 C   0  0  0  0  0
    7.0900  -12.9530   29.6910 O   0  0  0  0  0
    8.3540  -11.1540   30.5410 C   0  0  0  0  0
    9.2490  -11.1010   29.4340 O   0  0  0  0  0
   10.5270  -10.6720   29.6600 C   0  0  0  0  0
   11.5880  -11.5670   29.5770 C   0  0  0  0  0
   10.7460   -9.3310   29.9610 C   0  0  0  0  0
   12.0380   -8.8750   30.1960 C   0  0  0  0  0
   13.0860   -9.7820   30.1140 C   0  0  0  0  0
   12.8820  -11.1220   29.8060 C   0  0  0  0  0
   14.0790  -11.7830   29.7880 N   0  0  0  0  0
   14.6420   -9.3990   30.3550 S   0  0  0  0  0
   15.1430  -10.9840   30.0680 C   0  0  0  0  0
   16.6220  -11.2790   30.1640 C   0  0  0  0  0
   17.1610  -10.7740   31.4130 N   0  0  0  0  0
   16.9870  -11.4230   32.5880 C   0  0  0  0  0
   17.8920  -11.2360   33.5690 N   0  0  0  0  0
   17.7360  -11.8860   34.7970 N   0  0  0  0  0
   16.6880  -12.6880   34.9990 C   0  0  0  0  0
   15.9250  -12.2370   32.7980 N   0  0  0  0  0
   15.7600  -12.8810   33.9810 C   0  0  0  0  0
   14.5720  -13.7630   34.1970 C   0  0  0  0  0
   14.6710  -15.0420   34.7310 C   0  0  0  0  0
   15.8870  -15.5670   35.0790 O   0  0  0  0  0
   15.9780  -16.7510   35.8700 C   0  0  0  0  0
   13.3240  -13.2660   33.8630 C   0  0  0  0  0
   13.2250  -12.0030   33.3430 O   0  0  0  0  0
   11.9510  -11.4630   33.0110 C   0  0  0  0  0
   12.1770  -14.0320   34.0450 C   0  0  0  0  0
   12.2730  -15.3130   34.5720 C   0  0  0  0  0
   13.5240  -15.8130   34.9140 C   0  0  0  0  0
    6.2299  -10.1898   30.4324 H   0  0  0  0  0
    8.7854  -11.7576   31.3395 H   0  0  0  0  0
    8.1764  -10.1491   30.9241 H   0  0  0  0  0
   11.4039  -12.6133   29.3332 H   0  0  0  0  0
    9.9054   -8.6390   30.0124 H   0  0  0  0  0
   12.2241   -7.8289   30.4392 H   0  0  0  0  0
   17.1348  -10.7921   29.3345 H   0  0  0  0  0
   16.7711  -12.3580   30.1245 H   0  0  0  0  0
   17.6885   -9.9010   31.4053 H   0  0  0  0  0
   16.5600  -13.1897   35.9582 H   0  0  0  0  0
   15.4898  -16.5834   36.8300 H   0  0  0  0  0
   15.4864  -17.5728   35.3495 H   0  0  0  0  0
   17.0271  -16.9980   36.0326 H   0  0  0  0  0
   11.4750  -12.0936   32.2600 H   0  0  0  0  0
   11.3286  -11.4277   33.9051 H   0  0  0  0  0
   12.0770  -10.4555   32.6145 H   0  0  0  0  0
   11.2024  -13.6263   33.7737 H   0  0  0  0  0
   11.3784  -15.9190   34.7157 H   0  0  0  0  0
   13.6090  -16.8173   35.3291 H   0  0  0  0  0
  1  2  1  0  0  0
  2  3  2  0  0  0
  2  4  1  0  0  0
  4  5  1  0  0  0
  5  6  1  0  0  0
  6  7  4  0  0  0
  6  8  4  0  0  0
  7 11  4  0  0  0
  8  9  4  0  0  0
  9 10  4  0  0  0
 10 11  4  0  0  0
 10 13  4  0  0  0
 11 12  4  0  0  0
 12 14  4  0  0  0
 13 14  4  0  0  0
 14 15  1  0  0  0
 15 16  1  0  0  0
 16 17  1  0  0  0
 17 18  4  0  0  0
 17 21  4  0  0  0
 18 19  4  0  0  0
 19 20  4  0  0  0
 20 22  4  0  0  0
 21 22  4  0  0  0
 22 23  1  0  0  0
 23 24  4  0  0  0
 23 27  4  0  0  0
 24 25  1  0  0  0
 24 32  4  0  0  0
 25 26  1  0  0  0
 27 28  1  0  0  0
 27 30  4  0  0  0
 28 29  1  0  0  0
 30 31  4  0  0  0
 31 32  4  0  0  0
  1 33  1  0  0  0
  4 34  1  0  0  0
  4 35  1  0  0  0
  7 36  1  0  0  0
  8 37  1  0  0  0
  9 38  1  0  0  0
 15 39  1  0  0  0
 15 40  1  0  0  0
 16 41  1  0  0  0
 20 42  1  0  0  0
 26 43  1  0  0  0
 26 44  1  0  0  0
 26 45  1  0  0  0
 29 46  1  0  0  0
 29 47  1  0  0  0
 29 48  1  0  0  0
 30 49  1  0  0  0
 31 50  1  0  0  0
 32 51  1  0  0  0
M  END
$$$$
