5upz_ligand
  -I-interpret- 

 89 92  0  0  0  0  0  0  0  0999 V2000
   21.0010   27.4820   14.4810 C   0  0  0  0  0
   21.7910   28.6990   13.9340 C   0  0  0  0  0
   21.8410   29.6290   15.0540 O   0  0  0  0  0
   21.6320   26.3950   15.0800 C   0  0  0  0  0
   20.8360   25.3450   15.5600 C   0  0  0  0  0
   19.4460   25.3940   15.4220 C   0  0  0  0  0
   18.8410   26.4560   14.8010 C   0  0  0  0  0
   19.6260   27.4950   14.3560 C   0  0  0  0  0
   18.4840   24.0290   15.9800 S   0  0  0  0  0
   17.3550   23.8600   15.0490 O   0  0  0  0  0
   19.4240   22.9220   16.2070 O   0  0  0  0  0
   17.8130   24.4420   17.4210 N   0  0  0  0  0
   18.7940   24.7620   18.4550 C   0  0  0  0  0
   18.4740   24.0970   19.8320 C   0  0  0  0  0
   18.5640   22.5740   19.7810 C   0  0  0  0  0
   19.5040   24.6810   20.8270 C   0  0  0  0  0
   16.5110   25.0770   17.3800 C   0  0  0  0  0
   15.4400   24.1240   17.9870 C   0  0  0  0  0
   14.2510   24.9140   18.2770 O   0  0  0  0  0
   15.1030   23.0030   16.9830 C   0  0  0  0  0
   14.2480   22.0040   17.6700 N   0  0  0  0  0
   14.7850   20.8570   18.1560 C   0  0  0  0  0
   15.9150   20.5570   18.2270 O   0  0  0  0  0
   14.3070   23.4820   15.7550 C   0  0  0  0  0
   12.6750   21.8760   14.7910 C   0  0  0  0  0
   12.3780   20.6720   14.0840 C   0  0  0  0  0
   13.3620   19.9450   13.4160 C   0  0  0  0  0
   14.6800   20.4010   13.4920 C   0  0  0  0  0
   15.0050   21.5620   14.2350 C   0  0  0  0  0
   14.0080   22.2730   14.8910 C   0  0  0  0  0
   13.7380   19.8450   18.6560 C   0  0  0  0  0
   13.8890   19.1960   19.8710 C   0  0  0  0  0
   12.8860   18.2970   20.3200 C   0  0  0  0  0
   11.7890   18.0390   19.5260 C   0  0  0  0  0
   11.6480   18.6910   18.3020 C   0  0  0  0  0
   12.5600   19.6570   17.9010 C   0  0  0  0  0
   10.4030   18.5360   17.4540 C   0  0  0  0  0
    9.4420   19.1980   17.8150 O   0  0  0  0  0
   10.4530   17.7540   16.3990 N   0  0  0  0  0
   11.6760   17.0440   15.9810 C   0  0  0  0  0
    9.1970   17.4930   15.6470 C   0  0  0  0  0
    9.0610   18.5220   14.5450 C   0  0  0  0  0
    8.8440   19.8130   14.7540 N   0  0  0  0  0
    8.6650   20.3970   13.5640 C   0  0  0  0  0
    8.8460   19.4990   12.6050 C   0  0  0  0  0
    8.7740   18.2600   13.2420 O   0  0  0  0  0
    8.7480   21.7610   13.4790 C   0  0  0  0  0
   21.3137   29.1376   13.0577 H   0  0  0  0  0
   22.7862   28.4200   13.5877 H   0  0  0  0  0
   22.3201   30.4185   14.7918 H   0  0  0  0  0
   22.7175   26.3610   15.1735 H   0  0  0  0  0
   21.3034   24.4868   16.0429 H   0  0  0  0  0
   17.7600   26.4770   14.6625 H   0  0  0  0  0
   19.1469   28.3559   13.8898 H   0  0  0  0  0
   18.7825   25.8424   18.5988 H   0  0  0  0  0
   19.7607   24.3843   18.1220 H   0  0  0  0  0
   17.4482   24.3115   20.1315 H   0  0  0  0  0
   17.8505   22.1934   19.0501 H   0  0  0  0  0
   19.5733   22.2804   19.4924 H   0  0  0  0  0
   18.3322   22.1645   20.7642 H   0  0  0  0  0
   20.5114   24.4347   20.4915 H   0  0  0  0  0
   19.3895   25.7640   20.8727 H   0  0  0  0  0
   19.3345   24.2544   21.8156 H   0  0  0  0  0
   16.2508   25.2989   16.3451 H   0  0  0  0  0
   16.5418   25.9999   17.9591 H   0  0  0  0  0
   15.8158   23.6607   18.8992 H   0  0  0  0  0
   13.5747   24.3460   18.6533 H   0  0  0  0  0
   16.0572   22.6052   16.6376 H   0  0  0  0  0
   13.2492   22.1809   17.7777 H   0  0  0  0  0
   14.8867   24.2135   15.1920 H   0  0  0  0  0
   13.3789   23.9589   16.0700 H   0  0  0  0  0
   11.8798   22.4701   15.2414 H   0  0  0  0  0
   11.3500   20.3100   14.0659 H   0  0  0  0  0
   13.1104   19.0474   12.8512 H   0  0  0  0  0
   15.4685   19.8563   12.9728 H   0  0  0  0  0
   16.0401   21.8986   14.2923 H   0  0  0  0  0
   14.7750   19.3751   20.4801 H   0  0  0  0  0
   12.9832   17.8115   21.2911 H   0  0  0  0  0
   11.0329   17.3261   19.8549 H   0  0  0  0  0
   12.3694   20.2625   17.0149 H   0  0  0  0  0
   12.4620   17.7695   15.7711 H   0  0  0  0  0
   11.9991   16.3776   16.7808 H   0  0  0  0  0
   11.4678   16.4619   15.0832 H   0  0  0  0  0
    8.3434   17.5610   16.3214 H   0  0  0  0  0
    9.2279   16.4928   15.2148 H   0  0  0  0  0
    9.0150   19.6886   11.5450 H   0  0  0  0  0
    7.9925   22.2106   14.1233 H   0  0  0  0  0
    9.7388   22.0841   13.7986 H   0  0  0  0  0
    8.5786   22.0705   12.4477 H   0  0  0  0  0
  1  2  1  0  0  0
  4  1  4  0  0  0
  8  1  4  0  0  0
  2  3  1  0  0  0
  5  4  4  0  0  0
  6  5  4  0  0  0
  6  7  4  0  0  0
  9  6  1  0  0  0
  7  8  4  0  0  0
  9 10  2  0  0  0
  9 11  2  0  0  0
 12  9  1  0  0  0
 12 13  1  0  0  0
 17 12  1  0  0  0
 13 14  1  0  0  0
 14 15  1  0  0  0
 14 16  1  0  0  0
 18 17  1  0  0  0
 18 19  1  0  0  0
 20 18  1  0  0  0
 20 21  1  0  0  0
 24 20  1  0  0  0
 21 22  1  0  0  0
 22 23  2  0  0  0
 22 31  1  0  0  0
 30 24  1  0  0  0
 25 26  4  0  0  0
 25 30  4  0  0  0
 26 27  4  0  0  0
 27 28  4  0  0  0
 28 29  4  0  0  0
 29 30  4  0  0  0
 31 32  4  0  0  0
 31 36  4  0  0  0
 32 33  4  0  0  0
 33 34  4  0  0  0
 34 35  4  0  0  0
 35 36  4  0  0  0
 35 37  1  0  0  0
 37 38  2  0  0  0
 37 39  1  0  0  0
 39 40  1  0  0  0
 39 41  1  0  0  0
 41 42  1  0  0  0
 42 43  4  0  0  0
 42 46  4  0  0  0
 43 44  4  0  0  0
 44 45  4  0  0  0
 44 47  1  0  0  0
 45 46  4  0  0  0
  2 48  1  0  0  0
  2 49  1  0  0  0
  3 50  1  0  0  0
  4 51  1  0  0  0
  5 52  1  0  0  0
  7 53  1  0  0  0
  8 54  1  0  0  0
 13 55  1  0  0  0
 13 56  1  0  0  0
 14 57  1  0  0  0
 15 58  1  0  0  0
 15 59  1  0  0  0
 15 60  1  0  0  0
 16 61  1  0  0  0
 16 62  1  0  0  0
 16 63  1  0  0  0
 17 64  1  0  0  0
 17 65  1  0  0  0
 18 66  1  0  0  0
 19 67  1  0  0  0
 20 68  1  0  0  0
 21 69  1  0  0  0
 24 70  1  0  0  0
 24 71  1  0  0  0
 25 72  1  0  0  0
 26 73  1  0  0  0
 27 74  1  0  0  0
 28 75  1  0  0  0
 29 76  1  0  0  0
 32 77  1  0  0  0
 33 78  1  0  0  0
 34 79  1  0  0  0
 36 80  1  0  0  0
 40 81  1  0  0  0
 40 82  1  0  0  0
 40 83  1  0  0  0
 41 84  1  0  0  0
 41 85  1  0  0  0
 45 86  1  0  0  0
 47 87  1  0  0  0
 47 88  1  0  0  0
 47 89  1  0  0  0
M  END
$$$$
