3rmf_ligand
  -I-interpret- 

 45 48  0  0  0  0  0  0  0  0999 V2000
   92.3330   81.9310  -51.0810 N   0  0  0  0  0
   91.1190   82.5390  -49.2630 N   0  0  0  0  0
   93.8170   81.0600  -52.6350 N   0  0  0  0  0
   88.3440   80.8850  -43.3450 N   0  0  0  0  0
   94.0050   80.4030  -50.3860 C   0  0  0  0  0
   93.4110   81.1250  -51.4310 C   0  0  0  0  0
   92.0940   81.8390  -49.7920 C   0  0  0  0  0
   90.3810   82.3010  -48.2160 C   0  0  0  0  0
   95.1050   79.5260  -50.4940 C   0  0  0  0  0
   95.6260   78.8680  -49.3830 C   0  0  0  0  0
   97.0330   78.9310  -49.1190 C   0  0  0  0  0
   97.5860   78.2770  -47.9830 C   0  0  0  0  0
   96.7540   77.5440  -47.0780 C   0  0  0  0  0
   95.3230   77.4670  -47.3340 C   0  0  0  0  0
   94.7820   78.1280  -48.4840 C   0  0  0  0  0
   89.3060   83.2070  -47.9660 C   0  0  0  0  0
   88.4520   83.0260  -46.8570 C   0  0  0  0  0
   88.6540   81.9350  -45.9700 C   0  0  0  0  0
   89.7210   81.0190  -46.1950 C   0  0  0  0  0
   90.5810   81.1970  -47.3070 C   0  0  0  0  0
   97.2920   76.8860  -45.9240 C   0  0  0  0  0
   96.4420   76.1640  -45.0350 C   0  0  0  0  0
   95.0460   76.0880  -45.2880 C   0  0  0  0  0
   94.4900   76.7350  -46.4290 C   0  0  0  0  0
   95.6420   79.3590  -51.5800 O   0  0  0  0  0
   86.4360   80.9060  -45.0360 O   0  0  0  0  0
   87.0760   82.9980  -44.1050 O   0  0  0  0  0
   93.1570   80.7740  -48.9260 S   0  0  0  0  0
   87.5530   81.7090  -44.5850 S   0  0  0  0  0
   90.9041   83.4094  -49.7494 H   0  0  0  0  0
   93.3503   81.6041  -53.3607 H   0  0  0  0  0
   94.6092   80.4638  -52.8746 H   0  0  0  0  0
   88.0039   79.9727  -43.0409 H   0  0  0  0  0
   89.1627   81.2987  -42.8989 H   0  0  0  0  0
   97.6852   79.4848  -49.7943 H   0  0  0  0  0
   98.6588   78.3350  -47.7992 H   0  0  0  0  0
   93.7116   78.0690  -48.6812 H   0  0  0  0  0
   89.1430   84.0483  -48.6396 H   0  0  0  0  0
   87.6349   83.7255  -46.6806 H   0  0  0  0  0
   89.8758   80.1827  -45.5132 H   0  0  0  0  0
   91.3984   80.4964  -47.4773 H   0  0  0  0  0
   98.3622   76.9379  -45.7236 H   0  0  0  0  0
   96.8641   75.6697  -44.1600 H   0  0  0  0  0
   94.3992   75.5337  -44.6079 H   0  0  0  0  0
   93.4178   76.6719  -46.6150 H   0  0  0  0  0
  1  6  4  0  0  0
  7  1  4  0  0  0
  2  7  1  0  0  0
  8  2  1  0  0  0
  6  3  1  0  0  0
 29  4  1  0  0  0
  5  6  4  0  0  0
  5  9  1  0  0  0
 28  5  4  0  0  0
  7 28  4  0  0  0
 16  8  4  0  0  0
  8 20  4  0  0  0
  9 10  1  0  0  0
  9 25  2  0  0  0
 10 11  4  0  0  0
 10 15  4  0  0  0
 11 12  4  0  0  0
 12 13  4  0  0  0
 14 13  4  0  0  0
 13 21  4  0  0  0
 15 14  4  0  0  0
 14 24  4  0  0  0
 17 16  4  0  0  0
 18 17  4  0  0  0
 18 19  4  0  0  0
 18 29  1  0  0  0
 19 20  4  0  0  0
 21 22  4  0  0  0
 22 23  4  0  0  0
 23 24  4  0  0  0
 29 26  2  0  0  0
 29 27  2  0  0  0
  2 30  1  0  0  0
  3 31  1  0  0  0
  3 32  1  0  0  0
  4 33  1  0  0  0
  4 34  1  0  0  0
 11 35  1  0  0  0
 12 36  1  0  0  0
 15 37  1  0  0  0
 16 38  1  0  0  0
 17 39  1  0  0  0
 19 40  1  0  0  0
 20 41  1  0  0  0
 21 42  1  0  0  0
 22 43  1  0  0  0
 23 44  1  0  0  0
 24 45  1  0  0  0
M  END
$$$$
