5yr5_ligand
  -I-interpret- 

 47 48  0  0  0  0  0  0  0  0999 V2000
    5.6720    1.8110   12.4280 C   0  0  0  0  0
    5.6840    2.3650   13.8650 C   0  0  0  0  0
    4.4210    2.8970   14.4000 C   0  0  0  0  0
    4.0460    4.0870   13.5200 C   0  0  0  0  0
    3.8800    3.5940   12.0280 C   0  0  0  0  0
    5.2090    2.9420   11.5380 C   0  0  0  0  0
    2.7650    2.6850   12.0750 O   0  0  0  0  0
    3.3930    4.6660   11.0460 C   0  0  0  0  0
    2.8780    4.8250   14.1570 C   0  0  0  0  0
    2.7060    6.2360   13.6310 C   0  0  0  0  0
    1.3400    6.9590   13.5720 C   0  0  0  0  0
    0.4610    6.3830   12.4490 C   0  0  0  0  0
    0.0800    7.0110   11.3350 C   0  0  0  0  0
    1.6320    4.0340   14.5430 C   0  0  0  0  0
    3.1160    5.9610   15.0430 O   0  0  0  0  0
    0.4760    8.3670   10.9570 C   0  0  0  0  0
   -0.7270    6.2460   10.2980 C   0  0  0  0  0
    4.5030    3.4140   15.7460 O   0  0  0  0  0
    4.4940    2.2550   16.5940 C   0  0  0  0  0
    6.7100    2.3830   14.4750 O   0  0  0  0  0
    5.1980    4.9270   13.5680 O   0  0  0  0  0
    5.0068    0.9514   12.3459 H   0  0  0  0  0
    6.6625    1.4631   12.1348 H   0  0  0  0  0
    3.7088    2.0719   14.4085 H   0  0  0  0  0
    5.0321    2.5323   10.5435 H   0  0  0  0  0
    5.9810    3.7114   11.5483 H   0  0  0  0  0
    2.9681    1.9619   12.6729 H   0  0  0  0  0
    3.1820    4.2043   10.0814 H   0  0  0  0  0
    2.4858    5.1282   11.4352 H   0  0  0  0  0
    4.1662    5.4248   10.9257 H   0  0  0  0  0
    3.0674    6.7080   12.7174 H   0  0  0  0  0
    1.5121    8.0170   13.3742 H   0  0  0  0  0
    0.8282    6.8187   14.5241 H   0  0  0  0  0
    0.1140    5.3575   12.5760 H   0  0  0  0  0
    1.0978    4.5625   15.3326 H   0  0  0  0  0
    0.9851    3.9297   13.6719 H   0  0  0  0  0
    1.9259    3.0467   14.8993 H   0  0  0  0  0
    0.1412    9.0683   11.7213 H   0  0  0  0  0
    1.5613    8.4156   10.8678 H   0  0  0  0  0
    0.0197    8.6243   10.0011 H   0  0  0  0  0
   -0.1483    5.3915    9.9472 H   0  0  0  0  0
   -1.6564    5.8970   10.7479 H   0  0  0  0  0
   -0.9527    6.9030    9.4581 H   0  0  0  0  0
    3.5719    1.6963   16.4338 H   0  0  0  0  0
    5.3493    1.6237   16.3534 H   0  0  0  0  0
    4.5539    2.5685   17.6362 H   0  0  0  0  0
    5.9421    4.4709   13.1682 H   0  0  0  0  0
  1  2  1  0  0  0
  1  6  1  0  0  0
  2  3  1  0  0  0
  2 20  2  0  0  0
  3  4  1  0  0  0
  3 18  1  0  0  0
  4  5  1  0  0  0
  4  9  1  0  0  0
  4 21  1  0  0  0
  5  6  1  0  0  0
  5  7  1  0  0  0
  5  8  1  0  0  0
  9 10  1  0  0  0
  9 14  1  0  0  0
  9 15  1  0  0  0
 10 11  1  0  0  0
 10 15  1  0  0  0
 11 12  1  0  0  0
 12 13  2  0  0  0
 13 16  1  0  0  0
 13 17  1  0  0  0
 18 19  1  0  0  0
  1 22  1  0  0  0
  1 23  1  0  0  0
  3 24  1  0  0  0
  6 25  1  0  0  0
  6 26  1  0  0  0
  7 27  1  0  0  0
  8 28  1  0  0  0
  8 29  1  0  0  0
  8 30  1  0  0  0
 10 31  1  0  0  0
 11 32  1  0  0  0
 11 33  1  0  0  0
 12 34  1  0  0  0
 14 35  1  0  0  0
 14 36  1  0  0  0
 14 37  1  0  0  0
 16 38  1  0  0  0
 16 39  1  0  0  0
 16 40  1  0  0  0
 17 41  1  0  0  0
 17 42  1  0  0  0
 17 43  1  0  0  0
 19 44  1  0  0  0
 19 45  1  0  0  0
 19 46  1  0  0  0
 21 47  1  0  0  0
M  END
$$$$
