### 
### Created by X-TOOL on Mon Sep 10 21:13:24 2018
### 

@<TRIPOS>MOLECULE
4x6s_ligand
  183   189     1     0     0
SMALL
GAST_HUCK


@<TRIPOS>ATOM
      1 N           4.1030   -8.1550   -2.6760 N.am      1 TRP        -0.2639
      2 CA          3.0970   -7.3350   -2.0020 C.3       1 TRP         0.1351
      3 C           3.7260   -6.4360   -0.9400 C.2       1 TRP         0.2053
      4 O           4.9380   -6.4390   -0.7410 O.2       1 TRP        -0.3942
      5 CB          2.0100   -8.2200   -1.3780 C.3       1 TRP         0.0042
      6 CG          2.3250   -8.8280   -0.0080 C.2       1 TRP        -0.0418
      7 CD1         1.7970   -8.4500    1.2000 C.2       1 TRP         0.0167
      8 CD2         3.2350   -9.9010    0.2780 C.ar      1 TRP        -0.0214
      9 NE1         2.3150   -9.2290    2.2170 N.pl3     1 TRP        -0.2890
     10 CE2         3.2000  -10.1220    1.6760 C.ar      1 TRP         0.0603
     11 CE3         4.0670  -10.6970   -0.5080 C.ar      1 TRP        -0.0747
     12 CZ2         3.9670  -11.1030    2.2940 C.ar      1 TRP        -0.0443
     13 CZ3         4.8260  -11.6700    0.1080 C.ar      1 TRP        -0.0792
     14 CH2         4.7720  -11.8650    1.4950 C.ar      1 TRP        -0.0768
     15 N           2.9030   -5.6180   -0.3060 N.am      1 PHE        -0.2618
     16 CA          3.3360   -4.8140    0.8340 C.3       1 PHE         0.1404
     17 C           2.4580   -5.1450    2.0200 C.2       1 PHE         0.2060
     18 O           1.2620   -4.9030    1.9960 O.2       1 PHE        -0.3942
     19 CB          3.2800   -3.3210    0.5100 C.3       1 PHE         0.0214
     20 CG          4.0840   -2.9350   -0.6990 C.ar      1 PHE        -0.0386
     21 CD1         5.4630   -3.0160   -0.6850 C.ar      1 PHE        -0.0601
     22 CD2         3.4600   -2.5030   -1.8560 C.ar      1 PHE        -0.0601
     23 CE1         6.2000   -2.6570   -1.7960 C.ar      1 PHE        -0.0686
     24 CE2         4.2000   -2.1570   -2.9810 C.ar      1 PHE        -0.0686
     25 CZ          5.5680   -2.2320   -2.9450 C.ar      1 PHE        -0.0687
     26 N           3.0430   -5.7390    3.0410 N.am      1 GLU        -0.2635
     27 CA          2.2630   -6.1210    4.2000 C.3       1 GLU         0.1325
     28 C           1.6650   -4.8330    4.7710 C.2       1 GLU         0.2038
     29 O           2.3170   -3.7870    4.7670 O.2       1 GLU        -0.3944
     30 CB          3.1320   -6.8810    5.2240 C.3       1 GLU        -0.0008
     31 CG          2.6300   -6.8420    6.6590 C.3       1 GLU         0.0044
     32 CD          3.2300   -5.6740    7.4500 C.2       1 GLU         0.0350
     33 OE1         4.4650   -5.4490    7.3550 O.co2     1 GLU        -0.5690
     34 OE2         2.4600   -4.9700    8.1530 O.co2     1 GLU        -0.5690
     35 N           0.4000   -4.8740    5.1690 N.am      1 GLY        -0.2664
     36 CA         -0.2370   -3.6760    5.6730 C.3       1 GLY         0.1201
     37 C          -1.0370   -2.9680    4.6060 C.2       1 GLY         0.2009
     38 O          -1.9750   -2.2410    4.9380 O.2       1 GLY        -0.3947
     39 N          -0.8870   -3.2980    3.3900 N.am      1 1PA        -0.2623
     40 CA         -1.3310   -2.5260    2.2670 C.3       1 1PA         0.1396
     41 CB         -0.2050   -1.6620    1.6850 C.3       1 1PA         0.0184
     42 CG          0.1460   -0.5060    2.6130 C.ar      1 1PA        -0.0451
     43 CD1        -0.5620    0.6780    2.5550 C.ar      1 1PA        -0.0663
     44 CE1        -0.2370    1.7240    3.4110 C.ar      1 1PA        -0.0651
     45 CD2         1.1590   -0.6280    3.5520 C.ar      1 1PA        -0.0663
     46 CE2         1.4770    0.4140    4.4130 C.ar      1 1PA        -0.0651
     47 CZ          0.7770    1.6040    4.3510 C.ar      1 1PA        -0.0368
     48 CH          1.1240    2.7510    5.2850 C.3       1 1PA         0.0304
     49 CO         -0.0670    3.6200    5.6700 C.2       1 1PA         0.0453
     50 O1         -1.1720    3.1040    5.9620 O.co2     1 1PA        -0.5666
     51 O2          0.1220    4.8680    5.6980 O.co2     1 1PA        -0.5666
     52 C          -2.0560   -3.3380    1.2530 C.2       1 1PA         0.2059
     53 O          -1.7970   -4.5280    1.2090 O.2       1 1PA        -0.3942
     54 N          -2.7780   -3.2180    0.2150 N.am      1 ASP        -0.2620
     55 CA         -3.5790   -4.0040   -0.7260 C.3       1 ASP         0.1423
     56 C          -2.9570   -4.1690   -2.0990 C.2       1 ASP         0.2057
     57 O          -3.5500   -4.8150   -2.9670 O.2       1 ASP        -0.3943
     58 CB         -4.9630   -3.3690   -0.9030 C.3       1 ASP         0.0406
     59 CG         -5.8230   -3.4720    0.3410 C.2       1 ASP         0.0393
     60 OD1        -6.3470   -4.5750    0.5890 O.co2     1 ASP        -0.5688
     61 OD2        -5.9480   -2.4740    1.0850 O.co2     1 ASP        -0.5688
     62 N          -1.7710   -3.6010   -2.2970 N.am      1 ASN        -0.2615
     63 CA         -1.0670   -3.7300   -3.5670 C.3       1 ASN         0.1476
     64 C          -0.9630   -5.1970   -3.9500 C.2       1 ASN         0.2063
     65 O          -0.4420   -6.0120   -3.1930 O.2       1 ASN        -0.3942
     66 CB          0.3350   -3.1200   -3.4790 C.3       1 ASN         0.0773
     67 CG          0.3110   -1.6640   -3.1030 C.2       1 ASN         0.1780
     68 OD1        -0.1310   -1.3110   -2.0160 O.2       1 ASN        -0.3970
     69 ND2         0.8440   -0.8140   -3.9710 N.am      1 ASN        -0.3007
     70 N          -1.4910   -5.5120   -5.1250 N.am      1 THR        -0.2612
     71 CA         -1.4810   -6.8520   -5.6640 C.3       1 THR         0.1565
     72 C          -0.8460   -6.8320   -7.0520 C.2       1 THR         0.2066
     73 O          -1.4060   -6.2880   -8.0020 O.2       1 THR        -0.3943
     74 CB         -2.9310   -7.4330   -5.7610 C.3       1 THR         0.0924
     75 OG1        -3.5860   -7.3810   -4.4850 O.3       1 THR        -0.3874
     76 CG2        -2.9240   -8.8730   -6.3010 C.3       1 THR        -0.0346
     77 N           0.3170   -7.4410   -7.1890 N.am      1 PHE        -0.2618
     78 CA          0.9790   -7.3890   -8.4640 C.3       1 PHE         0.1406
     79 C           1.9470   -8.5560   -8.5790 C.2       1 PHE         0.2085
     80 O           2.2730   -9.1740   -7.5770 O.2       1 PHE        -0.3940
     81 CB          1.6650   -6.0330   -8.6300 C.3       1 PHE         0.0214
     82 CG          2.6840   -5.7330   -7.5790 C.ar      1 PHE        -0.0386
     83 CD1         2.3060   -5.2020   -6.3670 C.ar      1 PHE        -0.0601
     84 CD2         4.0210   -5.9600   -7.8230 C.ar      1 PHE        -0.0601
     85 CE1         3.2480   -4.9240   -5.3890 C.ar      1 PHE        -0.0686
     86 CE2         4.9640   -5.6870   -6.8610 C.ar      1 PHE        -0.0686
     87 CZ          4.5830   -5.1670   -5.6440 C.ar      1 PHE        -0.0687
     88 N           2.3570   -8.9030   -9.8070 N.am      1 PRO        -0.2497
     89 CA          3.3000  -10.0090   -9.9870 C.3       1 PRO         0.1338
     90 C           4.6860   -9.6900   -9.4480 C.2       1 PRO         0.2041
     91 O           5.5080   -9.3360  -10.3070 O.2       1 PRO        -0.3944
     92 CB          3.3520  -10.1870  -11.5080 C.3       1 PRO        -0.0104
     93 CG          2.1300   -9.5040  -12.0330 C.3       1 PRO        -0.0281
     94 CD          1.9190   -8.3520  -11.0990 C.3       1 PRO         0.0369
     95 O10         3.0950   -8.4450   -4.6310 O.2       1 48V        -0.3960
     96 N01         5.0320   -9.7450   -8.1570 N.am      1 48V        -0.2629
     97 C02         6.3540   -9.3350   -7.7840 C.3       1 48V         0.1397
     98 C03         7.3190  -10.3900   -8.2640 C.2       1 48V         0.2000
     99 O04         7.0190  -11.5660   -8.1250 O.2       1 48V        -0.3947
    100 N05         8.4680  -10.0220   -8.8380 N.am      1 48V        -0.2989
    101 C06         6.4710   -9.2210   -6.2770 C.3       1 48V         0.0363
    102 S07         5.5170  -10.5590   -5.5420 S.3       1 48V        -0.1344
    103 C08         4.7960   -9.9640   -3.9500 C.3       1 48V         0.0836
    104 C09         4.0730   -8.6730   -3.9090 C.2       1 48V         0.1883
    105 H1          4.9248   -8.3557   -2.1428 H         1 TRP         0.1884
    106 H2          2.6235   -6.6899   -2.7568 H         1 TRP         0.0815
    107 H3          1.8139   -9.0489   -2.0740 H         1 TRP         0.0397
    108 H4          1.1020   -7.6084   -1.2711 H         1 TRP         0.0397
    109 H5          1.0721   -7.6492    1.3382 H         1 TRP         0.0795
    110 H6          2.0751   -9.1507    3.2156 H         1 TRP         0.2216
    111 H7          4.1164  -10.5541   -1.5814 H         1 TRP         0.0540
    112 H8          3.9280  -11.2572    3.3663 H         1 TRP         0.0541
    113 H9          5.4767  -12.2959   -0.4919 H         1 TRP         0.0510
    114 H10         5.3836  -12.6389    1.9446 H         1 TRP         0.0530
    115 H11         1.9550   -5.5476   -0.6165 H         1 PHE         0.1885
    116 H12         4.3760   -5.0761    1.0780 H         1 PHE         0.0823
    117 H13         3.6654   -2.7629    1.3760 H         1 PHE         0.0474
    118 H14         2.2306   -3.0433    0.3323 H         1 PHE         0.0474
    119 H15         5.9713   -3.3647    0.2067 H         1 PHE         0.0557
    120 H16         2.3786   -2.4333   -1.8857 H         1 PHE         0.0557
    121 H17         7.2823   -2.7097   -1.7645 H         1 PHE         0.0599
    122 H18         3.6968   -1.8291   -3.8834 H         1 PHE         0.0599
    123 H19         6.1509   -1.9581   -3.8169 H         1 PHE         0.0559
    124 H20         4.0251   -5.9258    3.0153 H         1 GLU         0.1883
    125 H21         1.4451   -6.7858    3.8853 H         1 GLU         0.0801
    126 H22         4.1408   -6.4430    5.2050 H         1 GLU         0.0330
    127 H23         3.1835   -7.9342    4.9107 H         1 GLU         0.0330
    128 H24         2.9039   -7.7843    7.1560 H         1 GLU         0.0433
    129 H25         1.5350   -6.7376    6.6487 H         1 GLU         0.0433
    130 H26        -0.1126   -5.7313    5.1208 H         1 GLY         0.1881
    131 H27         0.5389   -2.9920    6.0473 H         1 GLY         0.0763
    132 H28        -0.9110   -3.9523    6.4973 H         1 GLY         0.0763
    133 H29        -0.4232   -4.1635    3.2006 H         1 1PA         0.1885
    134 H30        -2.0746   -1.8186    2.6629 H         1 1PA         0.0822
    135 H31        -0.5299   -1.2564    0.7155 H         1 1PA         0.0461
    136 H32         0.6878   -2.2880    1.5400 H         1 1PA         0.0461
    137 H33        -1.3708    0.7918    1.8423 H         1 1PA         0.0540
    138 H34        -0.7883    2.6549    3.3427 H         1 1PA         0.0542
    139 H35         1.7145   -1.5567    3.6153 H         1 1PA         0.0540
    140 H36         2.2762    0.2938    5.1355 H         1 1PA         0.0542
    141 H37         1.8703    3.3880    4.7878 H         1 1PA         0.0575
    142 H38         1.5559    2.3295    6.2046 H         1 1PA         0.0575
    143 H39        -2.8109   -2.2548   -0.0517 H         1 ASP         0.1884
    144 H40        -3.7051   -5.0068   -0.2919 H         1 ASP         0.0819
    145 H41        -5.4796   -3.8782   -1.7299 H         1 ASP         0.0478
    146 H42        -4.8320   -2.3056   -1.1519 H         1 ASP         0.0478
    147 H43        -1.3525   -3.0733   -1.5578 H         1 ASN         0.1885
    148 H44        -1.6366   -3.1971   -4.3426 H         1 ASN         0.0826
    149 H45         0.8257   -3.2227   -4.4581 H         1 ASN         0.0551
    150 H46         0.9113   -3.6700   -2.7205 H         1 ASN         0.0551
    151 H47         0.8539    0.1655   -3.7699 H         1 ASN         0.1814
    152 H48         1.2358   -1.1528   -4.8264 H         1 ASN         0.1814
    153 H49        -1.9172   -4.7859   -5.6646 H         1 THR         0.1884
    154 H50        -0.8840   -7.4969   -5.0025 H         1 THR         0.0826
    155 H51        -3.5005   -6.8082   -6.4647 H         1 THR         0.0639
    156 H52        -3.6356   -6.4786   -4.1923 H         1 THR         0.2101
    157 H53        -3.9563   -9.2490   -6.3560 H         1 THR         0.0257
    158 H54        -2.3356   -9.5141   -5.6281 H         1 THR         0.0257
    159 H55        -2.4752   -8.8859   -7.3052 H         1 THR         0.0257
    160 H56         0.7299   -7.9294   -6.4202 H         1 PHE         0.1885
    161 H57         0.2251   -7.4900   -9.2586 H         1 PHE         0.0823
    162 H58         0.8939   -5.2492   -8.5974 H         1 PHE         0.0474
    163 H59         2.1641   -6.0158   -9.6101 H         1 PHE         0.0474
    164 H60         1.2587   -4.9987   -6.1748 H         1 PHE         0.0557
    165 H61         4.3319   -6.3575   -8.7824 H         1 PHE         0.0557
    166 H62         2.9392   -4.5192   -4.4320 H         1 PHE         0.0599
    167 H63         6.0115   -5.8817   -7.0610 H         1 PHE         0.0599
    168 H64         5.3291   -4.9491   -4.8884 H         1 PHE         0.0559
    169 H65         2.9234  -10.9189   -9.4970 H         1 PRO         0.0802
    170 H66         3.3380  -11.2551  -11.7706 H         1 PRO         0.0313
    171 H67         4.2594   -9.7203  -11.9187 H         1 PRO         0.0313
    172 H68         1.2654  -10.1838  -12.0145 H         1 PRO         0.0287
    173 H69         2.2941   -9.1473  -13.0605 H         1 PRO         0.0287
    174 H70         2.5326   -7.4869  -11.3904 H         1 PRO         0.0524
    175 H71         0.8601   -8.0561  -11.0662 H         1 PRO         0.0524
    176 H72         4.3826  -10.0651   -7.4672 H         1 48V         0.1884
    177 H73         6.5888   -8.3657   -8.2480 H         1 48V         0.0808
    178 H74         9.1119  -10.7168   -9.1583 H         1 48V         0.1815
    179 H75         8.6841   -9.0518   -8.9473 H         1 48V         0.1815
    180 H76         6.0721   -8.2515   -5.9439 H         1 48V         0.0426
    181 H77         7.5258   -9.3062   -5.9770 H         1 48V         0.0426
    182 H78         5.6264   -9.8873   -3.2327 H         1 48V         0.0616
    183 H79         4.0893  -10.7361   -3.6116 H         1 48V         0.0616
@<TRIPOS>BOND
     1    1    2 1  
     2    1  104 am 
     3    2    3 1  
     4    2    5 1  
     5    3    4 2  
     6    3   15 am 
     7    5    6 1  
     8    6    7 2  
     9    6    8 1  
    10    7    9 1  
    11    8   10 ar 
    12    8   11 ar 
    13    9   10 1  
    14   10   12 ar 
    15   11   13 ar 
    16   12   14 ar 
    17   13   14 ar 
    18   15   16 1  
    19   16   17 1  
    20   16   19 1  
    21   17   18 2  
    22   17   26 am 
    23   19   20 1  
    24   20   21 ar 
    25   20   22 ar 
    26   21   23 ar 
    27   22   24 ar 
    28   23   25 ar 
    29   24   25 ar 
    30   26   27 1  
    31   27   28 1  
    32   27   30 1  
    33   28   29 2  
    34   28   35 am 
    35   30   31 1  
    36   31   32 1  
    37   32   33 ar 
    38   32   34 ar 
    39   35   36 1  
    40   36   37 1  
    41   37   38 2  
    42   37   39 am 
    43   39   40 1  
    44   40   41 1  
    45   40   52 1  
    46   41   42 1  
    47   42   43 ar 
    48   42   45 ar 
    49   43   44 ar 
    50   44   47 ar 
    51   45   46 ar 
    52   46   47 ar 
    53   47   48 1  
    54   48   49 1  
    55   49   50 ar 
    56   49   51 ar 
    57   52   53 2  
    58   52   54 am 
    59   54   55 1  
    60   55   56 1  
    61   55   58 1  
    62   56   57 2  
    63   56   62 am 
    64   58   59 1  
    65   59   60 ar 
    66   59   61 ar 
    67   62   63 1  
    68   63   64 1  
    69   63   66 1  
    70   64   65 2  
    71   64   70 am 
    72   66   67 1  
    73   67   68 2  
    74   67   69 am 
    75   70   71 1  
    76   71   72 1  
    77   71   74 1  
    78   72   73 2  
    79   72   77 am 
    80   74   75 1  
    81   74   76 1  
    82   77   78 1  
    83   78   79 1  
    84   78   81 1  
    85   79   80 2  
    86   79   88 am 
    87   81   82 1  
    88   82   83 ar 
    89   82   84 ar 
    90   83   85 ar 
    91   84   86 ar 
    92   85   87 ar 
    93   86   87 ar 
    94   88   89 1  
    95   88   94 1  
    96   89   90 1  
    97   89   92 1  
    98   90   91 2  
    99   90   96 am 
   100   92   93 1  
   101   93   94 1  
   102  104   95 2  
   103   96   97 1  
   104   97   98 1  
   105   97  101 1  
   106   98   99 2  
   107   98  100 am 
   108  101  102 1  
   109  102  103 1  
   110  103  104 1  
   111    1  105 1  
   112    2  106 1  
   113    5  107 1  
   114    5  108 1  
   115    7  109 1  
   116    9  110 1  
   117   11  111 1  
   118   12  112 1  
   119   13  113 1  
   120   14  114 1  
   121   15  115 1  
   122   16  116 1  
   123   19  117 1  
   124   19  118 1  
   125   21  119 1  
   126   22  120 1  
   127   23  121 1  
   128   24  122 1  
   129   25  123 1  
   130   26  124 1  
   131   27  125 1  
   132   30  126 1  
   133   30  127 1  
   134   31  128 1  
   135   31  129 1  
   136   35  130 1  
   137   36  131 1  
   138   36  132 1  
   139   39  133 1  
   140   40  134 1  
   141   41  135 1  
   142   41  136 1  
   143   43  137 1  
   144   44  138 1  
   145   45  139 1  
   146   46  140 1  
   147   48  141 1  
   148   48  142 1  
   149   54  143 1  
   150   55  144 1  
   151   58  145 1  
   152   58  146 1  
   153   62  147 1  
   154   63  148 1  
   155   66  149 1  
   156   66  150 1  
   157   69  151 1  
   158   69  152 1  
   159   70  153 1  
   160   71  154 1  
   161   74  155 1  
   162   75  156 1  
   163   76  157 1  
   164   76  158 1  
   165   76  159 1  
   166   77  160 1  
   167   78  161 1  
   168   81  162 1  
   169   81  163 1  
   170   83  164 1  
   171   84  165 1  
   172   85  166 1  
   173   86  167 1  
   174   87  168 1  
   175   89  169 1  
   176   92  170 1  
   177   92  171 1  
   178   93  172 1  
   179   93  173 1  
   180   94  174 1  
   181   94  175 1  
   182   96  176 1  
   183   97  177 1  
   184  100  178 1  
   185  100  179 1  
   186  101  180 1  
   187  101  181 1  
   188  103  182 1  
   189  103  183 1  
@<TRIPOS>SUBSTRUCTURE
     1 TRP         1

