4x6s_ligand
  -I-interpret- 

185191  0  0  0  0  0  0  0  0999 V2000
    4.1030   -8.1550   -2.6760 N   0  0  0  0  0
    3.0970   -7.3350   -2.0020 C   0  0  0  0  0
    3.7260   -6.4360   -0.9400 C   0  0  0  0  0
    4.9380   -6.4390   -0.7410 O   0  0  0  0  0
    2.0100   -8.2200   -1.3780 C   0  0  0  0  0
    2.3250   -8.8280   -0.0080 C   0  0  0  0  0
    1.7970   -8.4500    1.2000 C   0  0  0  0  0
    3.2350   -9.9010    0.2780 C   0  0  0  0  0
    2.3150   -9.2290    2.2170 N   0  0  0  0  0
    3.2000  -10.1220    1.6760 C   0  0  0  0  0
    4.0670  -10.6970   -0.5080 C   0  0  0  0  0
    3.9670  -11.1030    2.2940 C   0  0  0  0  0
    4.8260  -11.6700    0.1080 C   0  0  0  0  0
    4.7720  -11.8650    1.4950 C   0  0  0  0  0
    2.9030   -5.6180   -0.3060 N   0  0  0  0  0
    3.3360   -4.8140    0.8340 C   0  0  0  0  0
    2.4580   -5.1450    2.0200 C   0  0  0  0  0
    1.2620   -4.9030    1.9960 O   0  0  0  0  0
    3.2800   -3.3210    0.5100 C   0  0  0  0  0
    4.0840   -2.9350   -0.6990 C   0  0  0  0  0
    5.4630   -3.0160   -0.6850 C   0  0  0  0  0
    3.4600   -2.5030   -1.8560 C   0  0  0  0  0
    6.2000   -2.6570   -1.7960 C   0  0  0  0  0
    4.2000   -2.1570   -2.9810 C   0  0  0  0  0
    5.5680   -2.2320   -2.9450 C   0  0  0  0  0
    3.0430   -5.7390    3.0410 N   0  0  0  0  0
    2.2630   -6.1210    4.2000 C   0  0  0  0  0
    1.6650   -4.8330    4.7710 C   0  0  0  0  0
    2.3170   -3.7870    4.7670 O   0  0  0  0  0
    3.1320   -6.8810    5.2240 C   0  0  0  0  0
    2.6300   -6.8420    6.6590 C   0  0  0  0  0
    3.2300   -5.6740    7.4500 C   0  0  0  0  0
    4.4650   -5.4490    7.3550 O   0  0  0  0  0
    2.4600   -4.9700    8.1530 O   0  0  0  0  0
    0.4000   -4.8740    5.1690 N   0  0  0  0  0
   -0.2370   -3.6760    5.6730 C   0  0  0  0  0
   -1.0370   -2.9680    4.6060 C   0  0  0  0  0
   -1.9750   -2.2410    4.9380 O   0  0  0  0  0
   -0.8870   -3.2980    3.3900 N   0  0  0  0  0
   -1.3310   -2.5260    2.2670 C   0  0  0  0  0
   -0.2050   -1.6620    1.6850 C   0  0  0  0  0
    0.1460   -0.5060    2.6130 C   0  0  0  0  0
   -0.5620    0.6780    2.5550 C   0  0  0  0  0
   -0.2370    1.7240    3.4110 C   0  0  0  0  0
    1.1590   -0.6280    3.5520 C   0  0  0  0  0
    1.4770    0.4140    4.4130 C   0  0  0  0  0
    0.7770    1.6040    4.3510 C   0  0  0  0  0
    1.1240    2.7510    5.2850 C   0  0  0  0  0
   -0.0670    3.6200    5.6700 C   0  0  0  0  0
   -1.1720    3.1040    5.9620 O   0  0  0  0  0
    0.1220    4.8680    5.6980 O   0  0  0  0  0
   -2.0560   -3.3380    1.2530 C   0  0  0  0  0
   -1.7970   -4.5280    1.2090 O   0  0  0  0  0
   -2.7780   -3.2180    0.2150 N   0  0  0  0  0
   -3.5790   -4.0040   -0.7260 C   0  0  0  0  0
   -2.9570   -4.1690   -2.0990 C   0  0  0  0  0
   -3.5500   -4.8150   -2.9670 O   0  0  0  0  0
   -4.9630   -3.3690   -0.9030 C   0  0  0  0  0
   -5.8230   -3.4720    0.3410 C   0  0  0  0  0
   -6.3470   -4.5750    0.5890 O   0  0  0  0  0
   -5.9480   -2.4740    1.0850 O   0  0  0  0  0
   -1.7710   -3.6010   -2.2970 N   0  0  0  0  0
   -1.0670   -3.7300   -3.5670 C   0  0  0  0  0
   -0.9630   -5.1970   -3.9500 C   0  0  0  0  0
   -0.4420   -6.0120   -3.1930 O   0  0  0  0  0
    0.3350   -3.1200   -3.4790 C   0  0  0  0  0
    0.3110   -1.6640   -3.1030 C   0  0  0  0  0
   -0.1310   -1.3110   -2.0160 O   0  0  0  0  0
    0.8440   -0.8140   -3.9710 N   0  0  0  0  0
   -1.4910   -5.5120   -5.1250 N   0  0  0  0  0
   -1.4810   -6.8520   -5.6640 C   0  0  0  0  0
   -0.8460   -6.8320   -7.0520 C   0  0  0  0  0
   -1.4060   -6.2880   -8.0020 O   0  0  0  0  0
   -2.9310   -7.4330   -5.7610 C   0  0  0  0  0
   -3.5860   -7.3810   -4.4850 O   0  0  0  0  0
   -2.9240   -8.8730   -6.3010 C   0  0  0  0  0
    0.3170   -7.4410   -7.1890 N   0  0  0  0  0
    0.9790   -7.3890   -8.4640 C   0  0  0  0  0
    1.9470   -8.5560   -8.5790 C   0  0  0  0  0
    2.2730   -9.1740   -7.5770 O   0  0  0  0  0
    1.6650   -6.0330   -8.6300 C   0  0  0  0  0
    2.6840   -5.7330   -7.5790 C   0  0  0  0  0
    2.3060   -5.2020   -6.3670 C   0  0  0  0  0
    4.0210   -5.9600   -7.8230 C   0  0  0  0  0
    3.2480   -4.9240   -5.3890 C   0  0  0  0  0
    4.9640   -5.6870   -6.8610 C   0  0  0  0  0
    4.5830   -5.1670   -5.6440 C   0  0  0  0  0
    2.3570   -8.9030   -9.8070 N   0  0  0  0  0
    3.3000  -10.0090   -9.9870 C   0  0  0  0  0
    4.6860   -9.6900   -9.4480 C   0  0  0  0  0
    5.5080   -9.3360  -10.3070 O   0  0  0  0  0
    3.3520  -10.1870  -11.5080 C   0  0  0  0  0
    2.1300   -9.5040  -12.0330 C   0  0  0  0  0
    1.9190   -8.3520  -11.0990 C   0  0  0  0  0
    3.0950   -8.4450   -4.6310 O   0  0  0  0  0
    5.0320   -9.7450   -8.1570 N   0  0  0  0  0
    6.3540   -9.3350   -7.7840 C   0  0  0  0  0
    7.3190  -10.3900   -8.2640 C   0  0  0  0  0
    7.0190  -11.5660   -8.1250 O   0  0  0  0  0
    8.4680  -10.0220   -8.8380 N   0  0  0  0  0
    6.4710   -9.2210   -6.2770 C   0  0  0  0  0
    5.5170  -10.5590   -5.5420 S   0  0  0  0  0
    4.7960   -9.9640   -3.9500 C   0  0  0  0  0
    4.0730   -8.6730   -3.9090 C   0  0  0  0  0
    4.9413   -8.3597   -2.1321 H   0  0  0  0  0
    2.6385   -6.6921   -2.7533 H   0  0  0  0  0
    1.8792   -9.0615   -2.0583 H   0  0  0  0  0
    1.1444   -7.5745   -1.2294 H   0  0  0  0  0
    1.0714   -7.6485    1.3383 H   0  0  0  0  0
    4.1166  -10.5533   -1.5873 H   0  0  0  0  0
    3.9278  -11.2580    3.3722 H   0  0  0  0  0
    5.4803  -12.2993   -0.4953 H   0  0  0  0  0
    5.3869  -12.6432    1.9471 H   0  0  0  0  0
    1.9361   -5.5462   -0.6227 H   0  0  0  0  0
    4.3737   -5.0494    1.0704 H   0  0  0  0  0
    3.6973   -2.7864    1.3633 H   0  0  0  0  0
    2.2394   -3.0712    0.3029 H   0  0  0  0  0
    5.9741   -3.3666    0.2116 H   0  0  0  0  0
    2.3727   -2.4330   -1.8858 H   0  0  0  0  0
    7.2883   -2.7100   -1.7643 H   0  0  0  0  0
    3.6940   -1.8273   -3.8884 H   0  0  0  0  0
    6.1541   -1.9566   -3.8217 H   0  0  0  0  0
    4.0447   -5.9296    3.0148 H   0  0  0  0  0
    1.4624   -6.8111    3.9338 H   0  0  0  0  0
    4.1096   -6.3989    5.2223 H   0  0  0  0  0
    3.1280   -7.9279    4.9205 H   0  0  0  0  0
    2.9260   -7.7703    7.1475 H   0  0  0  0  0
    1.5475   -6.7162    6.6366 H   0  0  0  0  0
    4.8638   -6.0998    6.7727 H   0  0  0  0  0
   -0.1228   -5.7484    5.1199 H   0  0  0  0  0
    0.5415   -2.9973    6.0215 H   0  0  0  0  0
   -0.9176   -3.9636    6.4743 H   0  0  0  0  0
   -0.4139   -4.1808    3.1968 H   0  0  0  0  0
   -2.0786   -1.8258    2.6398 H   0  0  0  0  0
   -0.5410   -1.2514    0.7329 H   0  0  0  0  0
    0.6800   -2.2858    1.5596 H   0  0  0  0  0
   -1.3753    0.7925    1.8384 H   0  0  0  0  0
   -0.7913    2.6600    3.3424 H   0  0  0  0  0
    1.7176   -1.5618    3.6156 H   0  0  0  0  0
    2.2806    0.2931    5.1394 H   0  0  0  0  0
    1.8345    3.3905    4.7612 H   0  0  0  0  0
    1.5144    2.3128    6.2035 H   0  0  0  0  0
    1.0276    5.0592    5.4431 H   0  0  0  0  0
   -2.8115   -2.2355   -0.0570 H   0  0  0  0  0
   -3.6430   -4.9965   -0.2800 H   0  0  0  0  0
   -5.4734   -3.9016   -1.7055 H   0  0  0  0  0
   -4.8183   -2.3109   -1.1209 H   0  0  0  0  0
   -5.4665   -1.7335    0.7088 H   0  0  0  0  0
   -1.3441   -3.0628   -1.5430 H   0  0  0  0  0
   -1.6309   -3.1914   -4.3286 H   0  0  0  0  0
    0.7994   -3.2046   -4.4615 H   0  0  0  0  0
    0.8858   -3.6564   -2.7064 H   0  0  0  0  0
    0.8983    0.1791   -3.7447 H   0  0  0  0  0
    1.1995   -1.1536   -4.8647 H   0  0  0  0  0
   -1.9257   -4.7713   -5.6753 H   0  0  0  0  0
   -0.9023   -7.4890   -4.9951 H   0  0  0  0  0
   -3.4873   -6.8131   -6.4641 H   0  0  0  0  0
   -4.4721   -7.7413   -4.5665 H   0  0  0  0  0
   -2.4790   -8.8844   -7.2960 H   0  0  0  0  0
   -2.3407   -9.5072   -5.6334 H   0  0  0  0  0
   -3.9473   -9.2444   -6.3550 H   0  0  0  0  0
    0.7381   -7.9392   -6.4049 H   0  0  0  0  0
    0.2575   -7.4853   -9.2754 H   0  0  0  0  0
    0.8913   -5.2687   -8.5569 H   0  0  0  0  0
    2.1846   -6.0492   -9.5881 H   0  0  0  0  0
    1.2529   -4.9975   -6.1738 H   0  0  0  0  0
    4.3337   -6.3597   -8.7877 H   0  0  0  0  0
    2.9375   -4.5170   -4.4267 H   0  0  0  0  0
    6.0173   -5.8828   -7.0621 H   0  0  0  0  0
    5.3333   -4.9479   -4.8843 H   0  0  0  0  0
    2.9835  -10.9006   -9.4457 H   0  0  0  0  0
    3.3708  -11.2408  -11.7861 H   0  0  0  0  0
    4.2611   -9.7578  -11.9292 H   0  0  0  0  0
    1.2683  -10.1709  -12.0629 H   0  0  0  0  0
    2.2543   -9.1774  -13.0655 H   0  0  0  0  0
    2.4719   -7.4593  -11.3913 H   0  0  0  0  0
    0.8881   -7.9983  -11.0843 H   0  0  0  0  0
    4.3696  -10.0715   -7.4534 H   0  0  0  0  0
    6.5729   -8.3637   -8.2276 H   0  0  0  0  0
    9.1205  -10.7307   -9.1732 H   0  0  0  0  0
    8.6926   -9.0324   -8.9410 H   0  0  0  0  0
    6.0882   -8.2572   -5.9415 H   0  0  0  0  0
    7.5156   -9.2927   -5.9739 H   0  0  0  0  0
    5.6560   -9.8183   -3.2963 H   0  0  0  0  0
    4.0427  -10.7091   -3.6940 H   0  0  0  0  0
  1  2  1  0  0  0
  1104  1  0  0  0
  2  3  1  0  0  0
  2  5  1  0  0  0
  3  4  2  0  0  0
  3 15  1  0  0  0
  5  6  1  0  0  0
  6  7  4  0  0  0
  6  8  4  0  0  0
  7  9  4  0  0  0
  8 10  4  0  0  0
  8 11  4  0  0  0
  9 10  4  0  0  0
 10 12  4  0  0  0
 11 13  4  0  0  0
 12 14  4  0  0  0
 13 14  4  0  0  0
 15 16  1  0  0  0
 16 17  1  0  0  0
 16 19  1  0  0  0
 17 18  2  0  0  0
 17 26  1  0  0  0
 19 20  1  0  0  0
 20 21  4  0  0  0
 20 22  4  0  0  0
 21 23  4  0  0  0
 22 24  4  0  0  0
 23 25  4  0  0  0
 24 25  4  0  0  0
 26 27  1  0  0  0
 27 28  1  0  0  0
 27 30  1  0  0  0
 28 29  2  0  0  0
 28 35  1  0  0  0
 30 31  1  0  0  0
 31 32  1  0  0  0
 32 33  1  0  0  0
 32 34  2  0  0  0
 35 36  1  0  0  0
 36 37  1  0  0  0
 37 38  2  0  0  0
 37 39  1  0  0  0
 39 40  1  0  0  0
 40 41  1  0  0  0
 40 52  1  0  0  0
 41 42  1  0  0  0
 42 43  4  0  0  0
 42 45  4  0  0  0
 43 44  4  0  0  0
 44 47  4  0  0  0
 45 46  4  0  0  0
 46 47  4  0  0  0
 47 48  1  0  0  0
 48 49  1  0  0  0
 49 50  2  0  0  0
 49 51  1  0  0  0
 52 53  2  0  0  0
 52 54  1  0  0  0
 54 55  1  0  0  0
 55 56  1  0  0  0
 55 58  1  0  0  0
 56 57  2  0  0  0
 56 62  1  0  0  0
 58 59  1  0  0  0
 59 60  2  0  0  0
 59 61  1  0  0  0
 62 63  1  0  0  0
 63 64  1  0  0  0
 63 66  1  0  0  0
 64 65  2  0  0  0
 64 70  1  0  0  0
 66 67  1  0  0  0
 67 68  2  0  0  0
 67 69  1  0  0  0
 70 71  1  0  0  0
 71 72  1  0  0  0
 71 74  1  0  0  0
 72 73  2  0  0  0
 72 77  1  0  0  0
 74 75  1  0  0  0
 74 76  1  0  0  0
 77 78  1  0  0  0
 78 79  1  0  0  0
 78 81  1  0  0  0
 79 80  2  0  0  0
 79 88  1  0  0  0
 81 82  1  0  0  0
 82 83  4  0  0  0
 82 84  4  0  0  0
 83 85  4  0  0  0
 84 86  4  0  0  0
 85 87  4  0  0  0
 86 87  4  0  0  0
 88 89  1  0  0  0
 88 94  1  0  0  0
 89 90  1  0  0  0
 89 92  1  0  0  0
 90 91  2  0  0  0
 90 96  1  0  0  0
 92 93  1  0  0  0
 93 94  1  0  0  0
104 95  2  0  0  0
 96 97  1  0  0  0
 97 98  1  0  0  0
 97101  1  0  0  0
 98 99  2  0  0  0
 98100  1  0  0  0
101102  1  0  0  0
102103  1  0  0  0
103104  1  0  0  0
  1105  1  0  0  0
  2106  1  0  0  0
  5107  1  0  0  0
  5108  1  0  0  0
  7109  1  0  0  0
 11110  1  0  0  0
 12111  1  0  0  0
 13112  1  0  0  0
 14113  1  0  0  0
 15114  1  0  0  0
 16115  1  0  0  0
 19116  1  0  0  0
 19117  1  0  0  0
 21118  1  0  0  0
 22119  1  0  0  0
 23120  1  0  0  0
 24121  1  0  0  0
 25122  1  0  0  0
 26123  1  0  0  0
 27124  1  0  0  0
 30125  1  0  0  0
 30126  1  0  0  0
 31127  1  0  0  0
 31128  1  0  0  0
 33129  1  0  0  0
 35130  1  0  0  0
 36131  1  0  0  0
 36132  1  0  0  0
 39133  1  0  0  0
 40134  1  0  0  0
 41135  1  0  0  0
 41136  1  0  0  0
 43137  1  0  0  0
 44138  1  0  0  0
 45139  1  0  0  0
 46140  1  0  0  0
 48141  1  0  0  0
 48142  1  0  0  0
 51143  1  0  0  0
 54144  1  0  0  0
 55145  1  0  0  0
 58146  1  0  0  0
 58147  1  0  0  0
 61148  1  0  0  0
 62149  1  0  0  0
 63150  1  0  0  0
 66151  1  0  0  0
 66152  1  0  0  0
 69153  1  0  0  0
 69154  1  0  0  0
 70155  1  0  0  0
 71156  1  0  0  0
 74157  1  0  0  0
 75158  1  0  0  0
 76159  1  0  0  0
 76160  1  0  0  0
 76161  1  0  0  0
 77162  1  0  0  0
 78163  1  0  0  0
 81164  1  0  0  0
 81165  1  0  0  0
 83166  1  0  0  0
 84167  1  0  0  0
 85168  1  0  0  0
 86169  1  0  0  0
 87170  1  0  0  0
 89171  1  0  0  0
 92172  1  0  0  0
 92173  1  0  0  0
 93174  1  0  0  0
 93175  1  0  0  0
 94176  1  0  0  0
 94177  1  0  0  0
 96178  1  0  0  0
 97179  1  0  0  0
100180  1  0  0  0
100181  1  0  0  0
101182  1  0  0  0
101183  1  0  0  0
103184  1  0  0  0
103185  1  0  0  0
M  END
$$$$
