4yhf_ligand
  -I-interpret- 

 72 76  0  0  0  0  0  0  0  0999 V2000
   -9.8750  -14.7390  -12.4650 C   0  0  0  0  0
  -11.1020  -14.1400  -13.7410 C   0  0  0  0  0
  -10.3800  -13.8430  -15.1300 C   0  0  0  0  0
   -7.4700  -13.8710  -12.9300 C   0  0  0  0  0
   -9.7860  -18.1110   -1.8520 C   0  0  0  0  0
  -10.6970  -18.7010   -0.9720 C   0  0  0  0  0
  -13.4310  -21.0270   -0.7220 C   0  0  0  0  0
  -12.7260  -22.1350   -1.2230 C   0  0  0  0  0
   -5.2560  -18.4030   -4.7020 N   0  0  0  0  0
   -6.6400  -19.3960   -3.1350 N   0  0  0  0  0
   -6.5190  -18.4750   -4.1340 C   0  0  0  0  0
   -7.5910  -17.6410   -4.5770 C   0  0  0  0  0
   -7.2200  -16.7660   -5.6350 C   0  0  0  0  0
   -8.3740  -15.9810   -5.9280 N   0  0  0  0  0
   -8.5030  -15.0020   -7.0210 C   0  0  0  0  0
   -8.7170  -15.7170   -8.3730 C   0  0  0  0  0
   -8.9790  -14.7960   -9.5030 N   0  0  0  0  0
   -8.3490  -14.8720  -10.7280 C   0  0  0  0  0
   -8.5670  -14.0850  -12.0330 C   0  0  0  0  0
  -11.8130  -12.7430  -13.1480 C   0  0  0  0  0
  -12.2510  -15.2640  -13.9490 C   0  0  0  0  0
   -6.5290  -13.6830  -13.6220 N   0  0  0  0  0
   -7.4940  -15.7880  -10.8680 O   0  0  0  0  0
  -10.0280  -13.8010   -9.1790 C   0  0  0  0  0
   -9.7550  -13.0720   -7.8850 C   0  0  0  0  0
   -9.7420  -14.1020   -6.7970 C   0  0  0  0  0
   -9.4400  -16.4100   -5.1360 N   0  0  0  0  0
   -9.0320  -17.3910   -4.2760 C   0  0  0  0  0
   -9.9620  -18.0260   -3.2480 C   0  0  0  0  0
  -11.8980  -19.2650   -1.3860 C   0  0  0  0  0
  -12.7450  -19.8300   -0.4290 O   0  0  0  0  0
  -14.8200  -21.1730   -0.5270 C   0  0  0  0  0
  -15.4370  -22.3860   -0.8310 C   0  0  0  0  0
  -14.7430  -23.4840   -1.3290 C   0  0  0  0  0
  -13.3680  -23.3430   -1.5230 C   0  0  0  0  0
  -12.1300  -19.2030   -2.7720 C   0  0  0  0  0
  -11.1940  -18.6020   -3.6480 C   0  0  0  0  0
   -5.9790  -16.6690   -6.2230 N   0  0  0  0  0
   -5.0540  -17.5220   -5.6990 C   0  0  0  0  0
  -10.4638  -14.6483  -11.5522 H   0  0  0  0  0
   -9.5055  -15.6466  -12.9424 H   0  0  0  0  0
  -11.1146  -13.4824  -15.8501 H   0  0  0  0  0
   -9.6106  -13.0849  -14.9833 H   0  0  0  0  0
   -9.9226  -14.7592  -15.5035 H   0  0  0  0  0
   -8.8753  -17.6867   -1.4293 H   0  0  0  0  0
  -10.4541  -18.7199    0.0904 H   0  0  0  0  0
  -11.6509  -22.0518   -1.3823 H   0  0  0  0  0
   -5.8364  -19.9626   -2.8636 H   0  0  0  0  0
   -7.5341  -19.5181   -2.6594 H   0  0  0  0  0
   -7.5855  -14.4136   -7.0332 H   0  0  0  0  0
   -9.5927  -16.3573   -8.2665 H   0  0  0  0  0
   -7.7996  -16.2591   -8.6022 H   0  0  0  0  0
   -8.6346  -13.0004  -11.9486 H   0  0  0  0  0
  -12.5562  -12.3846  -13.8602 H   0  0  0  0  0
  -12.2958  -12.9589  -12.1949 H   0  0  0  0  0
  -11.0478  -11.9801  -13.0045 H   0  0  0  0  0
  -12.7321  -15.4711  -12.9931 H   0  0  0  0  0
  -12.9925  -14.8967  -14.6585 H   0  0  0  0  0
  -11.7983  -16.1774  -14.3348 H   0  0  0  0  0
  -10.9736  -14.3325   -9.0721 H   0  0  0  0  0
  -10.0511  -13.0638   -9.9815 H   0  0  0  0  0
  -10.5219  -12.3208   -7.6961 H   0  0  0  0  0
   -8.8005  -12.5477   -7.9314 H   0  0  0  0  0
   -9.6923  -13.6224   -5.8194 H   0  0  0  0  0
  -10.6548  -14.6971   -6.8253 H   0  0  0  0  0
  -15.4088  -20.3412   -0.1403 H   0  0  0  0  0
  -16.5113  -22.4780   -0.6713 H   0  0  0  0  0
  -15.2537  -24.4191   -1.5590 H   0  0  0  0  0
  -12.7887  -24.1806   -1.9115 H   0  0  0  0  0
  -13.0482  -19.6259   -3.1796 H   0  0  0  0  0
  -11.4392  -18.5806   -4.7099 H   0  0  0  0  0
   -4.0532  -17.4872   -6.1294 H   0  0  0  0  0
  1 19  1  0  0  0
  2  3  1  0  0  0
  2 20  1  0  0  0
  2 21  1  0  0  0
 19  4  1  0  0  0
  4 22  3  0  0  0
  5  6  4  0  0  0
 29  5  4  0  0  0
  6 30  4  0  0  0
  7  8  4  0  0  0
 31  7  1  0  0  0
  7 32  4  0  0  0
  8 35  4  0  0  0
 11  9  4  0  0  0
 39  9  4  0  0  0
 11 10  1  0  0  0
 12 11  4  0  0  0
 13 12  4  0  0  0
 28 12  4  0  0  0
 14 13  4  0  0  0
 13 38  4  0  0  0
 15 14  1  0  0  0
 14 27  4  0  0  0
 16 15  1  0  0  0
 15 26  1  0  0  0
 17 16  1  0  0  0
 18 17  1  0  0  0
 17 24  1  0  0  0
 19 18  1  0  0  0
 18 23  2  0  0  0
 24 25  1  0  0  0
 25 26  1  0  0  0
 27 28  4  0  0  0
 28 29  1  0  0  0
 29 37  4  0  0  0
 30 31  1  0  0  0
 36 30  4  0  0  0
 32 33  4  0  0  0
 33 34  4  0  0  0
 35 34  4  0  0  0
 37 36  4  0  0  0
 38 39  4  0  0  0
  1  2  1  0  0  0
  1 40  1  0  0  0
  1 41  1  0  0  0
  3 42  1  0  0  0
  3 43  1  0  0  0
  3 44  1  0  0  0
  5 45  1  0  0  0
  6 46  1  0  0  0
  8 47  1  0  0  0
 10 48  1  0  0  0
 10 49  1  0  0  0
 15 50  1  0  0  0
 16 51  1  0  0  0
 16 52  1  0  0  0
 19 53  1  0  0  0
 20 54  1  0  0  0
 20 55  1  0  0  0
 20 56  1  0  0  0
 21 57  1  0  0  0
 21 58  1  0  0  0
 21 59  1  0  0  0
 24 60  1  0  0  0
 24 61  1  0  0  0
 25 62  1  0  0  0
 25 63  1  0  0  0
 26 64  1  0  0  0
 26 65  1  0  0  0
 32 66  1  0  0  0
 33 67  1  0  0  0
 34 68  1  0  0  0
 35 69  1  0  0  0
 36 70  1  0  0  0
 37 71  1  0  0  0
 39 72  1  0  0  0
M  END
$$$$
