5op8_ligand
  -I-interpret- 

 37 40  0  0  0  0  0  0  0  0999 V2000
  -18.9550   22.6330   -6.0910 O   0  0  0  0  0
  -18.3680   22.0660   -6.9370 C   0  0  0  0  0
  -18.0820   22.5730   -8.2620 C   0  0  0  0  0
  -18.4560   23.8840   -8.8130 N   0  0  0  0  0
  -19.1570   24.1010   -9.9580 C   0  0  0  0  0
  -19.2840   25.4740  -10.1170 C   0  0  0  0  0
  -18.6930   26.0440   -9.1330 N   0  0  0  0  0
  -18.1570   25.0260   -8.2920 N   0  0  0  0  0
  -17.3360   21.5550   -8.9810 C   0  0  0  0  0
  -17.1720   20.4500   -8.1080 N   0  0  0  0  0
  -17.8090   20.7550   -6.8400 N   0  0  0  0  0
  -17.8370   19.8890   -5.7360 C   0  0  0  0  0
  -17.0940   18.7040   -5.7510 N   0  0  0  0  0
  -17.1180   17.8890   -4.7160 C   0  0  0  0  0
  -17.8360   18.1630   -3.6210 N   0  0  0  0  0
  -18.6020   19.3220   -3.5120 C   0  0  0  0  0
  -19.3590   19.5980   -2.3350 N   0  0  0  0  0
  -20.4570   18.7770   -2.0300 C   0  0  0  0  0
  -20.8340   18.8610   -0.5380 C   0  0  0  0  0
  -20.9580   20.2050   -0.0440 O   0  0  0  0  0
  -19.9890   21.1230   -0.4970 C   0  0  0  0  0
  -19.5790   20.9380   -1.9880 C   0  0  0  0  0
  -18.6150   20.2270   -4.5880 C   0  0  0  0  0
  -19.5480   23.3359  -10.6288 H   0  0  0  0  0
  -19.7967   25.9791  -10.9356 H   0  0  0  0  0
  -16.9692   21.6274  -10.0049 H   0  0  0  0  0
  -16.6857   19.5823   -8.3341 H   0  0  0  0  0
  -16.5375   16.9672   -4.7529 H   0  0  0  0  0
  -20.1889   17.7456   -2.2591 H   0  0  0  0  0
  -21.3106   19.1118   -2.6194 H   0  0  0  0  0
  -20.0346   18.3805    0.0261 H   0  0  0  0  0
  -21.8060   18.3816   -0.4215 H   0  0  0  0  0
  -19.0931   20.9665    0.1039 H   0  0  0  0  0
  -20.4225   22.1188   -0.4046 H   0  0  0  0  0
  -20.3967   21.3102   -2.6052 H   0  0  0  0  0
  -18.6454   21.4784   -2.1445 H   0  0  0  0  0
  -19.1953   21.1488   -4.5472 H   0  0  0  0  0
  1  2  2  0  0  0
  2  3  1  0  0  0
  2 11  1  0  0  0
  3  4  1  0  0  0
  3  9  2  0  0  0
  4  5  4  0  0  0
  4  8  4  0  0  0
  5  6  4  0  0  0
  6  7  4  0  0  0
  7  8  4  0  0  0
  9 10  1  0  0  0
 10 11  1  0  0  0
 11 12  1  0  0  0
 12 13  4  0  0  0
 12 23  4  0  0  0
 13 14  4  0  0  0
 14 15  4  0  0  0
 15 16  4  0  0  0
 16 17  1  0  0  0
 16 23  4  0  0  0
 17 18  1  0  0  0
 17 22  1  0  0  0
 18 19  1  0  0  0
 19 20  1  0  0  0
 20 21  1  0  0  0
 21 22  1  0  0  0
  5 24  1  0  0  0
  6 25  1  0  0  0
  9 26  1  0  0  0
 10 27  1  0  0  0
 14 28  1  0  0  0
 18 29  1  0  0  0
 18 30  1  0  0  0
 19 31  1  0  0  0
 19 32  1  0  0  0
 21 33  1  0  0  0
 21 34  1  0  0  0
 22 35  1  0  0  0
 22 36  1  0  0  0
 23 37  1  0  0  0
M  END
$$$$
