6c7e_ligand
  -I-interpret- 

 39 42  0  0  0  0  0  0  0  0999 V2000
    9.3750    6.4100    6.8720 C   0  0  0  0  0
    8.9940    6.0680    5.5930 C   0  0  0  0  0
    9.6320    6.5730    4.4850 C   0  0  0  0  0
   11.3580    7.9750    3.4990 C   0  0  0  0  0
    7.5220    4.5910    3.0290 C   0  0  0  0  0
    8.0010    4.4950    0.3080 C   0  0  0  0  0
    8.9350    3.9910    1.1810 C   0  0  0  0  0
    8.6860    4.0340    2.5320 C   0  0  0  0  0
   12.6650    9.8330    2.6560 C   0  0  0  0  0
    6.8400    5.0450    0.7900 C   0  0  0  0  0
    6.5890    5.0820    2.1450 C   0  0  0  0  0
   11.1020    7.8010    5.9400 C   0  0  0  0  0
   10.4420    7.2780    7.0290 C   0  0  0  0  0
   10.6800    7.4400    4.6770 C   0  0  0  0  0
    7.2420    4.5850    4.4440 C   0  0  0  0  0
    7.2910    4.7180    6.6040 C   0  0  0  0  0
    7.7490    5.1060    7.8930 C   0  0  0  0  0
    7.0330    4.5390    9.0800 C   0  0  0  0  0
    6.2740    3.8360    4.9280 N   0  0  0  0  0
    6.2930    3.9200    6.2920 N   0  0  0  0  0
    8.7500    5.9140    8.0180 N   0  0  0  0  0
    7.9220    5.1730    5.4870 N   0  0  0  0  0
   11.9630    9.1860    3.7300 N   0  0  0  0  0
   11.3260    7.3690    2.4390 O   0  0  0  0  0
    9.9070    3.3900    3.5660 Cl  0  0  0  0  0
    9.3146    6.2928    3.4806 H   0  0  0  0  0
    8.1823    4.4579   -0.7662 H   0  0  0  0  0
    9.8639    3.5615    0.8058 H   0  0  0  0  0
   13.4714    9.1867    2.3093 H   0  0  0  0  0
   11.9736   10.0254    1.8356 H   0  0  0  0  0
   13.0806   10.7759    3.0113 H   0  0  0  0  0
    6.1088    5.4568    0.0945 H   0  0  0  0  0
    5.6528    5.4996    2.5155 H   0  0  0  0  0
   11.9398    8.4855    6.0727 H   0  0  0  0  0
   10.7654    7.5523    8.0331 H   0  0  0  0  0
    5.9842    4.8337    9.0450 H   0  0  0  0  0
    7.1070    3.4517    9.0620 H   0  0  0  0  0
    7.4886    4.9204    9.9938 H   0  0  0  0  0
   11.9147    9.6204    4.6516 H   0  0  0  0  0
  2  1  4  0  0  0
  1 13  4  0  0  0
  1 21  4  0  0  0
  2  3  4  0  0  0
 22  2  4  0  0  0
  3 14  4  0  0  0
 14  4  1  0  0  0
  4 23  1  0  0  0
  4 24  2  0  0  0
  5  8  4  0  0  0
  5 11  4  0  0  0
 15  5  1  0  0  0
  7  6  4  0  0  0
 10  6  4  0  0  0
  8  7  4  0  0  0
  8 25  1  0  0  0
 23  9  1  0  0  0
 11 10  4  0  0  0
 13 12  4  0  0  0
 14 12  4  0  0  0
 15 19  4  0  0  0
 22 15  4  0  0  0
 16 17  4  0  0  0
 16 20  4  0  0  0
 16 22  4  0  0  0
 17 18  1  0  0  0
 17 21  4  0  0  0
 19 20  4  0  0  0
  3 26  1  0  0  0
  6 27  1  0  0  0
  7 28  1  0  0  0
  9 29  1  0  0  0
  9 30  1  0  0  0
  9 31  1  0  0  0
 10 32  1  0  0  0
 11 33  1  0  0  0
 12 34  1  0  0  0
 13 35  1  0  0  0
 18 36  1  0  0  0
 18 37  1  0  0  0
 18 38  1  0  0  0
 23 39  1  0  0  0
M  END
$$$$
