4cpy_ligand
  -I-interpret- 

 45 45  0  0  0  0  0  0  0  0999 V2000
  -22.7950   90.8250   11.2080 C   0  0  0  0  0
  -24.0350   90.6530   11.2010 O   0  0  0  0  0
  -22.1980   91.2210   10.1760 O   0  0  0  0  0
  -22.0050   90.5670   12.4320 C   0  0  0  0  0
  -22.6660   90.0040   13.6700 C   0  0  0  0  0
  -21.6610   89.2350   14.5440 C   0  0  0  0  0
  -20.4150   90.0820   14.8130 C   0  0  0  0  0
  -19.4840   89.3710   15.6730 N   0  0  0  0  0
  -19.0250   89.7990   16.8600 C   0  0  0  0  0
  -19.2910   90.8710   17.3600 O   0  0  0  0  0
  -18.0870   88.8760   17.5750 C   0  0  0  0  0
  -19.7070   90.3900   13.5060 C   0  0  0  0  0
  -20.6720   90.7880   12.3980 C   0  0  0  0  0
  -18.7660   91.4500   13.7370 O   0  0  0  0  0
  -17.4130   91.1580   13.3540 C   0  0  0  0  0
  -17.1820   91.4510   11.8700 C   0  0  0  0  0
  -16.4790   91.9870   14.2240 C   0  0  0  0  0
  -17.1140   93.2790   14.6950 C   0  0  0  0  0
  -17.8350   92.7560   11.4600 C   0  0  0  0  0
  -22.2910   88.8690   15.7980 N   0  3  0  0  0
  -21.2589   91.2971   10.3603 H   0  0  0  0  0
  -23.4518   89.3154   13.3595 H   0  0  0  0  0
  -23.0690   90.8318   14.2535 H   0  0  0  0  0
  -21.3532   88.3342   14.0131 H   0  0  0  0  0
  -20.7360   91.0024   15.3007 H   0  0  0  0  0
  -19.1490   88.4650   15.3453 H   0  0  0  0  0
  -17.1217   89.3666   17.7003 H   0  0  0  0  0
  -18.4992   88.6271   18.5529 H   0  0  0  0  0
  -17.9598   87.9649   16.9903 H   0  0  0  0  0
  -19.2010   89.4843   13.1718 H   0  0  0  0  0
  -20.2607   91.2841   11.5189 H   0  0  0  0  0
  -17.2126   90.0969   13.5025 H   0  0  0  0  0
  -17.6207   90.6435   11.2838 H   0  0  0  0  0
  -16.1091   91.5287   11.6939 H   0  0  0  0  0
  -15.6033   92.2421   13.6272 H   0  0  0  0  0
  -16.2288   91.3959   15.1050 H   0  0  0  0  0
  -17.3905   93.8827   13.8306 H   0  0  0  0  0
  -18.0045   93.0521   15.2812 H   0  0  0  0  0
  -16.4023   93.8287   15.3110 H   0  0  0  0  0
  -18.9084   92.6960   11.6399 H   0  0  0  0  0
  -17.4122   93.5722   12.0458 H   0  0  0  0  0
  -17.6524   92.9350   10.4004 H   0  0  0  0  0
  -23.1197   88.3052   15.6089 H   0  0  0  0  0
  -21.6339   88.3310   16.3629 H   0  0  0  0  0
  -22.5609   89.7143   16.3010 H   0  0  0  0  0
  1  2  2  0  0  0
  1  3  1  0  0  0
  1  4  1  0  0  0
  4  5  1  0  0  0
  4 13  2  0  0  0
  5  6  1  0  0  0
  6  7  1  0  0  0
  6 20  1  0  0  0
  7  8  1  0  0  0
  7 12  1  0  0  0
  8  9  1  0  0  0
  9 10  2  0  0  0
  9 11  1  0  0  0
 12 13  1  0  0  0
 12 14  1  0  0  0
 14 15  1  0  0  0
 15 16  1  0  0  0
 15 17  1  0  0  0
 16 19  1  0  0  0
 17 18  1  0  0  0
  3 21  1  0  0  0
  5 22  1  0  0  0
  5 23  1  0  0  0
  6 24  1  0  0  0
  7 25  1  0  0  0
  8 26  1  0  0  0
 11 27  1  0  0  0
 11 28  1  0  0  0
 11 29  1  0  0  0
 12 30  1  0  0  0
 13 31  1  0  0  0
 15 32  1  0  0  0
 16 33  1  0  0  0
 16 34  1  0  0  0
 17 35  1  0  0  0
 17 36  1  0  0  0
 18 37  1  0  0  0
 18 38  1  0  0  0
 18 39  1  0  0  0
 19 40  1  0  0  0
 19 41  1  0  0  0
 19 42  1  0  0  0
 20 43  1  0  0  0
 20 44  1  0  0  0
 20 45  1  0  0  0
M  END
$$$$
