1utl_ligand
  -I-interpret- 

 24 24  0  0  0  0  0  0  0  0999 V2000
   24.0570   16.3640   58.0610 C   0  0  0  0  0
   22.7200   16.0660   58.7220 C   0  0  0  0  0
   22.6990   14.6840   59.3550 C   0  0  0  0  0
   22.2710   13.5430   58.4670 C   0  0  0  0  0
   23.1210   13.0360   57.4800 C   0  0  0  0  0
   22.7340   11.9280   56.6790 C   0  0  0  0  0
   21.4840   11.3270   56.8700 C   0  0  0  0  0
   20.6230   11.8290   57.8540 C   0  0  0  0  0
   21.0240   12.9360   58.6470 C   0  0  0  0  0
   24.2670   17.8200   57.7730 N   0  3  0  0  0
   24.0781   15.8342   57.1086 H   0  0  0  0  0
   24.8413   16.0486   58.7491 H   0  0  0  0  0
   21.9437   16.1047   57.9578 H   0  0  0  0  0
   22.5532   16.8046   59.5060 H   0  0  0  0  0
   21.9650   14.7318   60.1594 H   0  0  0  0  0
   23.7273   14.4701   59.6464 H   0  0  0  0  0
   24.0957   13.4977   57.3223 H   0  0  0  0  0
   23.4110   11.5456   55.9151 H   0  0  0  0  0
   21.1836   10.4762   56.2585 H   0  0  0  0  0
   19.6466   11.3704   58.0106 H   0  0  0  0  0
   20.3474   13.3201   59.4104 H   0  0  0  0  0
   25.1776   17.9503   57.3323 H   0  0  0  0  0
   23.5339   18.1504   57.1455 H   0  0  0  0  0
   24.2319   18.3465   58.6459 H   0  0  0  0  0
  1  2  1  0  0  0
  1 10  1  0  0  0
  2  3  1  0  0  0
  3  4  1  0  0  0
  4  5  4  0  0  0
  4  9  4  0  0  0
  5  6  4  0  0  0
  6  7  4  0  0  0
  7  8  4  0  0  0
  8  9  4  0  0  0
  1 11  1  0  0  0
  1 12  1  0  0  0
  2 13  1  0  0  0
  2 14  1  0  0  0
  3 15  1  0  0  0
  3 16  1  0  0  0
  5 17  1  0  0  0
  6 18  1  0  0  0
  7 19  1  0  0  0
  8 20  1  0  0  0
  9 21  1  0  0  0
 10 22  1  0  0  0
 10 23  1  0  0  0
 10 24  1  0  0  0
M  END
$$$$
