1me8_ligand
  -I-interpret- 

 34 35  0  0  0  0  0  0  0  0999 V2000
   67.8060   55.1920   15.0100 P   0  0  0  0  0
   67.4470   55.1060   13.5660 O   0  0  0  0  0
   68.6180   53.9930   15.3860 O   0  0  0  0  0
   68.5890   56.4890   15.3350 O   0  0  0  0  0
   66.5640   55.2600   15.9980 O   0  0  0  0  0
   65.6010   54.2070   15.9620 C   0  0  0  0  0
   64.5210   54.4180   16.9850 C   0  0  0  0  0
   63.7660   55.6050   16.5400 O   0  0  0  0  0
   63.4370   53.3700   17.1790 C   0  0  0  0  0
   63.8630   52.2290   17.9140 O   0  0  0  0  0
   62.3430   54.1620   17.8320 C   0  0  0  0  0
   62.4820   54.2780   19.2360 O   0  0  0  0  0
   62.4340   55.4860   17.0670 C   0  0  0  0  0
   61.4750   55.6020   15.9030 N   0  0  0  0  0
   60.9890   54.6940   14.9780 C   0  0  0  0  0
   60.1710   55.2310   14.1290 N   0  0  0  0  0
   60.0840   56.5440   14.4680 C   0  0  0  0  0
   59.3290   57.6340   13.8770 C   0  0  0  0  0
   58.5920   57.5670   12.9060 O   0  0  0  0  0
   59.5010   58.9020   14.5320 N   0  0  0  0  0
   60.8830   56.8100   15.5740 N   0  0  0  0  0
   68.8513   54.0447   16.3158 H   0  0  0  0  0
   68.8011   56.5073   16.2711 H   0  0  0  0  0
   66.1071   53.2669   16.1813 H   0  0  0  0  0
   65.1430   54.1899   14.9730 H   0  0  0  0  0
   65.0760   54.4458   17.9227 H   0  0  0  0  0
   63.1172   52.9012   16.2484 H   0  0  0  0  0
   63.1320   51.6124   17.9977 H   0  0  0  0  0
   61.3588   53.6978   17.7686 H   0  0  0  0  0
   61.7525   54.7939   19.5871 H   0  0  0  0  0
   62.1740   56.2715   17.7766 H   0  0  0  0  0
   61.2651   53.6396   14.9653 H   0  0  0  0  0
   59.0113   59.7263   14.1840 H   0  0  0  0  0
   60.1127   58.9774   15.3447 H   0  0  0  0  0
  1  2  2  0  0  0
  1  3  1  0  0  0
  1  4  1  0  0  0
  1  5  1  0  0  0
  5  6  1  0  0  0
  6  7  1  0  0  0
  7  8  1  0  0  0
  7  9  1  0  0  0
  8 13  1  0  0  0
  9 10  1  0  0  0
  9 11  1  0  0  0
 11 12  1  0  0  0
 11 13  1  0  0  0
 13 14  1  0  0  0
 14 15  4  0  0  0
 14 21  4  0  0  0
 15 16  4  0  0  0
 16 17  4  0  0  0
 17 18  1  0  0  0
 17 21  4  0  0  0
 18 19  2  0  0  0
 18 20  1  0  0  0
  3 22  1  0  0  0
  4 23  1  0  0  0
  6 24  1  0  0  0
  6 25  1  0  0  0
  7 26  1  0  0  0
  9 27  1  0  0  0
 10 28  1  0  0  0
 11 29  1  0  0  0
 12 30  1  0  0  0
 13 31  1  0  0  0
 15 32  1  0  0  0
 20 33  1  0  0  0
 20 34  1  0  0  0
M  END
$$$$
