### 
### Created by X-TOOL on Mon Sep 10 21:12:50 2018
### 

@<TRIPOS>MOLECULE
1me8_ligand
   32    33     1     0     0
SMALL
GAST_HUCK


@<TRIPOS>ATOM
      1 P          67.8060   55.1920   15.0100 P.3       1 RVP         0.2008
      2 O1P        67.4470   55.1060   13.5660 O.co2     1 RVP        -0.5537
      3 O2P        68.6180   53.9930   15.3860 O.co2     1 RVP        -0.5537
      4 O3P        68.5890   56.4890   15.3350 O.co2     1 RVP        -0.5537
      5 O5'        66.5640   55.2600   15.9980 O.3       1 RVP        -0.2734
      6 C5'        65.6010   54.2070   15.9620 C.3       1 RVP         0.1072
      7 C4'        64.5210   54.4180   16.9850 C.3       1 RVP         0.1184
      8 O4'        63.7660   55.6050   16.5400 O.3       1 RVP        -0.3342
      9 C3'        63.4370   53.3700   17.1790 C.3       1 RVP         0.1151
     10 O3'        63.8630   52.2290   17.9140 O.3       1 RVP        -0.3864
     11 C2'        62.3430   54.1620   17.8320 C.3       1 RVP         0.1414
     12 O2'        62.4820   54.2780   19.2360 O.3       1 RVP        -0.3834
     13 C1'        62.4340   55.4860   17.0670 C.3       1 RVP         0.2177
     14 N9         61.4750   55.6020   15.9030 N.pl3     1 RVP        -0.1389
     15 C8         60.9890   54.6940   14.9780 C.2       1 RVP         0.1355
     16 N7         60.1710   55.2310   14.1290 N.2       1 RVP        -0.2689
     17 C5         60.0840   56.5440   14.4680 C.2       1 RVP         0.1768
     18 C6         59.3290   57.6340   13.8770 C.2       1 RVP         0.2242
     19 O6         58.5920   57.5670   12.9060 O.2       1 RVP        -0.3823
     20 N1         59.5010   58.9020   14.5320 N.am      1 RVP        -0.2984
     21 N4         60.8830   56.8100   15.5740 N.2       1 RVP        -0.1583
     22 H1         66.1068   53.2520   16.1671 H         1 RVP         0.0639
     23 H2         65.1449   54.1729   14.9616 H         1 RVP         0.0639
     24 H3         65.0075   54.5953   17.9555 H         1 RVP         0.0650
     25 H4         63.0921   53.0123   16.1977 H         1 RVP         0.0648
     26 H5         64.1510   52.4996   18.7779 H         1 RVP         0.2100
     27 H6         61.3698   53.6875   17.6377 H         1 RVP         0.0679
     28 H7         62.4756   53.4119   19.6264 H         1 RVP         0.2101
     29 H8         62.2345   56.3088   17.7692 H         1 RVP         0.1031
     30 H9         61.2649   53.6406   14.9653 H         1 RVP         0.1376
     31 H10        59.0187   59.7096   14.1926 H         1 RVP         0.1810
     32 H11        60.1030   58.9765   15.3270 H         1 RVP         0.1810
@<TRIPOS>BOND
     1    1    2 ar 
     2    1    3 ar 
     3    1    4 ar 
     4    1    5 1  
     5    5    6 1  
     6    6    7 1  
     7    7    8 1  
     8    7    9 1  
     9    8   13 1  
    10    9   10 1  
    11    9   11 1  
    12   11   12 1  
    13   11   13 1  
    14   13   14 1  
    15   14   15 1  
    16   14   21 1  
    17   15   16 2  
    18   16   17 1  
    19   17   18 1  
    20   17   21 2  
    21   18   19 2  
    22   18   20 am 
    23    6   22 1  
    24    6   23 1  
    25    7   24 1  
    26    9   25 1  
    27   10   26 1  
    28   11   27 1  
    29   12   28 1  
    30   13   29 1  
    31   15   30 1  
    32   20   31 1  
    33   20   32 1  
@<TRIPOS>SUBSTRUCTURE
     1 RVP         1

