### 
### Created by X-TOOL on Mon Sep 10 21:12:51 2018
### 

@<TRIPOS>MOLECULE
1o5p_ligand
   82    88     1     0     0
SMALL
GAST_HUCK


@<TRIPOS>ATOM
      1 C1          1.8050    8.9950    0.1740 C.2       1 CHR         0.0352
      2 C2          0.9850    9.4990   -0.8940 C.1       1 CHR        -0.0786
      3 C3          0.5330    9.8800   -1.9220 C.1       1 CHR        -0.0702
      4 C4          0.2920   10.2710   -3.3240 C.3       1 CHR         0.1939
      5 O2          0.2450    9.2340   -4.3450 O.3       1 CHR        -0.3382
      6 C5          1.5170    9.9210   -4.1640 C.3       1 CHR         0.1545
      7 C6          2.5510    9.2760   -3.3200 C.1       1 CHR        -0.0870
      8 C7          3.2110    8.7960   -2.4470 C.1       1 CHR        -0.1041
      9 C8          3.7950    8.3090   -1.2160 C.2       1 CHR        -0.0278
     10 C9          3.1750    8.5370   -0.0400 C.2       1 CHR         0.0014
     11 C10         3.8430    8.3160    1.2950 C.3       1 CHR         0.1403
     12 O1          4.7180    9.3890    1.6150 O.3       1 CHR        -0.3224
     13 C11         2.6450    8.2810    2.2660 C.3       1 CHR         0.1619
     14 O6          2.3700    6.9370    2.6120 O.3       1 CHR        -0.2541
     15 C12         1.5050    8.8690    1.4620 C.2       1 CHR        -0.0093
     16 C13         5.7120    9.2150    2.6170 C.3       1 CHR         0.2082
     17 O3          6.7340    8.3610    2.1250 O.3       1 CHR        -0.3406
     18 C14         6.3170   10.5700    2.9820 C.3       1 CHR         0.0584
     19 N1          5.2290   11.5140    3.3650 N.4       1 CHR         0.2325
     20 C19         4.7470   11.5620    4.7730 C.3       1 CHR        -0.0443
     21 C15         7.0820   11.1270    1.7780 C.3       1 CHR         0.1304
     22 O4          7.6750   12.3690    2.1280 O.3       1 CHR        -0.3834
     23 C16         8.1760   10.1370    1.3610 C.3       1 CHR         0.1123
     24 O5          9.1140    9.9800    2.4180 O.3       1 CHR        -0.3865
     25 C17         7.5430    8.7810    1.0360 C.3       1 CHR         0.0875
     26 C18         8.6450    7.7490    0.7930 C.3       1 CHR        -0.0361
     27 C20         3.2700    6.5170    3.4770 C.2       1 CHR         0.2508
     28 O7          3.6260    7.1970    4.4180 O.2       1 CHR        -0.3705
     29 C21         3.8170    5.1740    3.2350 C.ar      1 CHR         0.0839
     30 C22         5.1780    4.9380    3.4670 C.ar      1 CHR         0.1076
     31 O9          5.9740    5.9420    4.0070 O.3       1 CHR        -0.3262
     32 C23         5.7370    3.6920    3.1610 C.ar      1 CHR        -0.0243
     33 C24         4.9380    2.6800    2.6180 C.ar      1 CHR        -0.0556
     34 C25         3.5760    2.9100    2.3870 C.ar      1 CHR        -0.0201
     35 C26         3.0100    4.1550    2.6980 C.ar      1 CHR        -0.0256
     36 C27         1.6410    4.3750    2.4680 C.ar      1 CHR        -0.0410
     37 C28         0.8510    3.3580    1.9190 C.ar      1 CHR         0.0804
     38 O8         -0.5000    3.5800    1.6840 O.3       1 CHR        -0.3227
     39 C31        -0.8270    4.8240    1.0840 C.3       1 CHR         0.0599
     40 C29         1.4220    2.1190    1.6040 C.ar      1 CHR        -0.0303
     41 C30         2.7830    1.8960    1.8400 C.ar      1 CHR        -0.0403
     42 C32         3.4030    0.5560    1.4930 C.3       1 CHR        -0.0299
     43 C33        -0.4350   11.5790   -3.5860 C.3       1 CHR         0.1594
     44 O10        -0.4070   11.8880   -4.9690 O.3       1 CHR        -0.2432
     45 C34         0.2400   13.0410   -5.0670 C.2       1 CHR         0.3851
     46 O11         0.4270   13.5650   -6.1470 O.2       1 CHR        -0.3532
     47 O12         0.6760   13.6050   -3.9480 O.3       1 CHR        -0.2500
     48 C35         0.2880   12.7310   -2.9010 C.3       1 CHR         0.1132
     49 H1          1.9427   10.5681   -4.9450 H         1 CHR         0.0750
     50 H2          4.7345    7.7588   -1.2390 H         1 CHR         0.0426
     51 H3          4.3996    7.3673    1.3107 H         1 CHR         0.0844
     52 H4          2.8411    8.8742    3.1714 H         1 CHR         0.0939
     53 H5          0.5464    9.1565    1.8914 H         1 CHR         0.0873
     54 H6          5.2558    8.7647    3.5109 H         1 CHR         0.0972
     55 H7          7.0081   10.4462    3.8288 H         1 CHR         0.0928
     56 H8          4.4315   11.2869    2.7920 H         1 CHR         0.2016
     57 H9          5.5538   12.4405    3.1368 H         1 CHR         0.2016
     58 H10         3.9480   12.3128    4.8616 H         1 CHR         0.0777
     59 H11         5.5808   11.8338    5.4370 H         1 CHR         0.0777
     60 H12         4.3560   10.5749    5.0606 H         1 CHR         0.0777
     61 H13         6.3858   11.2769    0.9397 H         1 CHR         0.0679
     62 H14         8.2751   12.2390    2.8529 H         1 CHR         0.2102
     63 H15         8.6933   10.5213    0.4696 H         1 CHR         0.0647
     64 H16         9.5099   10.8206    2.6160 H         1 CHR         0.2100
     65 H17         6.9221    8.8738    0.1328 H         1 CHR         0.0621
     66 H18         9.2720    8.0738   -0.0504 H         1 CHR         0.0255
     67 H19         8.1903    6.7753    0.5581 H         1 CHR         0.0255
     68 H20         9.2655    7.6555    1.6964 H         1 CHR         0.0255
     69 H21         5.9657    6.6962    3.4295 H         1 CHR         0.2526
     70 H22         6.7898    3.5109    3.3448 H         1 CHR         0.0557
     71 H23         5.3734    1.7173    2.3759 H         1 CHR         0.0667
     72 H24         1.1968    5.3323    2.7157 H         1 CHR         0.0394
     73 H25        -1.9164    4.8895    0.9463 H         1 CHR         0.0579
     74 H26        -0.3285    4.9020    0.1065 H         1 CHR         0.0579
     75 H27        -0.4896    5.6446    1.7342 H         1 CHR         0.0579
     76 H28         0.8098    1.3327    1.1774 H         1 CHR         0.0470
     77 H29         4.4729    0.5700    1.7480 H         1 CHR         0.0406
     78 H30         3.2853    0.3653    0.4161 H         1 CHR         0.0406
     79 H31         2.9006   -0.2392    2.0633 H         1 CHR         0.0406
     80 H32        -1.4719   11.5041   -3.2267 H         1 CHR         0.0716
     81 H33         1.1716   12.3633   -2.3588 H         1 CHR         0.0644
     82 H34        -0.3850   13.2454   -2.1993 H         1 CHR         0.0644
@<TRIPOS>BOND
     1    1    2 1  
     2    1   10 1  
     3    1   15 2  
     4    2    3 3  
     5    3    4 1  
     6    4    5 1  
     7    4    6 1  
     8    4   43 1  
     9    5    6 1  
    10    6    7 1  
    11    6   49 1  
    12    7    8 3  
    13    8    9 1  
    14    9   10 2  
    15    9   50 1  
    16   10   11 1  
    17   11   12 1  
    18   11   13 1  
    19   11   51 1  
    20   12   16 1  
    21   13   14 1  
    22   13   15 1  
    23   13   52 1  
    24   14   27 1  
    25   15   53 1  
    26   16   17 1  
    27   16   18 1  
    28   16   54 1  
    29   17   25 1  
    30   18   19 1  
    31   18   21 1  
    32   18   55 1  
    33   19   20 1  
    34   19   56 1  
    35   19   57 1  
    36   20   58 1  
    37   21   22 1  
    38   21   23 1  
    39   20   59 1  
    40   20   60 1  
    41   23   24 1  
    42   23   25 1  
    43   21   61 1  
    44   22   62 1  
    45   25   26 1  
    46   23   63 1  
    47   24   64 1  
    48   25   65 1  
    49   26   66 1  
    50   27   28 2  
    51   27   29 1  
    52   29   30 ar 
    53   29   35 ar 
    54   30   31 1  
    55   30   32 ar 
    56   26   67 1  
    57   32   33 ar 
    58   26   68 1  
    59   33   34 ar 
    60   31   69 1  
    61   34   35 ar 
    62   34   41 ar 
    63   35   36 ar 
    64   36   37 ar 
    65   32   70 1  
    66   37   38 1  
    67   37   40 ar 
    68   38   39 1  
    69   33   71 1  
    70   36   72 1  
    71   39   73 1  
    72   40   41 ar 
    73   39   74 1  
    74   41   42 1  
    75   39   75 1  
    76   40   76 1  
    77   42   77 1  
    78   43   44 1  
    79   43   48 1  
    80   42   78 1  
    81   44   45 1  
    82   45   46 2  
    83   45   47 1  
    84   47   48 1  
    85   42   79 1  
    86   43   80 1  
    87   48   81 1  
    88   48   82 1  
@<TRIPOS>SUBSTRUCTURE
     1 CHR         1

