3vva_ligand
  -I-interpret- 

 49 49  0  0  0  0  0  0  0  0999 V2000
  -45.8290   -4.0480  -26.2810 O   0  0  0  0  0
  -46.4430   -3.5740  -25.1690 C   0  0  0  0  0
  -47.6150   -4.1990  -24.7760 C   0  0  0  0  0
  -48.1450   -5.3640  -25.5930 C   0  0  0  0  0
  -49.4910   -5.5310  -25.3050 C   0  0  0  0  0
  -50.5330   -4.8750  -25.9190 C   0  0  0  0  0
  -51.9510   -5.1670  -25.4490 C   0  0  0  0  0
  -52.5980   -4.0000  -25.0500 C   0  0  0  0  0
  -53.2160   -3.2160  -26.0160 C   0  0  0  0  0
  -53.9150   -2.0470  -25.7210 C   0  0  0  0  0
  -54.5370   -1.2900  -26.8950 C   0  0  0  0  0
  -55.7810   -0.7300  -26.5060 O   0  0  0  0  0
  -44.3070   -1.8080  -26.0490 O   0  0  0  0  0
  -44.6550   -1.7900  -24.8800 C   0  0  0  0  0
  -45.9390   -2.4800  -24.4520 C   0  0  0  0  0
  -48.2620   -3.7100  -23.6340 C   0  0  0  0  0
  -49.4190   -4.2270  -23.1350 O   0  0  0  0  0
  -50.2510   -3.9340  -27.0730 C   0  0  0  0  0
  -54.0760   -1.5220  -24.2740 C   0  0  0  0  0
  -53.5820   -0.2040  -27.3640 C   0  0  0  0  0
  -46.5970   -2.0240  -23.3140 C   0  0  0  0  0
  -47.7700   -2.6570  -22.9200 C   0  0  0  0  0
  -48.7160   -2.2340  -21.5320 Cl  0  0  0  0  0
  -46.0410   -0.8450  -22.5200 C   0  0  0  0  0
  -45.0340   -3.5367  -26.4488 H   0  0  0  0  0
  -47.5967   -6.2723  -25.3428 H   0  0  0  0  0
  -48.0156   -5.1608  -26.6560 H   0  0  0  0  0
  -49.7464   -6.2456  -24.5225 H   0  0  0  0  0
  -51.9032   -5.8472  -24.5986 H   0  0  0  0  0
  -52.5079   -5.6092  -26.2751 H   0  0  0  0  0
  -51.8129   -3.3692  -24.6331 H   0  0  0  0  0
  -53.4046   -4.3326  -24.3966 H   0  0  0  0  0
  -53.1509   -3.5311  -27.0574 H   0  0  0  0  0
  -54.7146   -1.9803  -27.7196 H   0  0  0  0  0
  -56.1639   -0.2571  -27.2485 H   0  0  0  0  0
  -44.0420   -1.2766  -24.1392 H   0  0  0  0  0
  -49.6761   -3.7354  -22.3515 H   0  0  0  0  0
  -49.5930   -3.1335  -26.7349 H   0  0  0  0  0
  -49.7692   -4.4854  -27.8804 H   0  0  0  0  0
  -51.1887   -3.5087  -27.4308 H   0  0  0  0  0
  -54.5930   -2.2700  -23.6729 H   0  0  0  0  0
  -53.0918   -1.3282  -23.8475 H   0  0  0  0  0
  -54.6562   -0.5993  -24.2861 H   0  0  0  0  0
  -53.3918    0.4894  -26.5448 H   0  0  0  0  0
  -52.6439   -0.6592  -27.6816 H   0  0  0  0  0
  -54.0280    0.3337  -28.2007 H   0  0  0  0  0
  -45.0409   -1.0892  -22.1617 H   0  0  0  0  0
  -45.9935    0.0341  -23.1626 H   0  0  0  0  0
  -46.6929   -0.6409  -21.6706 H   0  0  0  0  0
  2  1  1  0  0  0
  2  3  4  0  0  0
 15  2  4  0  0  0
  3  4  1  0  0  0
  3 16  4  0  0  0
  4  5  1  0  0  0
  5  6  2  0  0  0
  6  7  1  0  0  0
  6 18  1  0  0  0
  7  8  1  0  0  0
  8  9  1  0  0  0
  9 10  2  0  0  0
 10 11  1  0  0  0
 10 19  1  0  0  0
 11 12  1  0  0  0
 11 20  1  0  0  0
 14 13  2  0  0  0
 14 15  1  0  0  0
 15 21  4  0  0  0
 16 17  1  0  0  0
 16 22  4  0  0  0
 21 22  4  0  0  0
 21 24  1  0  0  0
 22 23  1  0  0  0
  1 25  1  0  0  0
  4 26  1  0  0  0
  4 27  1  0  0  0
  5 28  1  0  0  0
  7 29  1  0  0  0
  7 30  1  0  0  0
  8 31  1  0  0  0
  8 32  1  0  0  0
  9 33  1  0  0  0
 11 34  1  0  0  0
 12 35  1  0  0  0
 14 36  1  0  0  0
 17 37  1  0  0  0
 18 38  1  0  0  0
 18 39  1  0  0  0
 18 40  1  0  0  0
 19 41  1  0  0  0
 19 42  1  0  0  0
 19 43  1  0  0  0
 20 44  1  0  0  0
 20 45  1  0  0  0
 20 46  1  0  0  0
 24 47  1  0  0  0
 24 48  1  0  0  0
 24 49  1  0  0  0
M  END
$$$$
