5uac_ligand
  -I-interpret- 

118122  0  0  0  0  0  0  0  0999 V2000
  116.7180   26.8860   -8.5540 C   0  0  0  0  0
  115.4950   26.4760   -8.0550 C   0  0  0  0  0
  114.3330   26.6480   -8.7590 C   0  0  0  0  0
  114.3730   27.1900  -10.0160 C   0  0  0  0  0
  115.7040   28.1510  -11.8130 C   0  0  0  0  0
  116.9460   28.5060  -12.2730 C   0  0  0  0  0
  118.1040   28.3840  -11.6190 C   0  0  0  0  0
  118.0490   27.8470  -10.3520 C   0  0  0  0  0
  116.7710   27.4440   -9.8250 C   0  0  0  0  0
  115.5620   27.5890  -10.5600 C   0  0  0  0  0
  114.8970   28.4720  -12.8600 C   0  0  0  0  0
  115.4060   29.2180  -13.8230 C   0  0  0  0  0
  114.8720   28.5300  -15.0280 C   0  0  0  0  0
  119.4070   28.7930  -12.1720 C   0  0  0  0  0
  116.4340   25.7000   -5.8230 C   0  0  0  0  0
  116.1530   25.1880   -4.4410 C   0  0  0  0  0
  115.9770   26.1460   -3.4260 C   0  0  0  0  0
  115.7860   27.6710   -3.6650 C   0  0  0  0  0
  114.8720   28.3270   -2.8240 C   0  0  0  0  0
  114.6780   29.7950   -2.7340 C   0  0  0  0  0
  114.8060   30.3690   -4.1090 C   0  0  0  0  0
  113.9740   31.5660   -4.3440 C   0  0  0  0  0
  114.3170   32.3580   -5.5550 C   0  0  0  0  0
  114.1190   31.7580   -6.8780 C   0  0  0  0  0
  114.6150   32.6460   -7.9970 C   0  0  0  0  0
  114.2720   32.0030   -9.2660 C   0  0  0  0  0
  114.5690   32.8550  -10.4470 C   0  0  0  0  0
  114.4250   32.2070  -11.8210 C   0  0  0  0  0
  115.3380   31.3700  -12.5270 C   0  0  0  0  0
  115.8560   23.7150   -4.2690 C   0  0  0  0  0
  113.2990   29.7780   -2.2380 C   0  0  0  0  0
  114.4450   32.5550   -3.3480 C   0  0  0  0  0
  112.6290   31.7180   -6.8510 C   0  0  0  0  0
  115.1940   30.8620   -9.2850 C   0  0  0  0  0
  113.8380   34.8250   -7.6800 C   0  0  0  0  0
  112.6860   35.7200   -7.7770 C   0  0  0  0  0
  116.0980   34.5780  -10.5090 C   0  0  0  0  0
  107.8520   25.8180   -4.6690 C   0  0  0  0  0
  109.6750   27.2160   -5.6180 C   0  0  0  0  0
  110.6240   26.9730   -6.7310 C   0  0  0  0  0
  111.2880   24.8770   -5.5880 C   0  0  0  0  0
  110.3040   25.2410   -4.5020 C   0  0  0  0  0
  113.0010   26.2260   -8.1410 C   0  0  0  0  0
  115.3190   25.9290   -6.7320 N   0  0  0  0  0
  112.6600   26.6980   -6.9510 N   0  0  0  0  0
  111.6190   26.0960   -6.2700 N   0  0  0  0  0
  109.2440   25.9520   -5.1450 N   0  3  0  0  0
  117.8700   26.7780   -7.9150 O   0  0  0  0  0
  119.2310   27.7250   -9.6640 O   0  0  0  0  0
  116.7910   29.0900  -13.6960 O   0  0  0  0  0
  113.7740   28.0650  -12.9250 O   0  0  0  0  0
  114.9850   30.5680  -13.6500 O   0  0  0  0  0
  115.8240   33.2530  -10.1910 O   0  0  0  0  0
  113.7010   33.5830   -8.1660 O   0  0  0  0  0
  114.8040   35.0350   -6.9850 O   0  0  0  0  0
  115.6400   32.6180   -5.4130 O   0  0  0  0  0
  116.0800   30.8290   -4.1930 O   0  0  0  0  0
  117.5740   25.9300   -6.1440 O   0  0  0  0  0
  113.2420   27.3380  -10.7340 O   0  0  0  0  0
  115.2257   27.4991  -15.0429 H   0  0  0  0  0
  113.7825   28.5413  -14.9983 H   0  0  0  0  0
  115.2177   29.0470  -15.9231 H   0  0  0  0  0
  119.6046   28.2323  -13.0856 H   0  0  0  0  0
  119.3866   29.8596  -12.3959 H   0  0  0  0  0
  120.1903   28.5886  -11.4421 H   0  0  0  0  0
  115.9743   25.7931   -2.3947 H   0  0  0  0  0
  116.3326   28.2026   -4.4440 H   0  0  0  0  0
  114.2510   27.7029   -2.1814 H   0  0  0  0  0
  115.3660   30.3812   -2.1247 H   0  0  0  0  0
  114.5126   29.5934   -4.8164 H   0  0  0  0  0
  112.9455   31.2054   -4.3602 H   0  0  0  0  0
  113.6293   33.2034   -5.5738 H   0  0  0  0  0
  114.6398   30.8166   -7.0532 H   0  0  0  0  0
  115.6519   32.9077   -7.7861 H   0  0  0  0  0
  113.2093   31.7681   -9.3256 H   0  0  0  0  0
  113.8362   33.6560  -10.5442 H   0  0  0  0  0
  113.4879   32.4142  -12.3378 H   0  0  0  0  0
  116.3727   31.3420  -12.1854 H   0  0  0  0  0
  116.4760   23.3117   -3.4683 H   0  0  0  0  0
  114.8037   23.5849   -4.0161 H   0  0  0  0  0
  116.0750   23.1905   -5.1991 H   0  0  0  0  0
  112.6602   29.2713   -2.9615 H   0  0  0  0  0
  113.2631   29.2483   -1.2860 H   0  0  0  0  0
  112.9516   30.8018   -2.0989 H   0  0  0  0  0
  114.3028   32.1541   -2.3444 H   0  0  0  0  0
  115.5030   32.7589   -3.5126 H   0  0  0  0  0
  113.8747   33.4776   -3.4562 H   0  0  0  0  0
  112.2984   31.1066   -6.0114 H   0  0  0  0  0
  112.2416   32.7307   -6.7394 H   0  0  0  0  0
  112.2614   31.2876   -7.7825 H   0  0  0  0  0
  116.2210   31.2258   -9.2527 H   0  0  0  0  0
  115.0041   30.2286   -8.4185 H   0  0  0  0  0
  115.0395   30.2868  -10.1979 H   0  0  0  0  0
  112.2311   35.8326   -6.7929 H   0  0  0  0  0
  113.0137   36.6938   -8.1408 H   0  0  0  0  0
  111.9573   35.2985   -8.4694 H   0  0  0  0  0
  115.9313   34.7365  -11.5745 H   0  0  0  0  0
  115.4402   35.2314   -9.9359 H   0  0  0  0  0
  117.1366   34.8015  -10.2652 H   0  0  0  0  0
  107.6872   26.5004   -3.8351 H   0  0  0  0  0
  107.1667   26.0621   -5.4807 H   0  0  0  0  0
  107.6786   24.7930   -4.3411 H   0  0  0  0  0
  108.8250   27.8051   -5.9625 H   0  0  0  0  0
  110.1589   27.7780   -4.8192 H   0  0  0  0  0
  111.0714   27.9123   -7.0560 H   0  0  0  0  0
  110.1019   26.5358   -7.5821 H   0  0  0  0  0
  110.8554   24.1516   -6.2770 H   0  0  0  0  0
  112.1796   24.4141   -5.1651 H   0  0  0  0  0
  110.7765   25.8519   -3.7328 H   0  0  0  0  0
  109.9297   24.3506   -3.9969 H   0  0  0  0  0
  112.3383   25.5438   -8.6735 H   0  0  0  0  0
  114.3767   25.6933   -6.4207 H   0  0  0  0  0
  109.0495   25.3813   -5.9678 H   0  0  0  0  0
  118.5737   27.1308   -8.4645 H   0  0  0  0  0
  119.0595   27.3406   -8.8012 H   0  0  0  0  0
  115.9461   33.1329   -6.1632 H   0  0  0  0  0
  116.2239   31.2126   -5.0612 H   0  0  0  0  0
  113.4532   27.7304  -11.5843 H   0  0  0  0  0
  2  1  4  0  0  0
  1  9  4  0  0  0
  1 48  1  0  0  0
  3  2  4  0  0  0
  2 44  1  0  0  0
  3  4  4  0  0  0
 43  3  1  0  0  0
  4 10  4  0  0  0
  4 59  1  0  0  0
  5  6  4  0  0  0
 10  5  4  0  0  0
  5 11  1  0  0  0
  6  7  4  0  0  0
  6 50  1  0  0  0
  8  7  4  0  0  0
  7 14  1  0  0  0
  9  8  4  0  0  0
  8 49  1  0  0  0
 10  9  4  0  0  0
 11 12  1  0  0  0
 11 51  2  0  0  0
 12 13  1  0  0  0
 12 50  1  0  0  0
 12 52  1  0  0  0
 15 16  1  0  0  0
 44 15  1  0  0  0
 15 58  2  0  0  0
 16 17  2  0  0  0
 16 30  1  0  0  0
 17 18  1  0  0  0
 18 19  2  0  0  0
 19 20  1  0  0  0
 20 21  1  0  0  0
 20 31  1  0  0  0
 21 22  1  0  0  0
 21 57  1  0  0  0
 22 23  1  0  0  0
 22 32  1  0  0  0
 23 24  1  0  0  0
 23 56  1  0  0  0
 25 24  1  0  0  0
 24 33  1  0  0  0
 26 25  1  0  0  0
 25 54  1  0  0  0
 27 26  1  0  0  0
 26 34  1  0  0  0
 28 27  1  0  0  0
 27 53  1  0  0  0
 29 28  2  0  0  0
 52 29  1  0  0  0
 35 36  1  0  0  0
 54 35  1  0  0  0
 35 55  2  0  0  0
 53 37  1  0  0  0
 47 38  1  0  0  0
 40 39  1  0  0  0
 39 47  1  0  0  0
 46 40  1  0  0  0
 41 42  1  0  0  0
 46 41  1  0  0  0
 42 47  1  0  0  0
 45 43  2  0  0  0
 45 46  1  0  0  0
 13 60  1  0  0  0
 13 61  1  0  0  0
 13 62  1  0  0  0
 14 63  1  0  0  0
 14 64  1  0  0  0
 14 65  1  0  0  0
 17 66  1  0  0  0
 18 67  1  0  0  0
 19 68  1  0  0  0
 20 69  1  0  0  0
 21 70  1  0  0  0
 22 71  1  0  0  0
 23 72  1  0  0  0
 24 73  1  0  0  0
 25 74  1  0  0  0
 26 75  1  0  0  0
 27 76  1  0  0  0
 28 77  1  0  0  0
 29 78  1  0  0  0
 30 79  1  0  0  0
 30 80  1  0  0  0
 30 81  1  0  0  0
 31 82  1  0  0  0
 31 83  1  0  0  0
 31 84  1  0  0  0
 32 85  1  0  0  0
 32 86  1  0  0  0
 32 87  1  0  0  0
 33 88  1  0  0  0
 33 89  1  0  0  0
 33 90  1  0  0  0
 34 91  1  0  0  0
 34 92  1  0  0  0
 34 93  1  0  0  0
 36 94  1  0  0  0
 36 95  1  0  0  0
 36 96  1  0  0  0
 37 97  1  0  0  0
 37 98  1  0  0  0
 37 99  1  0  0  0
 38100  1  0  0  0
 38101  1  0  0  0
 38102  1  0  0  0
 39103  1  0  0  0
 39104  1  0  0  0
 40105  1  0  0  0
 40106  1  0  0  0
 41107  1  0  0  0
 41108  1  0  0  0
 42109  1  0  0  0
 42110  1  0  0  0
 43111  1  0  0  0
 44112  1  0  0  0
 47113  1  0  0  0
 48114  1  0  0  0
 49115  1  0  0  0
 56116  1  0  0  0
 57117  1  0  0  0
 59118  1  0  0  0
M  END
$$$$
