4q0a_ligand
  -I-interpret- 

 67 70  0  0  0  0  0  0  0  0999 V2000
   -0.0040   31.0880   35.2040 C   0  0  0  0  0
    0.4610   31.5340   36.6640 C   0  0  0  0  0
   -0.9430   33.8360   36.5830 C   0  0  0  0  0
   -0.9320   35.3670   36.7240 C   0  0  0  0  0
   -0.3410   35.8990   38.1030 C   0  0  0  0  0
    1.0890   35.2260   38.3400 C   0  0  0  0  0
    1.6100   35.8220   39.6640 C   0  0  0  0  0
    1.0270   37.2780   39.5510 C   0  0  0  0  0
    0.2020   37.3540   38.2230 C   0  0  0  0  0
   -1.4660   35.5600   39.2120 C   0  0  0  0  0
   -0.5470   30.9290   37.6980 C   0  0  0  0  0
    3.3510   31.7000   33.3910 O   0  0  0  0  0
    0.9620   31.6560   34.1030 C   0  0  0  0  0
   -0.9000   38.5600   38.3400 C   0  0  0  0  0
   -1.8280   38.7040   37.1190 C   0  0  0  0  0
   -0.2200   39.9590   38.4140 C   0  0  0  0  0
   -0.8690   41.0970   39.1760 C   0  0  0  0  0
   -0.0390   42.4140   39.1600 C   0  0  0  0  0
    2.4610   31.1690   34.3750 C   0  0  0  0  0
    2.9540   31.5880   35.8110 C   0  0  0  0  0
   -0.5180   43.3750   39.7890 O   0  0  0  0  0
    1.0670   42.5190   38.5600 O   0  0  0  0  0
    1.9600   30.9940   36.9250 C   0  0  0  0  0
    2.4360   31.4270   38.4130 C   0  0  0  0  0
    2.4610   33.0010   38.5170 C   0  0  0  0  0
    1.0370   33.6250   38.2760 C   0  0  0  0  0
    0.5050   33.1800   36.8150 C   0  0  0  0  0
   -1.0057   31.4779   35.0232 H   0  0  0  0  0
    0.0098   29.9994   35.1515 H   0  0  0  0  0
   -1.2597   33.5962   35.5680 H   0  0  0  0  0
   -1.6165   33.4355   37.3407 H   0  0  0  0  0
   -1.9687   35.6995   36.6719 H   0  0  0  0  0
   -0.2921   35.7556   35.9318 H   0  0  0  0  0
    1.7930   35.4543   37.5398 H   0  0  0  0  0
    2.6923   35.7767   39.7850 H   0  0  0  0  0
    1.2999   35.2791   40.5569 H   0  0  0  0  0
    1.8334   38.0113   39.5408 H   0  0  0  0  0
    0.3910   37.5010   40.4077 H   0  0  0  0  0
    0.7367   37.6204   37.3113 H   0  0  0  0  0
   -1.0392   35.6767   40.2081 H   0  0  0  0  0
   -2.3079   36.2421   39.0939 H   0  0  0  0  0
   -1.8072   34.5333   39.0795 H   0  0  0  0  0
   -0.5479   29.8426   37.6097 H   0  0  0  0  0
   -0.2453   31.2126   38.7063 H   0  0  0  0  0
   -1.5471   31.3121   37.4954 H   0  0  0  0  0
    4.2437   31.3966   33.5716 H   0  0  0  0  0
    0.9312   32.7452   34.1301 H   0  0  0  0  0
    0.6415   31.2928   33.1266 H   0  0  0  0  0
   -1.4557   38.2800   39.2349 H   0  0  0  0  0
   -1.2293   38.9081   36.2313 H   0  0  0  0  0
   -2.3863   37.7786   36.9774 H   0  0  0  0  0
   -2.5228   39.5268   37.2873 H   0  0  0  0  0
   -0.2074   40.3039   37.3801 H   0  0  0  0  0
    0.7101   39.7748   38.9517 H   0  0  0  0  0
   -0.9614   40.7825   40.2155 H   0  0  0  0  0
   -1.8245   41.3079   38.6957 H   0  0  0  0  0
    2.4627   30.0807   34.3136 H   0  0  0  0  0
    2.9669   32.6755   35.8837 H   0  0  0  0  0
    3.9565   31.1934   35.9764 H   0  0  0  0  0
    1.2782   41.6858   38.1325 H   0  0  0  0  0
    1.9782   29.9064   36.8546 H   0  0  0  0  0
    3.4341   31.0334   38.6051 H   0  0  0  0  0
    1.7407   31.0243   39.1495 H   0  0  0  0  0
    3.1369   33.3842   37.7525 H   0  0  0  0  0
    2.7890   33.2729   39.5203 H   0  0  0  0  0
    0.3675   33.2654   39.0574 H   0  0  0  0  0
    1.1925   33.5381   36.0487 H   0  0  0  0  0
  1  2  1  0  0  0
 13  1  1  0  0  0
  2 11  1  0  0  0
  2 23  1  0  0  0
  2 27  1  0  0  0
  3  4  1  0  0  0
 27  3  1  0  0  0
  4  5  1  0  0  0
  5  6  1  0  0  0
  5  9  1  0  0  0
  5 10  1  0  0  0
  6  7  1  0  0  0
  6 26  1  0  0  0
  8  7  1  0  0  0
  9  8  1  0  0  0
  9 14  1  0  0  0
 19 12  1  0  0  0
 13 19  1  0  0  0
 14 15  1  0  0  0
 14 16  1  0  0  0
 16 17  1  0  0  0
 17 18  1  0  0  0
 18 21  2  0  0  0
 18 22  1  0  0  0
 19 20  1  0  0  0
 20 23  1  0  0  0
 23 24  1  0  0  0
 24 25  1  0  0  0
 25 26  1  0  0  0
 26 27  1  0  0  0
  1 28  1  0  0  0
  1 29  1  0  0  0
  3 30  1  0  0  0
  3 31  1  0  0  0
  4 32  1  0  0  0
  4 33  1  0  0  0
  6 34  1  0  0  0
  7 35  1  0  0  0
  7 36  1  0  0  0
  8 37  1  0  0  0
  8 38  1  0  0  0
  9 39  1  0  0  0
 10 40  1  0  0  0
 10 41  1  0  0  0
 10 42  1  0  0  0
 11 43  1  0  0  0
 11 44  1  0  0  0
 11 45  1  0  0  0
 12 46  1  0  0  0
 13 47  1  0  0  0
 13 48  1  0  0  0
 14 49  1  0  0  0
 15 50  1  0  0  0
 15 51  1  0  0  0
 15 52  1  0  0  0
 16 53  1  0  0  0
 16 54  1  0  0  0
 17 55  1  0  0  0
 17 56  1  0  0  0
 19 57  1  0  0  0
 20 58  1  0  0  0
 20 59  1  0  0  0
 22 60  1  0  0  0
 23 61  1  0  0  0
 24 62  1  0  0  0
 24 63  1  0  0  0
 25 64  1  0  0  0
 25 65  1  0  0  0
 26 66  1  0  0  0
 27 67  1  0  0  0
M  END
$$$$
