5dp8_ligand
  -I-interpret- 

 75 77  0  0  0  0  0  0  0  0999 V2000
   -1.7550   -8.7560   -2.8270 N   0  0  0  0  0
  -10.4860   -6.7880   -0.4950 C   0  0  0  0  0
  -10.8600   -8.1150   -0.2550 C   0  0  0  0  0
  -11.9550   -8.3720    0.5930 C   0  0  0  0  0
  -12.6670   -7.3270    1.1900 C   0  0  0  0  0
  -12.2960   -6.0010    0.9320 C   0  0  0  0  0
   -6.1250   -7.9100   -4.3870 C   0  0  0  0  0
   -2.7670   -9.5040   -3.2100 C   0  0  0  0  0
   -7.7730   -6.7600   -5.9150 C   0  0  0  0  0
   -7.2140   -7.0080   -2.3740 C   0  0  0  0  0
   -6.3040   -7.4080    0.5590 C   0  0  0  0  0
   -6.1120   -6.8300    1.9350 C   0  0  0  0  0
   -4.4090  -10.2350    5.7930 C   0  0  0  0  0
   -3.5260   -7.2620   -3.0220 C   0  0  0  0  0
   -4.8460   -9.0730    4.8960 C   0  0  0  0  0
   -8.0860   -7.2860   -1.2130 C   0  0  0  0  0
   -9.3300   -6.4340   -1.4130 C   0  0  0  0  0
  -11.2060   -5.7360    0.0930 C   0  0  0  0  0
   -4.9260   -8.8800   -4.3890 C   0  0  0  0  0
   -4.0320   -8.6950   -3.1680 C   0  0  0  0  0
   -6.9760   -8.0650   -5.6730 C   0  0  0  0  0
   -7.0150   -5.5840   -6.5020 C   0  0  0  0  0
   -6.7530   -3.2880   -5.6640 C   0  0  0  0  0
   -3.6830   -8.2980    4.2570 C   0  0  0  0  0
   -2.1060   -7.3960   -2.5050 C   0  0  0  0  0
   -5.9810   -5.6830   -7.1500 O   0  0  0  0  0
   -7.5540   -4.2630   -6.2990 O   0  0  0  0  0
   -6.7940   -3.5980   -4.1780 C   0  0  0  0  0
   -2.6860  -10.6770   -3.5280 O   0  0  0  0  0
   -6.9640   -8.0440   -3.1930 N   0  0  0  0  0
   -6.7740   -5.8700   -2.5010 O   0  0  0  0  0
   -7.4830   -6.9830    0.0720 N   0  0  0  0  0
   -5.5230   -8.1390   -0.0870 O   0  0  0  0  0
   -6.9760   -6.0460    2.3140 O   0  0  0  0  0
   -5.1610   -6.9870    2.8550 N   0  0  0  0  0
   -3.9990   -7.8290    2.8300 C   0  0  0  0  0
   -5.0820  -10.5200    4.4580 C   0  0  0  0  0
   -0.8004   -9.1096   -2.7632 H   0  0  0  0  0
  -10.3127   -8.9367   -0.7169 H   0  0  0  0  0
  -12.2523   -9.4026    0.7871 H   0  0  0  0  0
  -13.5056   -7.5428    1.8521 H   0  0  0  0  0
  -12.8530   -5.1792    1.3821 H   0  0  0  0  0
   -5.7034   -6.9050   -4.3671 H   0  0  0  0  0
   -8.1115   -6.4331   -4.9318 H   0  0  0  0  0
   -8.5401   -7.0129   -6.6469 H   0  0  0  0  0
   -4.5007  -10.5409    6.8352 H   0  0  0  0  0
   -3.5243  -10.5519    6.3453 H   0  0  0  0  0
   -4.1496   -6.6813   -2.3423 H   0  0  0  0  0
   -3.5613   -6.7233   -3.9689 H   0  0  0  0  0
   -5.4924   -8.1994    4.9807 H   0  0  0  0  0
   -8.2954   -8.3551   -1.1778 H   0  0  0  0  0
   -9.0509   -5.4035   -1.1934 H   0  0  0  0  0
   -9.6706   -6.5998   -2.4351 H   0  0  0  0  0
  -10.9145   -4.7045   -0.1049 H   0  0  0  0  0
   -4.3296   -8.6794   -5.2790 H   0  0  0  0  0
   -5.3142   -9.8984   -4.3734 H   0  0  0  0  0
   -4.6852   -9.0051   -2.3523 H   0  0  0  0  0
   -7.6670   -8.8999   -5.5564 H   0  0  0  0  0
   -6.3223   -8.2580   -6.5236 H   0  0  0  0  0
   -7.1279   -2.2842   -5.8639 H   0  0  0  0  0
   -5.7306   -3.3169   -6.0408 H   0  0  0  0  0
   -2.8225   -8.9652    4.2078 H   0  0  0  0  0
   -3.4942   -7.4141    4.8663 H   0  0  0  0  0
   -1.4278   -6.6723   -2.9571 H   0  0  0  0  0
   -2.0295   -7.1873   -1.4379 H   0  0  0  0  0
   -7.8242   -3.5465   -3.8257 H   0  0  0  0  0
   -6.3995   -4.5995   -4.0060 H   0  0  0  0  0
   -6.1876   -2.8698   -3.6394 H   0  0  0  0  0
   -7.3717   -8.9535   -2.9763 H   0  0  0  0  0
   -8.0221   -6.3697    0.6833 H   0  0  0  0  0
   -5.2755   -6.4273    3.7000 H   0  0  0  0  0
   -4.1884   -8.6942    2.1947 H   0  0  0  0  0
   -3.1515   -7.2702    2.4330 H   0  0  0  0  0
   -5.8959  -11.1320    4.0692 H   0  0  0  0  0
   -4.9182  -11.1429    3.5787 H   0  0  0  0  0
  8  1  1  0  0  0
 25  1  1  0  0  0
  2  3  4  0  0  0
 17  2  1  0  0  0
  2 18  4  0  0  0
  3  4  4  0  0  0
  4  5  4  0  0  0
  6  5  4  0  0  0
 18  6  4  0  0  0
  7 19  1  0  0  0
  7 21  1  0  0  0
 30  7  1  0  0  0
 20  8  1  0  0  0
  8 29  2  0  0  0
 21  9  1  0  0  0
  9 22  1  0  0  0
 16 10  1  0  0  0
 10 30  1  0  0  0
 10 31  2  0  0  0
 12 11  1  0  0  0
 11 32  1  0  0  0
 11 33  2  0  0  0
 12 34  2  0  0  0
 35 12  1  0  0  0
 15 13  1  0  0  0
 37 13  1  0  0  0
 20 14  1  0  0  0
 14 25  1  0  0  0
 24 15  1  0  0  0
 15 37  1  0  0  0
 16 17  1  0  0  0
 32 16  1  0  0  0
 19 20  1  0  0  0
 22 26  2  0  0  0
 22 27  1  0  0  0
 27 23  1  0  0  0
 23 28  1  0  0  0
 36 24  1  0  0  0
 35 36  1  0  0  0
  1 38  1  0  0  0
  3 39  1  0  0  0
  4 40  1  0  0  0
  5 41  1  0  0  0
  6 42  1  0  0  0
  7 43  1  0  0  0
  9 44  1  0  0  0
  9 45  1  0  0  0
 13 46  1  0  0  0
 13 47  1  0  0  0
 14 48  1  0  0  0
 14 49  1  0  0  0
 15 50  1  0  0  0
 16 51  1  0  0  0
 17 52  1  0  0  0
 17 53  1  0  0  0
 18 54  1  0  0  0
 19 55  1  0  0  0
 19 56  1  0  0  0
 20 57  1  0  0  0
 21 58  1  0  0  0
 21 59  1  0  0  0
 23 60  1  0  0  0
 23 61  1  0  0  0
 24 62  1  0  0  0
 24 63  1  0  0  0
 25 64  1  0  0  0
 25 65  1  0  0  0
 28 66  1  0  0  0
 28 67  1  0  0  0
 28 68  1  0  0  0
 30 69  1  0  0  0
 32 70  1  0  0  0
 35 71  1  0  0  0
 36 72  1  0  0  0
 36 73  1  0  0  0
 37 74  1  0  0  0
 37 75  1  0  0  0
M  END
$$$$
