3mhw_ligand
  -I-interpret- 

 16 17  0  0  0  0  0  0  0  0999 V2000
  -29.5790  -17.6000    9.0430 C   0  0  0  0  0
  -30.4030  -19.8040   11.6350 N   0  0  0  0  0
  -31.6130  -19.1420    9.4990 S   0  0  0  0  0
  -28.4240  -17.0880    9.4690 C   0  0  0  0  0
  -32.4300  -20.9140   11.2400 N   0  0  0  0  0
  -27.8510  -17.4600   10.6270 C   0  0  0  0  0
  -28.4280  -18.4020   11.4040 C   0  0  0  0  0
  -29.5950  -18.9180   11.0100 C   0  0  0  0  0
  -30.1590  -18.4920    9.8400 C   0  0  0  0  0
  -31.4920  -20.0710   10.8950 C   0  0  0  0  0
  -30.0235  -17.3034    8.0930 H   0  0  0  0  0
  -27.9249  -16.3387    8.8546 H   0  0  0  0  0
  -32.3617  -21.4195   12.1233 H   0  0  0  0  0
  -33.2300  -21.0662   10.6258 H   0  0  0  0  0
  -26.9148  -16.9984   10.9407 H   0  0  0  0  0
  -27.9537  -18.7323   12.3282 H   0  0  0  0  0
  1  4  4  0  0  0
  9  1  4  0  0  0
  2  8  4  0  0  0
 10  2  4  0  0  0
  3  9  4  0  0  0
  3 10  4  0  0  0
  4  6  4  0  0  0
 10  5  1  0  0  0
  6  7  4  0  0  0
  7  8  4  0  0  0
  8  9  4  0  0  0
  1 11  1  0  0  0
  4 12  1  0  0  0
  5 13  1  0  0  0
  5 14  1  0  0  0
  6 15  1  0  0  0
  7 16  1  0  0  0
M  END
$$$$
