4cts_ligand
  -I-interpret- 

 13 12  0  0  0  0  0  0  0  0999 V2000
   38.4610   -5.8280   14.9780 O   0  0  0  0  0
   39.6670   -5.6000   13.2340 O   0  0  0  0  0
   37.7070   -2.2540   15.7720 O   0  0  0  0  0
   35.5230   -2.5510   15.7930 O   0  0  0  0  0
   35.7300   -4.2370   13.8360 O   0  0  0  0  0
   38.6260   -5.3030   13.8580 C   0  0  0  0  0
   38.0910   -3.9070   13.6300 C   0  0  0  0  0
   36.7640   -3.7340   14.3160 C   0  0  0  0  0
   36.6690   -2.8530   15.3500 C   0  0  0  0  0
   39.6783   -5.1362   12.3936 H   0  0  0  0  0
   38.4818   -2.6090   15.3302 H   0  0  0  0  0
   37.9601   -3.7480   12.5596 H   0  0  0  0  0
   38.7981   -3.1852   14.0388 H   0  0  0  0  0
  6  1  2  0  0  0
  6  2  1  0  0  0
  9  3  1  0  0  0
  9  4  2  0  0  0
  8  5  2  0  0  0
  7  6  1  0  0  0
  8  7  1  0  0  0
  8  9  1  0  0  0
  2 10  1  0  0  0
  3 11  1  0  0  0
  7 12  1  0  0  0
  7 13  1  0  0  0
M  END
$$$$
