6ert_ligand

Created by X-TOOL on Mon Aug  2 16:11:40 2021
 58 61  0  0  0  0  0  0  0  0999 V2000
   11.9120    9.2440    6.9490  C 0  0  0  2  0  3
   10.6850    9.8300    7.0790  C 0  0  0  2  0  3
   10.5820   11.2420    7.0470  C 0  0  0  1  0  3
    5.8800   13.1630    7.6420  C 0  0  0  3  0  4
    7.0860   10.8140    6.4760  O 0  0  0  1  0  1
    7.8240   11.2190    7.6350  S 0  0  0  1  0  4
    8.1250   10.2810    8.6560  O 0  0  0  1  0  1
    9.3580   11.9820    7.1780  C 0  0  0  1  0  3
    9.3400   13.3460    7.0620  C 0  0  0  2  0  3
   10.5170   14.0470    6.8480  C 0  0  0  2  0  3
   11.7150   13.3930    6.7580  C 0  0  0  2  0  3
   11.7790   11.9790    6.8480  C 0  0  0  1  0  3
   12.9870   11.2430    6.7440  C 0  0  0  2  0  3
   13.0600    9.9210    6.7920  N 0  0  0  1  0  2
    6.9310   12.3930    8.3420  N 0  0  0  1  0  3
    4.5130   13.2320    8.2960  C 0  0  0  3  0  4
    4.5270   13.5930    9.7650  C 0  0  0  3  0  4
    4.9640   12.4950   10.6450  N 0  3  0  2  0  4
    4.4150   12.6590   11.9990  C 0  0  0  3  0  4
    2.9820   12.2170   12.1650  C 0  0  0  1  0  3
    2.0910   13.1270   12.7300  C 0  0  0  2  0  3
    0.7940   12.7480   13.0200  C 0  0  0  2  0  3
    0.3730   11.4690   12.7270  C 0  0  0  2  0  3
    1.2490   10.5610   12.1450  C 0  0  0  2  0  3
    2.5750   10.9000   11.8530  C 0  0  0  2  0  4
    3.5340    9.7980   11.1930  B 0  0  0  1  0  3
    2.9110    8.4040   11.1540  O 0  0  0  3  0  3
    3.9410   10.1300    9.8000  O 0  0  0  3  0  3
    6.5070   12.4580   10.8130  C 0  0  0  3  0  4
    7.3780   12.8480    9.6710  C 0  0  0  3  0  4
   11.9617    8.1614    6.9743  H 0  0  0  1  0  1
    9.7981    9.2197    7.2055  H 0  0  0  1  0  1
    5.7476   12.7121    6.6475  H 0  0  0  1  0  1
    6.2452   14.1947    7.5312  H 0  0  0  1  0  1
    8.4003   13.8810    7.1379  H 0  0  0  1  0  1
   10.4874   15.1262    6.7509  H 0  0  0  1  0  1
   12.6265   13.9623    6.6162  H 0  0  0  1  0  1
   13.9096   11.7977    6.6171  H 0  0  0  1  0  1
    4.0338   12.2475    8.1907  H 0  0  0  1  0  1
    3.9175   13.9885    7.7640  H 0  0  0  1  0  1
    3.5089   13.8882   10.0589  H 0  0  0  1  0  1
    5.2106   14.4431    9.9063  H 0  0  0  1  0  1
    4.6470   11.6229   10.2514  H 0  0  0  1  0  1
    4.4762   13.7246   12.2651  H 0  0  0  1  0  1
    5.0354   12.0718   12.6920  H 0  0  0  1  0  1
    2.4171   14.1385   12.9434  H 0  0  0  1  0  1
    0.1101   13.4545   13.4764  H 0  0  0  1  0  1
   -0.6446   11.1704   12.9512  H 0  0  0  1  0  1
    0.8958    9.5632   11.9108  H 0  0  0  1  0  1
    3.2582   10.1856   11.4082  H 0  0  0  1  0  1
    2.6375    8.1560   12.0293  H 0  0  0  1  0  1
    2.6375    8.1560   12.0293  H 0  0  0  1  0  1
    4.5708    9.4881    9.4938  H 0  0  0  1  0  1
    4.5709    9.4881    9.4938  H 0  0  0  1  0  1
    6.7750   11.4255   11.0817  H 0  0  0  1  0  1
    6.7542   13.1301   11.6480  H 0  0  0  1  0  1
    7.4365   13.9462    9.6503  H 0  0  0  1  0  1
    8.3796   12.4307    9.8519  H 0  0  0  1  0  1
  2  1  4  0  0  1
  1 14  4  0  0  1
  3  2  4  0  0  1
  8  3  4  0  0  1
  3 12  4  0  0  1
 15  4  1  0  0  1
  4 16  1  0  0  1
  6  5  2  0  0  2
  6  7  2  0  0  2
  6  8  1  0  0  2
  6 15  1  0  0  2
  8  9  4  0  0  1
  9 10  4  0  0  1
 10 11  4  0  0  1
 11 12  4  0  0  1
 12 13  4  0  0  1
 13 14  4  0  0  1
 15 30  1  0  0  1
 16 17  1  0  0  1
 17 18  1  0  0  1
 18 19  1  0  0  2
 18 29  1  0  0  1
 19 20  1  0  0  2
 20 21  4  0  0  1
 20 25  4  0  0  1
 21 22  4  0  0  1
 22 23  4  0  0  1
 23 24  4  0  0  1
 24 25  4  0  0  1
 25 26  1  0  0  2
 26 27  1  0  0  2
 26 28  1  0  0  2
 29 30  1  0  0  1
  1 31  1  0  0  2
  2 32  1  0  0  2
  4 33  1  0  0  2
  4 34  1  0  0  2
  9 35  1  0  0  2
 10 36  1  0  0  2
 11 37  1  0  0  2
 13 38  1  0  0  2
 16 39  1  0  0  2
 16 40  1  0  0  2
 17 41  1  0  0  2
 17 42  1  0  0  2
 18 43  1  0  0  2
 19 44  1  0  0  2
 19 45  1  0  0  2
 21 46  1  0  0  2
 22 47  1  0  0  2
 23 48  1  0  0  2
 24 49  1  0  0  2
 25 50  1  0  0  2
 27 51  1  0  0  2
 27 52  1  0  0  2
 28 53  1  0  0  2
 28 54  1  0  0  2
 29 55  1  0  0  2
 29 56  1  0  0  2
 30 57  1  0  0  2
 30 58  1  0  0  2
M  END
> <MOLECULAR_FORMULA>
C21H28N3O4SB

> <MOLECULAR_WEIGHT>
429.1

> <NUM_HB_ATOMS>
6  

> <NUM_ROTOR>
4  

> <XLOGP2>
1.90 

$$$$
