#	Name:			6ert_ligand
#	Creating user name:	wangrx
#	Creation time:		Thu Aug  5 17:16:25 2021

#	Modifying user name:	wangrx
#	Modification time:	Thu Aug  5 17:16:45 2021

@<TRIPOS>MOLECULE
6ert_ligand
   57    60     1     0     0
SMALL
GAST_HUCK


@<TRIPOS>ATOM
      1 C11        11.9120    9.2440    6.9490 C.ar      1 BVZ         0.0077 
      2 C12        10.6850    9.8300    7.0790 C.ar      1 BVZ        -0.0294 
      3 C13        10.5820   11.2420    7.0470 C.ar      1 BVZ         0.0243 
      4 C15         5.8800   13.1630    7.6420 C.3       1 BVZ         0.0347 
      5 O01         7.0860   10.8140    6.4760 O.2       1 BVZ        -0.1499 
      6 S02         7.8240   11.2190    7.6350 S.o2      1 BVZ         0.0730 
      7 O03         8.1250   10.2810    8.6560 O.2       1 BVZ        -0.1499 
      8 C04         9.3580   11.9820    7.1780 C.ar      1 BVZ         0.1236 
      9 C05         9.3400   13.3460    7.0620 C.ar      1 BVZ        -0.0287 
     10 C06        10.5170   14.0470    6.8480 C.ar      1 BVZ        -0.0534 
     11 C07        11.7150   13.3930    6.7580 C.ar      1 BVZ        -0.0451 
     12 C08        11.7790   11.9790    6.8480 C.ar      1 BVZ         0.0110 
     13 C09        12.9870   11.2430    6.7440 C.ar      1 BVZ         0.0199 
     14 N10        13.0600    9.9210    6.7920 N.ar      1 BVZ        -0.2974 
     15 N14         6.9310   12.3930    8.3420 N.am      1 BVZ        -0.2286 
     16 C16         4.5130   13.2320    8.2960 C.3       1 BVZ         0.0046 
     17 C17         4.5270   13.5930    9.7650 C.3       1 BVZ        -0.0290 
     18 N18         4.9640   12.4950   10.6450 N.4       1 BVZ         0.2472 
     19 C19         4.4150   12.6590   11.9990 C.3       1 BVZ        -0.0167 
     20 C20         2.9820   12.2170   12.1650 C.ar      1 BVZ        -0.1004 
     21 C21         2.0910   13.1270   12.7300 C.ar      1 BVZ        -0.1703 
     22 C22         0.7940   12.7480   13.0200 C.ar      1 BVZ        -0.1825 
     23 C23         0.3730   11.4690   12.7270 C.ar      1 BVZ        -0.1687 
     24 C24         1.2490   10.5610   12.1450 C.ar      1 BVZ        -0.1856 
     25 C25         2.5750   10.9000   11.8530 C.ar      1 BVZ        -0.1814 
     26 B26         3.5340    9.7980   11.1930 B         1 BVZ         3.0000 
     27 O27         2.9110    8.4040   11.1540 O.3       1 BVZ        -0.4105 
     28 O28         3.9410   10.1300    9.8000 O.3       1 BVZ        -0.4105 
     29 C30         6.5070   12.4580   10.8130 C.3       1 BVZ        -0.0131 
     30 C31         7.3780   12.8480    9.6710 C.3       1 BVZ         0.0696 
     31 H1         11.9617    8.1614    6.9743 H         1 BVZ         0.0775 
     32 H2          9.7981    9.2197    7.2055 H         1 BVZ         0.0716 
     33 H3          5.7476   12.7121    6.6475 H         1 BVZ         0.0480 
     34 H4          6.2452   14.1947    7.5312 H         1 BVZ         0.0480 
     35 H5          8.4003   13.8810    7.1379 H         1 BVZ         0.0675 
     36 H6         10.4874   15.1262    6.7509 H         1 BVZ         0.0645 
     37 H7         12.6265   13.9623    6.6162 H         1 BVZ         0.0659 
     38 H8         13.9096   11.7977    6.6171 H         1 BVZ         0.0870 
     39 H9          4.0338   12.2475    8.1907 H         1 BVZ         0.0333 
     40 H10         3.9175   13.9885    7.7640 H         1 BVZ         0.0333 
     41 H11         3.5089   13.8882   10.0589 H         1 BVZ         0.0815 
     42 H12         5.2106   14.4431    9.9063 H         1 BVZ         0.0815 
     43 H13         4.6470   11.6229   10.2514 H         1 BVZ         0.2048 
     44 H14         4.4762   13.7246   12.2651 H         1 BVZ         0.0964 
     45 H15         5.0354   12.0718   12.6920 H         1 BVZ         0.0964 
     46 H16         2.4171   14.1385   12.9434 H         1 BVZ        -0.0188 
     47 H17         0.1101   13.4545   13.4764 H         1 BVZ        -0.0146 
     48 H18        -0.6446   11.1704   12.9512 H         1 BVZ         0.0333 
     49 H19         0.8958    9.5632   11.9108 H         1 BVZ        -0.0149 
     50 H21         2.6375    8.1560   12.0293 H         1 BVZ         0.2052 
     51 H22         2.6375    8.1560   12.0293 H         1 BVZ         0.2052 
     52 H23         4.5708    9.4881    9.4938 H         1 BVZ         0.2052 
     53 H24         4.5709    9.4881    9.4938 H         1 BVZ         0.2052 
     54 H25         6.7750   11.4255   11.0817 H         1 BVZ         0.0831 
     55 H26         6.7542   13.1301   11.6480 H         1 BVZ         0.0831 
     56 H27         7.4365   13.9462    9.6503 H         1 BVZ         0.0531 
     57 H28         8.3796   12.4307    9.8519 H         1 BVZ         0.0531 
@<TRIPOS>BOND
     1    2    1 ar   
     2    1   14 ar   
     3    3    2 ar   
     4    8    3 ar   
     5    3   12 ar   
     6   15    4 1    
     7    4   16 1    
     8    6    5 2    
     9    6    7 2    
    10    6    8 1    
    11    6   15 am   
    12    8    9 ar   
    13    9   10 ar   
    14   10   11 ar   
    15   11   12 ar   
    16   12   13 ar   
    17   13   14 ar   
    18   15   30 1    
    19   16   17 1    
    20   17   18 1    
    21   18   19 1    
    22   18   29 1    
    23   19   20 1    
    24   20   21 ar   
    25   20   25 ar   
    26   21   22 ar   
    27   22   23 ar   
    28   23   24 ar   
    29   24   25 ar   
    30   25   26 1    
    31   26   27 1    
    32   26   28 1    
    33   29   30 1    
    34    1   31 1    
    35    2   32 1    
    36    4   33 1    
    37    4   34 1    
    38    9   35 1    
    39   10   36 1    
    40   11   37 1    
    41   13   38 1    
    42   16   39 1    
    43   16   40 1    
    44   17   41 1    
    45   17   42 1    
    46   18   43 1    
    47   19   44 1    
    48   19   45 1    
    49   21   46 1    
    50   22   47 1    
    51   23   48 1    
    52   24   49 1    
    53   27   50 1    
    54   27   51 1    
    55   28   52 1    
    56   28   53 1    
    57   29   54 1    
    58   29   55 1    
    59   30   56 1    
    60   30   57 1    
@<TRIPOS>SUBSTRUCTURE
     1 BVZ         1 PERM              0 ****  ****    0 ROOT 
