3c39_ligand
  -I-interpret- 

 18 17  0  0  0  0  0  0  0  0999 V2000
    7.0990    6.9610   22.5320 C   0  0  0  0  0
    6.5580    5.8840   22.8020 O   0  0  0  0  0
    8.2340    7.2520   22.9320 O   0  0  0  0  0
    6.3640    7.8740   21.5600 C   0  0  0  0  0
    7.2390    8.8830   21.0690 O   0  0  0  0  0
    5.0910    8.4480   22.1830 C   0  0  0  0  0
    5.3880    9.4180   23.1990 O   0  0  0  0  0
    4.3410    9.6760   24.4140 P   0  0  0  0  0
    4.3050    8.4150   25.1820 O   0  0  0  0  0
    3.0230    9.9590   23.7070 O   0  0  0  0  0
    5.0570   10.7630   25.1730 O   0  0  0  0  0
    8.4692    8.1270   22.6149 H   0  0  0  0  0
    6.0402    7.2818   20.7041 H   0  0  0  0  0
    8.0192    8.4717   20.6899 H   0  0  0  0  0
    4.5339    7.6306   22.6408 H   0  0  0  0  0
    4.5152    8.9381   21.3979 H   0  0  0  0  0
    3.0920   10.7848   23.2224 H   0  0  0  0  0
    5.0632   11.5671   24.6486 H   0  0  0  0  0
  1  2  2  0  0  0
  1  3  1  0  0  0
  1  4  1  0  0  0
  4  5  1  0  0  0
  4  6  1  0  0  0
  6  7  1  0  0  0
  7  8  1  0  0  0
  8  9  2  0  0  0
  8 10  1  0  0  0
  8 11  1  0  0  0
  3 12  1  0  0  0
  4 13  1  0  0  0
  5 14  1  0  0  0
  6 15  1  0  0  0
  6 16  1  0  0  0
 10 17  1  0  0  0
 11 18  1  0  0  0
M  END
$$$$
