4oiv_ligand
  -I-interpret- 

 60 62  0  0  0  0  0  0  0  0999 V2000
   10.0030   11.0510  -20.0030 Cl  0  0  0  0  0
   10.4490   11.9710  -21.4210 C   0  0  0  0  0
   10.4010   11.3160  -22.6510 C   0  0  0  0  0
   10.7080   11.9420  -23.8390 C   0  0  0  0  0
   10.6800   11.3110  -25.0190 N   0  0  0  0  0
   10.8680   12.1000  -26.3150 C   0  0  0  0  0
   10.5960    9.8360  -25.0750 C   0  0  0  0  0
   11.1130   13.2730  -23.7150 C   0  0  0  0  0
   11.2200   13.9050  -22.4740 C   0  0  0  0  0
   11.7870   15.6390  -22.4310 Cl  0  0  0  0  0
   10.8900   13.2700  -21.2650 C   0  0  0  0  0
   10.8620   13.9170  -19.9960 C   0  0  0  0  0
    9.7840   14.3660  -19.5370 O   0  0  0  0  0
   11.9960   14.1020  -19.3020 N   0  0  0  0  0
   11.9170   14.8500  -17.9980 C   0  0  0  0  0
   12.4390   16.2300  -18.0530 C   0  0  0  0  0
   11.6490   17.2450  -18.5130 C   0  0  0  0  0
   12.1130   18.5770  -18.4820 C   0  0  0  0  0
   13.4410   18.7920  -18.0680 C   0  0  0  0  0
   14.2880   17.7730  -17.6230 C   0  0  0  0  0
   13.7370   16.4470  -17.6400 C   0  0  0  0  0
   13.1960   13.6080  -19.7490 C   0  0  0  0  0
   14.1480   14.5180  -20.2260 C   0  0  0  0  0
   13.4260   12.2260  -19.6430 C   0  0  0  0  0
   14.6980   11.7650  -20.0210 C   0  0  0  0  0
   15.6650   12.6620  -20.4610 C   0  0  0  0  0
   16.8930   12.1760  -20.8040 O   0  0  0  0  0
   15.4000   14.0750  -20.6370 C   0  0  0  0  0
   16.4520   14.9710  -21.0430 C   0  0  0  0  0
   16.9800   14.6270  -22.4620 C   0  0  0  0  0
   16.0680   16.4230  -20.9600 C   0  0  0  0  0
   17.6170   14.8800  -20.0390 C   0  0  0  0  0
   10.1087   10.2662  -22.6734 H   0  0  0  0  0
   11.7981   11.7937  -26.7937 H   0  0  0  0  0
   10.0309   11.9016  -26.9843 H   0  0  0  0  0
   10.9085   13.1653  -26.0877 H   0  0  0  0  0
    9.7479    9.5449  -25.6948 H   0  0  0  0  0
   11.5151    9.4370  -25.5041 H   0  0  0  0  0
   10.4632    9.4424  -24.0673 H   0  0  0  0  0
   11.3534   13.8370  -24.6162 H   0  0  0  0  0
   12.5293   14.3051  -17.2794 H   0  0  0  0  0
   10.8622   14.9177  -17.7318 H   0  0  0  0  0
   10.6562   17.0250  -18.9056 H   0  0  0  0  0
   11.4678   19.4078  -18.7677 H   0  0  0  0  0
   13.8305   19.8096  -18.0960 H   0  0  0  0  0
   15.3045   17.9726  -17.2839 H   0  0  0  0  0
   14.3506   15.6036  -17.3234 H   0  0  0  0  0
   13.9058   15.5796  -20.2752 H   0  0  0  0  0
   12.6546   11.5444  -19.2847 H   0  0  0  0  0
   14.9276   10.7007  -19.9692 H   0  0  0  0  0
   17.4552   12.9009  -21.0868 H   0  0  0  0  0
   17.3728   13.6102  -22.4655 H   0  0  0  0  0
   16.1642   14.7052  -23.1807 H   0  0  0  0  0
   17.7724   15.3249  -22.7325 H   0  0  0  0  0
   15.2117   16.6087  -21.6083 H   0  0  0  0  0
   15.8066   16.6701  -19.9311 H   0  0  0  0  0
   16.9084   17.0387  -21.2807 H   0  0  0  0  0
   17.2626   15.1594  -19.0468 H   0  0  0  0  0
   17.9965   13.8584  -20.0163 H   0  0  0  0  0
   18.4133   15.5580  -20.3460 H   0  0  0  0  0
  1  2  1  0  0  0
  2  3  4  0  0  0
  2 11  4  0  0  0
  3  4  4  0  0  0
  4  5  1  0  0  0
  4  8  4  0  0  0
  5  6  1  0  0  0
  5  7  1  0  0  0
  8  9  4  0  0  0
  9 10  1  0  0  0
  9 11  4  0  0  0
 11 12  1  0  0  0
 12 13  2  0  0  0
 12 14  1  0  0  0
 14 15  1  0  0  0
 14 22  1  0  0  0
 15 16  1  0  0  0
 16 17  4  0  0  0
 16 21  4  0  0  0
 17 18  4  0  0  0
 18 19  4  0  0  0
 19 20  4  0  0  0
 20 21  4  0  0  0
 22 23  4  0  0  0
 22 24  4  0  0  0
 23 28  4  0  0  0
 24 25  4  0  0  0
 25 26  4  0  0  0
 26 27  1  0  0  0
 26 28  4  0  0  0
 28 29  1  0  0  0
 29 30  1  0  0  0
 29 31  1  0  0  0
 29 32  1  0  0  0
  3 33  1  0  0  0
  6 34  1  0  0  0
  6 35  1  0  0  0
  6 36  1  0  0  0
  7 37  1  0  0  0
  7 38  1  0  0  0
  7 39  1  0  0  0
  8 40  1  0  0  0
 15 41  1  0  0  0
 15 42  1  0  0  0
 17 43  1  0  0  0
 18 44  1  0  0  0
 19 45  1  0  0  0
 20 46  1  0  0  0
 21 47  1  0  0  0
 23 48  1  0  0  0
 24 49  1  0  0  0
 25 50  1  0  0  0
 27 51  1  0  0  0
 30 52  1  0  0  0
 30 53  1  0  0  0
 30 54  1  0  0  0
 31 55  1  0  0  0
 31 56  1  0  0  0
 31 57  1  0  0  0
 32 58  1  0  0  0
 32 59  1  0  0  0
 32 60  1  0  0  0
M  END
$$$$
