1xn0_ligand
  -I-interpret- 

 41 43  0  0  0  0  0  0  0  0999 V2000
    5.4350    4.4550   -9.1140 O   0  0  0  0  0
    4.7820    3.4790   -8.8130 C   0  0  0  0  0
    3.8900    3.4670   -7.6060 C   0  0  0  0  0
    5.0870    2.2080   -9.1200 N   0  0  0  0  0
    4.5170    1.2500   -8.1990 C   0  0  0  0  0
    3.3570    2.0860   -7.6230 C   0  0  0  0  0
    2.0360    2.0080   -8.4080 C   0  0  0  0  0
    1.9810    1.7080   -9.7740 C   0  0  0  0  0
    0.7420    1.6530  -10.4530 C   0  0  0  0  0
   -0.4540    1.9000   -9.7610 C   0  0  0  0  0
   -0.3980    2.1990   -8.4010 C   0  0  0  0  0
    0.8330    2.2510   -7.7370 C   0  0  0  0  0
   -1.6640    1.8410  -10.4500 O   0  0  0  0  0
   -2.9050    2.4230   -9.9950 C   0  0  0  0  0
    0.6660    1.3550  -11.8140 O   0  0  0  0  0
    1.9460    1.3530  -12.5160 C   0  0  0  0  0
    1.3500    1.9260  -13.6350 C   0  0  0  0  0
    0.9090    0.8220  -14.6110 C   0  0  0  0  0
    1.2550   -0.4810  -13.8590 C   0  0  0  0  0
    2.3830   -0.0700  -12.8790 C   0  0  0  0  0
    3.1108    4.2284   -7.6404 H   0  0  0  0  0
    4.4139    3.7137   -6.6825 H   0  0  0  0  0
    5.6617    1.9452   -9.9206 H   0  0  0  0  0
    5.2156    0.8751   -7.4509 H   0  0  0  0  0
    4.2090    0.3116   -8.6601 H   0  0  0  0  0
    3.0716    1.7041   -6.6428 H   0  0  0  0  0
    2.9039    1.5145  -10.3207 H   0  0  0  0  0
   -1.3187    2.3936   -7.8509 H   0  0  0  0  0
    0.8547    2.4862   -6.6729 H   0  0  0  0  0
   -3.1824    1.9816   -9.0378 H   0  0  0  0  0
   -2.7784    3.4992   -9.8772 H   0  0  0  0  0
   -3.6874    2.2259  -10.7278 H   0  0  0  0  0
    2.8195    1.7945  -12.0361 H   0  0  0  0  0
    2.0669    2.5807  -14.1305 H   0  0  0  0  0
    0.4787    2.5026  -13.3245 H   0  0  0  0  0
    1.4094    0.8931  -15.5767 H   0  0  0  0  0
   -0.1482    0.8886  -14.8679 H   0  0  0  0  0
    1.5694   -1.2746  -14.5368 H   0  0  0  0  0
    0.3915   -0.8965  -13.3395 H   0  0  0  0  0
    2.4864   -0.7335  -12.0204 H   0  0  0  0  0
    3.3839   -0.1298  -13.3066 H   0  0  0  0  0
  1  2  2  0  0  0
  2  3  1  0  0  0
  2  4  1  0  0  0
  3  6  1  0  0  0
  4  5  1  0  0  0
  5  6  1  0  0  0
  6  7  1  0  0  0
  7  8  4  0  0  0
  7 12  4  0  0  0
  8  9  4  0  0  0
  9 10  4  0  0  0
  9 15  1  0  0  0
 10 11  4  0  0  0
 10 13  1  0  0  0
 11 12  4  0  0  0
 13 14  1  0  0  0
 15 16  1  0  0  0
 16 17  1  0  0  0
 16 20  1  0  0  0
 17 18  1  0  0  0
 18 19  1  0  0  0
 19 20  1  0  0  0
  3 21  1  0  0  0
  3 22  1  0  0  0
  4 23  1  0  0  0
  5 24  1  0  0  0
  5 25  1  0  0  0
  6 26  1  0  0  0
  8 27  1  0  0  0
 11 28  1  0  0  0
 12 29  1  0  0  0
 14 30  1  0  0  0
 14 31  1  0  0  0
 14 32  1  0  0  0
 16 33  1  0  0  0
 17 34  1  0  0  0
 17 35  1  0  0  0
 18 36  1  0  0  0
 18 37  1  0  0  0
 19 38  1  0  0  0
 19 39  1  0  0  0
 20 40  1  0  0  0
 20 41  1  0  0  0
M  END
$$$$
