4xmb_ligand
  -I-interpret- 

 70 73  0  0  0  0  0  0  0  0999 V2000
    2.8590   -2.9350  -21.5040 C   0  0  0  0  0
    1.6970   -3.6440  -20.7610 C   0  0  0  0  0
    5.0630   -1.7830  -29.8170 C   0  0  0  0  0
    5.5550   -1.6680  -28.5060 O   0  0  0  0  0
    4.6500   -1.6960  -27.3920 C   0  0  0  0  0
    4.2360   -2.9870  -26.8220 C   0  0  0  0  0
    3.3270   -3.0240  -25.7020 C   0  0  0  0  0
    4.1780   -0.5390  -26.8590 C   0  0  0  0  0
    3.2580   -0.5800  -25.7200 C   0  0  0  0  0
    2.8490   -1.8560  -25.1670 C   0  0  0  0  0
    1.7090   -1.9220  -23.7470 S   0  0  0  0  0
    2.5700   -1.7970  -22.3590 N   0  0  0  0  0
    1.9920   -4.7670  -19.9010 N   0  0  0  0  0
    0.6170   -3.2750  -20.8890 O   0  0  0  0  0
    3.1260   -0.4860  -21.9840 C   0  0  0  0  0
    4.4340   -0.2000  -22.3890 C   0  0  0  0  0
    5.0320    1.0660  -22.0520 C   0  0  0  0  0
    4.3220    1.9770  -21.3260 C   0  0  0  0  0
    4.9470    3.2360  -21.0390 N   0  0  0  0  0
    5.9070    3.4150  -19.9470 C   0  0  0  0  0
    5.6460    2.8340  -18.6440 C   0  0  0  0  0
    5.3590    3.7210  -17.5020 N   0  0  0  0  0
    5.6720    1.6710  -18.4990 O   0  0  0  0  0
    4.5880    4.4460  -22.0780 S   0  0  0  0  0
    5.5490    4.0970  -23.5700 C   0  0  0  0  0
    6.7860    4.6410  -23.7190 C   0  0  0  0  0
    7.5270    4.3660  -24.8520 C   0  0  0  0  0
    7.0120    3.5230  -25.8410 C   0  0  0  0  0
    7.7510    3.2640  -26.9470 O   0  0  0  0  0
    8.9620    2.5400  -26.8120 C   0  0  0  0  0
    5.7730    2.9660  -25.6920 C   0  0  0  0  0
    5.0290    3.2360  -24.5620 C   0  0  0  0  0
    4.8630    5.7230  -21.5270 O   0  0  0  0  0
    3.1750    4.5460  -22.3780 O   0  0  0  0  0
    2.9740    1.6950  -20.9190 C   0  0  0  0  0
    2.3890    0.4520  -21.2490 C   0  0  0  0  0
    1.0770    0.1660  -20.8410 C   0  0  0  0  0
    0.3420    1.1140  -20.1070 C   0  0  0  0  0
    0.9360    2.3820  -19.7690 C   0  0  0  0  0
    2.2220    2.6650  -20.1660 C   0  0  0  0  0
    0.8940   -3.1520  -23.7770 O   0  0  0  0  0
    0.6920   -0.9100  -23.8510 O   0  0  0  0  0
    3.2610   -3.6924  -22.1769 H   0  0  0  0  0
    3.4906   -2.5333  -20.7117 H   0  0  0  0  0
    4.5413   -2.7338  -29.9258 H   0  0  0  0  0
    4.3731   -0.9634  -30.0180 H   0  0  0  0  0
    5.8943   -1.7406  -30.5207 H   0  0  0  0  0
    4.6161   -3.9165  -27.2459 H   0  0  0  0  0
    3.0202   -3.9815  -25.2810 H   0  0  0  0  0
    4.4838    0.4193  -27.2787 H   0  0  0  0  0
    2.8815    0.3476  -25.2889 H   0  0  0  0  0
    1.2381   -5.2388  -19.4016 H   0  0  0  0  0
    2.9542   -5.0879  -19.7933 H   0  0  0  0  0
    5.0008   -0.9356  -22.9598 H   0  0  0  0  0
    6.0473    1.2953  -22.3755 H   0  0  0  0  0
    5.9158    4.4901  -19.7675 H   0  0  0  0  0
    6.8086    2.9098  -20.2933 H   0  0  0  0  0
    5.1817    3.3236  -16.5795 H   0  0  0  0  0
    5.3377    4.7322  -17.6344 H   0  0  0  0  0
    7.1924    5.2930  -22.9458 H   0  0  0  0  0
    8.5159    4.8076  -24.9751 H   0  0  0  0  0
    9.6380    3.0848  -26.1529 H   0  0  0  0  0
    8.7515    1.5583  -26.3877 H   0  0  0  0  0
    9.4245    2.4221  -27.7919 H   0  0  0  0  0
    5.3732    2.3094  -26.4648 H   0  0  0  0  0
    4.0440    2.7868  -24.4351 H   0  0  0  0  0
    0.6264   -0.7938  -21.0938 H   0  0  0  0  0
   -0.6775    0.8892  -19.7937 H   0  0  0  0  0
    0.3668    3.1165  -19.1992 H   0  0  0  0  0
    2.6723    3.6242  -19.9105 H   0  0  0  0  0
  1  2  1  0  0  0
 12  1  1  0  0  0
  2 13  1  0  0  0
  2 14  2  0  0  0
  4  3  1  0  0  0
  5  4  1  0  0  0
  6  5  4  0  0  0
  8  5  4  0  0  0
  7  6  4  0  0  0
 10  7  4  0  0  0
  9  8  4  0  0  0
 10  9  4  0  0  0
 11 10  1  0  0  0
 11 12  1  0  0  0
 11 41  2  0  0  0
 11 42  2  0  0  0
 12 15  1  0  0  0
 15 16  4  0  0  0
 15 36  4  0  0  0
 16 17  4  0  0  0
 17 18  4  0  0  0
 18 19  1  0  0  0
 18 35  4  0  0  0
 19 20  1  0  0  0
 19 24  1  0  0  0
 20 21  1  0  0  0
 21 22  1  0  0  0
 21 23  2  0  0  0
 24 25  1  0  0  0
 24 33  2  0  0  0
 24 34  2  0  0  0
 25 26  4  0  0  0
 25 32  4  0  0  0
 26 27  4  0  0  0
 27 28  4  0  0  0
 28 29  1  0  0  0
 28 31  4  0  0  0
 29 30  1  0  0  0
 31 32  4  0  0  0
 35 36  4  0  0  0
 35 40  4  0  0  0
 36 37  4  0  0  0
 37 38  4  0  0  0
 38 39  4  0  0  0
 39 40  4  0  0  0
  1 43  1  0  0  0
  1 44  1  0  0  0
  3 45  1  0  0  0
  3 46  1  0  0  0
  3 47  1  0  0  0
  6 48  1  0  0  0
  7 49  1  0  0  0
  8 50  1  0  0  0
  9 51  1  0  0  0
 13 52  1  0  0  0
 13 53  1  0  0  0
 16 54  1  0  0  0
 17 55  1  0  0  0
 20 56  1  0  0  0
 20 57  1  0  0  0
 22 58  1  0  0  0
 22 59  1  0  0  0
 26 60  1  0  0  0
 27 61  1  0  0  0
 30 62  1  0  0  0
 30 63  1  0  0  0
 30 64  1  0  0  0
 31 65  1  0  0  0
 32 66  1  0  0  0
 37 67  1  0  0  0
 38 68  1  0  0  0
 39 69  1  0  0  0
 40 70  1  0  0  0
M  END
$$$$
