1x8d_ligand
  -I-interpret- 

 21 21  0  0  0  0  0  0  0  0999 V2000
   11.2370   31.7770   10.2980 C   0  0  0  0  0
   12.1450   31.8480    9.0710 C   0  0  0  0  0
   11.3990   31.2440    7.8730 C   0  0  0  0  0
   10.0740   31.9830    7.6650 C   0  0  0  0  0
    9.2610   31.9360    8.9670 C   0  0  0  0  0
    7.9470   32.6880    8.8920 C   0  0  0  0  0
   11.8730   32.3340   11.3890 O   0  0  0  0  0
   12.4920   33.2080    8.8100 O   0  0  0  0  0
   12.1910   31.3340    6.6960 O   0  0  0  0  0
    9.3550   31.3560    6.6090 O   0  0  0  0  0
   10.0260   32.5060   10.0530 O   0  0  0  0  0
   13.0624   31.2861    9.2466 H   0  0  0  0  0
   11.1998   30.1922    8.0784 H   0  0  0  0  0
   10.2589   33.0243    7.4012 H   0  0  0  0  0
    9.0414   30.8815    9.1342 H   0  0  0  0  0
    7.4119   32.5769    9.8351 H   0  0  0  0  0
    8.1442   33.7439    8.7068 H   0  0  0  0  0
    7.3433   32.2820    8.0803 H   0  0  0  0  0
   12.9570   33.5696    9.5681 H   0  0  0  0  0
   13.0196   30.8690    6.8329 H   0  0  0  0  0
    9.8752   31.3932    5.8030 H   0  0  0  0  0
  1  2  1  0  0  0
  1  7  2  0  0  0
  1 11  1  0  0  0
  2  3  1  0  0  0
  2  8  1  0  0  0
  3  4  1  0  0  0
  3  9  1  0  0  0
  4  5  1  0  0  0
  4 10  1  0  0  0
  5  6  1  0  0  0
  5 11  1  0  0  0
  2 12  1  0  0  0
  3 13  1  0  0  0
  4 14  1  0  0  0
  5 15  1  0  0  0
  6 16  1  0  0  0
  6 17  1  0  0  0
  6 18  1  0  0  0
  8 19  1  0  0  0
  9 20  1  0  0  0
 10 21  1  0  0  0
M  END
$$$$
