5z5f_ligand
  -I-interpret- 

 20 20  0  0  0  0  0  0  0  0999 V2000
    7.5960    5.2650   15.8030 O   0  0  0  0  0
    6.5790    6.1760   16.2860 C   0  0  0  0  0
    6.9800    7.6250   16.0170 C   0  0  0  0  0
    7.4060    7.7500   14.6560 O   0  0  0  0  0
    8.1430    8.0780   16.8700 C   0  0  0  0  0
    7.7220    8.4670   18.1800 O   0  0  0  0  0
    8.7270    9.1540   15.9650 C   0  0  0  0  0
   10.0570    9.5740   16.2540 O   0  0  0  0  0
    8.6400    8.4890   14.5960 C   0  0  0  0  0
    9.7450    7.6090   14.3400 O   0  0  0  0  0
    7.3253    4.3614   15.9813 H   0  0  0  0  0
    6.4627    6.0364   17.3608 H   0  0  0  0  0
    5.6437    5.9671   15.7667 H   0  0  0  0  0
    6.1062    8.2352   16.2455 H   0  0  0  0  0
    8.8909    7.3312   17.1367 H   0  0  0  0  0
    7.3758    7.7013   18.6442 H   0  0  0  0  0
    8.1820   10.0914   16.0763 H   0  0  0  0  0
   10.0797    9.9877   17.1200 H   0  0  0  0  0
    8.6722    9.2207   13.7887 H   0  0  0  0  0
    9.6450    7.2164   13.4697 H   0  0  0  0  0
  1  2  1  0  0  0
  2  3  1  0  0  0
  3  4  1  0  0  0
  3  5  1  0  0  0
  4  9  1  0  0  0
  5  6  1  0  0  0
  5  7  1  0  0  0
  7  8  1  0  0  0
  7  9  1  0  0  0
  9 10  1  0  0  0
  1 11  1  0  0  0
  2 12  1  0  0  0
  2 13  1  0  0  0
  3 14  1  0  0  0
  5 15  1  0  0  0
  6 16  1  0  0  0
  7 17  1  0  0  0
  8 18  1  0  0  0
  9 19  1  0  0  0
 10 20  1  0  0  0
M  END
$$$$
