5ee7_ligand
  -I-interpret- 

 68 72  0  0  0  0  0  0  0  0999 V2000
  -32.0820    1.6940  -39.7040 N   0  0  0  0  0
  -27.2990    5.9770  -34.7060 N   0  0  0  0  0
  -37.0510    1.8110  -41.0300 C   0  0  0  0  0
  -36.9220    1.2550  -39.7500 C   0  0  0  0  0
  -35.6450    1.0170  -39.2110 C   0  0  0  0  0
  -33.1720    1.0560  -39.3210 C   0  0  0  0  0
  -32.8920    0.1390  -38.2720 C   0  0  0  0  0
  -30.4550   -1.1390  -34.6860 C   0  0  0  0  0
  -29.5540   -1.1570  -37.3610 C   0  0  0  0  0
  -29.2750   -1.8180  -35.0100 C   0  0  0  0  0
  -27.3550   -3.1760  -34.3070 C   0  0  0  0  0
  -29.7320    1.7480  -39.1140 C   0  0  0  0  0
  -28.9070    4.7000  -35.9900 C   0  0  0  0  0
  -27.8660    3.9620  -36.5820 C   0  0  0  0  0
  -29.4690    2.8000  -38.0220 C   0  0  0  0  0
  -30.2370    4.4870  -36.4060 C   0  0  0  0  0
  -28.5870    5.6900  -34.9220 C   0  0  0  0  0
  -34.4770    1.3250  -39.9410 C   0  0  0  0  0
  -34.6150    1.8920  -41.2300 C   0  0  0  0  0
  -35.8960    2.1280  -41.7650 C   0  0  0  0  0
  -36.0690    2.8080  -43.3360 Cl  0  0  0  0  0
  -38.3270    0.8630  -38.8340 Cl  0  0  0  0  0
  -31.5540    0.2510  -38.0390 C   0  0  0  0  0
  -31.1680   -0.4810  -35.6930 C   0  0  0  0  0
  -30.7470   -0.4710  -37.0400 C   0  0  0  0  0
  -28.8220   -1.8290  -36.3510 C   0  0  0  0  0
  -28.5510   -2.4830  -33.9990 C   0  0  0  0  0
  -26.9110   -3.1820  -35.6440 C   0  0  0  0  0
  -27.6340   -2.5190  -36.6550 C   0  0  0  0  0
  -30.5150    3.5410  -37.4120 C   0  0  0  0  0
  -31.0790    1.2090  -38.9330 N   0  0  0  0  0
  -26.5950   -3.8490  -33.3750 O   0  0  0  0  0
  -26.6640   -3.3970  -32.0290 C   0  0  0  0  0
  -29.5060    6.1930  -34.2850 O   0  0  0  0  0
  -26.8570    6.9180  -33.6870 C   0  0  0  0  0
  -27.0710    6.3810  -32.2630 C   0  0  0  0  0
  -26.5520    7.3620  -31.2210 C   0  0  0  0  0
  -27.3490    7.7650  -30.3480 O   0  0  0  0  0
  -25.3480    7.7050  -31.3010 O   0  0  0  0  0
  -29.5920    2.3540  -40.5240 C   0  0  0  0  0
  -28.1450    3.0210  -37.5850 C   0  0  0  0  0
  -26.5943    5.5157  -35.2813 H   0  0  0  0  0
  -38.0389    1.9960  -41.4518 H   0  0  0  0  0
  -35.5558    0.5876  -38.2131 H   0  0  0  0  0
  -33.5983   -0.5157  -37.7616 H   0  0  0  0  0
  -30.8153   -1.1232  -33.6574 H   0  0  0  0  0
  -29.1953   -1.1692  -38.3902 H   0  0  0  0  0
  -28.9917    0.9532  -39.0225 H   0  0  0  0  0
  -26.8370    4.1219  -36.2599 H   0  0  0  0  0
  -31.0490    5.0534  -35.9499 H   0  0  0  0  0
  -33.7280    2.1466  -41.8100 H   0  0  0  0  0
  -32.0850    0.0449  -35.4271 H   0  0  0  0  0
  -28.9150   -2.4635  -32.9718 H   0  0  0  0  0
  -25.9920   -3.7089  -35.9007 H   0  0  0  0  0
  -27.2698   -2.5407  -37.6821 H   0  0  0  0  0
  -31.5457    3.3759  -37.7259 H   0  0  0  0  0
  -26.3348   -2.3592  -31.9783 H   0  0  0  0  0
  -27.6920   -3.4711  -31.6744 H   0  0  0  0  0
  -26.0179   -4.0154  -31.4059 H   0  0  0  0  0
  -27.4416    7.8316  -33.7947 H   0  0  0  0  0
  -25.7897    7.0898  -33.8262 H   0  0  0  0  0
  -26.5260    5.4427  -32.1594 H   0  0  0  0  0
  -28.1394    6.2360  -32.1027 H   0  0  0  0  0
  -24.9404    7.2657  -32.0510 H   0  0  0  0  0
  -30.3114    3.1642  -40.6429 H   0  0  0  0  0
  -28.5815    2.7418  -40.6527 H   0  0  0  0  0
  -29.7844    1.5831  -41.2702 H   0  0  0  0  0
  -27.3290    2.4535  -38.0323 H   0  0  0  0  0
  6  1  4  0  0  0
  1 31  4  0  0  0
 17  2  1  0  0  0
  2 35  1  0  0  0
  4  3  4  0  0  0
 20  3  4  0  0  0
  5  4  4  0  0  0
  4 22  1  0  0  0
 18  5  4  0  0  0
  7  6  4  0  0  0
  6 18  1  0  0  0
 23  7  4  0  0  0
 10  8  4  0  0  0
  8 24  4  0  0  0
 25  9  4  0  0  0
  9 26  4  0  0  0
 26 10  4  0  0  0
 10 27  4  0  0  0
 27 11  4  0  0  0
 11 28  4  0  0  0
 11 32  1  0  0  0
 12 15  1  0  0  0
 31 12  1  0  0  0
 12 40  1  0  0  0
 14 13  4  0  0  0
 16 13  4  0  0  0
 13 17  1  0  0  0
 41 14  4  0  0  0
 15 30  4  0  0  0
 15 41  4  0  0  0
 30 16  4  0  0  0
 17 34  2  0  0  0
 18 19  4  0  0  0
 19 20  4  0  0  0
 20 21  1  0  0  0
 23 25  1  0  0  0
 23 31  4  0  0  0
 24 25  4  0  0  0
 26 29  4  0  0  0
 28 29  4  0  0  0
 32 33  1  0  0  0
 35 36  1  0  0  0
 36 37  1  0  0  0
 37 38  2  0  0  0
 37 39  1  0  0  0
  2 42  1  0  0  0
  3 43  1  0  0  0
  5 44  1  0  0  0
  7 45  1  0  0  0
  8 46  1  0  0  0
  9 47  1  0  0  0
 12 48  1  0  0  0
 14 49  1  0  0  0
 16 50  1  0  0  0
 19 51  1  0  0  0
 24 52  1  0  0  0
 27 53  1  0  0  0
 28 54  1  0  0  0
 29 55  1  0  0  0
 30 56  1  0  0  0
 33 57  1  0  0  0
 33 58  1  0  0  0
 33 59  1  0  0  0
 35 60  1  0  0  0
 35 61  1  0  0  0
 36 62  1  0  0  0
 36 63  1  0  0  0
 39 64  1  0  0  0
 40 65  1  0  0  0
 40 66  1  0  0  0
 40 67  1  0  0  0
 41 68  1  0  0  0
M  END
$$$$
