3kr0_ligand
  -I-interpret- 

 17 18  0  0  0  0  0  0  0  0999 V2000
   27.4810   42.8830   15.2400 C   0  0  0  0  0
   27.9810   42.6720   16.5230 C   0  0  0  0  0
   28.4090   43.7400   17.2930 C   0  0  0  0  0
   28.3480   45.0420   16.8010 C   0  0  0  0  0
   27.8450   45.2610   15.5170 C   0  0  0  0  0
   27.4090   44.1780   14.7310 C   0  0  0  0  0
   28.9190   43.7800   18.5250 N   0  0  0  0  0
   29.1770   45.0560   18.8350 C   0  0  0  0  0
   28.8280   45.8350   17.7800 N   0  0  0  0  0
   29.6420   45.4370   20.0290 N   0  0  0  0  0
   26.9970   41.8020   14.5750 O   0  0  0  0  0
   28.0356   41.6596   16.9232 H   0  0  0  0  0
   27.7898   46.2753   15.1216 H   0  0  0  0  0
   27.0169   44.3515   13.7289 H   0  0  0  0  0
   29.8163   44.7412   20.7542 H   0  0  0  0  0
   29.8225   46.4235   20.2149 H   0  0  0  0  0
   26.6841   42.0741   13.7092 H   0  0  0  0  0
  1  2  4  0  0  0
  1  6  4  0  0  0
  1 11  1  0  0  0
  2  3  4  0  0  0
  3  4  4  0  0  0
  3  7  4  0  0  0
  4  5  4  0  0  0
  4  9  4  0  0  0
  5  6  4  0  0  0
  7  8  4  0  0  0
  8  9  4  0  0  0
  8 10  1  0  0  0
  2 12  1  0  0  0
  5 13  1  0  0  0
  6 14  1  0  0  0
 10 15  1  0  0  0
 10 16  1  0  0  0
 11 17  1  0  0  0
M  END
$$$$
