3cs7_ligand
  -I-interpret- 

 67 72  0  0  0  0  0  0  0  0999 V2000
    6.4920   44.2950   62.9000 C   0  0  0  0  0
    7.1780   39.4260   59.5710 C   0  0  0  0  0
    8.3690   38.9470   57.4150 C   0  0  0  0  0
    7.8340   39.9650   58.3920 C   0  0  0  0  0
   13.0020   44.0880   66.6190 C   0  0  0  0  0
    4.2110   43.9350   61.9200 C   0  0  0  0  0
    4.7900   42.5740   61.5530 C   0  0  0  0  0
    9.7640   39.0120   56.8020 C   0  0  0  0  0
    6.6150   40.3540   60.5070 C   0  0  0  0  0
    7.5080   38.0970   56.5170 C   0  0  0  0  0
    3.4680   45.8870   64.4670 C   0  0  0  0  0
    5.1180   44.5310   62.9530 C   0  0  0  0  0
    6.6720   39.5550   54.7150 C   0  0  0  0  0
   11.0820   44.9150   65.3080 C   0  0  0  0  0
   10.6740   45.9540   64.3480 C   0  0  0  0  0
    9.2930   46.0160   63.8930 C   0  0  0  0  0
    8.3470   45.0200   64.4120 C   0  0  0  0  0
    8.7300   44.0190   65.4220 C   0  0  0  0  0
   10.1110   43.9590   65.8760 C   0  0  0  0  0
    7.0350   44.9820   63.9550 N   0  0  0  0  0
    6.0170   45.6140   64.6260 N   0  0  0  0  0
    6.2350   42.6430   61.2020 N   0  0  0  0  0
    6.7340   41.7890   60.2370 C   0  0  0  0  0
    7.3940   42.3360   59.0430 C   0  0  0  0  0
    7.9720   41.3910   58.1000 C   0  0  0  0  0
    7.0840   43.4520   61.9430 C   0  0  0  0  0
    4.8430   45.3660   64.0480 C   0  0  0  0  0
    8.3040   43.4460   61.8020 O   0  0  0  0  0
    3.5990   46.9260   65.3180 F   0  0  0  0  0
    2.8140   46.2820   63.3860 F   0  0  0  0  0
    2.8480   44.8800   65.0790 F   0  0  0  0  0
   12.4400   44.9310   65.6230 O   0  0  0  0  0
    9.4960   38.0090   57.8790 C   0  0  0  0  0
    6.3770   38.8800   55.9970 N   0  3  0  0  0
    5.1690   38.0440   55.7360 C   0  0  0  0  0
    5.0260   38.0480   54.2250 C   0  0  0  0  0
    5.3410   39.5120   53.9820 C   0  0  0  0  0
    7.1160   38.3507   59.7383 H   0  0  0  0  0
   12.5311   44.2984   67.5793 H   0  0  0  0  0
   12.8311   43.0457   66.3497 H   0  0  0  0  0
   14.0735   44.2754   66.6895 H   0  0  0  0  0
    3.1980   43.8317   62.3089 H   0  0  0  0  0
    4.1500   44.5783   61.0422 H   0  0  0  0  0
    4.2502   42.2036   60.6815 H   0  0  0  0  0
    4.6858   41.9204   62.4190 H   0  0  0  0  0
   10.5113   39.7720   56.5740 H   0  0  0  0  0
   10.2089   39.0293   55.8071 H   0  0  0  0  0
    6.1074   39.9984   61.4037 H   0  0  0  0  0
    7.1217   37.2544   57.0905 H   0  0  0  0  0
    8.1097   37.7444   55.6793 H   0  0  0  0  0
    7.4729   39.0676   54.1590 H   0  0  0  0  0
    7.0430   40.5708   54.8515 H   0  0  0  0  0
   11.4040   46.6746   63.9792 H   0  0  0  0  0
    8.9698   46.7806   63.1865 H   0  0  0  0  0
    7.9871   43.3307   65.8250 H   0  0  0  0  0
   10.4218   43.2245   66.6190 H   0  0  0  0  0
    7.4484   43.4109   58.8703 H   0  0  0  0  0
    8.4909   41.7347   57.2052 H   0  0  0  0  0
    9.6484   36.9445   58.0572 H   0  0  0  0  0
    9.9470   37.6778   58.8144 H   0  0  0  0  0
    6.2064   39.5626   56.7355 H   0  0  0  0  0
    4.2826   38.4394   56.2321 H   0  0  0  0  0
    5.2756   37.0350   56.1344 H   0  0  0  0  0
    4.0622   37.7081   53.8459 H   0  0  0  0  0
    5.6607   37.3389   53.6936 H   0  0  0  0  0
    5.3656   39.8237   52.9378 H   0  0  0  0  0
    4.5883   40.2213   54.3260 H   0  0  0  0  0
 12  1  4  0  0  0
  1 20  4  0  0  0
  1 26  1  0  0  0
  2  4  4  0  0  0
  9  2  4  0  0  0
  4  3  1  0  0  0
  3  8  1  0  0  0
  3 10  1  0  0  0
  3 33  1  0  0  0
  4 25  4  0  0  0
 32  5  1  0  0  0
  7  6  1  0  0  0
  6 12  1  0  0  0
 22  7  1  0  0  0
 33  8  1  0  0  0
 23  9  4  0  0  0
 10 34  1  0  0  0
 27 11  1  0  0  0
 11 29  1  0  0  0
 11 30  1  0  0  0
 11 31  1  0  0  0
 12 27  4  0  0  0
 34 13  1  0  0  0
 13 37  1  0  0  0
 15 14  4  0  0  0
 19 14  4  0  0  0
 14 32  1  0  0  0
 16 15  4  0  0  0
 17 16  4  0  0  0
 17 18  4  0  0  0
 20 17  1  0  0  0
 18 19  4  0  0  0
 21 20  4  0  0  0
 27 21  4  0  0  0
 22 23  1  0  0  0
 22 26  1  0  0  0
 23 24  4  0  0  0
 24 25  4  0  0  0
 26 28  2  0  0  0
 34 35  1  0  0  0
 35 36  1  0  0  0
 36 37  1  0  0  0
  2 38  1  0  0  0
  5 39  1  0  0  0
  5 40  1  0  0  0
  5 41  1  0  0  0
  6 42  1  0  0  0
  6 43  1  0  0  0
  7 44  1  0  0  0
  7 45  1  0  0  0
  8 46  1  0  0  0
  8 47  1  0  0  0
  9 48  1  0  0  0
 10 49  1  0  0  0
 10 50  1  0  0  0
 13 51  1  0  0  0
 13 52  1  0  0  0
 15 53  1  0  0  0
 16 54  1  0  0  0
 18 55  1  0  0  0
 19 56  1  0  0  0
 24 57  1  0  0  0
 25 58  1  0  0  0
 33 59  1  0  0  0
 33 60  1  0  0  0
 34 61  1  0  0  0
 35 62  1  0  0  0
 35 63  1  0  0  0
 36 64  1  0  0  0
 36 65  1  0  0  0
 37 66  1  0  0  0
 37 67  1  0  0  0
M  END
$$$$
