4afg_ligand
  -I-interpret- 

 30 33  0  0  0  0  0  0  0  0999 V2000
   46.4010   -4.1070   13.8550 C   0  0  0  0  0
   44.9110   -4.2010   13.9650 N   0  3  0  0  0
   44.1410   -3.2140   13.0450 C   0  0  0  0  0
   44.8150   -1.9330   12.9480 C   0  0  0  0  0
   46.2280   -2.1000   12.5880 C   0  0  0  0  0
   46.8960   -2.7320   13.7010 C   0  0  0  0  0
   46.2420   -1.9610   14.6730 C   0  0  0  0  0
   46.6940   -1.6410   15.9850 C   0  0  0  0  0
   45.8900   -0.8330   16.8420 C   0  0  0  0  0
   46.3530   -0.5080   18.1260 N   0  0  0  0  0
   45.5860    0.2470   18.9370 C   0  0  0  0  0
   44.3510    0.7350   18.5270 C   0  0  0  0  0
   43.9070    0.4430   17.2880 N   0  0  0  0  0
   44.6970   -0.3640   16.4370 C   0  0  0  0  0
   44.2240   -0.6500   15.1330 C   0  0  0  0  0
   45.0140   -1.4680   14.2640 C   0  0  0  0  0
   46.6979   -4.6620   12.9651 H   0  0  0  0  0
   46.8218   -4.5035   14.7790 H   0  0  0  0  0
   44.6651   -3.9694   14.9274 H   0  0  0  0  0
   44.6472   -5.1447   13.6815 H   0  0  0  0  0
   43.1510   -3.0496   13.4705 H   0  0  0  0  0
   44.0843   -3.6484   12.0469 H   0  0  0  0  0
   44.2310   -1.3237   12.2583 H   0  0  0  0  0
   46.6811   -1.1317   12.3754 H   0  0  0  0  0
   46.3200   -2.7152   11.6929 H   0  0  0  0  0
   47.9848   -2.7765   13.6778 H   0  0  0  0  0
   47.6564   -2.0144   16.3349 H   0  0  0  0  0
   45.9433    0.4808   19.9399 H   0  0  0  0  0
   43.7487    1.3464   19.1990 H   0  0  0  0  0
   43.2677   -0.2511   14.7946 H   0  0  0  0  0
  1  2  1  0  0  0
  1  6  1  0  0  0
  2  3  1  0  0  0
  3  4  1  0  0  0
  4  5  1  0  0  0
  4 16  1  0  0  0
  5  6  1  0  0  0
  6  7  1  0  0  0
  7  8  4  0  0  0
  7 16  4  0  0  0
  8  9  4  0  0  0
  9 10  4  0  0  0
  9 14  4  0  0  0
 10 11  4  0  0  0
 11 12  4  0  0  0
 12 13  4  0  0  0
 13 14  4  0  0  0
 14 15  4  0  0  0
 15 16  4  0  0  0
  1 17  1  0  0  0
  1 18  1  0  0  0
  2 19  1  0  0  0
  2 20  1  0  0  0
  3 21  1  0  0  0
  3 22  1  0  0  0
  4 23  1  0  0  0
  5 24  1  0  0  0
  5 25  1  0  0  0
  6 26  1  0  0  0
  8 27  1  0  0  0
 11 28  1  0  0  0
 12 29  1  0  0  0
 15 30  1  0  0  0
M  END
$$$$
