4m8e_ligand
  -I-interpret- 

 47 48  0  0  0  0  0  0  0  0999 V2000
   64.8980   48.6700   35.0270 C   0  0  0  0  0
   64.2420   49.3210   32.7020 C   0  0  0  0  0
   64.0470   48.8560   31.2520 C   0  0  0  0  0
   65.4070   47.7090   29.4240 C   0  0  0  0  0
   65.9080   47.4650   33.0630 C   0  0  0  0  0
   66.1380   47.3280   31.7100 C   0  0  0  0  0
   66.8630   46.9600   33.9590 C   0  0  0  0  0
   68.2370   46.2280   32.1220 C   0  0  0  0  0
   64.6500   48.1590   33.6070 C   0  0  0  0  0
   68.0130   46.3500   33.4850 C   0  0  0  0  0
   67.2860   46.7120   31.2200 C   0  0  0  0  0
   65.1960   47.9660   30.7840 C   0  0  0  0  0
   64.5970   48.2580   28.3320 C   0  0  0  0  0
   65.3470   49.0570   27.2500 C   0  0  0  0  0
   63.2350   48.1260   28.1820 C   0  0  0  0  0
   62.2730   47.4180   29.0490 C   0  0  0  0  0
   60.9340   47.4980   28.6370 C   0  0  0  0  0
   59.8140   46.9090   29.3240 C   0  0  0  0  0
   60.0140   45.9030   30.4590 C   0  0  0  0  0
   58.5140   47.2600   28.8950 C   0  0  0  0  0
   57.3190   46.7280   29.5270 C   0  0  0  0  0
   56.2740   47.4340   29.4810 O   0  0  0  0  0
   57.3550   45.6010   30.0510 O   0  0  0  0  0
   65.1505   47.8306   35.6749 H   0  0  0  0  0
   65.7222   49.3832   35.0163 H   0  0  0  0  0
   63.9974   49.1591   35.3982 H   0  0  0  0  0
   63.2991   49.7296   33.0654 H   0  0  0  0  0
   65.0324   50.0713   32.7227 H   0  0  0  0  0
   64.0123   49.7369   30.6109 H   0  0  0  0  0
   63.1230   48.2803   31.1976 H   0  0  0  0  0
   66.2348   47.0521   29.1572 H   0  0  0  0  0
   66.6991   47.0482   35.0330 H   0  0  0  0  0
   69.1496   45.7573   31.7564 H   0  0  0  0  0
   63.8400   47.4299   33.6272 H   0  0  0  0  0
   68.7485   45.9624   34.1899 H   0  0  0  0  0
   67.4412   46.6085   30.1461 H   0  0  0  0  0
   65.2040   48.5776   26.2816 H   0  0  0  0  0
   64.9562   50.0739   27.2147 H   0  0  0  0  0
   66.4098   49.0830   27.4906 H   0  0  0  0  0
   62.8090   48.6103   27.3033 H   0  0  0  0  0
   62.5796   46.8738   29.9423 H   0  0  0  0  0
   60.7245   48.0515   27.7217 H   0  0  0  0  0
   59.5359   46.2782   31.3638 H   0  0  0  0  0
   59.5676   44.9486   30.1797 H   0  0  0  0  0
   61.0805   45.7679   30.6393 H   0  0  0  0  0
   58.4042   47.9536   28.0614 H   0  0  0  0  0
   56.4678   48.2619   29.0353 H   0  0  0  0  0
  9  1  1  0  0  0
  2  3  1  0  0  0
  9  2  1  0  0  0
  3 12  1  0  0  0
 12  4  2  0  0  0
  4 13  1  0  0  0
  5  6  4  0  0  0
  5  7  4  0  0  0
  5  9  1  0  0  0
  6 11  4  0  0  0
  6 12  1  0  0  0
  7 10  4  0  0  0
 10  8  4  0  0  0
  8 11  4  0  0  0
 13 14  1  0  0  0
 13 15  2  0  0  0
 15 16  1  0  0  0
 16 17  2  0  0  0
 17 18  1  0  0  0
 18 19  1  0  0  0
 18 20  2  0  0  0
 20 21  1  0  0  0
 21 22  1  0  0  0
 21 23  2  0  0  0
  1 24  1  0  0  0
  1 25  1  0  0  0
  1 26  1  0  0  0
  2 27  1  0  0  0
  2 28  1  0  0  0
  3 29  1  0  0  0
  3 30  1  0  0  0
  4 31  1  0  0  0
  7 32  1  0  0  0
  8 33  1  0  0  0
  9 34  1  0  0  0
 10 35  1  0  0  0
 11 36  1  0  0  0
 14 37  1  0  0  0
 14 38  1  0  0  0
 14 39  1  0  0  0
 15 40  1  0  0  0
 16 41  1  0  0  0
 17 42  1  0  0  0
 19 43  1  0  0  0
 19 44  1  0  0  0
 19 45  1  0  0  0
 20 46  1  0  0  0
 22 47  1  0  0  0
M  END
$$$$
