3sv9_ligand
  -I-interpret- 

104108  0  0  0  0  0  0  0  0999 V2000
  -24.0150   -9.2160   13.1730 C   0  0  0  0  0
  -25.6340   -8.5070   11.6750 C   0  0  0  0  0
  -26.2630   -9.7500   11.7730 C   0  0  0  0  0
  -22.7340   -8.9340   13.9790 C   0  0  0  0  0
  -24.6560  -10.4550   13.2610 C   0  0  0  0  0
  -22.4700   -7.8000   14.3810 O   0  0  0  0  0
  -24.5310   -8.2650   12.3720 N   0  0  0  0  0
  -25.7580  -10.6890   12.5620 N   0  0  0  0  0
  -21.9590   -9.9930   14.2040 N   0  0  0  0  0
  -20.6930   -9.8900   14.9470 C   0  0  0  0  0
  -19.5690   -9.6830   13.9230 C   0  0  0  0  0
  -19.6280  -10.2050   12.8090 O   0  0  0  0  0
  -20.4870  -11.1580   15.7860 C   0  0  0  0  0
  -21.7610  -11.5000   16.5710 C   0  0  0  0  0
  -21.6050  -12.8250   17.3220 C   0  0  0  0  0
  -20.4010  -12.7910   18.2700 C   0  0  0  0  0
  -19.1210  -12.3170   17.5600 C   0  0  0  0  0
  -19.3360  -11.0110   16.7820 C   0  0  0  0  0
  -18.5950   -8.8520   14.2940 N   0  0  0  0  0
  -17.4630   -8.5460   13.3910 C   0  0  0  0  0
  -17.5630   -7.1030   12.8250 C   0  0  0  0  0
  -17.9060   -6.0570   13.9000 C   0  0  0  0  0
  -18.6310   -7.0630   11.7280 C   0  0  0  0  0
  -16.2150   -6.7080   12.2070 C   0  0  0  0  0
  -16.1570   -8.7440   14.1550 C   0  0  0  0  0
  -15.9920   -8.1490   15.2240 O   0  0  0  0  0
  -13.1000   -8.5740   14.0960 C   0  0  0  0  0
  -15.2160   -9.5850   13.6980 N   0  0  0  0  0
  -12.8810   -8.2160   12.9420 O   0  0  0  0  0
  -13.9280   -9.8060   14.3740 C   0  0  0  0  0
  -13.2960  -11.0400   13.7190 C   0  0  0  0  0
  -14.0350  -11.2450   12.3830 C   0  0  0  0  0
  -13.6010  -12.3020   14.5300 C   0  0  0  0  0
  -13.6120  -13.3840   13.4640 C   0  0  0  0  0
  -15.3060  -10.3540   12.4390 C   0  0  0  0  0
  -14.4400  -12.7290   12.3560 C   0  0  0  0  0
   -9.8550   -5.4990   13.1950 N   0  0  0  0  0
  -12.6890   -7.9030   15.1650 N   0  0  0  0  0
  -11.9570   -6.6280   14.9810 C   0  0  0  0  0
  -10.4800   -6.9250   14.9580 C   0  0  0  0  0
  -12.2830   -5.6060   16.0970 C   0  0  0  0  0
  -13.6070   -4.8740   15.8800 C   0  0  0  0  0
  -14.7130   -5.8530   15.5170 C   0  0  0  0  0
   -9.6740   -5.7970   14.4790 C   0  0  0  0  0
   -9.0670   -4.5000   12.4650 C   0  0  0  0  0
   -7.9950   -5.1120   11.5690 C   0  0  0  0  0
   -9.2570   -4.5240   10.9480 C   0  0  0  0  0
  -10.1150   -8.0060   14.1320 O   0  0  0  0  0
   -8.8850   -5.2740   15.2560 O   0  0  0  0  0
  -26.0490   -7.7357   11.0261 H   0  0  0  0  0
  -27.1693   -9.9486   11.2009 H   0  0  0  0  0
  -24.2481  -11.2323   13.9072 H   0  0  0  0  0
  -22.2519  -10.9038   13.8504 H   0  0  0  0  0
  -20.7001   -9.0477   15.6388 H   0  0  0  0  0
  -20.2458  -11.9559   15.0837 H   0  0  0  0  0
  -22.5897  -11.5919   15.8690 H   0  0  0  0  0
  -21.9480  -10.7076   17.2958 H   0  0  0  0  0
  -21.4496  -13.6203   16.5930 H   0  0  0  0  0
  -22.5055  -12.9972   17.9116 H   0  0  0  0  0
  -20.2306  -13.8018   18.6407 H   0  0  0  0  0
  -20.6220  -12.0918   19.0765 H   0  0  0  0  0
  -18.8226  -13.0884   16.8501 H   0  0  0  0  0
  -18.3599  -12.1370   18.3193 H   0  0  0  0  0
  -19.5800  -10.2168   17.4875 H   0  0  0  0  0
  -18.4242  -10.7732   16.2341 H   0  0  0  0  0
  -18.6305   -8.4192   15.2169 H   0  0  0  0  0
  -17.4934   -9.2234   12.5376 H   0  0  0  0  0
  -18.8672   -6.3033   14.3512 H   0  0  0  0  0
  -17.1318   -6.0591   14.6673 H   0  0  0  0  0
  -17.9612   -5.0702   13.4404 H   0  0  0  0  0
  -18.3551   -7.7510   10.9288 H   0  0  0  0  0
  -19.5925   -7.3586   12.1478 H   0  0  0  0  0
  -18.7028   -6.0511   11.3294 H   0  0  0  0  0
  -15.4401   -6.7482   12.9725 H   0  0  0  0  0
  -15.9688   -7.4007   11.4023 H   0  0  0  0  0
  -16.2820   -5.6955   11.8088 H   0  0  0  0  0
  -14.0133   -9.9678   15.4485 H   0  0  0  0  0
  -12.2201  -10.8894   13.6306 H   0  0  0  0  0
  -13.4395  -10.9898   11.5065 H   0  0  0  0  0
  -14.5382  -12.2379   15.0828 H   0  0  0  0  0
  -12.8730  -12.4882   15.3196 H   0  0  0  0  0
  -14.0275  -14.3296   13.8124 H   0  0  0  0  0
  -12.6147  -13.6814   13.1398 H   0  0  0  0  0
  -15.3585   -9.6901   11.5761 H   0  0  0  0  0
  -16.2118  -10.9598   12.4127 H   0  0  0  0  0
  -14.2469  -13.1834   11.3842 H   0  0  0  0  0
  -15.5097  -12.8594   12.5195 H   0  0  0  0  0
  -10.5868   -5.9958   12.6869 H   0  0  0  0  0
  -12.8749   -8.2608   16.1019 H   0  0  0  0  0
  -12.2698   -6.1770   14.0393 H   0  0  0  0  0
  -10.2800   -7.1566   16.0042 H   0  0  0  0  0
  -11.4901   -4.8580   16.1000 H   0  0  0  0  0
  -12.3612   -6.1564   17.0346 H   0  0  0  0  0
  -13.4853   -4.1628   15.0630 H   0  0  0  0  0
  -13.8803   -4.3616   16.8024 H   0  0  0  0  0
  -14.4461   -6.3767   14.5991 H   0  0  0  0  0
  -14.8380   -6.5739   16.3249 H   0  0  0  0  0
  -15.6448   -5.3075   15.3677 H   0  0  0  0  0
   -9.0962   -3.7239   13.2298 H   0  0  0  0  0
   -7.4065   -6.0275   11.5093 H   0  0  0  0  0
   -6.9151   -5.0542   11.4324 H   0  0  0  0  0
   -9.5311   -3.8375   10.1470 H   0  0  0  0  0
  -10.0207   -4.8072   10.2236 H   0  0  0  0  0
   -9.1639   -8.1305   14.1715 H   0  0  0  0  0
  4  1  1  0  0  0
  1  5  4  0  0  0
  1  7  4  0  0  0
  2  3  4  0  0  0
  7  2  4  0  0  0
  8  3  4  0  0  0
  4  6  2  0  0  0
  9  4  1  0  0  0
  5  8  4  0  0  0
 10  9  1  0  0  0
 11 10  1  0  0  0
 10 13  1  0  0  0
 11 12  2  0  0  0
 19 11  1  0  0  0
 13 14  1  0  0  0
 13 18  1  0  0  0
 14 15  1  0  0  0
 15 16  1  0  0  0
 17 16  1  0  0  0
 18 17  1  0  0  0
 20 19  1  0  0  0
 20 21  1  0  0  0
 25 20  1  0  0  0
 21 22  1  0  0  0
 21 23  1  0  0  0
 21 24  1  0  0  0
 25 26  2  0  0  0
 28 25  1  0  0  0
 27 29  2  0  0  0
 27 30  1  0  0  0
 38 27  1  0  0  0
 30 28  1  0  0  0
 28 35  1  0  0  0
 30 31  1  0  0  0
 31 32  1  0  0  0
 31 33  1  0  0  0
 32 35  1  0  0  0
 32 36  1  0  0  0
 33 34  1  0  0  0
 34 36  1  0  0  0
 44 37  1  0  0  0
 37 45  1  0  0  0
 39 38  1  0  0  0
 40 39  1  0  0  0
 39 41  1  0  0  0
 40 44  1  0  0  0
 40 48  1  0  0  0
 41 42  1  0  0  0
 42 43  1  0  0  0
 44 49  2  0  0  0
 45 46  1  0  0  0
 45 47  1  0  0  0
 46 47  1  0  0  0
  2 50  1  0  0  0
  3 51  1  0  0  0
  5 52  1  0  0  0
  9 53  1  0  0  0
 10 54  1  0  0  0
 13 55  1  0  0  0
 14 56  1  0  0  0
 14 57  1  0  0  0
 15 58  1  0  0  0
 15 59  1  0  0  0
 16 60  1  0  0  0
 16 61  1  0  0  0
 17 62  1  0  0  0
 17 63  1  0  0  0
 18 64  1  0  0  0
 18 65  1  0  0  0
 19 66  1  0  0  0
 20 67  1  0  0  0
 22 68  1  0  0  0
 22 69  1  0  0  0
 22 70  1  0  0  0
 23 71  1  0  0  0
 23 72  1  0  0  0
 23 73  1  0  0  0
 24 74  1  0  0  0
 24 75  1  0  0  0
 24 76  1  0  0  0
 30 77  1  0  0  0
 31 78  1  0  0  0
 32 79  1  0  0  0
 33 80  1  0  0  0
 33 81  1  0  0  0
 34 82  1  0  0  0
 34 83  1  0  0  0
 35 84  1  0  0  0
 35 85  1  0  0  0
 36 86  1  0  0  0
 36 87  1  0  0  0
 37 88  1  0  0  0
 38 89  1  0  0  0
 39 90  1  0  0  0
 40 91  1  0  0  0
 41 92  1  0  0  0
 41 93  1  0  0  0
 42 94  1  0  0  0
 42 95  1  0  0  0
 43 96  1  0  0  0
 43 97  1  0  0  0
 43 98  1  0  0  0
 45 99  1  0  0  0
 46100  1  0  0  0
 46101  1  0  0  0
 47102  1  0  0  0
 47103  1  0  0  0
 48104  1  0  0  0
M  END
$$$$
