3m40_ligand
  -I-interpret- 

 29 30  0  0  0  0  0  0  0  0999 V2000
   -5.9300    7.8370   11.2480 N   0  0  0  0  0
   -6.5420    6.9080   11.9300 C   0  0  0  0  0
   -5.8370    6.1600   12.7740 N   0  0  0  0  0
   -4.5230    6.3650   13.0740 C   0  0  0  0  0
   -3.8360    7.3330   12.2880 C   0  0  0  0  0
   -4.6610    8.0930   11.3950 C   0  0  0  0  0
   -3.7620    5.4360   13.8720 N   0  0  0  0  0
   -4.3490    4.3860   14.5900 C   0  0  0  0  0
   -3.5010    3.4090   15.0890 C   0  0  0  0  0
   -4.0420    2.3570   15.7990 C   0  0  0  0  0
   -5.4080    2.2540   16.0090 C   0  0  0  0  0
   -6.2560    3.2220   15.4900 C   0  0  0  0  0
   -5.7310    4.2920   14.7190 C   0  0  0  0  0
   -6.0150    0.8830   16.8730 S   0  0  0  0  0
   -5.4480    0.9490   18.2350 O   0  0  0  0  0
   -7.4980    0.8850   16.7420 O   0  0  0  0  0
   -5.3330   -0.4870   16.1380 N   0  0  0  0  0
   -2.3700    7.4570   12.5160 N   0  0  0  0  0
   -2.1510    7.5690   13.6740 O   0  0  0  0  0
   -1.8910    7.3250   11.4390 O   0  0  0  0  0
   -4.1880    9.4210   10.3890 Cl  0  0  0  0  0
   -7.6134    6.7476   11.8100 H   0  0  0  0  0
   -2.7492    5.5485   13.9158 H   0  0  0  0  0
   -2.4255    3.4710   14.9232 H   0  0  0  0  0
   -3.3809    1.5905   16.2034 H   0  0  0  0  0
   -7.3284    3.1606   15.6749 H   0  0  0  0  0
   -6.3903    5.0176   14.2427 H   0  0  0  0  0
   -4.6708   -1.0662   16.6541 H   0  0  0  0  0
   -5.5855   -0.7309   15.1803 H   0  0  0  0  0
  1  2  4  0  0  0
  1  6  4  0  0  0
  2  3  4  0  0  0
  3  4  4  0  0  0
  4  5  4  0  0  0
  4  7  1  0  0  0
  5  6  4  0  0  0
  5 18  1  0  0  0
  6 21  1  0  0  0
  7  8  1  0  0  0
  8  9  4  0  0  0
  8 13  4  0  0  0
  9 10  4  0  0  0
 10 11  4  0  0  0
 11 12  4  0  0  0
 11 14  1  0  0  0
 12 13  4  0  0  0
 14 15  2  0  0  0
 14 16  2  0  0  0
 14 17  1  0  0  0
 18 19  2  0  0  0
 18 20  2  0  0  0
  2 22  1  0  0  0
  7 23  1  0  0  0
  9 24  1  0  0  0
 10 25  1  0  0  0
 12 26  1  0  0  0
 13 27  1  0  0  0
 17 28  1  0  0  0
 17 29  1  0  0  0
M  END
$$$$
