5all_ligand
  -I-interpret- 

 31 31  0  0  0  0  0  0  0  0999 V2000
   19.0250    9.5450   13.6920 C   0  0  0  0  0
   18.5150    8.8100   11.3360 C   0  0  0  0  0
   17.0950   10.5460   12.4530 C   0  0  0  0  0
   19.5960    9.0160   12.3840 C   0  0  0  0  0
   18.2260   10.8020   13.4300 C   0  0  0  0  0
   17.6950   10.0800   11.1410 C   0  0  0  0  0
   20.2800    7.7030   12.6430 C   0  0  0  0  0
   17.8550   11.5580   14.6910 C   0  0  0  0  0
   16.5970    9.8590   10.1350 C   0  0  0  0  0
   16.7110   10.9970   15.3940 N   0  3  0  0  0
   17.1740    9.5880    8.8700 O   0  0  0  0  0
   19.8423    9.7731   14.3762 H   0  0  0  0  0
   18.3747    8.7897   14.1333 H   0  0  0  0  0
   17.8511    8.0127   11.6701 H   0  0  0  0  0
   18.9899    8.5514   10.3896 H   0  0  0  0  0
   16.5212   11.4596   12.2979 H   0  0  0  0  0
   16.4245    9.7834   12.8491 H   0  0  0  0  0
   20.3008    9.7546   12.0022 H   0  0  0  0  0
   18.8791   11.5105   12.9206 H   0  0  0  0  0
   18.3685   10.8516   10.7681 H   0  0  0  0  0
   19.5494    6.9791   13.0040 H   0  0  0  0  0
   20.7274    7.3392   11.7180 H   0  0  0  0  0
   21.0575    7.8418   13.3942 H   0  0  0  0  0
   17.5906   12.5736   14.3963 H   0  0  0  0  0
   18.7096   11.5061   15.3655 H   0  0  0  0  0
   15.9745   10.7514   10.0701 H   0  0  0  0  0
   15.9806    9.0151   10.4449 H   0  0  0  0  0
   16.5195   11.5530   16.2274 H   0  0  0  0  0
   15.8964   11.0104   14.7803 H   0  0  0  0  0
   16.9181   10.0358   15.6652 H   0  0  0  0  0
   16.4769    9.4464    8.2253 H   0  0  0  0  0
  1  4  1  0  0  0
  1  5  1  0  0  0
  4  2  1  0  0  0
  2  6  1  0  0  0
  5  3  1  0  0  0
  3  6  1  0  0  0
  4  7  1  0  0  0
  5  8  1  0  0  0
  6  9  1  0  0  0
  8 10  1  0  0  0
  9 11  1  0  0  0
  1 12  1  0  0  0
  1 13  1  0  0  0
  2 14  1  0  0  0
  2 15  1  0  0  0
  3 16  1  0  0  0
  3 17  1  0  0  0
  4 18  1  0  0  0
  5 19  1  0  0  0
  6 20  1  0  0  0
  7 21  1  0  0  0
  7 22  1  0  0  0
  7 23  1  0  0  0
  8 24  1  0  0  0
  8 25  1  0  0  0
  9 26  1  0  0  0
  9 27  1  0  0  0
 10 28  1  0  0  0
 10 29  1  0  0  0
 10 30  1  0  0  0
 11 31  1  0  0  0
M  END
$$$$
