6c9s_ligand
  -I-interpret- 

 52 56  0  0  0  0  0  0  0  0999 V2000
    1.8540    3.8910   11.2080 N   0  0  0  0  0
    1.6860    5.6650    9.7880 N   0  0  0  0  0
    2.9440    6.0160   10.0100 C   0  0  0  0  0
    3.6930    5.2790   10.8430 C   0  0  0  0  0
    3.0920    4.1510   11.4560 C   0  0  0  0  0
    4.8630    6.8690   10.0910 C   0  0  0  0  0
    4.5550    2.6040   13.1540 C   0  0  0  0  0
    5.3920    1.7210   14.1220 C   0  0  0  0  0
    4.8600    0.5240   14.6140 C   0  0  0  0  0
    6.8760    0.1220   15.8630 C   0  0  0  0  0
    6.6480    2.1160   14.4940 C   0  0  0  0  0
    7.6690   -0.5130   18.1800 C   0  0  0  0  0
    3.3220    7.9340    8.5970 C   0  0  0  0  0
    3.9370    3.2560   12.4380 C   0  0  0  0  0
    1.1560    4.6290   10.3980 C   0  0  0  0  0
    3.9520    9.4180    8.6170 C   0  0  0  0  0
    5.6170   -0.2740   15.4900 C   0  0  0  0  0
    7.4070    1.3140   15.3750 C   0  0  0  0  0
    7.7050   -0.7550   16.8260 C   0  0  0  0  0
    8.4040   -1.2890   19.0330 C   0  0  0  0  0
    4.3740    9.6690    7.4470 C   0  0  0  0  0
    9.1980   -2.3400   18.5240 C   0  0  0  0  0
    9.2330   -2.5830   17.1670 C   0  0  0  0  0
    8.5010   -1.8070   16.3160 C   0  0  0  0  0
    4.0600    8.4390    6.5860 C   0  0  0  0  0
    5.1270    8.1880    5.7280 C   0  0  0  0  0
    4.8670    5.8340   10.8630 N   0  0  0  0  0
    3.6970    7.0080    9.5780 N   0  0  0  0  0
    2.8470   10.1510    9.0890 O   0  0  0  0  0
    3.8230   10.7860    6.6790 O   0  0  0  0  0
    3.9060    7.4160    7.6280 O   0  0  0  0  0
    4.7450    7.2980    4.7190 O   0  0  0  0  0
    5.7163    7.5212    9.9051 H   0  0  0  0  0
    3.8589    0.2102   14.3183 H   0  0  0  0  0
    7.0625    3.0485   14.1110 H   0  0  0  0  0
    7.0546    0.2972   18.5727 H   0  0  0  0  0
    2.2442    8.0842    8.6598 H   0  0  0  0  0
    0.1089    4.3836   10.2208 H   0  0  0  0  0
    4.8241    9.6267    9.2367 H   0  0  0  0  0
    5.2033   -1.2071   15.8725 H   0  0  0  0  0
    8.4075    1.6276   15.6728 H   0  0  0  0  0
    8.3770   -1.0963   20.1055 H   0  0  0  0  0
    5.4137    9.9379    7.6337 H   0  0  0  0  0
    9.7833   -2.9592   19.2038 H   0  0  0  0  0
    9.8453   -3.3948   16.7742 H   0  0  0  0  0
    8.5298   -1.9979   15.2432 H   0  0  0  0  0
    3.1924    8.5142    5.9305 H   0  0  0  0  0
    5.9442    7.7469    6.2987 H   0  0  0  0  0
    5.4430    9.1262    5.2718 H   0  0  0  0  0
    3.0838   11.0792    9.1528 H   0  0  0  0  0
    4.2550   10.8281    5.8227 H   0  0  0  0  0
    5.4913    7.1361    4.1372 H   0  0  0  0  0
  5  1  4  0  0  0
 15  1  4  0  0  0
  3  2  4  0  0  0
  2 15  4  0  0  0
  3  4  4  0  0  0
 28  3  4  0  0  0
  4  5  4  0  0  0
 27  4  4  0  0  0
  5 14  1  0  0  0
  6 27  4  0  0  0
 28  6  4  0  0  0
  7  8  1  0  0  0
 14  7  3  0  0  0
  8  9  4  0  0  0
  8 11  4  0  0  0
  9 17  4  0  0  0
 17 10  4  0  0  0
 18 10  4  0  0  0
 10 19  1  0  0  0
 11 18  4  0  0  0
 19 12  4  0  0  0
 12 20  4  0  0  0
 13 16  1  0  0  0
 13 28  1  0  0  0
 13 31  1  0  0  0
 16 21  1  0  0  0
 16 29  1  0  0  0
 19 24  4  0  0  0
 20 22  4  0  0  0
 21 25  1  0  0  0
 21 30  1  0  0  0
 22 23  4  0  0  0
 23 24  4  0  0  0
 25 26  1  0  0  0
 25 31  1  0  0  0
 26 32  1  0  0  0
  6 33  1  0  0  0
  9 34  1  0  0  0
 11 35  1  0  0  0
 12 36  1  0  0  0
 13 37  1  0  0  0
 15 38  1  0  0  0
 16 39  1  0  0  0
 17 40  1  0  0  0
 18 41  1  0  0  0
 20 42  1  0  0  0
 21 43  1  0  0  0
 22 44  1  0  0  0
 23 45  1  0  0  0
 24 46  1  0  0  0
 25 47  1  0  0  0
 26 48  1  0  0  0
 26 49  1  0  0  0
 29 50  1  0  0  0
 30 51  1  0  0  0
 32 52  1  0  0  0
M  END
$$$$
