2hvc_ligand
  -I-interpret- 

 35 36  0  0  0  0  0  0  0  0999 V2000
    1.9340   25.8520    4.6770 N   0  0  0  0  0
    3.3210   25.6260    4.7650 C   0  0  0  0  0
    4.2310   26.7400    4.9300 C   0  0  0  0  0
    3.7160   28.1130    5.0010 C   0  0  0  0  0
    4.4960   29.9010    6.3800 F   0  0  0  0  0
    6.0420   28.8460    5.2560 F   0  0  0  0  0
    4.6510   30.2950    4.2880 F   0  0  0  0  0
    2.2600   28.3290    4.9030 C   0  0  0  0  0
    1.6350   29.6370    4.9550 C   0  0  0  0  0
    0.1990   29.8400    4.8680 C   0  0  0  0  0
   -0.6400   28.6270    4.7170 C   0  0  0  0  0
   -0.0610   27.3060    4.6500 C   0  0  0  0  0
    1.3690   27.1430    4.7380 C   0  0  0  0  0
    4.7600   29.3240    5.1990 C   0  0  0  0  0
   -1.8550   31.5670    4.9150 C   0  0  0  0  0
   -0.3620   31.2670    4.9370 N   0  0  0  0  0
    0.5070   32.4560    4.7940 C   0  0  0  0  0
   -3.6400   31.7120    5.9470 F   0  0  0  0  0
   -2.5160   30.1680    6.6510 F   0  0  0  0  0
   -1.9250   32.0570    7.2650 F   0  0  0  0  0
   -2.3970   31.3550    6.2240 C   0  0  0  0  0
    0.4080   34.3030    4.1280 F   0  0  0  0  0
    1.9790   33.1860    3.4670 F   0  0  0  0  0
    0.1470   32.8420    2.5910 F   0  0  0  0  0
    0.7660   33.1050    3.7470 C   0  0  0  0  0
    3.7340   24.4790    4.7060 O   0  0  0  0  0
    1.3133   25.0505    4.5647 H   0  0  0  0  0
    5.3034   26.5584    5.0018 H   0  0  0  0  0
    2.2753   30.5122    5.0650 H   0  0  0  0  0
   -1.7228   28.7353    4.6549 H   0  0  0  0  0
   -0.7038   26.4335    4.5331 H   0  0  0  0  0
   -2.3504   30.9073    4.2026 H   0  0  0  0  0
   -2.0158   32.6027    4.6157 H   0  0  0  0  0
    1.4838   32.0304    5.0238 H   0  0  0  0  0
   -0.0539   33.1955    5.3655 H   0  0  0  0  0
  1  2  1  0  0  0
  1 13  1  0  0  0
  2  3  1  0  0  0
  2 26  2  0  0  0
  3  4  2  0  0  0
  4  8  1  0  0  0
  4 14  1  0  0  0
 14  5  1  0  0  0
 14  6  1  0  0  0
 14  7  1  0  0  0
  8  9  4  0  0  0
  8 13  4  0  0  0
  9 10  4  0  0  0
 10 11  4  0  0  0
 10 16  1  0  0  0
 11 12  4  0  0  0
 12 13  4  0  0  0
 16 15  1  0  0  0
 15 21  1  0  0  0
 16 17  1  0  0  0
 17 25  1  0  0  0
 21 18  1  0  0  0
 21 19  1  0  0  0
 21 20  1  0  0  0
 25 22  1  0  0  0
 25 23  1  0  0  0
 25 24  1  0  0  0
  1 27  1  0  0  0
  3 28  1  0  0  0
  9 29  1  0  0  0
 11 30  1  0  0  0
 12 31  1  0  0  0
 15 32  1  0  0  0
 15 33  1  0  0  0
 17 34  1  0  0  0
 17 35  1  0  0  0
M  END
$$$$
