5mm9_ligand
  -I-interpret- 

 45 45  0  0  0  0  0  0  0  0999 V2000
   33.9100    6.5350  -13.2960 C   0  0  0  0  0
   33.6360    5.0150  -13.1460 C   0  0  0  0  0
   32.6350    4.8600  -12.1260 O   0  0  0  0  0
   32.0970    3.4190  -11.6430 P   0  0  0  0  0
   31.3050    2.7400  -12.7930 O   0  0  0  0  0
   33.3590    2.4550  -11.2540 O   0  0  0  0  0
   33.5060    1.1010  -11.7470 C   0  0  0  0  0
   33.2080    0.0710  -10.6130 C   0  0  0  0  0
   31.1070    3.6490  -10.2030 C   0  0  0  0  0
   30.3830    2.3510   -9.8210 C   0  0  0  0  0
   29.1330    2.9240   -8.5660 S   0  0  0  0  0
   32.0270    4.0460   -9.0000 C   0  0  0  0  0
   32.5370    5.5470   -9.0900 C   0  0  0  0  0
   31.3080    6.5690   -8.9710 C   0  0  0  0  0
   31.7750    8.0030   -8.8140 C   0  0  0  0  0
   32.2780    8.4620   -7.5840 C   0  0  0  0  0
   32.7290    9.8150   -7.4110 C   0  0  0  0  0
   32.6640   10.7080   -8.5020 C   0  0  0  0  0
   32.1590   10.2410   -9.7360 C   0  0  0  0  0
   31.7140    8.8910   -9.8840 C   0  0  0  0  0
   32.9889    7.0424  -13.5827 H   0  0  0  0  0
   34.2657    6.9342  -12.3462 H   0  0  0  0  0
   34.6672    6.6923  -14.0641 H   0  0  0  0  0
   34.5487    4.4866  -12.8704 H   0  0  0  0  0
   33.2899    4.5932  -14.0896 H   0  0  0  0  0
   34.5296    0.9596  -12.0938 H   0  0  0  0  0
   32.8011    0.9429  -12.5632 H   0  0  0  0  0
   33.9057    0.2265   -9.7901 H   0  0  0  0  0
   32.1873    0.2099  -10.2568 H   0  0  0  0  0
   33.3237   -0.9403  -11.0029 H   0  0  0  0  0
   30.3763    4.4285  -10.4190 H   0  0  0  0  0
   31.0578    1.5902   -9.4287 H   0  0  0  0  0
   29.9258    1.8543  -10.6768 H   0  0  0  0  0
   28.4229    1.8823   -8.1423 H   0  0  0  0  0
   32.9001    3.3937   -9.0162 H   0  0  0  0  0
   31.4443    3.9443   -8.0845 H   0  0  0  0  0
   33.0281    5.6959  -10.0516 H   0  0  0  0  0
   33.2318    5.7335   -8.2711 H   0  0  0  0  0
   30.7263    6.3014   -8.0889 H   0  0  0  0  0
   30.7182    6.5007   -9.8851 H   0  0  0  0  0
   32.3270    7.7738   -6.7402 H   0  0  0  0  0
   33.1169   10.1480   -6.4483 H   0  0  0  0  0
   32.9976   11.7401   -8.3944 H   0  0  0  0  0
   32.1081   10.9199  -10.5872 H   0  0  0  0  0
   31.3231    8.5536  -10.8439 H   0  0  0  0  0
  1  2  1  0  0  0
  2  3  1  0  0  0
  3  4  1  0  0  0
  4  5  2  0  0  0
  4  6  1  0  0  0
  4  9  1  0  0  0
  6  7  1  0  0  0
  7  8  1  0  0  0
  9 10  1  0  0  0
  9 12  1  0  0  0
 10 11  1  0  0  0
 12 13  1  0  0  0
 13 14  1  0  0  0
 14 15  1  0  0  0
 15 16  4  0  0  0
 15 20  4  0  0  0
 16 17  4  0  0  0
 17 18  4  0  0  0
 18 19  4  0  0  0
 19 20  4  0  0  0
  1 21  1  0  0  0
  1 22  1  0  0  0
  1 23  1  0  0  0
  2 24  1  0  0  0
  2 25  1  0  0  0
  7 26  1  0  0  0
  7 27  1  0  0  0
  8 28  1  0  0  0
  8 29  1  0  0  0
  8 30  1  0  0  0
  9 31  1  0  0  0
 10 32  1  0  0  0
 10 33  1  0  0  0
 11 34  1  0  0  0
 12 35  1  0  0  0
 12 36  1  0  0  0
 13 37  1  0  0  0
 13 38  1  0  0  0
 14 39  1  0  0  0
 14 40  1  0  0  0
 16 41  1  0  0  0
 17 42  1  0  0  0
 18 43  1  0  0  0
 19 44  1  0  0  0
 20 45  1  0  0  0
M  END
$$$$
