2xxt_ligand
  -I-interpret- 

 33 33  0  0  0  0  0  0  0  0999 V2000
   19.6280  -35.0590   -7.8200 N   0  3  0  0  0
   19.2870  -33.7350   -7.2440 C   0  0  0  0  0
   19.2390  -31.4060   -5.5370 C   0  0  0  0  0
   18.9970  -32.8560   -3.4640 C   0  0  0  0  0
   20.0470  -35.9240   -6.7150 C   0  0  0  0  0
   20.1910  -35.0320   -5.4970 C   0  0  0  0  0
   21.5610  -34.3610   -5.4130 C   0  0  0  0  0
   19.1930  -33.9410   -5.7390 C   0  0  0  0  0
   22.6780  -35.2570   -4.9220 C   0  0  0  0  0
   19.5660  -32.7320   -4.8780 C   0  0  0  0  0
   18.9860  -36.9550   -6.4890 C   0  0  0  0  0
   18.1420  -37.1950   -7.3750 O   0  0  0  0  0
   23.8450  -34.8180   -5.0600 O   0  0  0  0  0
   22.4320  -36.3780   -4.4040 O   0  0  0  0  0
   18.9350  -37.5610   -5.4080 O   0  0  0  0  0
   20.3774  -34.9677   -8.5059 H   0  0  0  0  0
   18.8212  -35.4582   -8.2997 H   0  0  0  0  0
   18.3476  -33.3592   -7.6495 H   0  0  0  0  0
   20.0432  -32.9905   -7.4932 H   0  0  0  0  0
   19.7862  -31.3237   -6.4761 H   0  0  0  0  0
   18.1681  -31.3536   -5.7332 H   0  0  0  0  0
   19.5285  -30.5909   -4.8737 H   0  0  0  0  0
   17.9102  -32.9222   -3.5156 H   0  0  0  0  0
   19.3949  -33.7538   -2.9910 H   0  0  0  0  0
   19.2817  -31.9801   -2.8811 H   0  0  0  0  0
   20.9867  -36.4355   -6.9234 H   0  0  0  0  0
   20.0550  -35.6128   -4.5847 H   0  0  0  0  0
   21.4705  -33.5459   -4.6950 H   0  0  0  0  0
   21.8246  -34.0523   -6.4246 H   0  0  0  0  0
   18.1609  -34.1504   -5.4578 H   0  0  0  0  0
   20.6519  -32.7364   -4.7833 H   0  0  0  0  0
   18.3205  -36.6465   -8.1424 H   0  0  0  0  0
   21.4830  -36.5227   -4.3927 H   0  0  0  0  0
  2  1  1  0  0  0
  5  1  1  0  0  0
  8  2  1  0  0  0
 10  3  1  0  0  0
 10  4  1  0  0  0
  6  5  1  0  0  0
  5 11  1  0  0  0
  6  7  1  0  0  0
  8  6  1  0  0  0
  7  9  1  0  0  0
  8 10  1  0  0  0
  9 13  2  0  0  0
  9 14  1  0  0  0
 11 12  1  0  0  0
 11 15  2  0  0  0
  1 16  1  0  0  0
  1 17  1  0  0  0
  2 18  1  0  0  0
  2 19  1  0  0  0
  3 20  1  0  0  0
  3 21  1  0  0  0
  3 22  1  0  0  0
  4 23  1  0  0  0
  4 24  1  0  0  0
  4 25  1  0  0  0
  5 26  1  0  0  0
  6 27  1  0  0  0
  7 28  1  0  0  0
  7 29  1  0  0  0
  8 30  1  0  0  0
 10 31  1  0  0  0
 12 32  1  0  0  0
 14 33  1  0  0  0
M  END
$$$$
