1r78_ligand
  -I-interpret- 

 48 50  0  0  0  0  0  0  0  0999 V2000
   16.8200   -6.2940   12.7790 F   0  0  0  0  0
   16.0240   -7.2080   13.3630 C   0  0  0  0  0
   14.8770   -7.6070   12.6580 C   0  0  0  0  0
   14.5880   -7.0390   11.4020 C   0  0  0  0  0
   14.3260   -6.5710   10.3330 C   0  0  0  0  0
   13.9630   -6.0270    9.0860 C   0  0  0  0  0
   14.1610   -4.6110    9.1400 O   0  0  0  0  0
   14.6030   -6.7310    7.8620 C   0  0  0  0  0
   15.0060   -8.1160    8.1400 N   0  3  0  0  0
   13.5260   -6.7260    6.7610 C   0  0  0  0  0
   14.0860   -6.7570    5.4410 O   0  0  0  0  0
   12.5500   -5.5320    6.8670 C   0  0  0  0  0
   14.0350   -8.6160   13.3210 C   0  0  0  0  0
   14.4160   -9.1250   14.6010 C   0  0  0  0  0
   13.4400  -10.0330   14.9620 N   0  0  0  0  0
   12.4300  -10.2030   13.9990 C   0  0  0  0  0
   11.4920  -10.9640   14.1290 O   0  0  0  0  0
   15.5580   -8.6850   15.2550 C   0  0  0  0  0
   16.3660   -7.7200   14.6230 C   0  0  0  0  0
   12.8870   -9.2350   12.9440 C   0  0  0  0  0
   12.1510   -9.0080   11.6890 C   0  0  0  0  0
   10.8900   -9.5210   11.1570 C   0  0  0  0  0
   10.2570   -9.2220    9.9660 C   0  0  0  0  0
   10.7020   -8.3290    9.0100 O   0  0  0  0  0
   10.2500   -8.4690    7.6530 C   0  0  0  0  0
    9.0360  -10.0210    9.9770 C   0  0  0  0  0
    9.0230  -10.7450   11.1260 C   0  0  0  0  0
   10.1410  -10.4580   11.8400 N   0  0  0  0  0
   12.9050   -6.2221    8.9110 H   0  0  0  0  0
   13.7344   -4.2591    9.9247 H   0  0  0  0  0
   15.5129   -6.2037    7.5753 H   0  0  0  0  0
   15.7194   -8.1214    8.8690 H   0  0  0  0  0
   14.1944   -8.6487    8.4528 H   0  0  0  0  0
   15.3831   -8.5361    7.2905 H   0  0  0  0  0
   12.9631   -7.6441    6.9292 H   0  0  0  0  0
   13.3771   -6.7525    4.7937 H   0  0  0  0  0
   13.0899   -4.6049    6.6747 H   0  0  0  0  0
   11.7534   -5.6492    6.1322 H   0  0  0  0  0
   12.1208   -5.5030    7.8685 H   0  0  0  0  0
   13.4510  -10.5360   15.8493 H   0  0  0  0  0
   15.8239   -9.0777   16.2364 H   0  0  0  0  0
   17.2694   -7.3663   15.1199 H   0  0  0  0  0
   12.6512   -8.3117   11.0159 H   0  0  0  0  0
   10.5474   -9.4457    7.2713 H   0  0  0  0  0
    9.1640   -8.3807    7.6222 H   0  0  0  0  0
   10.6970   -7.6864    7.0399 H   0  0  0  0  0
    8.2706  -10.0344    9.2011 H   0  0  0  0  0
    8.2416  -11.4432   11.4260 H   0  0  0  0  0
  1  2  1  0  0  0
  2  3  4  0  0  0
  2 19  4  0  0  0
  3  4  1  0  0  0
  3 13  4  0  0  0
  4  5  3  0  0  0
  5  6  1  0  0  0
  6  7  1  0  0  0
  6  8  1  0  0  0
  8  9  1  0  0  0
  8 10  1  0  0  0
 10 11  1  0  0  0
 10 12  1  0  0  0
 13 14  4  0  0  0
 13 20  1  0  0  0
 14 15  1  0  0  0
 14 18  4  0  0  0
 15 16  1  0  0  0
 16 17  2  0  0  0
 16 20  1  0  0  0
 18 19  4  0  0  0
 20 21  2  0  0  0
 21 22  1  0  0  0
 22 23  4  0  0  0
 22 28  4  0  0  0
 23 24  1  0  0  0
 23 26  4  0  0  0
 24 25  1  0  0  0
 26 27  4  0  0  0
 27 28  4  0  0  0
  6 29  1  0  0  0
  7 30  1  0  0  0
  8 31  1  0  0  0
  9 32  1  0  0  0
  9 33  1  0  0  0
  9 34  1  0  0  0
 10 35  1  0  0  0
 11 36  1  0  0  0
 12 37  1  0  0  0
 12 38  1  0  0  0
 12 39  1  0  0  0
 15 40  1  0  0  0
 18 41  1  0  0  0
 19 42  1  0  0  0
 21 43  1  0  0  0
 25 44  1  0  0  0
 25 45  1  0  0  0
 25 46  1  0  0  0
 26 47  1  0  0  0
 27 48  1  0  0  0
M  END
$$$$
