4xt9_ligand
  -I-interpret- 

 54 57  0  0  0  0  0  0  0  0999 V2000
   -3.3620   27.1630   12.2080 N   0  0  0  0  0
    0.7060   26.1890   14.0580 C   0  0  0  0  0
   -0.2410   26.7240   13.1930 C   0  0  0  0  0
   -0.2300   26.3970   11.8380 C   0  0  0  0  0
   -1.3180   26.9900   10.9210 C   0  0  0  0  0
   -2.6310   26.3690   11.4300 C   0  0  0  0  0
   -6.1740   26.9440   14.3600 C   0  0  0  0  0
   -7.7130   24.4850   15.6390 C   0  0  0  0  0
   -9.5020   22.9600   15.0330 C   0  0  0  0  0
   -8.2280   24.1040   13.3230 C   0  0  0  0  0
   -6.6530   28.8830   17.4440 C   0  0  0  0  0
   -8.0280   29.0790   17.4700 C   0  0  0  0  0
   -8.8210   28.5640   16.4450 C   0  0  0  0  0
    0.7340   25.5110   11.3490 C   0  0  0  0  0
    0.7740   23.1770   15.8070 C   0  0  0  0  0
    2.2170   23.0390   15.2960 C   0  0  0  0  0
    2.8650   24.6460   14.7060 S   0  0  0  0  0
    4.1690   24.4300   14.0040 O   0  0  0  0  0
    3.0320   25.5240   15.9140 O   0  0  0  0  0
    1.6810   25.3230   13.5790 C   0  0  0  0  0
    1.6880   24.9800   12.2190 C   0  0  0  0  0
   -2.9150   25.2080   11.1590 O   0  0  0  0  0
   -4.4680   26.7460   12.8460 C   0  0  0  0  0
   -5.0830   27.4890   13.7710 N   0  0  0  0  0
   -5.2680   25.2500   12.7370 S   0  0  0  0  0
   -6.4420   25.6340   13.9040 C   0  0  0  0  0
   -7.4630   24.7530   14.2890 C   0  0  0  0  0
   -9.2480   23.2170   13.6850 C   0  0  0  0  0
   -8.7300   23.5980   16.0080 C   0  0  0  0  0
   -6.8790   27.6370   15.3550 C   0  0  0  0  0
   -6.1000   28.1680   16.3850 C   0  0  0  0  0
   -5.6350   29.5220   18.7030 Cl  0  0  0  0  0
   -8.2620   27.8480   15.3880 C   0  0  0  0  0
   -9.3320   27.2550   14.1680 Cl  0  0  0  0  0
   -3.0691   28.1330   12.3254 H   0  0  0  0  0
    0.6837   26.4498   15.1161 H   0  0  0  0  0
   -0.9995   27.4057   13.5777 H   0  0  0  0  0
   -1.1373   26.7601    9.8710 H   0  0  0  0  0
   -1.3381   28.0790   10.9621 H   0  0  0  0  0
   -7.1119   24.9701   16.4080 H   0  0  0  0  0
  -10.2939   22.2692   15.3224 H   0  0  0  0  0
   -8.0290   24.2900   12.2676 H   0  0  0  0  0
   -8.4857   29.6337   18.2891 H   0  0  0  0  0
   -9.8988   28.7245   16.4710 H   0  0  0  0  0
    0.7409   25.2361   10.2942 H   0  0  0  0  0
    0.7488   23.8878   16.6330 H   0  0  0  0  0
    0.1363   23.5347   14.9986 H   0  0  0  0  0
    0.4171   22.2060   16.1505 H   0  0  0  0  0
    2.2265   22.3333   14.4653 H   0  0  0  0  0
    2.8450   22.6898   16.1156 H   0  0  0  0  0
    2.4442   24.2935   11.8384 H   0  0  0  0  0
   -9.8437   22.7272   12.9147 H   0  0  0  0  0
   -8.9217   23.4031   17.0632 H   0  0  0  0  0
   -5.0208   28.0174   16.3591 H   0  0  0  0  0
  1  6  1  0  0  0
 23  1  1  0  0  0
  3  2  4  0  0  0
  2 20  4  0  0  0
  4  3  4  0  0  0
  5  4  1  0  0  0
  4 14  4  0  0  0
  6  5  1  0  0  0
  6 22  2  0  0  0
  7 24  4  0  0  0
  7 26  4  0  0  0
 30  7  1  0  0  0
 27  8  4  0  0  0
  8 29  4  0  0  0
 28  9  4  0  0  0
 29  9  4  0  0  0
 27 10  4  0  0  0
 10 28  4  0  0  0
 11 12  4  0  0  0
 31 11  4  0  0  0
 11 32  1  0  0  0
 12 13  4  0  0  0
 13 33  4  0  0  0
 14 21  4  0  0  0
 16 15  1  0  0  0
 17 16  1  0  0  0
 17 18  2  0  0  0
 17 19  2  0  0  0
 20 17  1  0  0  0
 21 20  4  0  0  0
 24 23  4  0  0  0
 25 23  4  0  0  0
 26 25  4  0  0  0
 26 27  1  0  0  0
 30 31  4  0  0  0
 30 33  4  0  0  0
 33 34  1  0  0  0
  1 35  1  0  0  0
  2 36  1  0  0  0
  3 37  1  0  0  0
  5 38  1  0  0  0
  5 39  1  0  0  0
  8 40  1  0  0  0
  9 41  1  0  0  0
 10 42  1  0  0  0
 12 43  1  0  0  0
 13 44  1  0  0  0
 14 45  1  0  0  0
 15 46  1  0  0  0
 15 47  1  0  0  0
 15 48  1  0  0  0
 16 49  1  0  0  0
 16 50  1  0  0  0
 21 51  1  0  0  0
 28 52  1  0  0  0
 29 53  1  0  0  0
 31 54  1  0  0  0
M  END
$$$$
