### 
### Created by X-TOOL on Mon Sep 10 21:13:24 2018
### 

@<TRIPOS>MOLECULE
4wz6_ligand
   43    45     1     0     0
SMALL
GAST_HUCK


@<TRIPOS>ATOM
      1 PG         32.1650   64.0230   18.8160 P.3       1 ATP         0.1879
      2 O1G        32.2220   64.9190   17.7340 O.co2     1 ATP        -0.6091
      3 O2G        32.2240   62.4880   18.5800 O.co2     1 ATP        -0.6091
      4 O3G        31.3070   64.5140   19.9440 O.co2     1 ATP        -0.6091
      5 PB         34.5400   63.7960   20.5830 P.3       1 ATP         0.3553
      6 O1B        34.4140   62.2270   20.4980 O.co2     1 ATP        -0.5652
      7 O2B        34.2440   64.4320   21.9010 O.co2     1 ATP        -0.5652
      8 O3B        33.5780   64.4980   19.4950 O.3       1 ATP        -0.1546
      9 PA         37.2030   63.4580   19.5060 P.3       1 ATP         0.3266
     10 O1A        36.7710   62.7570   18.2920 O.co2     1 ATP        -0.5692
     11 O2A        38.0280   62.7870   20.5930 O.co2     1 ATP        -0.5692
     12 O3A        35.9920   64.2910   20.1290 O.3       1 ATP        -0.1171
     13 O5'        38.0160   64.7460   18.9970 O.3       1 ATP        -0.2441
     14 C5'        39.2780   65.1890   19.4770 C.3       1 ATP         0.1131
     15 C4'        40.3270   65.1650   18.3870 C.3       1 ATP         0.1189
     16 O4'        40.8540   63.8350   18.1570 O.3       1 ATP        -0.3364
     17 C3'        39.7360   65.5050   17.0250 C.3       1 ATP         0.1149
     18 O3'        40.6620   66.3230   16.3450 O.3       1 ATP        -0.3864
     19 C2'        39.6260   64.2200   16.2170 C.3       1 ATP         0.1385
     20 O2'        39.8090   64.3910   14.8060 O.3       1 ATP        -0.3836
     21 C1'        40.7620   63.4310   16.7710 C.3       1 ATP         0.2010
     22 N9         40.5550   61.9520   16.7250 N.pl3     1 ATP        -0.1919
     23 C8         39.3940   61.3070   16.9930 C.2       1 ATP         0.1123
     24 N7         39.5750   59.9910   16.9180 N.2       1 ATP        -0.2958
     25 C5         40.8650   59.7780   16.6240 C.ar      1 ATP         0.1045
     26 C6         41.6490   58.5870   16.4260 C.ar      1 ATP         0.1298
     27 N6         41.0490   57.3890   16.5180 N.pl3     1 ATP        -0.3152
     28 N1         42.9300   58.7520   16.1440 N.ar      1 ATP        -0.2698
     29 C2         43.4840   59.9750   16.0420 C.ar      1 ATP         0.0533
     30 N3         42.8190   61.1260   16.2040 N.ar      1 ATP        -0.2714
     31 C4         41.5050   61.0570   16.5160 C.ar      1 ATP         0.1613
     32 H1         39.5997   64.5299   20.2968 H         1 ATP         0.0648
     33 H2         39.1763   66.2180   19.8521 H         1 ATP         0.0648
     34 H3         41.1328   65.8651   18.6526 H         1 ATP         0.0651
     35 H4         38.7591   66.0000   17.1285 H         1 ATP         0.0648
     36 H5         40.3150   66.5492   15.4900 H         1 ATP         0.2100
     37 H6         38.6595   63.7272   16.3987 H         1 ATP         0.0676
     38 H7         40.6730   64.7498   14.6411 H         1 ATP         0.2101
     39 H8         41.6857   63.6805   16.2283 H         1 ATP         0.0996
     40 H9         38.4506   61.7945   17.2345 H         1 ATP         0.1349
     41 H10        41.5957   56.5272   16.3790 H         1 ATP         0.1820
     42 H11        40.0421   57.3320   16.7275 H         1 ATP         0.1820
     43 H12        44.5420   60.0318   15.8128 H         1 ATP         0.0996
@<TRIPOS>BOND
     1    1    2 ar 
     2    1    3 ar 
     3    1    4 ar 
     4    8    1 1  
     5    5    6 ar 
     6    5    7 ar 
     7    5    8 1  
     8   12    5 1  
     9    9   10 ar 
    10    9   11 ar 
    11    9   12 1  
    12    9   13 1  
    13   13   14 1  
    14   14   15 1  
    15   15   16 1  
    16   15   17 1  
    17   16   21 1  
    18   17   18 1  
    19   17   19 1  
    20   19   20 1  
    21   19   21 1  
    22   21   22 1  
    23   22   23 1  
    24   22   31 1  
    25   23   24 2  
    26   24   25 1  
    27   25   26 ar 
    28   25   31 ar 
    29   26   27 1  
    30   26   28 ar 
    31   28   29 ar 
    32   29   30 ar 
    33   30   31 ar 
    34   14   32 1  
    35   14   33 1  
    36   15   34 1  
    37   17   35 1  
    38   18   36 1  
    39   19   37 1  
    40   20   38 1  
    41   21   39 1  
    42   23   40 1  
    43   27   41 1  
    44   27   42 1  
    45   29   43 1  
@<TRIPOS>SUBSTRUCTURE
     1 ATP         1

