4wz6_ligand
  -I-interpret- 

 47 49  0  0  0  0  0  0  0  0999 V2000
   32.1650   64.0230   18.8160 P   0  0  0  0  0
   32.2220   64.9190   17.7340 O   0  0  0  0  0
   32.2240   62.4880   18.5800 O   0  0  0  0  0
   31.3070   64.5140   19.9440 O   0  0  0  0  0
   34.5400   63.7960   20.5830 P   0  0  0  0  0
   34.4140   62.2270   20.4980 O   0  0  0  0  0
   34.2440   64.4320   21.9010 O   0  0  0  0  0
   33.5780   64.4980   19.4950 O   0  0  0  0  0
   37.2030   63.4580   19.5060 P   0  0  0  0  0
   36.7710   62.7570   18.2920 O   0  0  0  0  0
   38.0280   62.7870   20.5930 O   0  0  0  0  0
   35.9920   64.2910   20.1290 O   0  0  0  0  0
   38.0160   64.7460   18.9970 O   0  0  0  0  0
   39.2780   65.1890   19.4770 C   0  0  0  0  0
   40.3270   65.1650   18.3870 C   0  0  0  0  0
   40.8540   63.8350   18.1570 O   0  0  0  0  0
   39.7360   65.5050   17.0250 C   0  0  0  0  0
   40.6620   66.3230   16.3450 O   0  0  0  0  0
   39.6260   64.2200   16.2170 C   0  0  0  0  0
   39.8090   64.3910   14.8060 O   0  0  0  0  0
   40.7620   63.4310   16.7710 C   0  0  0  0  0
   40.5550   61.9520   16.7250 N   0  0  0  0  0
   39.3940   61.3070   16.9930 C   0  0  0  0  0
   39.5750   59.9910   16.9180 N   0  0  0  0  0
   40.8650   59.7780   16.6240 C   0  0  0  0  0
   41.6490   58.5870   16.4260 C   0  0  0  0  0
   41.0490   57.3890   16.5180 N   0  0  0  0  0
   42.9300   58.7520   16.1440 N   0  0  0  0  0
   43.4840   59.9750   16.0420 C   0  0  0  0  0
   42.8190   61.1260   16.2040 N   0  0  0  0  0
   41.5050   61.0570   16.5160 C   0  0  0  0  0
   32.1730   62.0334   19.4240 H   0  0  0  0  0
   31.3063   63.8639   20.6504 H   0  0  0  0  0
   34.6272   61.9377   19.6078 H   0  0  0  0  0
   38.2024   63.4173   21.2958 H   0  0  0  0  0
   39.5966   64.5205   20.2769 H   0  0  0  0  0
   39.1717   66.2146   19.8306 H   0  0  0  0  0
   41.0775   65.8749   18.7347 H   0  0  0  0  0
   38.7674   65.9907   17.1434 H   0  0  0  0  0
   40.3113   66.5515   15.4810 H   0  0  0  0  0
   38.6354   63.7732   16.3013 H   0  0  0  0  0
   39.7255   63.5407   14.3683 H   0  0  0  0  0
   41.6559   63.6243   16.1780 H   0  0  0  0  0
   38.4497   61.7949   17.2347 H   0  0  0  0  0
   40.0519   57.3326   16.7255 H   0  0  0  0  0
   41.5904   56.5356   16.3804 H   0  0  0  0  0
   44.5478   60.0321   15.8115 H   0  0  0  0  0
  1  2  2  0  0  0
  1  3  1  0  0  0
  1  4  1  0  0  0
  8  1  1  0  0  0
  5  6  1  0  0  0
  5  7  2  0  0  0
  5  8  1  0  0  0
 12  5  1  0  0  0
  9 10  2  0  0  0
  9 11  1  0  0  0
  9 12  1  0  0  0
  9 13  1  0  0  0
 13 14  1  0  0  0
 14 15  1  0  0  0
 15 16  1  0  0  0
 15 17  1  0  0  0
 16 21  1  0  0  0
 17 18  1  0  0  0
 17 19  1  0  0  0
 19 20  1  0  0  0
 19 21  1  0  0  0
 21 22  1  0  0  0
 22 23  4  0  0  0
 22 31  4  0  0  0
 23 24  4  0  0  0
 24 25  4  0  0  0
 25 26  4  0  0  0
 25 31  4  0  0  0
 26 27  1  0  0  0
 26 28  4  0  0  0
 28 29  4  0  0  0
 29 30  4  0  0  0
 30 31  4  0  0  0
  3 32  1  0  0  0
  4 33  1  0  0  0
  6 34  1  0  0  0
 11 35  1  0  0  0
 14 36  1  0  0  0
 14 37  1  0  0  0
 15 38  1  0  0  0
 17 39  1  0  0  0
 18 40  1  0  0  0
 19 41  1  0  0  0
 20 42  1  0  0  0
 21 43  1  0  0  0
 23 44  1  0  0  0
 27 45  1  0  0  0
 27 46  1  0  0  0
 29 47  1  0  0  0
M  END
$$$$
