5yjf_ligand
  -I-interpret- 

 23 23  0  0  0  0  0  0  0  0999 V2000
   -4.2910   -6.6830   10.2630 C   0  0  0  0  0
   -4.6620   -5.3850   10.0030 C   0  0  0  0  0
   -4.0370   -7.0100    7.9000 C   0  0  0  0  0
   -3.9790   -7.4900    9.1940 C   0  0  0  0  0
   -4.7040   -4.9320    8.7010 C   0  0  0  0  0
   -3.5950   -8.8870    9.4710 C   0  0  0  0  0
   -4.4440   -5.2380    6.3270 C   0  0  0  0  0
   -5.3360   -2.9920    9.6840 C   0  0  0  0  0
   -4.3960   -5.7420    7.6890 N   0  0  0  0  0
   -3.1680   -9.5730    8.3480 N   0  0  0  0  0
   -3.6800   -9.3240   10.6220 O   0  0  0  0  0
   -5.0690   -3.6240    8.4420 O   0  0  0  0  0
   -4.2456   -7.0607   11.2845 H   0  0  0  0  0
   -4.9221   -4.7160   10.8233 H   0  0  0  0  0
   -3.7921   -7.6601    7.0600 H   0  0  0  0  0
   -3.4554   -5.3205    5.8754 H   0  0  0  0  0
   -5.1589   -5.8238    5.7492 H   0  0  0  0  0
   -4.7536   -4.1930    6.3384 H   0  0  0  0  0
   -6.1456   -3.5171   10.1908 H   0  0  0  0  0
   -4.4398   -3.0187   10.3039 H   0  0  0  0  0
   -5.6269   -1.9564    9.5081 H   0  0  0  0  0
   -2.8809  -10.5487    8.4249 H   0  0  0  0  0
   -3.1403   -9.1030    7.4431 H   0  0  0  0  0
  1  2  4  0  0  0
  1  4  4  0  0  0
  2  5  4  0  0  0
  4  3  4  0  0  0
  3  9  4  0  0  0
  4  6  1  0  0  0
  5  9  4  0  0  0
  5 12  1  0  0  0
  6 10  1  0  0  0
  6 11  2  0  0  0
  9  7  1  0  0  0
 12  8  1  0  0  0
  1 13  1  0  0  0
  2 14  1  0  0  0
  3 15  1  0  0  0
  7 16  1  0  0  0
  7 17  1  0  0  0
  7 18  1  0  0  0
  8 19  1  0  0  0
  8 20  1  0  0  0
  8 21  1  0  0  0
 10 22  1  0  0  0
 10 23  1  0  0  0
M  END
$$$$
