1v2t_ligand
  -I-interpret- 

 54 55  0  0  0  0  0  0  0  0999 V2000
   -2.2950   17.9690   16.9110 N   0  0  0  0  0
   -3.5390   17.3060   17.3910 C   0  0  0  0  0
   -3.1940   16.3550   18.5510 C   0  0  0  0  0
   -4.7250   18.2880   17.8240 C   0  0  0  0  0
   -5.8640   18.0820   17.3530 O   0  0  0  0  0
   -4.4480   19.3740   18.7300 O   0  0  0  0  0
   -3.1410   19.7050   19.3430 C   0  0  0  0  0
   -2.4180   15.0850   18.2160 C   0  0  0  0  0
   -1.3990   14.6560   19.1030 C   0  0  0  0  0
   -0.6460   13.4820   18.8380 C   0  0  0  0  0
   -0.9150   12.7250   17.6680 C   0  0  0  0  0
   -1.9500   13.1110   16.7150 C   0  0  0  0  0
   -2.6950   14.3160   17.0230 C   0  0  0  0  0
   -2.2030   12.3380   15.5590 C   0  0  0  0  0
   -2.6820   12.8080   14.4160 N   0  0  0  0  0
   -2.0000   11.0200   15.4740 N   0  0  0  0  0
   -2.2320   18.7750   15.8390 C   0  0  0  0  0
   -0.9450   19.5430   15.6260 C   0  0  0  0  0
   -0.6660   19.8780   14.2110 N   0  0  0  0  0
   -3.1560   18.9130   15.0350 O   0  0  0  0  0
    3.8860   24.4330   16.2500 C   0  0  0  0  0
    2.8060   23.6850   15.5830 C   0  0  0  0  0
    3.0340   22.9510   14.3640 C   0  0  0  0  0
    1.9500   22.2470   13.7500 C   0  0  0  0  0
    0.6590   22.3060   14.3810 C   0  0  0  0  0
    0.4430   23.0360   15.5930 C   0  0  0  0  0
    1.5160   23.7200   16.1840 C   0  0  0  0  0
   -0.7030   21.4820   13.7020 S   0  0  0  0  0
   -0.7080   21.4480   12.1190 O   0  0  0  0  0
   -2.0190   22.0410   14.3330 O   0  0  0  0  0
   -1.4339   17.7997   17.4309 H   0  0  0  0  0
   -3.9294   16.7644   16.5294 H   0  0  0  0  0
   -4.1516   16.0170   18.9471 H   0  0  0  0  0
   -2.5465   16.9269   19.2157 H   0  0  0  0  0
   -2.7966   18.8603   19.9395 H   0  0  0  0  0
   -2.4157   19.9163   18.5572 H   0  0  0  0  0
   -3.2522   20.5812   19.9818 H   0  0  0  0  0
   -1.1904   15.2361   20.0019 H   0  0  0  0  0
    0.1344   13.1638   19.5293 H   0  0  0  0  0
   -0.3294   11.8261   17.4752 H   0  0  0  0  0
   -3.4788   14.6487   16.3425 H   0  0  0  0  0
   -2.8978   13.8006   14.3232 H   0  0  0  0  0
   -2.2132   10.5260   14.6074 H   0  0  0  0  0
   -1.6319   10.5079   16.2757 H   0  0  0  0  0
   -0.1300   18.9079   15.9731 H   0  0  0  0  0
   -1.0387   20.4845   16.1672 H   0  0  0  0  0
   -0.4513   19.1365   13.5444 H   0  0  0  0  0
    4.6879   23.7464   16.5213 H   0  0  0  0  0
    4.2716   25.1942   15.5717 H   0  0  0  0  0
    3.4947   24.9099   17.1486 H   0  0  0  0  0
    4.0259   22.9322   13.9125 H   0  0  0  0  0
    2.0986   21.6819   12.8299 H   0  0  0  0  0
   -0.5452   23.0603   16.0523 H   0  0  0  0  0
    1.3614   24.2800   17.1063 H   0  0  0  0  0
  1  2  1  0  0  0
 17  1  1  0  0  0
  2  3  1  0  0  0
  2  4  1  0  0  0
  3  8  1  0  0  0
  4  5  2  0  0  0
  4  6  1  0  0  0
  6  7  1  0  0  0
  8  9  4  0  0  0
  8 13  4  0  0  0
  9 10  4  0  0  0
 10 11  4  0  0  0
 12 11  4  0  0  0
 13 12  4  0  0  0
 12 14  1  0  0  0
 14 15  2  0  0  0
 14 16  1  0  0  0
 18 17  1  0  0  0
 17 20  2  0  0  0
 19 18  1  0  0  0
 28 19  1  0  0  0
 22 21  1  0  0  0
 23 22  4  0  0  0
 22 27  4  0  0  0
 24 23  4  0  0  0
 25 24  4  0  0  0
 25 26  4  0  0  0
 25 28  1  0  0  0
 26 27  4  0  0  0
 28 29  2  0  0  0
 28 30  2  0  0  0
  1 31  1  0  0  0
  2 32  1  0  0  0
  3 33  1  0  0  0
  3 34  1  0  0  0
  7 35  1  0  0  0
  7 36  1  0  0  0
  7 37  1  0  0  0
  9 38  1  0  0  0
 10 39  1  0  0  0
 11 40  1  0  0  0
 13 41  1  0  0  0
 15 42  1  0  0  0
 16 43  1  0  0  0
 16 44  1  0  0  0
 18 45  1  0  0  0
 18 46  1  0  0  0
 19 47  1  0  0  0
 21 48  1  0  0  0
 21 49  1  0  0  0
 21 50  1  0  0  0
 23 51  1  0  0  0
 24 52  1  0  0  0
 26 53  1  0  0  0
 27 54  1  0  0  0
M  END
$$$$
