5hvy_ligand
  -I-interpret- 

 63 66  0  0  0  0  0  0  0  0999 V2000
   -4.9610  -24.5050  151.8690 C   0  0  0  0  0
   -8.3280  -25.8540  149.6010 C   0  0  0  0  0
   -7.2150  -25.5410  150.3750 C   0  0  0  0  0
   -2.6940  -24.6180  151.1200 C   0  0  0  0  0
   -6.0110  -25.2410  149.7370 C   0  0  0  0  0
   -3.5300  -24.8550  149.8750 C   0  0  0  0  0
   -3.6080  -23.8460  152.0560 C   0  0  0  0  0
   -6.9610  -25.5800  146.3040 N   0  0  0  0  0
   -7.0590  -25.5710  147.6580 C   0  0  0  0  0
   -5.7040  -25.2630  145.6170 C   0  0  0  0  0
   -8.2290  -25.8670  148.2620 N   0  0  0  0  0
   -5.9690  -25.2640  148.3940 N   0  0  0  0  0
   -4.8650  -24.8860  150.4660 N   0  0  0  0  0
   -3.0140  -23.9410  153.4010 N   0  0  0  0  0
   -3.3770  -23.0780  154.3490 C   0  0  0  0  0
   -4.2610  -22.2630  154.1090 O   0  0  0  0  0
   -2.8090  -23.1620  155.5650 N   0  0  0  0  0
   -3.1120  -22.2340  156.5780 C   0  0  0  0  0
   -1.9900  -21.7990  157.2720 C   0  0  0  0  0
   -2.0760  -20.8380  158.2740 C   0  0  0  0  0
   -3.3160  -20.2740  158.5940 C   0  0  0  0  0
   -3.4370  -19.2210  159.6900 C   0  0  0  0  0
   -2.2420  -19.1290  160.5200 N   0  3  0  0  0
   -2.1280  -17.7880  161.1280 C   0  0  0  0  0
   -0.9350  -17.7620  162.0810 C   0  0  0  0  0
   -1.0750  -18.8000  163.0530 O   0  0  0  0  0
   -1.0910  -20.0620  162.3880 C   0  0  0  0  0
   -2.3570  -20.1510  161.5590 C   0  0  0  0  0
   -4.4430  -20.6860  157.8910 C   0  0  0  0  0
   -4.3500  -21.6470  156.8720 C   0  0  0  0  0
   -5.7540  -20.0580  158.2320 C   0  0  0  0  0
   -6.6730  -20.5280  157.4230 F   0  0  0  0  0
   -5.6160  -18.7500  158.0580 F   0  0  0  0  0
   -6.1310  -20.3320  159.4690 F   0  0  0  0  0
   -5.8106  -23.8640  152.1045 H   0  0  0  0  0
   -5.1557  -25.3346  152.5487 H   0  0  0  0  0
   -9.2784  -26.0882  150.0806 H   0  0  0  0  0
   -7.2826  -25.5303  151.4628 H   0  0  0  0  0
   -1.7801  -24.0672  150.8977 H   0  0  0  0  0
   -2.3519  -25.5526  151.5645 H   0  0  0  0  0
   -3.2635  -25.7537  149.3187 H   0  0  0  0  0
   -3.4002  -24.1034  149.0964 H   0  0  0  0  0
   -3.7274  -22.7783  151.8722 H   0  0  0  0  0
   -7.7842  -25.8137  145.7489 H   0  0  0  0  0
   -5.3932  -24.2517  145.8792 H   0  0  0  0  0
   -4.9350  -25.9719  145.9238 H   0  0  0  0  0
   -5.8533  -25.3307  144.5394 H   0  0  0  0  0
   -2.3263  -24.6659  153.6060 H   0  0  0  0  0
   -2.1458  -23.9129  155.7565 H   0  0  0  0  0
   -1.0163  -22.2220  157.0248 H   0  0  0  0  0
   -1.1793  -20.5249  158.8088 H   0  0  0  0  0
   -4.2696  -19.5039  160.3341 H   0  0  0  0  0
   -3.5844  -18.2541  159.2089 H   0  0  0  0  0
   -1.4050  -19.2777  159.9563 H   0  0  0  0  0
   -3.0397  -17.5604  161.6803 H   0  0  0  0  0
   -1.9836  -17.0444  160.3442 H   0  0  0  0  0
   -0.8954  -16.7965  162.5854 H   0  0  0  0  0
   -0.0163  -17.9171  161.5154 H   0  0  0  0  0
   -1.0674  -20.8693  163.1200 H   0  0  0  0  0
   -0.2165  -20.1550  161.7440 H   0  0  0  0  0
   -2.4693  -21.1430  161.1215 H   0  0  0  0  0
   -3.2407  -19.9850  162.1751 H   0  0  0  0  0
   -5.2386  -21.9359  156.3108 H   0  0  0  0  0
  1  7  1  0  0  0
 13  1  1  0  0  0
  2  3  4  0  0  0
 11  2  4  0  0  0
  3  5  4  0  0  0
  6  4  1  0  0  0
  4  7  1  0  0  0
  5 12  4  0  0  0
  5 13  1  0  0  0
 13  6  1  0  0  0
  7 14  1  0  0  0
  9  8  1  0  0  0
  8 10  1  0  0  0
  9 11  4  0  0  0
  9 12  4  0  0  0
 14 15  1  0  0  0
 15 16  2  0  0  0
 15 17  1  0  0  0
 17 18  1  0  0  0
 18 19  4  0  0  0
 18 30  4  0  0  0
 19 20  4  0  0  0
 20 21  4  0  0  0
 21 22  1  0  0  0
 21 29  4  0  0  0
 22 23  1  0  0  0
 23 24  1  0  0  0
 23 28  1  0  0  0
 24 25  1  0  0  0
 25 26  1  0  0  0
 26 27  1  0  0  0
 27 28  1  0  0  0
 29 30  4  0  0  0
 29 31  1  0  0  0
 31 32  1  0  0  0
 31 33  1  0  0  0
 31 34  1  0  0  0
  1 35  1  0  0  0
  1 36  1  0  0  0
  2 37  1  0  0  0
  3 38  1  0  0  0
  4 39  1  0  0  0
  4 40  1  0  0  0
  6 41  1  0  0  0
  6 42  1  0  0  0
  7 43  1  0  0  0
  8 44  1  0  0  0
 10 45  1  0  0  0
 10 46  1  0  0  0
 10 47  1  0  0  0
 14 48  1  0  0  0
 17 49  1  0  0  0
 19 50  1  0  0  0
 20 51  1  0  0  0
 22 52  1  0  0  0
 22 53  1  0  0  0
 23 54  1  0  0  0
 24 55  1  0  0  0
 24 56  1  0  0  0
 25 57  1  0  0  0
 25 58  1  0  0  0
 27 59  1  0  0  0
 27 60  1  0  0  0
 28 61  1  0  0  0
 28 62  1  0  0  0
 30 63  1  0  0  0
M  END
$$$$
