4tyl_ligand
  -I-interpret- 

 27 28  0  0  0  0  0  0  0  0999 V2000
   10.9700  -20.0430    9.5440 C   0  0  0  0  0
   12.0830  -21.0620    9.6060 C   0  0  0  0  0
   12.1570  -21.9490   10.6860 C   0  0  0  0  0
   13.2180  -22.9290   10.7710 C   0  0  0  0  0
   13.5310  -23.9010   11.7070 N   0  0  0  0  0
   12.7680  -24.1770   12.9150 C   0  0  0  0  0
   14.6400  -24.5670   11.2820 C   0  0  0  0  0
   15.1490  -25.4750   11.8650 O   0  0  0  0  0
   15.0540  -24.0430   10.1370 N   0  0  0  0  0
   16.2090  -24.4590    9.3660 C   0  0  0  0  0
   14.1650  -23.0150    9.7940 C   0  0  0  0  0
   14.0950  -22.0950    8.6910 C   0  0  0  0  0
   13.0650  -21.1400    8.5990 C   0  0  0  0  0
   13.0330  -20.2510    7.4590 N   0  0  0  0  0
   10.0089  -20.5570    9.5315 H   0  0  0  0  0
   11.0248  -19.3934   10.4176 H   0  0  0  0  0
   11.0759  -19.4458    8.6383 H   0  0  0  0  0
   11.4052  -21.9009   11.4737 H   0  0  0  0  0
   12.3850  -25.1968   12.8762 H   0  0  0  0  0
   13.4142  -24.0631   13.7853 H   0  0  0  0  0
   11.9353  -23.4772   12.9851 H   0  0  0  0  0
   17.1082  -24.3465    9.9717 H   0  0  0  0  0
   16.0934  -25.5032    9.0754 H   0  0  0  0  0
   16.2908  -23.8390    8.4733 H   0  0  0  0  0
   14.8547  -22.1380    7.9106 H   0  0  0  0  0
   12.2921  -19.5549    7.3757 H   0  0  0  0  0
   13.7513  -20.3200    6.7381 H   0  0  0  0  0
  1  2  1  0  0  0
  2  3  4  0  0  0
  2 13  4  0  0  0
  3  4  4  0  0  0
  4  5  1  0  0  0
  4 11  4  0  0  0
  5  6  1  0  0  0
  5  7  1  0  0  0
  7  8  2  0  0  0
  7  9  1  0  0  0
  9 10  1  0  0  0
  9 11  1  0  0  0
 11 12  4  0  0  0
 12 13  4  0  0  0
 13 14  1  0  0  0
  1 15  1  0  0  0
  1 16  1  0  0  0
  1 17  1  0  0  0
  3 18  1  0  0  0
  6 19  1  0  0  0
  6 20  1  0  0  0
  6 21  1  0  0  0
 10 22  1  0  0  0
 10 23  1  0  0  0
 10 24  1  0  0  0
 12 25  1  0  0  0
 14 26  1  0  0  0
 14 27  1  0  0  0
M  END
$$$$
