1k9s_ligand
  -I-interpret- 

 35 37  0  0  0  0  0  0  0  0999 V2000
  144.5390   70.2480   64.7450 N   0  0  0  0  0
  143.7350   69.6980   63.7190 C   0  0  0  0  0
  143.6510   68.3540   63.5120 N   0  0  0  0  0
  144.4160   67.6010   64.4170 C   0  0  0  0  0
  145.2260   68.0640   65.4770 C   0  0  0  0  0
  145.3290   69.4840   65.6940 C   0  0  0  0  0
  146.0140   70.0600   66.5760 N   0  0  0  0  0
  145.8110   67.0050   66.1390 N   0  0  0  0  0
  145.3830   65.9490   65.5000 N   0  0  0  0  0
  144.5380   66.2150   64.4360 C   0  0  0  0  0
  144.0250   65.0110   63.6230 C   0  0  0  0  0
  143.1050   65.3250   62.4020 C   0  0  0  0  0
  141.8420   64.7020   62.5740 O   0  0  0  0  0
  143.9290   64.7870   61.1740 C   0  0  0  0  0
  143.4490   63.5310   60.6600 O   0  0  0  0  0
  145.3520   64.6560   61.6690 C   0  0  0  0  0
  145.1990   64.3580   63.0970 O   0  0  0  0  0
  146.1880   65.9620   61.4280 C   0  0  0  0  0
  147.3460   66.0020   62.2670 O   0  0  0  0  0
  144.6170   71.6780   64.7690 C   0  0  0  0  0
  143.1662   70.3691   63.0754 H   0  0  0  0  0
  146.0204   71.0784   66.6326 H   0  0  0  0  0
  146.5637   69.5092   67.2354 H   0  0  0  0  0
  143.4098   64.4259   64.3066 H   0  0  0  0  0
  142.8656   66.3801   62.2696 H   0  0  0  0  0
  141.2832   64.9003   61.8190 H   0  0  0  0  0
  143.8353   65.4768   60.3352 H   0  0  0  0  0
  143.9933   63.2618   59.9164 H   0  0  0  0  0
  145.9058   63.8827   61.1366 H   0  0  0  0  0
  145.5611   66.8226   61.6616 H   0  0  0  0  0
  146.5132   65.9781   60.3878 H   0  0  0  0  0
  147.8353   66.8102   62.0969 H   0  0  0  0  0
  145.0344   72.0337   63.8270 H   0  0  0  0  0
  143.6182   72.0928   64.9050 H   0  0  0  0  0
  145.2575   71.9919   65.5932 H   0  0  0  0  0
  1  2  4  0  0  0
  1  6  4  0  0  0
  1 20  1  0  0  0
  2  3  4  0  0  0
  3  4  4  0  0  0
  4  5  4  0  0  0
  4 10  4  0  0  0
  5  6  4  0  0  0
  5  8  4  0  0  0
  6  7  1  0  0  0
  8  9  4  0  0  0
  9 10  4  0  0  0
 10 11  1  0  0  0
 11 12  1  0  0  0
 11 17  1  0  0  0
 12 13  1  0  0  0
 12 14  1  0  0  0
 14 15  1  0  0  0
 14 16  1  0  0  0
 16 17  1  0  0  0
 16 18  1  0  0  0
 18 19  1  0  0  0
  2 21  1  0  0  0
  7 22  1  0  0  0
  7 23  1  0  0  0
 11 24  1  0  0  0
 12 25  1  0  0  0
 13 26  1  0  0  0
 14 27  1  0  0  0
 15 28  1  0  0  0
 16 29  1  0  0  0
 18 30  1  0  0  0
 18 31  1  0  0  0
 19 32  1  0  0  0
 20 33  1  0  0  0
 20 34  1  0  0  0
 20 35  1  0  0  0
M  END
$$$$
