### 
### Created by X-TOOL on Mon Sep 10 21:12:44 2018
### 

@<TRIPOS>MOLECULE
1p10_ligand
   55    55     1     0     0
SMALL
GAST_HUCK


@<TRIPOS>ATOM
      1 N          14.0720   42.0480   18.5070 N.4       1 ALA         0.2377
      2 CA         14.4070   40.6540   18.1900 C.3       1 ALA         0.0621
      3 C          13.4700   39.5060   18.5330 C.2       1 ALA         0.2264
      4 O          12.7930   39.5190   19.5990 O.2       1 ALA        -0.3907
      5 CB         15.5890   40.3420   19.1370 C.3       1 ALA        -0.0040
      6 N          13.5200   38.5140   17.6460 N.am      1 ALA        -0.2613
      7 CA         12.7330   37.2720   17.8200 C.3       1 ALA         0.1285
      8 C          13.6610   36.1210   17.3940 C.2       1 ALA         0.2061
      9 O          14.5040   36.3760   16.5290 O.2       1 ALA        -0.3942
     10 CB         11.5700   37.2130   16.8280 C.3       1 ALA        -0.0244
     11 N          13.3940   34.9750   17.9670 N.am      1 PRO        -0.2498
     12 CA         14.1580   33.7570   17.6200 C.3       1 PRO         0.1336
     13 C          13.8660   33.3220   16.1770 C.2       1 PRO         0.2010
     14 O          12.6900   33.4870   15.7140 O.2       1 PRO        -0.3946
     15 CB         13.7020   32.7660   18.6910 C.3       1 PRO        -0.0104
     16 CG         12.9230   33.5090   19.7090 C.3       1 PRO        -0.0281
     17 CD         12.2980   34.6720   18.9330 C.3       1 PRO         0.0369
     18 N          14.8760   32.7910   15.5000 N.am      1 B2V        -0.2915
     19 CA         14.6560   32.3270   14.1040 C.3       1 B2V         0.0555
     20 CB         15.4860   33.1040   13.0200 C.3       1 B2V        -0.0325
     21 CG1        14.9750   34.5190   12.7620 C.3       1 B2V        -0.0617
     22 CG2        16.9730   33.2230   13.3560 C.3       1 B2V        -0.0617
     23 B          14.7020   30.7590   14.0120 B         1 B2V         0.7166
     24 O1         14.9160   30.1800   12.6550 O.3       1 B2V        -0.4967
     25 O2         13.8070   30.1390   15.0140 O.3       1 B2V        -0.4967
     26 H1         14.8190   42.6512   18.2000 H         1 ALA         0.2015
     27 H2         13.9488   42.1459   19.5026 H         1 ALA         0.2015
     28 H3         13.2184   42.3039   18.0360 H         1 ALA         0.2015
     29 H4         14.6792   40.5921   17.1260 H         1 ALA         0.1095
     30 H5         15.9220   39.3057   18.9786 H         1 ALA         0.0310
     31 H6         15.2656   40.4676   20.1808 H         1 ALA         0.0310
     32 H7         16.4202   41.0306   18.9252 H         1 ALA         0.0310
     33 H8         14.1049   38.6105   16.8406 H         1 ALA         0.1884
     34 H9         12.3817   37.1673   18.8571 H         1 ALA         0.0797
     35 H10        11.0048   36.2817   16.9806 H         1 ALA         0.0277
     36 H11        11.9625   37.2395   15.8008 H         1 ALA         0.0277
     37 H12        10.9063   38.0753   16.9893 H         1 ALA         0.0277
     38 H13        15.2392   33.9369   17.7134 H         1 PRO         0.0802
     39 H14        14.5787   32.2976   19.1621 H         1 PRO         0.0313
     40 H15        13.0718   31.9885   18.2346 H         1 PRO         0.0313
     41 H16        13.5813   33.8824   20.5073 H         1 PRO         0.0287
     42 H17        12.1429   32.8687   20.1465 H         1 PRO         0.0287
     43 H18        11.3753   34.3669   18.4176 H         1 PRO         0.0524
     44 H19        12.0856   35.5297   19.5882 H         1 PRO         0.0524
     45 H20        15.7772   32.7035   15.9245 H         1 B2V         0.1840
     46 H21        13.6116   32.5889   13.8789 H         1 B2V         0.0434
     47 H22        15.3945   32.5338   12.0838 H         1 B2V         0.0305
     48 H23        15.6004   35.0007   11.9959 H         1 B2V         0.0233
     49 H24        15.0227   35.1017   13.6938 H         1 B2V         0.0233
     50 H25        13.9337   34.4744   12.4103 H         1 B2V         0.0233
     51 H26        17.3861   32.2223   13.5506 H         1 B2V         0.0233
     52 H27        17.0977   33.8513   14.2502 H         1 B2V         0.0233
     53 H28        17.5048   33.6809   12.5090 H         1 B2V         0.0233
     54 H29        15.2749   29.3044   12.7385 H         1 B2V         0.1667
     55 H30        13.8114   30.6616   15.8073 H         1 B2V         0.1667
@<TRIPOS>BOND
     1    1    2 1  
     2    2    3 1  
     3    2    5 1  
     4    3    4 2  
     5    3    6 am 
     6    6    7 1  
     7    7    8 1  
     8    7   10 1  
     9    8    9 2  
    10    8   11 am 
    11   11   12 1  
    12   11   17 1  
    13   12   13 1  
    14   12   15 1  
    15   13   14 2  
    16   13   18 am 
    17   15   16 1  
    18   16   17 1  
    19   18   19 1  
    20   19   20 1  
    21   19   23 1  
    22   20   21 1  
    23   20   22 1  
    24   23   24 1  
    25   23   25 1  
    26    1   26 1  
    27    1   27 1  
    28    1   28 1  
    29    2   29 1  
    30    5   30 1  
    31    5   31 1  
    32    5   32 1  
    33    6   33 1  
    34    7   34 1  
    35   10   35 1  
    36   10   36 1  
    37   10   37 1  
    38   12   38 1  
    39   15   39 1  
    40   15   40 1  
    41   16   41 1  
    42   16   42 1  
    43   17   43 1  
    44   17   44 1  
    45   18   45 1  
    46   19   46 1  
    47   20   47 1  
    48   21   48 1  
    49   21   49 1  
    50   21   50 1  
    51   22   51 1  
    52   22   52 1  
    53   22   53 1  
    54   24   54 1  
    55   25   55 1  
@<TRIPOS>SUBSTRUCTURE
     1 ALA         1

