1p10_ligand
  -I-interpret- 

 55 55  0  0  0  0  0  0  0  0999 V2000
   14.0720   42.0480   18.5070 N   0  3  0  0  0
   14.4070   40.6540   18.1900 C   0  0  0  0  0
   13.4700   39.5060   18.5330 C   0  0  0  0  0
   12.7930   39.5190   19.5990 O   0  0  0  0  0
   15.5890   40.3420   19.1370 C   0  0  0  0  0
   13.5200   38.5140   17.6460 N   0  0  0  0  0
   12.7330   37.2720   17.8200 C   0  0  0  0  0
   13.6610   36.1210   17.3940 C   0  0  0  0  0
   14.5040   36.3760   16.5290 O   0  0  0  0  0
   11.5700   37.2130   16.8280 C   0  0  0  0  0
   13.3940   34.9750   17.9670 N   0  0  0  0  0
   14.1580   33.7570   17.6200 C   0  0  0  0  0
   13.8660   33.3220   16.1770 C   0  0  0  0  0
   12.6900   33.4870   15.7140 O   0  0  0  0  0
   13.7020   32.7660   18.6910 C   0  0  0  0  0
   12.9230   33.5090   19.7090 C   0  0  0  0  0
   12.2980   34.6720   18.9330 C   0  0  0  0  0
   14.8760   32.7910   15.5000 N   0  0  0  0  0
   14.6560   32.3270   14.1040 C   0  0  0  0  0
   15.4860   33.1040   13.0200 C   0  0  0  0  0
   14.9750   34.5190   12.7620 C   0  0  0  0  0
   16.9730   33.2230   13.3560 C   0  0  0  0  0
   14.7020   30.7590   14.0120 B   0  0  0  0  0
   14.9160   30.1800   12.6550 O   0  0  0  0  0
   13.8070   30.1390   15.0140 O   0  0  0  0  0
   13.2911   42.3497   17.9242 H   0  0  0  0  0
   13.8109   42.1185   19.4905 H   0  0  0  0  0
   14.8820   42.6408   18.3257 H   0  0  0  0  0
   14.4893   40.6614   17.1031 H   0  0  0  0  0
   15.2387   40.3530   20.1691 H   0  0  0  0  0
   15.9931   39.3579   18.8996 H   0  0  0  0  0
   16.3655   41.0959   19.0075 H   0  0  0  0  0
   14.1166   38.6124   16.8245 H   0  0  0  0  0
   12.3651   37.2207   18.8448 H   0  0  0  0  0
   11.9503   37.3500   15.8157 H   0  0  0  0  0
   11.0777   36.2435   16.9045 H   0  0  0  0  0
   10.8562   38.0036   17.0595 H   0  0  0  0  0
   15.2417   33.8736   17.6252 H   0  0  0  0  0
   14.5669   32.2914   19.1544 H   0  0  0  0  0
   13.0851   31.9874   18.2423 H   0  0  0  0  0
   13.5481   33.8542   20.5325 H   0  0  0  0  0
   12.1696   32.8827   20.1867 H   0  0  0  0  0
   11.3438   34.4327   18.4635 H   0  0  0  0  0
   12.0066   35.5177   19.5559 H   0  0  0  0  0
   15.7952   32.7018   15.9330 H   0  0  0  0  0
   13.6378   32.6031   13.8299 H   0  0  0  0  0
   15.3545   32.4902   12.1289 H   0  0  0  0  0
   13.9432   34.4734   12.4136 H   0  0  0  0  0
   15.0227   35.0953   13.6860 H   0  0  0  0  0
   15.5955   34.9952   12.0028 H   0  0  0  0  0
   17.0894   33.7561   14.2996 H   0  0  0  0  0
   17.4051   32.2262   13.4446 H   0  0  0  0  0
   17.4808   33.7712   12.5624 H   0  0  0  0  0
   14.9268   29.2219   12.7152 H   0  0  0  0  0
   13.8544   29.1834   14.9359 H   0  0  0  0  0
  1  2  1  0  0  0
  2  3  1  0  0  0
  2  5  1  0  0  0
  3  4  2  0  0  0
  3  6  1  0  0  0
  6  7  1  0  0  0
  7  8  1  0  0  0
  7 10  1  0  0  0
  8  9  2  0  0  0
  8 11  1  0  0  0
 11 12  1  0  0  0
 11 17  1  0  0  0
 12 13  1  0  0  0
 12 15  1  0  0  0
 13 14  2  0  0  0
 13 18  1  0  0  0
 15 16  1  0  0  0
 16 17  1  0  0  0
 18 19  1  0  0  0
 19 20  1  0  0  0
 19 23  1  0  0  0
 20 21  1  0  0  0
 20 22  1  0  0  0
 23 24  1  0  0  0
 23 25  1  0  0  0
  1 26  1  0  0  0
  1 27  1  0  0  0
  1 28  1  0  0  0
  2 29  1  0  0  0
  5 30  1  0  0  0
  5 31  1  0  0  0
  5 32  1  0  0  0
  6 33  1  0  0  0
  7 34  1  0  0  0
 10 35  1  0  0  0
 10 36  1  0  0  0
 10 37  1  0  0  0
 12 38  1  0  0  0
 15 39  1  0  0  0
 15 40  1  0  0  0
 16 41  1  0  0  0
 16 42  1  0  0  0
 17 43  1  0  0  0
 17 44  1  0  0  0
 18 45  1  0  0  0
 19 46  1  0  0  0
 20 47  1  0  0  0
 21 48  1  0  0  0
 21 49  1  0  0  0
 21 50  1  0  0  0
 22 51  1  0  0  0
 22 52  1  0  0  0
 22 53  1  0  0  0
 24 54  1  0  0  0
 25 55  1  0  0  0
M  END
$$$$
