1cka_ligand
  -I-interpret- 

147151  0  0  0  0  0  0  0  0999 V2000
  123.4010  141.3890   19.5450 N   0  3  0  0  0
  122.8660  140.8050   18.3160 C   0  0  0  0  0
  122.1830  139.4680   18.5490 C   0  0  0  0  0
  122.4260  138.8000   19.5520 O   0  0  0  0  0
  124.1130  140.6710   17.4470 C   0  0  0  0  0
  124.8310  141.9610   17.7610 C   0  0  0  0  0
  124.6710  142.1000   19.2800 C   0  0  0  0  0
  121.2660  139.0940   17.6450 N   0  0  0  0  0
  120.4870  137.8550   17.6690 C   0  0  0  0  0
  121.3150  136.5970   17.5210 C   0  0  0  0  0
  122.5050  136.6470   17.2210 O   0  0  0  0  0
  119.5650  138.0210   16.4560 C   0  0  0  0  0
  119.3730  139.4830   16.3690 C   0  0  0  0  0
  120.7780  139.9810   16.5750 C   0  0  0  0  0
  120.6910  135.4380   17.7230 N   0  0  0  0  0
  121.3980  134.1690   17.5880 C   0  0  0  0  0
  121.5500  133.8670   16.1040 C   0  0  0  0  0
  121.0330  134.5990   15.2510 O   0  0  0  0  0
  120.4380  133.1880   18.2410 C   0  0  0  0  0
  119.1280  133.7400   17.8360 C   0  0  0  0  0
  119.2930  135.2050   18.1180 C   0  0  0  0  0
  122.2670  132.7940   15.7980 N   0  0  0  0  0
  122.4840  132.3980   14.4080 C   0  0  0  0  0
  121.1430  132.0660   13.7410 C   0  0  0  0  0
  120.2670  131.4580   14.3660 O   0  0  0  0  0
  123.4180  131.1750   14.3550 C   0  0  0  0  0
  120.9890  132.4830   12.4880 N   0  0  0  0  0
  119.7730  132.1890   11.7120 C   0  0  0  0  0
  119.9450  130.7630   11.1930 C   0  0  0  0  0
  120.9350  130.4500   10.5380 O   0  0  0  0  0
  119.6700  133.1390   10.5270 C   0  0  0  0  0
  118.3080  133.4950    9.9700 C   0  0  0  0  0
  117.3770  134.0170   11.0960 C   0  0  0  0  0
  118.5280  134.5710    8.9120 C   0  0  0  0  0
  118.9930  129.8720   11.4930 N   0  0  0  0  0
  119.1470  128.4930   11.0060 C   0  0  0  0  0
  118.9980  128.3800    9.4870 C   0  0  0  0  0
  118.3630  129.2250    8.8570 O   0  0  0  0  0
  118.0230  127.7460   11.7290 C   0  0  0  0  0
  116.9380  128.8350   11.8580 C   0  0  0  0  0
  117.7200  130.0660   12.2120 C   0  0  0  0  0
  119.6410  127.3720    8.8710 N   0  0  0  0  0
  119.4890  127.2530    7.4150 C   0  0  0  0  0
  118.0620  126.8050    7.1200 C   0  0  0  0  0
  117.4280  126.1900    7.9740 O   0  0  0  0  0
  120.4730  126.1240    7.0580 C   0  0  0  0  0
  120.5300  125.2970    8.2900 C   0  0  0  0  0
  120.5710  126.3490    9.3840 C   0  0  0  0  0
  117.5420  127.1520    5.9500 N   0  0  0  0  0
  116.2140  126.6790    5.5720 C   0  0  0  0  0
  116.4210  125.3750    4.7960 C   0  0  0  0  0
  117.4240  125.2040    4.0890 O   0  0  0  0  0
  115.4850  127.7040    4.7090 C   0  0  0  0  0
  114.9600  128.8900    5.4990 C   0  0  0  0  0
  114.1880  129.8270    4.6140 C   0  0  0  0  0
  113.4870  130.8830    5.4200 C   0  0  0  0  0
  112.8910  131.9130    4.5340 N   0  3  0  0  0
  115.5080  124.4340    4.9770 N   0  0  0  0  0
  115.6100  123.1650    4.2790 C   0  0  0  0  0
  114.7350  123.2050    3.0280 C   0  0  0  0  0
  115.1790  122.0370    5.2050 C   0  0  0  0  0
  115.9040  122.0600    6.5450 C   0  0  0  0  0
  115.6260  120.7920    7.3260 C   0  0  0  0  0
  116.5190  120.6770    8.5530 C   0  0  0  0  0
  116.3350  119.3590    9.2390 N   0  3  0  0  0
  123.5770  140.6404   20.2151 H   0  0  0  0  0
  122.7226  142.0548   19.9150 H   0  0  0  0  0
  122.0824  141.4121   17.8627 H   0  0  0  0  0
  123.8967  140.5362   16.3872 H   0  0  0  0  0
  124.7017  139.7785   17.6592 H   0  0  0  0  0
  124.4184  142.8114   17.2181 H   0  0  0  0  0
  125.8759  141.9434   17.4511 H   0  0  0  0  0
  125.5125  141.6841   19.8340 H   0  0  0  0  0
  124.6515  143.1386   19.6103 H   0  0  0  0  0
  119.9821  137.7245   18.6261 H   0  0  0  0  0
  118.6246  137.4813   16.5680 H   0  0  0  0  0
  119.9913  137.5999   15.5455 H   0  0  0  0  0
  118.6599  139.8741   17.0947 H   0  0  0  0  0
  118.9267  139.8100   15.4299 H   0  0  0  0  0
  121.3861  139.9409   15.6713 H   0  0  0  0  0
  120.8265  141.0381   16.8361 H   0  0  0  0  0
  122.3934  134.1435   18.0315 H   0  0  0  0  0
  120.5627  133.1103   19.3211 H   0  0  0  0  0
  120.5909  132.1552   17.9279 H   0  0  0  0  0
  118.2913  133.2929   18.3728 H   0  0  0  0  0
  118.8789  133.5303   16.7958 H   0  0  0  0  0
  118.5823  135.8309   17.5783 H   0  0  0  0  0
  119.0879  135.4704   19.1551 H   0  0  0  0  0
  122.6748  132.2345   16.5471 H   0  0  0  0  0
  122.9486  133.2242   13.8698 H   0  0  0  0  0
  124.3743  131.4297   14.8117 H   0  0  0  0  0
  122.9627  130.3478   14.8996 H   0  0  0  0  0
  123.5758  130.8847   13.3163 H   0  0  0  0  0
  121.7360  133.0230   12.0511 H   0  0  0  0  0
  118.8760  132.3022   12.3208 H   0  0  0  0  0
  120.1739  132.6191    9.7122 H   0  0  0  0  0
  120.0730  134.0828   10.8944 H   0  0  0  0  0
  117.8261  132.6190    9.5359 H   0  0  0  0  0
  117.2577  133.2436   11.8548 H   0  0  0  0  0
  117.8179  134.9058   11.5474 H   0  0  0  0  0
  116.4036  134.2670   10.6741 H   0  0  0  0  0
  118.9965  135.4409    9.3723 H   0  0  0  0  0
  119.1760  134.1802    8.1275 H   0  0  0  0  0
  117.5682  134.8582    8.4827 H   0  0  0  0  0
  120.1412  128.0937   11.2068 H   0  0  0  0  0
  118.3310  127.3303   12.6884 H   0  0  0  0  0
  117.6815  126.8604   11.1932 H   0  0  0  0  0
  116.1846  128.5884   12.6061 H   0  0  0  0  0
  116.3568  128.9570   10.9440 H   0  0  0  0  0
  117.2102  130.9859   11.9255 H   0  0  0  0  0
  117.8569  130.1836   13.2870 H   0  0  0  0  0
  119.6774  128.1744    6.8639 H   0  0  0  0  0
  121.4527  126.5047    6.7694 H   0  0  0  0  0
  120.1481  125.5510    6.1895 H   0  0  0  0  0
  121.3843  124.6204    8.3133 H   0  0  0  0  0
  119.6881  124.6113    8.3856 H   0  0  0  0  0
  120.2857  125.9619   10.3622 H   0  0  0  0  0
  121.5731  126.7352    9.5704 H   0  0  0  0  0
  118.0704  127.7496    5.3143 H   0  0  0  0  0
  115.5971  126.5218    6.4568 H   0  0  0  0  0
  114.6283  127.2042    4.2569 H   0  0  0  0  0
  116.1976  128.0850    3.9774 H   0  0  0  0  0
  115.8064  129.4288    5.9249 H   0  0  0  0  0
  114.2969  128.5226    6.2822 H   0  0  0  0  0
  113.4397  129.2523    4.0683 H   0  0  0  0  0
  114.8849  130.3152    3.9328 H   0  0  0  0  0
  114.2121  131.3622    6.0778 H   0  0  0  0  0
  112.6911  130.4134    5.9980 H   0  0  0  0  0
  112.4214  132.6180    5.1022 H   0  0  0  0  0
  113.6279  132.3538    3.9835 H   0  0  0  0  0
  112.2154  131.4728    3.9094 H   0  0  0  0  0
  114.7271  124.6015    5.6114 H   0  0  0  0  0
  116.6425  122.9878    3.9780 H   0  0  0  0  0
  113.6987  123.3811    3.3165 H   0  0  0  0  0
  115.0735  124.0095    2.3750 H   0  0  0  0  0
  114.8105  122.2529    2.5028 H   0  0  0  0  0
  115.4173  121.0936    4.7137 H   0  0  0  0  0
  114.1134  122.1560    5.4010 H   0  0  0  0  0
  115.5503  122.9142    7.1224 H   0  0  0  0  0
  116.9763  122.1346    6.3642 H   0  0  0  0  0
  115.8242  119.9392    6.6767 H   0  0  0  0  0
  114.5882  120.8148    7.6584 H   0  0  0  0  0
  116.2534  121.4711    9.2508 H   0  0  0  0  0
  117.5581  120.7601    8.2346 H   0  0  0  0  0
  116.9456  119.3135   10.0548 H   0  0  0  0  0
  115.3634  119.2635    9.5343 H   0  0  0  0  0
  116.5711  118.6053    8.5936 H   0  0  0  0  0
  1  2  1  0  0  0
  1  7  1  0  0  0
  2  3  1  0  0  0
  2  5  1  0  0  0
  3  4  2  0  0  0
  3  8  1  0  0  0
  5  6  1  0  0  0
  6  7  1  0  0  0
  8  9  1  0  0  0
  8 14  1  0  0  0
  9 10  1  0  0  0
  9 12  1  0  0  0
 10 11  2  0  0  0
 10 15  1  0  0  0
 12 13  1  0  0  0
 13 14  1  0  0  0
 15 16  1  0  0  0
 15 21  1  0  0  0
 16 17  1  0  0  0
 16 19  1  0  0  0
 17 18  2  0  0  0
 17 22  1  0  0  0
 19 20  1  0  0  0
 20 21  1  0  0  0
 22 23  1  0  0  0
 23 24  1  0  0  0
 23 26  1  0  0  0
 24 25  2  0  0  0
 24 27  1  0  0  0
 27 28  1  0  0  0
 28 29  1  0  0  0
 28 31  1  0  0  0
 29 30  2  0  0  0
 29 35  1  0  0  0
 31 32  1  0  0  0
 32 33  1  0  0  0
 32 34  1  0  0  0
 35 36  1  0  0  0
 35 41  1  0  0  0
 36 37  1  0  0  0
 36 39  1  0  0  0
 37 38  2  0  0  0
 37 42  1  0  0  0
 39 40  1  0  0  0
 40 41  1  0  0  0
 42 43  1  0  0  0
 42 48  1  0  0  0
 43 44  1  0  0  0
 43 46  1  0  0  0
 44 45  2  0  0  0
 44 49  1  0  0  0
 46 47  1  0  0  0
 47 48  1  0  0  0
 49 50  1  0  0  0
 50 51  1  0  0  0
 50 53  1  0  0  0
 51 52  2  0  0  0
 51 58  1  0  0  0
 53 54  1  0  0  0
 54 55  1  0  0  0
 55 56  1  0  0  0
 56 57  1  0  0  0
 58 59  1  0  0  0
 59 60  1  0  0  0
 59 61  1  0  0  0
 61 62  1  0  0  0
 62 63  1  0  0  0
 63 64  1  0  0  0
 64 65  1  0  0  0
  1 66  1  0  0  0
  1 67  1  0  0  0
  2 68  1  0  0  0
  5 69  1  0  0  0
  5 70  1  0  0  0
  6 71  1  0  0  0
  6 72  1  0  0  0
  7 73  1  0  0  0
  7 74  1  0  0  0
  9 75  1  0  0  0
 12 76  1  0  0  0
 12 77  1  0  0  0
 13 78  1  0  0  0
 13 79  1  0  0  0
 14 80  1  0  0  0
 14 81  1  0  0  0
 16 82  1  0  0  0
 19 83  1  0  0  0
 19 84  1  0  0  0
 20 85  1  0  0  0
 20 86  1  0  0  0
 21 87  1  0  0  0
 21 88  1  0  0  0
 22 89  1  0  0  0
 23 90  1  0  0  0
 26 91  1  0  0  0
 26 92  1  0  0  0
 26 93  1  0  0  0
 27 94  1  0  0  0
 28 95  1  0  0  0
 31 96  1  0  0  0
 31 97  1  0  0  0
 32 98  1  0  0  0
 33 99  1  0  0  0
 33100  1  0  0  0
 33101  1  0  0  0
 34102  1  0  0  0
 34103  1  0  0  0
 34104  1  0  0  0
 36105  1  0  0  0
 39106  1  0  0  0
 39107  1  0  0  0
 40108  1  0  0  0
 40109  1  0  0  0
 41110  1  0  0  0
 41111  1  0  0  0
 43112  1  0  0  0
 46113  1  0  0  0
 46114  1  0  0  0
 47115  1  0  0  0
 47116  1  0  0  0
 48117  1  0  0  0
 48118  1  0  0  0
 49119  1  0  0  0
 50120  1  0  0  0
 53121  1  0  0  0
 53122  1  0  0  0
 54123  1  0  0  0
 54124  1  0  0  0
 55125  1  0  0  0
 55126  1  0  0  0
 56127  1  0  0  0
 56128  1  0  0  0
 57129  1  0  0  0
 57130  1  0  0  0
 57131  1  0  0  0
 58132  1  0  0  0
 59133  1  0  0  0
 60134  1  0  0  0
 60135  1  0  0  0
 60136  1  0  0  0
 61137  1  0  0  0
 61138  1  0  0  0
 62139  1  0  0  0
 62140  1  0  0  0
 63141  1  0  0  0
 63142  1  0  0  0
 64143  1  0  0  0
 64144  1  0  0  0
 65145  1  0  0  0
 65146  1  0  0  0
 65147  1  0  0  0
M  END
$$$$
